MODEL 1
REMARK minimizedAffinity -3.81406617
REMARK minimizedRMSD -1
REMARK  1 active torsions:
REMARK  status: ('A' for Active; 'I' for Inactive)
REMARK    1  A    between atoms: C1_2  and  C2_3 
ROOT
ATOM      1  C2  UNL d   1       0.158  -0.244   0.149  0.00  0.00    -0.076 A 
ATOM      2  C3  UNL d   1       1.070   0.821   0.043  0.00  0.00     0.004 A 
ATOM      3  C4  UNL d   1       2.232   0.696  -0.715  0.00  0.00    -0.003 A 
ATOM      4  C5  UNL d   1       2.502  -0.494  -1.381  0.00  0.00     0.000 A 
ATOM      5  C6  UNL d   1       1.600  -1.555  -1.301  0.00  0.00     0.000 A 
ATOM      6  C7  UNL d   1       0.415  -1.440  -0.554  0.00  0.00    -0.073 A 
ATOM      7  C8  UNL d   1      -0.519  -2.618  -0.498  0.00  0.00     0.078 C 
ENDROOT
BRANCH   1   8
ATOM      8  C1  UNL d   1      -1.073  -0.061   1.008  0.00  0.00     0.053 C 
ATOM      9  C   UNL d   1      -0.779   0.697   2.294  0.00  0.00     0.018 C 
ENDBRANCH   1   8
TORSDOF 1
ENDMDL
