MODEL 1
REMARK minimizedAffinity -3.81353593
REMARK minimizedRMSD -1
REMARK  1 active torsions:
REMARK  status: ('A' for Active; 'I' for Inactive)
REMARK    1  A    between atoms: C1_2  and  C2_3 
ROOT
ATOM      1  C2  UNL d   1       1.213   0.297  -0.416  0.00  0.00    -0.076 A 
ATOM      2  C3  UNL d   1       0.793   1.331  -1.271  0.00  0.00     0.004 A 
ATOM      3  C4  UNL d   1      -0.415   1.993  -1.057  0.00  0.00    -0.003 A 
ATOM      4  C5  UNL d   1      -1.223   1.632   0.016  0.00  0.00     0.000 A 
ATOM      5  C6  UNL d   1      -0.814   0.621   0.884  0.00  0.00     0.000 A 
ATOM      6  C7  UNL d   1       0.409  -0.046   0.692  0.00  0.00    -0.073 A 
ATOM      7  C8  UNL d   1       0.797  -1.133   1.656  0.00  0.00     0.078 C 
ENDROOT
BRANCH   1   8
ATOM      8  C1  UNL d   1       2.519  -0.403  -0.713  0.00  0.00     0.053 C 
ATOM      9  C   UNL d   1       2.370  -1.494  -1.763  0.00  0.00     0.018 C 
ENDBRANCH   1   8
TORSDOF 1
ENDMDL
