MODEL 1
REMARK minimizedAffinity -5.14833641
REMARK minimizedRMSD -1
REMARK  1 active torsions:
REMARK  status: ('A' for Active; 'I' for Inactive)
REMARK    1  A    between atoms: C1_2  and  C2_3 
ROOT
ATOM      1  C2  UNL d   1       0.039   0.079  -0.025  0.00  0.00    -0.076 A 
ATOM      2  C3  UNL d   1       0.969   1.128  -0.125  0.00  0.00     0.004 A 
ATOM      3  C4  UNL d   1       2.269   0.895  -0.572  0.00  0.00    -0.003 A 
ATOM      4  C5  UNL d   1       2.659  -0.391  -0.929  0.00  0.00     0.000 A 
ATOM      5  C6  UNL d   1       1.744  -1.441  -0.854  0.00  0.00     0.000 A 
ATOM      6  C7  UNL d   1       0.425  -1.220  -0.420  0.00  0.00    -0.073 A 
ATOM      7  C8  UNL d   1      -0.518  -2.390  -0.352  0.00  0.00     0.078 C 
ENDROOT
BRANCH   1   8
ATOM      8  C1  UNL d   1      -1.347   0.387   0.493  0.00  0.00     0.053 C 
ATOM      9  C   UNL d   1      -1.345   1.478   1.552  0.00  0.00     0.018 C 
ENDBRANCH   1   8
TORSDOF 1
ENDMDL
