MODEL 1
REMARK minimizedAffinity 12.9479027
REMARK minimizedRMSD -1
REMARK  0 active torsions:
REMARK  status: ('A' for Active; 'I' for Inactive)
ROOT
ATOM      1  C1  DEN d   1      -1.854   0.387   0.156  0.00  0.00     0.130 A 
ATOM      2  C2  DEN d   1      -2.545  -0.887  -0.024  0.00  0.00    -0.031 A 
ATOM      3  C3  DEN d   1      -3.017  -1.342   1.299  0.00  0.00     0.027 A 
ATOM      4  C4  DEN d   1      -2.751  -0.202   3.597  0.00  0.00     0.027 A 
ATOM      5  C5  DEN d   1      -2.228   0.889   4.255  0.00  0.00    -0.003 A 
ATOM      6  C6  DEN d   1      -1.521   1.864   3.603  0.00  0.00     0.001 A 
ATOM      7  C7  DEN d   1      -1.355   1.790   2.245  0.00  0.00     0.017 A 
ATOM      8  C8  DEN d   1      -1.873   0.689   1.576  0.00  0.00    -0.094 A 
ATOM      9  C9  DEN d   1      -2.596  -0.280   2.251  0.00  0.00    -0.072 A 
ENDROOT
TORSDOF 0
ENDMDL
