MODEL 1
REMARK minimizedAffinity 2.6958065
REMARK minimizedRMSD -1
REMARK  0 active torsions:
REMARK  status: ('A' for Active; 'I' for Inactive)
ROOT
ATOM      1  C1  DEN d   1      -6.000   0.362   3.316  0.00  0.00     0.130 A 
ATOM      2  C2  DEN d   1      -5.978  -0.309   4.613  0.00  0.00    -0.031 A 
ATOM      3  C3  DEN d   1      -4.573  -0.399   5.057  0.00  0.00     0.027 A 
ATOM      4  C4  DEN d   1      -2.440   0.436   3.871  0.00  0.00     0.027 A 
ATOM      5  C5  DEN d   1      -1.953   1.058   2.742  0.00  0.00    -0.003 A 
ATOM      6  C6  DEN d   1      -2.771   1.458   1.719  0.00  0.00     0.001 A 
ATOM      7  C7  DEN d   1      -4.126   1.280   1.823  0.00  0.00     0.017 A 
ATOM      8  C8  DEN d   1      -4.623   0.647   2.955  0.00  0.00    -0.094 A 
ATOM      9  C9  DEN d   1      -3.781   0.262   3.984  0.00  0.00    -0.072 A 
ENDROOT
TORSDOF 0
ENDMDL
