MODEL 1
REMARK minimizedAffinity 13.0325956
REMARK minimizedRMSD -1
REMARK  0 active torsions:
REMARK  status: ('A' for Active; 'I' for Inactive)
ROOT
ATOM      1  C1  DEN d   1      -3.040   1.201   1.956  0.00  0.00     0.130 A 
ATOM      2  C2  DEN d   1      -1.881   0.846   2.771  0.00  0.00    -0.031 A 
ATOM      3  C3  DEN d   1      -1.412   2.067   3.455  0.00  0.00     0.027 A 
ATOM      4  C4  DEN d   1      -2.365   4.461   3.337  0.00  0.00     0.027 A 
ATOM      5  C5  DEN d   1      -3.336   5.256   2.770  0.00  0.00    -0.003 A 
ATOM      6  C6  DEN d   1      -4.248   4.766   1.872  0.00  0.00     0.001 A 
ATOM      7  C7  DEN d   1      -4.236   3.435   1.550  0.00  0.00     0.017 A 
ATOM      8  C8  DEN d   1      -3.255   2.629   2.113  0.00  0.00    -0.094 A 
ATOM      9  C9  DEN d   1      -2.350   3.140   3.028  0.00  0.00    -0.072 A 
ENDROOT
TORSDOF 0
ENDMDL
