MODEL 1
REMARK minimizedAffinity 8.54481983
REMARK minimizedRMSD -1
REMARK  0 active torsions:
REMARK  status: ('A' for Active; 'I' for Inactive)
ROOT
ATOM      1  C1  DEN d   1       2.970   2.772  -2.905  0.00  0.00     0.130 A 
ATOM      2  C2  DEN d   1       2.089   3.929  -3.036  0.00  0.00    -0.031 A 
ATOM      3  C3  DEN d   1       0.705   3.480  -2.778  0.00  0.00     0.027 A 
ATOM      4  C4  DEN d   1      -0.152   1.121  -2.186  0.00  0.00     0.027 A 
ATOM      5  C5  DEN d   1       0.221  -0.188  -1.974  0.00  0.00    -0.003 A 
ATOM      6  C6  DEN d   1       1.520  -0.606  -2.089  0.00  0.00     0.001 A 
ATOM      7  C7  DEN d   1       2.502   0.304  -2.382  0.00  0.00     0.017 A 
ATOM      8  C8  DEN d   1       2.133   1.624  -2.605  0.00  0.00    -0.094 A 
ATOM      9  C9  DEN d   1       0.816   2.029  -2.471  0.00  0.00    -0.072 A 
ENDROOT
TORSDOF 0
ENDMDL
