MODEL 1
REMARK minimizedAffinity 8.66652584
REMARK minimizedRMSD -1
REMARK  0 active torsions:
REMARK  status: ('A' for Active; 'I' for Inactive)
ROOT
ATOM      1  C1  DEN d   1      -1.472   2.202   3.197  0.00  0.00     0.130 A 
ATOM      2  C2  DEN d   1      -1.873   0.866   2.764  0.00  0.00    -0.031 A 
ATOM      3  C3  DEN d   1      -3.116   0.996   1.977  0.00  0.00     0.027 A 
ATOM      4  C4  DEN d   1      -4.447   3.124   1.386  0.00  0.00     0.027 A 
ATOM      5  C5  DEN d   1      -4.504   4.491   1.539  0.00  0.00    -0.003 A 
ATOM      6  C6  DEN d   1      -3.581   5.182   2.279  0.00  0.00     0.001 A 
ATOM      7  C7  DEN d   1      -2.534   4.512   2.855  0.00  0.00     0.017 A 
ATOM      8  C8  DEN d   1      -2.474   3.132   2.711  0.00  0.00    -0.094 A 
ATOM      9  C9  DEN d   1      -3.411   2.454   1.949  0.00  0.00    -0.072 A 
ENDROOT
TORSDOF 0
ENDMDL
