MODEL 1
REMARK minimizedAffinity 10.5234518
REMARK minimizedRMSD -1
REMARK  0 active torsions:
REMARK  status: ('A' for Active; 'I' for Inactive)
ROOT
ATOM      1  C1  DEN d   1      -0.812   1.489   2.146  0.00  0.00     0.130 A 
ATOM      2  C2  DEN d   1      -1.540   1.317   3.401  0.00  0.00    -0.031 A 
ATOM      3  C3  DEN d   1      -2.564   0.274   3.196  0.00  0.00     0.027 A 
ATOM      4  C4  DEN d   1      -3.088  -1.090   1.071  0.00  0.00     0.027 A 
ATOM      5  C5  DEN d   1      -2.745  -1.290  -0.248  0.00  0.00    -0.003 A 
ATOM      6  C6  DEN d   1      -1.765  -0.560  -0.866  0.00  0.00     0.001 A 
ATOM      7  C7  DEN d   1      -1.062   0.374  -0.152  0.00  0.00     0.017 A 
ATOM      8  C8  DEN d   1      -1.407   0.586   1.177  0.00  0.00    -0.094 A 
ATOM      9  C9  DEN d   1      -2.393  -0.171   1.787  0.00  0.00    -0.072 A 
ENDROOT
TORSDOF 0
ENDMDL
