MODEL 1
REMARK minimizedAffinity 0.633274317
REMARK minimizedRMSD -1
REMARK  0 active torsions:
REMARK  status: ('A' for Active; 'I' for Inactive)
ROOT
ATOM      1  C1  DEN d   1       3.951   5.935   1.958  0.00  0.00     0.130 A 
ATOM      2  C2  DEN d   1       4.980   5.331   1.117  0.00  0.00    -0.031 A 
ATOM      3  C3  DEN d   1       5.943   4.641   1.998  0.00  0.00     0.027 A 
ATOM      4  C4  DEN d   1       5.937   4.445   4.570  0.00  0.00     0.027 A 
ATOM      5  C5  DEN d   1       5.271   4.802   5.721  0.00  0.00    -0.003 A 
ATOM      6  C6  DEN d   1       4.147   5.585   5.701  0.00  0.00     0.001 A 
ATOM      7  C7  DEN d   1       3.628   5.998   4.503  0.00  0.00     0.017 A 
ATOM      8  C8  DEN d   1       4.298   5.647   3.338  0.00  0.00    -0.094 A 
ATOM      9  C9  DEN d   1       5.426   4.846   3.378  0.00  0.00    -0.072 A 
ENDROOT
TORSDOF 0
ENDMDL
