MODEL 1
REMARK minimizedAffinity -0.186518684
REMARK minimizedRMSD -1
REMARK  0 active torsions:
REMARK  status: ('A' for Active; 'I' for Inactive)
ROOT
ATOM      1  C1  DEN d   1       4.550   5.998   4.647  0.00  0.00     0.130 A 
ATOM      2  C2  DEN d   1       5.299   5.128   5.549  0.00  0.00    -0.031 A 
ATOM      3  C3  DEN d   1       5.999   4.117   4.732  0.00  0.00     0.027 A 
ATOM      4  C4  DEN d   1       6.000   3.820   2.170  0.00  0.00     0.027 A 
ATOM      5  C5  DEN d   1       5.502   4.310   0.982  0.00  0.00    -0.003 A 
ATOM      6  C6  DEN d   1       4.633   5.367   0.936  0.00  0.00     0.001 A 
ATOM      7  C7  DEN d   1       4.269   5.998   2.097  0.00  0.00     0.017 A 
ATOM      8  C8  DEN d   1       4.761   5.505   3.298  0.00  0.00    -0.094 A 
ATOM      9  C9  DEN d   1       5.649   4.443   3.323  0.00  0.00    -0.072 A 
ENDROOT
TORSDOF 0
ENDMDL
