MODEL 1
REMARK minimizedAffinity 12.4913664
REMARK minimizedRMSD -1
REMARK  0 active torsions:
REMARK  status: ('A' for Active; 'I' for Inactive)
ROOT
ATOM      1  C1  DEN d   1      -1.040   0.717  -0.827  0.00  0.00     0.130 A 
ATOM      2  C2  DEN d   1      -1.219   1.830  -1.756  0.00  0.00    -0.031 A 
ATOM      3  C3  DEN d   1      -1.888   2.928  -1.030  0.00  0.00     0.027 A 
ATOM      4  C4  DEN d   1      -2.656   3.016   1.430  0.00  0.00     0.027 A 
ATOM      5  C5  DEN d   1      -2.730   2.307   2.609  0.00  0.00    -0.003 A 
ATOM      6  C6  DEN d   1      -2.281   1.018   2.715  0.00  0.00     0.001 A 
ATOM      7  C7  DEN d   1      -1.696   0.412   1.635  0.00  0.00     0.017 A 
ATOM      8  C8  DEN d   1      -1.624   1.117   0.441  0.00  0.00    -0.094 A 
ATOM      9  C9  DEN d   1      -2.072   2.424   0.357  0.00  0.00    -0.072 A 
ENDROOT
TORSDOF 0
ENDMDL
