MODEL 1
REMARK minimizedAffinity 8.83983612
REMARK minimizedRMSD -1
REMARK  0 active torsions:
REMARK  status: ('A' for Active; 'I' for Inactive)
ROOT
ATOM      1  C1  DEN d   1      -6.000  -2.035   2.146  0.00  0.00     0.130 A 
ATOM      2  C2  DEN d   1      -4.971  -2.139   1.115  0.00  0.00    -0.031 A 
ATOM      3  C3  DEN d   1      -3.747  -1.489   1.625  0.00  0.00     0.027 A 
ATOM      4  C4  DEN d   1      -3.345  -0.342   3.899  0.00  0.00     0.027 A 
ATOM      5  C5  DEN d   1      -3.926   0.005   5.099  0.00  0.00    -0.003 A 
ATOM      6  C6  DEN d   1      -5.237  -0.271   5.383  0.00  0.00     0.001 A 
ATOM      7  C7  DEN d   1      -6.000  -0.953   4.473  0.00  0.00     0.017 A 
ATOM      8  C8  DEN d   1      -5.424  -1.300   3.258  0.00  0.00    -0.094 A 
ATOM      9  C9  DEN d   1      -4.093  -1.023   2.994  0.00  0.00    -0.072 A 
ENDROOT
TORSDOF 0
ENDMDL
