MODEL 1
REMARK minimizedAffinity 10.4638729
REMARK minimizedRMSD -1
REMARK  0 active torsions:
REMARK  status: ('A' for Active; 'I' for Inactive)
ROOT
ATOM      1  C1  DEN d   1      -0.298   1.510   2.523  0.00  0.00     0.130 A 
ATOM      2  C2  DEN d   1      -1.728   1.476   2.816  0.00  0.00    -0.031 A 
ATOM      3  C3  DEN d   1      -2.446   1.193   1.557  0.00  0.00     0.027 A 
ATOM      4  C4  DEN d   1      -1.487   0.802  -0.805  0.00  0.00     0.027 A 
ATOM      5  C5  DEN d   1      -0.331   0.744  -1.551  0.00  0.00    -0.003 A 
ATOM      6  C6  DEN d   1       0.904   0.969  -1.004  0.00  0.00     0.001 A 
ATOM      7  C7  DEN d   1       1.016   1.219   0.339  0.00  0.00     0.017 A 
ATOM      8  C8  DEN d   1      -0.145   1.286   1.097  0.00  0.00    -0.094 A 
ATOM      9  C9  DEN d   1      -1.384   1.043   0.527  0.00  0.00    -0.072 A 
ENDROOT
TORSDOF 0
ENDMDL
