MODEL 1
REMARK minimizedAffinity 8.27137089
REMARK minimizedRMSD -1
REMARK  0 active torsions:
REMARK  status: ('A' for Active; 'I' for Inactive)
ROOT
ATOM      1  C1  DEN d   1       2.731  -0.621  -1.225  0.00  0.00     0.130 A 
ATOM      2  C2  DEN d   1       1.783  -1.700  -1.488  0.00  0.00    -0.031 A 
ATOM      3  C3  DEN d   1       0.773  -1.199  -2.442  0.00  0.00     0.027 A 
ATOM      4  C4  DEN d   1       0.589   1.130  -3.536  0.00  0.00     0.027 A 
ATOM      5  C5  DEN d   1       1.157   2.383  -3.611  0.00  0.00    -0.003 A 
ATOM      6  C6  DEN d   1       2.260   2.730  -2.877  0.00  0.00     0.001 A 
ATOM      7  C7  DEN d   1       2.858   1.799  -2.068  0.00  0.00     0.017 A 
ATOM      8  C8  DEN d   1       2.287   0.537  -1.981  0.00  0.00    -0.094 A 
ATOM      9  C9  DEN d   1       1.179   0.201  -2.741  0.00  0.00    -0.072 A 
ENDROOT
TORSDOF 0
ENDMDL
