MODEL 1
REMARK minimizedAffinity 11.5365105
REMARK minimizedRMSD -1
REMARK  0 active torsions:
REMARK  status: ('A' for Active; 'I' for Inactive)
ROOT
ATOM      1  C1  DEN d   1       0.114  -2.480  -3.607  0.00  0.00     0.130 A 
ATOM      2  C2  DEN d   1       0.423  -3.881  -3.332  0.00  0.00    -0.031 A 
ATOM      3  C3  DEN d   1       1.444  -3.922  -2.266  0.00  0.00     0.027 A 
ATOM      4  C4  DEN d   1       2.568  -1.964  -1.019  0.00  0.00     0.027 A 
ATOM      5  C5  DEN d   1       2.639  -0.593  -0.914  0.00  0.00    -0.003 A 
ATOM      6  C6  DEN d   1       1.905   0.240  -1.717  0.00  0.00     0.001 A 
ATOM      7  C7  DEN d   1       1.033  -0.293  -2.630  0.00  0.00     0.017 A 
ATOM      8  C8  DEN d   1       0.961  -1.675  -2.746  0.00  0.00    -0.094 A 
ATOM      9  C9  DEN d   1       1.703  -2.499  -1.917  0.00  0.00    -0.072 A 
ENDROOT
TORSDOF 0
ENDMDL
