MODEL 1
REMARK minimizedAffinity 15.7399263
REMARK minimizedRMSD -1
REMARK  0 active torsions:
REMARK  status: ('A' for Active; 'I' for Inactive)
ROOT
ATOM      1  C1  DEN d   1       1.609  -1.858  -2.227  0.00  0.00     0.130 A 
ATOM      2  C2  DEN d   1       1.534  -3.225  -2.735  0.00  0.00    -0.031 A 
ATOM      3  C3  DEN d   1       0.993  -3.173  -4.108  0.00  0.00     0.027 A 
ATOM      4  C4  DEN d   1       0.271  -1.118  -5.490  0.00  0.00     0.027 A 
ATOM      5  C5  DEN d   1       0.140   0.253  -5.479  0.00  0.00    -0.003 A 
ATOM      6  C6  DEN d   1       0.454   1.007  -4.379  0.00  0.00     0.001 A 
ATOM      7  C7  DEN d   1       0.959   0.398  -3.260  0.00  0.00     0.017 A 
ATOM      8  C8  DEN d   1       1.087  -0.984  -3.262  0.00  0.00    -0.094 A 
ATOM      9  C9  DEN d   1       0.776  -1.728  -4.388  0.00  0.00    -0.072 A 
ENDROOT
TORSDOF 0
ENDMDL
