MODEL 1
REMARK minimizedAffinity -3.93117642
REMARK minimizedRMSD -1
REMARK  0 active torsions:
REMARK  status: ('A' for Active; 'I' for Inactive)
ROOT
ATOM      1  C   UNL d   1      -0.820   1.587   2.762  0.00  0.00     0.078 C 
ATOM      2  C1  UNL d   1      -0.334   0.924   1.508  0.00  0.00    -0.077 A 
ATOM      3  C2  UNL d   1      -1.199   0.700   0.430  0.00  0.00    -0.001 A 
ATOM      4  C3  UNL d   1      -0.736   0.073  -0.728  0.00  0.00     0.003 A 
ATOM      5  C4  UNL d   1       0.593  -0.337  -0.818  0.00  0.00    -0.005 A 
ATOM      6  C5  UNL d   1       1.460  -0.121   0.251  0.00  0.00     0.003 A 
ATOM      7  C6  UNL d   1       0.999   0.506   1.409  0.00  0.00    -0.001 A 
ENDROOT
TORSDOF 0
ENDMDL
