MODEL 1
REMARK minimizedAffinity -1.09439576
REMARK minimizedRMSD -1
REMARK  0 active torsions:
REMARK  status: ('A' for Active; 'I' for Inactive)
ROOT
ATOM      1  C   UNL d   1      -0.222  -0.471  -1.383  0.00  0.00     0.078 C 
ATOM      2  C1  UNL d   1       0.502   0.098  -0.200  0.00  0.00    -0.077 A 
ATOM      3  C2  UNL d   1       1.474  -0.648   0.478  0.00  0.00    -0.001 A 
ATOM      4  C3  UNL d   1       2.133  -0.109   1.584  0.00  0.00     0.003 A 
ATOM      5  C4  UNL d   1       1.828   1.178   2.022  0.00  0.00    -0.005 A 
ATOM      6  C5  UNL d   1       0.861   1.927   1.354  0.00  0.00     0.003 A 
ATOM      7  C6  UNL d   1       0.201   1.390   0.249  0.00  0.00    -0.001 A 
ENDROOT
TORSDOF 0
ENDMDL
