MODEL 1
REMARK minimizedAffinity -4.22120953
REMARK minimizedRMSD -1
REMARK  0 active torsions:
REMARK  status: ('A' for Active; 'I' for Inactive)
ROOT
ATOM      1  C   UNL d   1      -1.113   1.390   2.524  0.00  0.00     0.078 C 
ATOM      2  C1  UNL d   1      -0.733   0.641   1.281  0.00  0.00    -0.077 A 
ATOM      3  C2  UNL d   1       0.601   0.303   1.023  0.00  0.00    -0.001 A 
ATOM      4  C3  UNL d   1       0.942  -0.386  -0.142  0.00  0.00     0.003 A 
ATOM      5  C4  UNL d   1      -0.045  -0.740  -1.059  0.00  0.00    -0.005 A 
ATOM      6  C5  UNL d   1      -1.375  -0.406  -0.812  0.00  0.00     0.003 A 
ATOM      7  C6  UNL d   1      -1.718   0.282   0.353  0.00  0.00    -0.001 A 
ENDROOT
TORSDOF 0
ENDMDL
