MODEL 1
REMARK minimizedAffinity -4.75129128
REMARK minimizedRMSD -1
REMARK  0 active torsions:
REMARK  status: ('A' for Active; 'I' for Inactive)
ROOT
ATOM      1  C   UNL d   1      -0.551   1.737   2.726  0.00  0.00     0.078 C 
ATOM      2  C1  UNL d   1      -0.331   0.844   1.541  0.00  0.00    -0.077 A 
ATOM      3  C2  UNL d   1       0.962   0.512   1.119  0.00  0.00    -0.001 A 
ATOM      4  C3  UNL d   1       1.151  -0.313   0.008  0.00  0.00     0.003 A 
ATOM      5  C4  UNL d   1       0.053  -0.810  -0.689  0.00  0.00    -0.005 A 
ATOM      6  C5  UNL d   1      -1.238  -0.483  -0.278  0.00  0.00     0.003 A 
ATOM      7  C6  UNL d   1      -1.429   0.341   0.833  0.00  0.00    -0.001 A 
ENDROOT
TORSDOF 0
ENDMDL
