MODEL 1
REMARK minimizedAffinity -5.58421516
REMARK minimizedRMSD -1
REMARK  0 active torsions:
REMARK  status: ('A' for Active; 'I' for Inactive)
ROOT
ATOM      1  C   UNL d   1       0.100  -0.652  -1.332  0.00  0.00     0.078 C 
ATOM      2  C1  UNL d   1      -0.167   0.063  -0.042  0.00  0.00    -0.077 A 
ATOM      3  C2  UNL d   1       0.881   0.603   0.714  0.00  0.00    -0.001 A 
ATOM      4  C3  UNL d   1       0.618   1.258   1.918  0.00  0.00     0.003 A 
ATOM      5  C4  UNL d   1      -0.692   1.379   2.378  0.00  0.00    -0.005 A 
ATOM      6  C5  UNL d   1      -1.741   0.843   1.634  0.00  0.00     0.003 A 
ATOM      7  C6  UNL d   1      -1.480   0.187   0.429  0.00  0.00    -0.001 A 
ENDROOT
TORSDOF 0
ENDMDL
