MODEL 1
REMARK minimizedAffinity -5.28237867
REMARK minimizedRMSD -1
REMARK  0 active torsions:
REMARK  status: ('A' for Active; 'I' for Inactive)
ROOT
ATOM      1  C   UNL d   1       0.510  -0.225  -0.622  0.00  0.00     0.078 C 
ATOM      2  C1  UNL d   1       0.021   0.355   0.671  0.00  0.00    -0.077 A 
ATOM      3  C2  UNL d   1       0.907   0.959   1.571  0.00  0.00    -0.001 A 
ATOM      4  C3  UNL d   1       0.439   1.486   2.776  0.00  0.00     0.003 A 
ATOM      5  C4  UNL d   1      -0.916   1.413   3.093  0.00  0.00    -0.005 A 
ATOM      6  C5  UNL d   1      -1.805   0.811   2.204  0.00  0.00     0.003 A 
ATOM      7  C6  UNL d   1      -1.339   0.284   0.999  0.00  0.00    -0.001 A 
ENDROOT
TORSDOF 0
ENDMDL
