MODEL 1
REMARK minimizedAffinity -4.25929308
REMARK minimizedRMSD -1
REMARK  0 active torsions:
REMARK  status: ('A' for Active; 'I' for Inactive)
ROOT
ATOM      1  C   UNL d   1      -0.381   1.386   2.984  0.00  0.00     0.078 C 
ATOM      2  C1  UNL d   1       0.019   0.531   1.819  0.00  0.00    -0.077 A 
ATOM      3  C2  UNL d   1       1.272  -0.094   1.780  0.00  0.00    -0.001 A 
ATOM      4  C3  UNL d   1       1.635  -0.880   0.685  0.00  0.00     0.003 A 
ATOM      5  C4  UNL d   1       0.752  -1.048  -0.379  0.00  0.00    -0.005 A 
ATOM      6  C5  UNL d   1      -0.496  -0.429  -0.350  0.00  0.00     0.003 A 
ATOM      7  C6  UNL d   1      -0.861   0.358   0.744  0.00  0.00    -0.001 A 
ENDROOT
TORSDOF 0
ENDMDL
