MODEL 1
REMARK minimizedAffinity -5.46811152
REMARK minimizedRMSD -1
REMARK  1 active torsions:
REMARK  status: ('A' for Active; 'I' for Inactive)
REMARK    1  A    between atoms: C1_2  and  C2_3 
ROOT
ATOM      1  C2  UNL d   1      -0.057  -0.047   0.177  0.00  0.00    -0.077 A 
ATOM      2  C3  UNL d   1       1.341   0.032   0.104  0.00  0.00     0.002 A 
ATOM      3  C4  UNL d   1       2.131  -1.059   0.473  0.00  0.00     0.002 A 
ATOM      4  C5  UNL d   1       1.531  -2.238   0.913  0.00  0.00    -0.004 A 
ATOM      5  C6  UNL d   1       0.142  -2.326   0.990  0.00  0.00     0.002 A 
ATOM      6  C7  UNL d   1      -0.648  -1.236   0.623  0.00  0.00     0.002 A 
ENDROOT
BRANCH   1   7
ATOM      7  C1  UNL d   1      -0.911   1.112  -0.267  0.00  0.00     0.055 C 
ATOM      8  C   UNL d   1      -1.654   0.790  -1.555  0.00  0.00     0.019 C 
ENDBRANCH   1   7
TORSDOF 1
ENDMDL
