MODEL 1
REMARK minimizedAffinity -5.22316027
REMARK minimizedRMSD -1
REMARK  1 active torsions:
REMARK  status: ('A' for Active; 'I' for Inactive)
REMARK    1  A    between atoms: C1_2  and  C2_3 
ROOT
ATOM      1  C2  UNL d   1       0.547  -0.149  -0.111  0.00  0.00    -0.077 A 
ATOM      2  C3  UNL d   1      -0.233  -1.293  -0.328  0.00  0.00     0.002 A 
ATOM      3  C4  UNL d   1       0.231  -2.550   0.064  0.00  0.00     0.002 A 
ATOM      4  C5  UNL d   1       1.475  -2.674   0.680  0.00  0.00    -0.004 A 
ATOM      5  C6  UNL d   1       2.260  -1.542   0.898  0.00  0.00     0.002 A 
ATOM      6  C7  UNL d   1       1.798  -0.285   0.505  0.00  0.00     0.002 A 
ENDROOT
BRANCH   1   7
ATOM      7  C1  UNL d   1       0.027   1.213  -0.489  0.00  0.00     0.055 C 
ATOM      8  C   UNL d   1      -1.022   1.699   0.500  0.00  0.00     0.019 C 
ENDBRANCH   1   7
TORSDOF 1
ENDMDL
