MODEL 1
REMARK minimizedAffinity -6.22403193
REMARK minimizedRMSD -1
REMARK  1 active torsions:
REMARK  status: ('A' for Active; 'I' for Inactive)
REMARK    1  A    between atoms: C1_2  and  C2_3 
ROOT
ATOM      1  C2  UNL d   1       0.365  -0.414   0.539  0.00  0.00    -0.077 A 
ATOM      2  C3  UNL d   1      -0.380  -0.802   1.661  0.00  0.00     0.002 A 
ATOM      3  C4  UNL d   1      -0.101  -2.005   2.313  0.00  0.00     0.002 A 
ATOM      4  C5  UNL d   1       0.925  -2.827   1.852  0.00  0.00    -0.004 A 
ATOM      5  C6  UNL d   1       1.670  -2.451   0.736  0.00  0.00     0.002 A 
ATOM      6  C7  UNL d   1       1.392  -1.250   0.082  0.00  0.00     0.002 A 
ENDROOT
BRANCH   1   7
ATOM      7  C1  UNL d   1       0.098   0.906  -0.136  0.00  0.00     0.055 C 
ATOM      8  C   UNL d   1      -1.228   0.888  -0.883  0.00  0.00     0.019 C 
ENDBRANCH   1   7
TORSDOF 1
ENDMDL
