MODEL 1
REMARK minimizedAffinity -4.44679642
REMARK minimizedRMSD -1
REMARK  1 active torsions:
REMARK  status: ('A' for Active; 'I' for Inactive)
REMARK    1  A    between atoms: C1_2  and  C2_3 
ROOT
ATOM      1  C2  UNL d   1       0.266   0.367  -0.296  0.00  0.00    -0.077 A 
ATOM      2  C3  UNL d   1       1.349   0.754  -1.096  0.00  0.00     0.002 A 
ATOM      3  C4  UNL d   1       2.515  -0.013  -1.126  0.00  0.00     0.002 A 
ATOM      4  C5  UNL d   1       2.607  -1.174  -0.360  0.00  0.00    -0.004 A 
ATOM      5  C6  UNL d   1       1.535  -1.566   0.441  0.00  0.00     0.002 A 
ATOM      6  C7  UNL d   1       0.370  -0.800   0.472  0.00  0.00     0.002 A 
ENDROOT
BRANCH   1   7
ATOM      7  C1  UNL d   1      -1.011   1.167  -0.300  0.00  0.00     0.055 C 
ATOM      8  C   UNL d   1      -1.500   1.421  -1.719  0.00  0.00     0.019 C 
ENDBRANCH   1   7
TORSDOF 1
ENDMDL
