MODEL 1
REMARK minimizedAffinity -5.54194975
REMARK minimizedRMSD -1
REMARK  1 active torsions:
REMARK  status: ('A' for Active; 'I' for Inactive)
REMARK    1  A    between atoms: C1_2  and  C2_3 
ROOT
ATOM      1  C2  UNL d   1      -0.314   0.069   0.027  0.00  0.00    -0.077 A 
ATOM      2  C3  UNL d   1      -0.720  -1.188   0.495  0.00  0.00     0.002 A 
ATOM      3  C4  UNL d   1       0.170  -2.264   0.490  0.00  0.00     0.002 A 
ATOM      4  C5  UNL d   1       1.471  -2.092   0.022  0.00  0.00    -0.004 A 
ATOM      5  C6  UNL d   1       1.883  -0.846  -0.448  0.00  0.00     0.002 A 
ATOM      6  C7  UNL d   1       0.995   0.230  -0.444  0.00  0.00     0.002 A 
ENDROOT
BRANCH   1   7
ATOM      7  C1  UNL d   1      -1.258   1.243   0.077  0.00  0.00     0.055 C 
ATOM      8  C   UNL d   1      -1.450   1.858  -1.302  0.00  0.00     0.019 C 
ENDBRANCH   1   7
TORSDOF 1
ENDMDL
