MODEL 1
REMARK minimizedAffinity -5.06539536
REMARK minimizedRMSD -1
REMARK  1 active torsions:
REMARK  status: ('A' for Active; 'I' for Inactive)
REMARK    1  A    between atoms: C1_2  and  C2_3 
ROOT
ATOM      1  C2  UNL d   1       0.255  -0.166   0.223  0.00  0.00    -0.077 A 
ATOM      2  C3  UNL d   1      -0.242  -1.315   0.854  0.00  0.00     0.002 A 
ATOM      3  C4  UNL d   1       0.564  -2.446   0.998  0.00  0.00     0.002 A 
ATOM      4  C5  UNL d   1       1.872  -2.437   0.519  0.00  0.00    -0.004 A 
ATOM      5  C6  UNL d   1       2.375  -1.300  -0.112  0.00  0.00     0.002 A 
ATOM      6  C7  UNL d   1       1.570  -0.169  -0.259  0.00  0.00     0.002 A 
ENDROOT
BRANCH   1   7
ATOM      7  C1  UNL d   1      -0.597   1.072   0.110  0.00  0.00     0.055 C 
ATOM      8  C   UNL d   1      -1.017   1.325  -1.331  0.00  0.00     0.019 C 
ENDBRANCH   1   7
TORSDOF 1
ENDMDL
