MODEL 1
REMARK minimizedAffinity -3.75683355
REMARK minimizedRMSD -1
REMARK  1 active torsions:
REMARK  status: ('A' for Active; 'I' for Inactive)
REMARK    1  A    between atoms: C1_2  and  C2_3 
ROOT
ATOM      1  C2  UNL d   1       0.294   0.071   0.196  0.00  0.00    -0.077 A 
ATOM      2  C3  UNL d   1      -0.211  -0.648   1.288  0.00  0.00     0.002 A 
ATOM      3  C4  UNL d   1       0.469  -1.768   1.772  0.00  0.00     0.002 A 
ATOM      4  C5  UNL d   1       1.659  -2.175   1.173  0.00  0.00    -0.004 A 
ATOM      5  C6  UNL d   1       2.169  -1.467   0.084  0.00  0.00     0.002 A 
ATOM      6  C7  UNL d   1       1.490  -0.349  -0.401  0.00  0.00     0.002 A 
ENDROOT
BRANCH   1   7
ATOM      7  C1  UNL d   1      -0.412   1.308  -0.296  0.00  0.00     0.055 C 
ATOM      8  C   UNL d   1      -1.300   0.999  -1.491  0.00  0.00     0.019 C 
ENDBRANCH   1   7
TORSDOF 1
ENDMDL
