MODEL 1
REMARK minimizedAffinity -2.91811037
REMARK minimizedRMSD -1
REMARK  1 active torsions:
REMARK  status: ('A' for Active; 'I' for Inactive)
REMARK    1  A    between atoms: C1_2  and  C2_3 
ROOT
ATOM      1  C2  UNL d   1       0.107   0.252  -0.172  0.00  0.00    -0.077 A 
ATOM      2  C3  UNL d   1      -0.023  -0.897   0.620  0.00  0.00     0.002 A 
ATOM      3  C4  UNL d   1       1.020  -1.821   0.702  0.00  0.00     0.002 A 
ATOM      4  C5  UNL d   1       2.203  -1.604  -0.002  0.00  0.00    -0.004 A 
ATOM      5  C6  UNL d   1       2.342  -0.465  -0.794  0.00  0.00     0.002 A 
ATOM      6  C7  UNL d   1       1.299   0.459  -0.878  0.00  0.00     0.002 A 
ENDROOT
BRANCH   1   7
ATOM      7  C1  UNL d   1      -0.998   1.274  -0.222  0.00  0.00     0.055 C 
ATOM      8  C   UNL d   1      -1.324   1.666  -1.656  0.00  0.00     0.019 C 
ENDBRANCH   1   7
TORSDOF 1
ENDMDL
