MODEL 1
REMARK minimizedAffinity -5.23889589
REMARK minimizedRMSD -1
REMARK  1 active torsions:
REMARK  status: ('A' for Active; 'I' for Inactive)
REMARK    1  A    between atoms: C1_2  and  C2_3 
ROOT
ATOM      1  C2  UNL d   1       0.123  -0.124  -0.205  0.00  0.00    -0.077 A 
ATOM      2  C3  UNL d   1      -0.517  -1.300   0.209  0.00  0.00     0.002 A 
ATOM      3  C4  UNL d   1       0.231  -2.392   0.653  0.00  0.00     0.002 A 
ATOM      4  C5  UNL d   1       1.621  -2.317   0.693  0.00  0.00    -0.004 A 
ATOM      5  C6  UNL d   1       2.268  -1.152   0.282  0.00  0.00     0.002 A 
ATOM      6  C7  UNL d   1       1.522  -0.060  -0.164  0.00  0.00     0.002 A 
ENDROOT
BRANCH   1   7
ATOM      7  C1  UNL d   1      -0.683   1.073  -0.638  0.00  0.00     0.055 C 
ATOM      8  C   UNL d   1      -1.579   0.737  -1.822  0.00  0.00     0.019 C 
ENDBRANCH   1   7
TORSDOF 1
ENDMDL
