MODEL 1
REMARK minimizedAffinity -3.1702497
REMARK minimizedRMSD -1
REMARK  1 active torsions:
REMARK  status: ('A' for Active; 'I' for Inactive)
REMARK    1  A    between atoms: C1_2  and  C2_3 
ROOT
ATOM      1  C2  UNL d   1      -1.378   1.557  -1.214  0.00  0.00    -0.077 A 
ATOM      2  C3  UNL d   1      -2.761   1.433  -1.411  0.00  0.00     0.002 A 
ATOM      3  C4  UNL d   1      -3.327   1.732  -2.652  0.00  0.00     0.002 A 
ATOM      4  C5  UNL d   1      -2.518   2.153  -3.705  0.00  0.00    -0.004 A 
ATOM      5  C6  UNL d   1      -1.142   2.281  -3.519  0.00  0.00     0.002 A 
ATOM      6  C7  UNL d   1      -0.575   1.984  -2.279  0.00  0.00     0.002 A 
ENDROOT
BRANCH   1   7
ATOM      7  C1  UNL d   1      -0.759   1.187   0.109  0.00  0.00     0.055 C 
ATOM      8  C   UNL d   1      -0.215  -0.234   0.087  0.00  0.00     0.019 C 
ENDBRANCH   1   7
TORSDOF 1
ENDMDL
