MODEL 1
REMARK minimizedAffinity -1.60458934
REMARK minimizedRMSD -1
REMARK  1 active torsions:
REMARK  status: ('A' for Active; 'I' for Inactive)
REMARK    1  A    between atoms: C1_2  and  C2_3 
ROOT
ATOM      1  C2  UNL d   1      -0.221  -0.845   0.568  0.00  0.00    -0.077 A 
ATOM      2  C3  UNL d   1      -0.678  -2.151   0.347  0.00  0.00     0.002 A 
ATOM      3  C4  UNL d   1       0.227  -3.183   0.092  0.00  0.00     0.002 A 
ATOM      4  C5  UNL d   1       1.595  -2.920   0.059  0.00  0.00    -0.004 A 
ATOM      5  C6  UNL d   1       2.060  -1.623   0.275  0.00  0.00     0.002 A 
ATOM      6  C7  UNL d   1       1.156  -0.590   0.529  0.00  0.00     0.002 A 
ENDROOT
BRANCH   1   7
ATOM      7  C1  UNL d   1      -1.192   0.260   0.893  0.00  0.00     0.055 C 
ATOM      8  C   UNL d   1      -1.949  -0.029   2.181  0.00  0.00     0.019 C 
ENDBRANCH   1   7
TORSDOF 1
ENDMDL
