MODEL 1
REMARK minimizedAffinity -2.41923165
REMARK minimizedRMSD -1
REMARK  1 active torsions:
REMARK  status: ('A' for Active; 'I' for Inactive)
REMARK    1  A    between atoms: C1_2  and  C2_3 
ROOT
ATOM      1  C2  UNL d   1      -0.087  -0.244   0.175  0.00  0.00    -0.077 A 
ATOM      2  C3  UNL d   1      -0.548  -1.568   0.136  0.00  0.00     0.002 A 
ATOM      3  C4  UNL d   1       0.358  -2.631   0.124  0.00  0.00     0.002 A 
ATOM      4  C5  UNL d   1       1.728  -2.381   0.154  0.00  0.00    -0.004 A 
ATOM      5  C6  UNL d   1       2.196  -1.067   0.190  0.00  0.00     0.002 A 
ATOM      6  C7  UNL d   1       1.292  -0.004   0.201  0.00  0.00     0.002 A 
ENDROOT
BRANCH   1   7
ATOM      7  C1  UNL d   1      -1.063   0.901   0.238  0.00  0.00     0.055 C 
ATOM      8  C   UNL d   1      -1.924   0.827   1.491  0.00  0.00     0.019 C 
ENDBRANCH   1   7
TORSDOF 1
ENDMDL
