MODEL 1
REMARK minimizedAffinity -4.73348904
REMARK minimizedRMSD -1
REMARK  1 active torsions:
REMARK  status: ('A' for Active; 'I' for Inactive)
REMARK    1  A    between atoms: C1_2  and  C2_3 
ROOT
ATOM      1  C2  UNL d   1      -0.064  -0.024  -0.055  0.00  0.00    -0.077 A 
ATOM      2  C3  UNL d   1       1.330   0.011  -0.201  0.00  0.00     0.002 A 
ATOM      3  C4  UNL d   1       2.103  -1.103   0.131  0.00  0.00     0.002 A 
ATOM      4  C5  UNL d   1       1.491  -2.261   0.607  0.00  0.00    -0.004 A 
ATOM      5  C6  UNL d   1       0.106  -2.305   0.757  0.00  0.00     0.002 A 
ATOM      6  C7  UNL d   1      -0.669  -1.192   0.427  0.00  0.00     0.002 A 
ENDROOT
BRANCH   1   7
ATOM      7  C1  UNL d   1      -0.904   1.160  -0.459  0.00  0.00     0.055 C 
ATOM      8  C   UNL d   1      -1.948   0.769  -1.495  0.00  0.00     0.019 C 
ENDBRANCH   1   7
TORSDOF 1
ENDMDL
