MODEL 1
REMARK minimizedAffinity -5.7846365
REMARK minimizedRMSD -1
REMARK  1 active torsions:
REMARK  status: ('A' for Active; 'I' for Inactive)
REMARK    1  A    between atoms: C1_2  and  C2_3 
ROOT
ATOM      1  C2  UNL d   1      -0.027   0.074  -0.044  0.00  0.00    -0.077 A 
ATOM      2  C3  UNL d   1       1.359  -0.104  -0.156  0.00  0.00     0.002 A 
ATOM      3  C4  UNL d   1       1.953  -1.301   0.248  0.00  0.00     0.002 A 
ATOM      4  C5  UNL d   1       1.168  -2.330   0.764  0.00  0.00    -0.004 A 
ATOM      5  C6  UNL d   1      -0.211  -2.162   0.881  0.00  0.00     0.002 A 
ATOM      6  C7  UNL d   1      -0.806  -0.966   0.478  0.00  0.00     0.002 A 
ENDROOT
BRANCH   1   7
ATOM      7  C1  UNL d   1      -0.674   1.346  -0.526  0.00  0.00     0.055 C 
ATOM      8  C   UNL d   1      -1.539   1.097  -1.753  0.00  0.00     0.019 C 
ENDBRANCH   1   7
TORSDOF 1
ENDMDL
