MODEL 1
REMARK minimizedAffinity -2.70513177
REMARK minimizedRMSD -1
REMARK  1 active torsions:
REMARK  status: ('A' for Active; 'I' for Inactive)
REMARK    1  A    between atoms: C1_2  and  C2_3 
ROOT
ATOM      1  C2  UNL d   1      -0.327   0.095  -0.665  0.00  0.00    -0.077 A 
ATOM      2  C3  UNL d   1       0.936   0.666  -0.875  0.00  0.00     0.002 A 
ATOM      3  C4  UNL d   1       2.082   0.050  -0.368  0.00  0.00     0.002 A 
ATOM      4  C5  UNL d   1       1.976  -1.140   0.349  0.00  0.00    -0.004 A 
ATOM      5  C6  UNL d   1       0.724  -1.714   0.566  0.00  0.00     0.002 A 
ATOM      6  C7  UNL d   1      -0.423  -1.099   0.060  0.00  0.00     0.002 A 
ENDROOT
BRANCH   1   7
ATOM      7  C1  UNL d   1      -1.560   0.732  -1.253  0.00  0.00     0.055 C 
ATOM      8  C   UNL d   1      -1.197   1.793  -2.281  0.00  0.00     0.019 C 
ENDBRANCH   1   7
TORSDOF 1
ENDMDL
