MODEL 1
REMARK minimizedAffinity -5.85626507
REMARK minimizedRMSD -1
REMARK  0 active torsions:
REMARK  status: ('A' for Active; 'I' for Inactive)
ROOT
ATOM      1  C2' OXE d   1      -0.222  -3.253   1.090  0.00  0.00     0.078 C 
ATOM      2  C1' OXE d   1      -0.662  -0.592   1.868  0.00  0.00     0.078 C 
ATOM      3  C1  OXE d   1      -0.068  -0.837   0.504  0.00  0.00    -0.078 A 
ATOM      4  C2  OXE d   1       0.187  -2.140   0.150  0.00  0.00    -0.078 A 
ATOM      5  C3  OXE d   1       0.684  -2.425  -1.119  0.00  0.00     0.003 A 
ATOM      6  C4  OXE d   1       1.069  -1.390  -1.979  0.00  0.00    -0.002 A 
ATOM      7  C5  OXE d   1       0.855  -0.054  -1.622  0.00  0.00    -0.002 A 
ATOM      8  C6  OXE d   1       0.249   0.237  -0.404  0.00  0.00     0.003 A 
ENDROOT
TORSDOF 0
ENDMDL
