MODEL 1
REMARK minimizedAffinity -2.89178443
REMARK minimizedRMSD -1
REMARK  0 active torsions:
REMARK  status: ('A' for Active; 'I' for Inactive)
ROOT
ATOM      1  C2' OXE d   1       0.561   1.206  -0.154  0.00  0.00     0.078 C 
ATOM      2  C1' OXE d   1      -1.348  -0.135   1.407  0.00  0.00     0.078 C 
ATOM      3  C1  OXE d   1      -0.551  -0.948   0.418  0.00  0.00    -0.078 A 
ATOM      4  C2  OXE d   1       0.347  -0.276  -0.375  0.00  0.00    -0.078 A 
ATOM      5  C3  OXE d   1       1.147  -0.986  -1.266  0.00  0.00     0.003 A 
ATOM      6  C4  OXE d   1       0.936  -2.355  -1.472  0.00  0.00    -0.002 A 
ATOM      7  C5  OXE d   1      -0.002  -3.052  -0.703  0.00  0.00    -0.002 A 
ATOM      8  C6  OXE d   1      -0.723  -2.373   0.274  0.00  0.00     0.003 A 
ENDROOT
TORSDOF 0
ENDMDL
