MODEL 1
REMARK minimizedAffinity 3.77926922
REMARK minimizedRMSD -1
REMARK  0 active torsions:
REMARK  status: ('A' for Active; 'I' for Inactive)
ROOT
ATOM      1  C2' OXE d   1      -1.585  -1.536  -1.162  0.00  0.00     0.078 C 
ATOM      2  C1' OXE d   1      -3.650  -3.435  -1.080  0.00  0.00     0.078 C 
ATOM      3  C1  OXE d   1      -2.593  -3.590  -2.146  0.00  0.00    -0.078 A 
ATOM      4  C2  OXE d   1      -1.612  -2.630  -2.207  0.00  0.00    -0.078 A 
ATOM      5  C3  OXE d   1      -0.583  -2.754  -3.136  0.00  0.00     0.003 A 
ATOM      6  C4  OXE d   1      -0.621  -3.763  -4.106  0.00  0.00    -0.002 A 
ATOM      7  C5  OXE d   1      -1.633  -4.729  -4.086  0.00  0.00    -0.002 A 
ATOM      8  C6  OXE d   1      -2.601  -4.682  -3.088  0.00  0.00     0.003 A 
ENDROOT
TORSDOF 0
ENDMDL
