MODEL 1
REMARK minimizedAffinity -5.50397587
REMARK minimizedRMSD -1
REMARK  0 active torsions:
REMARK  status: ('A' for Active; 'I' for Inactive)
ROOT
ATOM      1  C2' OXE d   1       0.526  -1.946  -2.741  0.00  0.00     0.078 C 
ATOM      2  C1' OXE d   1      -0.037  -3.869  -0.775  0.00  0.00     0.078 C 
ATOM      3  C1  OXE d   1      -0.259  -2.419  -0.425  0.00  0.00    -0.078 A 
ATOM      4  C2  OXE d   1       0.063  -1.482  -1.377  0.00  0.00    -0.078 A 
ATOM      5  C3  OXE d   1      -0.174  -0.134  -1.125  0.00  0.00     0.003 A 
ATOM      6  C4  OXE d   1      -0.593   0.288   0.143  0.00  0.00    -0.002 A 
ATOM      7  C5  OXE d   1      -0.889  -0.648   1.140  0.00  0.00    -0.002 A 
ATOM      8  C6  OXE d   1      -0.769  -2.005   0.859  0.00  0.00     0.003 A 
ENDROOT
TORSDOF 0
ENDMDL
