MODEL 1
REMARK minimizedAffinity -0.343993932
REMARK minimizedRMSD -1
REMARK  0 active torsions:
REMARK  status: ('A' for Active; 'I' for Inactive)
ROOT
ATOM      1  C2' OXE d   1       0.045   1.533  -0.157  0.00  0.00     0.078 C 
ATOM      2  C1' OXE d   1       0.486  -0.174  -2.341  0.00  0.00     0.078 C 
ATOM      3  C1  OXE d   1      -0.109  -0.772  -1.090  0.00  0.00    -0.078 A 
ATOM      4  C2  OXE d   1      -0.278   0.061  -0.010  0.00  0.00    -0.078 A 
ATOM      5  C3  OXE d   1      -0.873  -0.426   1.150  0.00  0.00     0.003 A 
ATOM      6  C4  OXE d   1      -1.159  -1.790   1.281  0.00  0.00    -0.002 A 
ATOM      7  C5  OXE d   1      -0.957  -2.664   0.207  0.00  0.00    -0.002 A 
ATOM      8  C6  OXE d   1      -0.474  -2.164  -0.997  0.00  0.00     0.003 A 
ENDROOT
TORSDOF 0
ENDMDL
