MODEL 1
REMARK minimizedAffinity 0.554339886
REMARK minimizedRMSD -1
REMARK  0 active torsions:
REMARK  status: ('A' for Active; 'I' for Inactive)
ROOT
ATOM      1  C2' OXE d   1       0.534   2.197   0.069  0.00  0.00     0.078 C 
ATOM      2  C1' OXE d   1       0.155   0.470  -2.111  0.00  0.00     0.078 C 
ATOM      3  C1  OXE d   1      -0.207  -0.040  -0.739  0.00  0.00    -0.078 A 
ATOM      4  C2  OXE d   1       0.026   0.795   0.327  0.00  0.00    -0.078 A 
ATOM      5  C3  OXE d   1      -0.342   0.395   1.609  0.00  0.00     0.003 A 
ATOM      6  C4  OXE d   1      -0.802  -0.907   1.841  0.00  0.00    -0.002 A 
ATOM      7  C5  OXE d   1      -1.008  -1.787   0.773  0.00  0.00    -0.002 A 
ATOM      8  C6  OXE d   1      -0.756  -1.356  -0.524  0.00  0.00     0.003 A 
ENDROOT
TORSDOF 0
ENDMDL
