MODEL 1
REMARK minimizedAffinity -5.99478531
REMARK minimizedRMSD -1
REMARK  0 active torsions:
REMARK  status: ('A' for Active; 'I' for Inactive)
ROOT
ATOM      1  C2' OXE d   1      -1.153  -0.197   1.427  0.00  0.00     0.078 C 
ATOM      2  C1' OXE d   1       0.552   0.543  -0.676  0.00  0.00     0.078 C 
ATOM      3  C1  OXE d   1       0.241  -0.923  -0.506  0.00  0.00    -0.078 A 
ATOM      4  C2  OXE d   1      -0.557  -1.281   0.554  0.00  0.00    -0.078 A 
ATOM      5  C3  OXE d   1      -0.920  -2.614   0.725  0.00  0.00     0.003 A 
ATOM      6  C4  OXE d   1      -0.356  -3.610  -0.081  0.00  0.00    -0.002 A 
ATOM      7  C5  OXE d   1       0.491  -3.271  -1.142  0.00  0.00    -0.002 A 
ATOM      8  C6  OXE d   1       0.764  -1.931  -1.394  0.00  0.00     0.003 A 
ENDROOT
TORSDOF 0
ENDMDL
