MODEL 1
REMARK minimizedAffinity -4.87455845
REMARK minimizedRMSD -1
REMARK  0 active torsions:
REMARK  status: ('A' for Active; 'I' for Inactive)
ROOT
ATOM      1  C2' OXE d   1      -0.607  -0.989   0.904  0.00  0.00     0.078 C 
ATOM      2  C1' OXE d   1       0.871  -0.205  -1.351  0.00  0.00     0.078 C 
ATOM      3  C1  OXE d   1       0.499  -1.662  -1.225  0.00  0.00    -0.078 A 
ATOM      4  C2  OXE d   1      -0.184  -2.044  -0.095  0.00  0.00    -0.078 A 
ATOM      5  C3  OXE d   1      -0.599  -3.365   0.045  0.00  0.00     0.003 A 
ATOM      6  C4  OXE d   1      -0.195  -4.337  -0.878  0.00  0.00    -0.002 A 
ATOM      7  C5  OXE d   1       0.534  -3.976  -2.016  0.00  0.00    -0.002 A 
ATOM      8  C6  OXE d   1       0.852  -2.638  -2.225  0.00  0.00     0.003 A 
ENDROOT
TORSDOF 0
ENDMDL
