MODEL 1
REMARK minimizedAffinity -6.40608883
REMARK minimizedRMSD -1
REMARK  0 active torsions:
REMARK  status: ('A' for Active; 'I' for Inactive)
ROOT
ATOM      1  C2' OXE d   1       0.093   0.995  -0.318  0.00  0.00     0.078 C 
ATOM      2  C1' OXE d   1      -0.756  -0.874   1.596  0.00  0.00     0.078 C 
ATOM      3  C1  OXE d   1      -0.330  -1.394   0.246  0.00  0.00    -0.078 A 
ATOM      4  C2  OXE d   1       0.040  -0.469  -0.699  0.00  0.00    -0.078 A 
ATOM      5  C3  OXE d   1       0.495  -0.898  -1.943  0.00  0.00     0.003 A 
ATOM      6  C4  OXE d   1       0.433  -2.253  -2.292  0.00  0.00    -0.002 A 
ATOM      7  C5  OXE d   1       0.022  -3.208  -1.356  0.00  0.00    -0.002 A 
ATOM      8  C6  OXE d   1      -0.322  -2.801  -0.072  0.00  0.00     0.003 A 
ENDROOT
TORSDOF 0
ENDMDL
