MODEL 1
REMARK minimizedAffinity -0.658830822
REMARK minimizedRMSD -1
REMARK  0 active torsions:
REMARK  status: ('A' for Active; 'I' for Inactive)
ROOT
ATOM      1  C2' OXE d   1       0.614   1.819  -0.172  0.00  0.00     0.078 C 
ATOM      2  C1' OXE d   1       0.545   0.129  -2.412  0.00  0.00     0.078 C 
ATOM      3  C1  OXE d   1      -0.147  -0.339  -1.156  0.00  0.00    -0.078 A 
ATOM      4  C2  OXE d   1      -0.068   0.473  -0.051  0.00  0.00    -0.078 A 
ATOM      5  C3  OXE d   1      -0.736   0.115   1.117  0.00  0.00     0.003 A 
ATOM      6  C4  OXE d   1      -1.356  -1.135   1.223  0.00  0.00    -0.002 A 
ATOM      7  C5  OXE d   1      -1.414  -1.995   0.122  0.00  0.00    -0.002 A 
ATOM      8  C6  OXE d   1      -0.852  -1.595  -1.086  0.00  0.00     0.003 A 
ENDROOT
TORSDOF 0
ENDMDL
