MODEL 1
REMARK minimizedAffinity -5.03052282
REMARK minimizedRMSD -1
REMARK  0 active torsions:
REMARK  status: ('A' for Active; 'I' for Inactive)
ROOT
ATOM      1  C2' OXE d   1      -0.128   0.573  -0.153  0.00  0.00     0.078 C 
ATOM      2  C1' OXE d   1      -0.652  -1.313   1.859  0.00  0.00     0.078 C 
ATOM      3  C1  OXE d   1      -0.436  -1.823   0.456  0.00  0.00    -0.078 A 
ATOM      4  C2  OXE d   1      -0.227  -0.889  -0.531  0.00  0.00    -0.078 A 
ATOM      5  C3  OXE d   1       0.032  -1.309  -1.832  0.00  0.00     0.003 A 
ATOM      6  C4  OXE d   1      -0.070  -2.662  -2.175  0.00  0.00    -0.002 A 
ATOM      7  C5  OXE d   1      -0.322  -3.626  -1.193  0.00  0.00    -0.002 A 
ATOM      8  C6  OXE d   1      -0.465  -3.228   0.132  0.00  0.00     0.003 A 
ENDROOT
TORSDOF 0
ENDMDL
