MODEL 1
REMARK minimizedAffinity -6.10541677
REMARK minimizedRMSD -1
REMARK  0 active torsions:
REMARK  status: ('A' for Active; 'I' for Inactive)
ROOT
ATOM      1  C2' OXE d   1       0.357   0.203  -0.253  0.00  0.00     0.078 C 
ATOM      2  C1' OXE d   1       0.426  -1.037  -2.771  0.00  0.00     0.078 C 
ATOM      3  C1  OXE d   1       0.388  -1.923  -1.551  0.00  0.00    -0.078 A 
ATOM      4  C2  OXE d   1       0.401  -1.308  -0.322  0.00  0.00    -0.078 A 
ATOM      5  C3  OXE d   1       0.312  -2.077   0.834  0.00  0.00     0.003 A 
ATOM      6  C4  OXE d   1       0.364  -3.475   0.762  0.00  0.00    -0.002 A 
ATOM      7  C5  OXE d   1       0.390  -4.121  -0.478  0.00  0.00    -0.002 A 
ATOM      8  C6  OXE d   1       0.360  -3.362  -1.643  0.00  0.00     0.003 A 
ENDROOT
TORSDOF 0
ENDMDL
