MODEL 1
REMARK minimizedAffinity -4.33383942
REMARK minimizedRMSD -1
REMARK  0 active torsions:
REMARK  status: ('A' for Active; 'I' for Inactive)
ROOT
ATOM      1  C2' OXE d   1      -0.766  -1.086   1.308  0.00  0.00     0.078 C 
ATOM      2  C1' OXE d   1      -0.267   0.203  -1.135  0.00  0.00     0.078 C 
ATOM      3  C1  OXE d   1       0.033  -1.272  -1.045  0.00  0.00    -0.078 A 
ATOM      4  C2  OXE d   1      -0.170  -1.885   0.168  0.00  0.00    -0.078 A 
ATOM      5  C3  OXE d   1       0.040  -3.255   0.291  0.00  0.00     0.003 A 
ATOM      6  C4  OXE d   1       0.600  -3.985  -0.764  0.00  0.00    -0.002 A 
ATOM      7  C5  OXE d   1       0.852  -3.371  -1.996  0.00  0.00    -0.002 A 
ATOM      8  C6  OXE d   1       0.535  -2.028  -2.166  0.00  0.00     0.003 A 
ENDROOT
TORSDOF 0
ENDMDL
