MODEL 1
REMARK minimizedAffinity -5.58365774
REMARK minimizedRMSD -1
REMARK  0 active torsions:
REMARK  status: ('A' for Active; 'I' for Inactive)
ROOT
ATOM      1  C2' OXE d   1       1.198  -1.631  -2.511  0.00  0.00     0.078 C 
ATOM      2  C1' OXE d   1       0.357  -3.187  -0.331  0.00  0.00     0.078 C 
ATOM      3  C1  OXE d   1       0.046  -1.711  -0.304  0.00  0.00    -0.078 A 
ATOM      4  C2  OXE d   1       0.503  -0.949  -1.353  0.00  0.00    -0.078 A 
ATOM      5  C3  OXE d   1       0.196   0.408  -1.404  0.00  0.00     0.003 A 
ATOM      6  C4  OXE d   1      -0.438   1.032  -0.323  0.00  0.00    -0.002 A 
ATOM      7  C5  OXE d   1      -0.876   0.282   0.773  0.00  0.00    -0.002 A 
ATOM      8  C6  OXE d   1      -0.680  -1.095   0.779  0.00  0.00     0.003 A 
ENDROOT
TORSDOF 0
ENDMDL
