MODEL 1
REMARK minimizedAffinity -5.02282906
REMARK minimizedRMSD -1
REMARK  0 active torsions:
REMARK  status: ('A' for Active; 'I' for Inactive)
ROOT
ATOM      1  C2' OXE d   1      -1.170  -0.310   1.277  0.00  0.00     0.078 C 
ATOM      2  C1' OXE d   1      -0.048   0.345  -1.211  0.00  0.00     0.078 C 
ATOM      3  C1  OXE d   1      -0.114  -1.113  -0.831  0.00  0.00    -0.078 A 
ATOM      4  C2  OXE d   1      -0.622  -1.421   0.408  0.00  0.00    -0.078 A 
ATOM      5  C3  OXE d   1      -0.755  -2.754   0.787  0.00  0.00     0.003 A 
ATOM      6  C4  OXE d   1      -0.236  -3.775  -0.019  0.00  0.00    -0.002 A 
ATOM      7  C5  OXE d   1       0.321  -3.480  -1.268  0.00  0.00    -0.002 A 
ATOM      8  C6  OXE d   1       0.351  -2.161  -1.706  0.00  0.00     0.003 A 
ENDROOT
TORSDOF 0
ENDMDL
