MODEL 1
REMARK minimizedAffinity -4.23438883
REMARK minimizedRMSD -1
REMARK  0 active torsions:
REMARK  status: ('A' for Active; 'I' for Inactive)
ROOT
ATOM      1  C2' OXE d   1      -1.471  -0.024   1.838  0.00  0.00     0.078 C 
ATOM      2  C1' OXE d   1       0.414   1.322   0.253  0.00  0.00     0.078 C 
ATOM      3  C1  OXE d   1       0.284  -0.170   0.076  0.00  0.00    -0.078 A 
ATOM      4  C2  OXE d   1      -0.608  -0.827   0.889  0.00  0.00    -0.078 A 
ATOM      5  C3  OXE d   1      -0.807  -2.196   0.729  0.00  0.00     0.003 A 
ATOM      6  C4  OXE d   1       0.002  -2.932  -0.144  0.00  0.00    -0.002 A 
ATOM      7  C5  OXE d   1       0.944  -2.288  -0.953  0.00  0.00    -0.002 A 
ATOM      8  C6  OXE d   1       1.067  -0.905  -0.886  0.00  0.00     0.003 A 
ENDROOT
TORSDOF 0
ENDMDL
