MODEL 1
REMARK minimizedAffinity -3.91776323
REMARK minimizedRMSD -1
REMARK  0 active torsions:
REMARK  status: ('A' for Active; 'I' for Inactive)
ROOT
ATOM      1  C2' OXE d   1       0.630  -2.850  -2.572  0.00  0.00     0.078 C 
ATOM      2  C1' OXE d   1      -0.389  -3.644  -0.080  0.00  0.00     0.078 C 
ATOM      3  C1  OXE d   1      -0.158  -2.171  -0.309  0.00  0.00    -0.078 A 
ATOM      4  C2  OXE d   1       0.384  -1.796  -1.514  0.00  0.00    -0.078 A 
ATOM      5  C3  OXE d   1       0.566  -0.445  -1.798  0.00  0.00     0.003 A 
ATOM      6  C4  OXE d   1       0.346   0.523  -0.811  0.00  0.00    -0.002 A 
ATOM      7  C5  OXE d   1      -0.169   0.158   0.438  0.00  0.00    -0.002 A 
ATOM      8  C6  OXE d   1      -0.466  -1.177   0.690  0.00  0.00     0.003 A 
ENDROOT
TORSDOF 0
ENDMDL
