MODEL 1
REMARK minimizedAffinity -3.20943522
REMARK minimizedRMSD -1
REMARK  0 active torsions:
REMARK  status: ('A' for Active; 'I' for Inactive)
ROOT
ATOM      1  C2' OXE d   1      -1.159  -0.233   1.379  0.00  0.00     0.078 C 
ATOM      2  C1' OXE d   1       0.621   0.825  -0.516  0.00  0.00     0.078 C 
ATOM      3  C1  OXE d   1       0.344  -0.657  -0.562  0.00  0.00    -0.078 A 
ATOM      4  C2  OXE d   1      -0.491  -1.174   0.399  0.00  0.00    -0.078 A 
ATOM      5  C3  OXE d   1      -0.823  -2.525   0.369  0.00  0.00     0.003 A 
ATOM      6  C4  OXE d   1      -0.194  -3.390  -0.535  0.00  0.00    -0.002 A 
ATOM      7  C5  OXE d   1       0.691  -2.890  -1.496  0.00  0.00    -0.002 A 
ATOM      8  C6  OXE d   1       0.938  -1.523  -1.550  0.00  0.00     0.003 A 
ENDROOT
TORSDOF 0
ENDMDL
