MODEL 1
REMARK minimizedAffinity -5.30265427
REMARK minimizedRMSD -1
REMARK  0 active torsions:
REMARK  status: ('A' for Active; 'I' for Inactive)
ROOT
ATOM      1  C2' OXE d   1      -0.746  -0.391   1.213  0.00  0.00     0.078 C 
ATOM      2  C1' OXE d   1       0.540   0.744  -1.009  0.00  0.00     0.078 C 
ATOM      3  C1  OXE d   1       0.190  -0.722  -1.071  0.00  0.00    -0.078 A 
ATOM      4  C2  OXE d   1      -0.397  -1.279   0.039  0.00  0.00    -0.078 A 
ATOM      5  C3  OXE d   1      -0.789  -2.615   0.014  0.00  0.00     0.003 A 
ATOM      6  C4  OXE d   1      -0.453  -3.432  -1.072  0.00  0.00    -0.002 A 
ATOM      7  C5  OXE d   1       0.180  -2.893  -2.197  0.00  0.00    -0.002 A 
ATOM      8  C6  OXE d   1       0.470  -1.533  -2.230  0.00  0.00     0.003 A 
ENDROOT
TORSDOF 0
ENDMDL
