MODEL 1
REMARK minimizedAffinity 5.3927002
REMARK minimizedRMSD -1
REMARK  0 active torsions:
REMARK  status: ('A' for Active; 'I' for Inactive)
ROOT
ATOM      1  O1  BZF d   1       3.146   1.302   1.879  0.00  0.00    -0.204 OA
ATOM      2  C2  BZF d   1       2.661   1.571   0.614  0.00  0.00     0.174 A 
ATOM      3  C3  BZF d   1       1.912   0.545   0.161  0.00  0.00    -0.012 A 
ATOM      4  C3A BZF d   1       1.854  -0.386   1.245  0.00  0.00    -0.107 A 
ATOM      5  C4  BZF d   1       1.244  -1.597   1.412  0.00  0.00     0.055 A 
ATOM      6  C5  BZF d   1       1.445  -2.285   2.566  0.00  0.00    -0.016 A 
ATOM      7  C6  BZF d   1       2.253  -1.795   3.572  0.00  0.00     0.022 A 
ATOM      8  C7  BZF d   1       2.875  -0.597   3.454  0.00  0.00     0.029 A 
ATOM      9  C7A BZF d   1       2.648   0.116   2.302  0.00  0.00     0.058 A 
ENDROOT
TORSDOF 0
ENDMDL
