MODEL 1
REMARK minimizedAffinity 11.0826216
REMARK minimizedRMSD -1
REMARK  0 active torsions:
REMARK  status: ('A' for Active; 'I' for Inactive)
ROOT
ATOM      1  O1  BZF d   1      -3.865   2.831  -5.342  0.00  0.00    -0.204 OA
ATOM      2  C2  BZF d   1      -5.193   2.886  -5.719  0.00  0.00     0.174 A 
ATOM      3  C3  BZF d   1      -5.999   2.859  -4.637  0.00  0.00    -0.012 A 
ATOM      4  C3A BZF d   1      -5.117   2.875  -3.511  0.00  0.00    -0.107 A 
ATOM      5  C4  BZF d   1      -5.319   2.877  -2.160  0.00  0.00     0.055 A 
ATOM      6  C5  BZF d   1      -4.243   2.821  -1.332  0.00  0.00    -0.016 A 
ATOM      7  C6  BZF d   1      -2.954   2.757  -1.818  0.00  0.00     0.022 A 
ATOM      8  C7  BZF d   1      -2.704   2.758  -3.150  0.00  0.00     0.029 A 
ATOM      9  C7A BZF d   1      -3.787   2.848  -3.990  0.00  0.00     0.058 A 
ENDROOT
TORSDOF 0
ENDMDL
