MODEL 1
REMARK minimizedAffinity 9.1679678
REMARK minimizedRMSD -1
REMARK  0 active torsions:
REMARK  status: ('A' for Active; 'I' for Inactive)
ROOT
ATOM      1  O1  BZF d   1      -4.732   2.413   2.525  0.00  0.00    -0.204 OA
ATOM      2  C2  BZF d   1      -5.884   3.098   2.189  0.00  0.00     0.174 A 
ATOM      3  C3  BZF d   1      -5.875   3.438   0.883  0.00  0.00    -0.012 A 
ATOM      4  C3A BZF d   1      -4.683   2.853   0.351  0.00  0.00    -0.107 A 
ATOM      5  C4  BZF d   1      -4.127   2.826  -0.896  0.00  0.00     0.055 A 
ATOM      6  C5  BZF d   1      -2.918   2.230  -1.067  0.00  0.00    -0.016 A 
ATOM      7  C6  BZF d   1      -2.235   1.657  -0.014  0.00  0.00     0.022 A 
ATOM      8  C7  BZF d   1      -2.749   1.654   1.240  0.00  0.00     0.029 A 
ATOM      9  C7A BZF d   1      -3.986   2.226   1.410  0.00  0.00     0.058 A 
ENDROOT
TORSDOF 0
ENDMDL
