MODEL 1
REMARK minimizedAffinity 3.46497917
REMARK minimizedRMSD -1
REMARK  0 active torsions:
REMARK  status: ('A' for Active; 'I' for Inactive)
ROOT
ATOM      1  O1  BZF d   1       1.392  -2.283  -1.131  0.00  0.00    -0.204 OA
ATOM      2  C2  BZF d   1       2.117  -2.197  -2.304  0.00  0.00     0.174 A 
ATOM      3  C3  BZF d   1       2.852  -1.066  -2.330  0.00  0.00    -0.012 A 
ATOM      4  C3A BZF d   1       2.640  -0.449  -1.056  0.00  0.00    -0.107 A 
ATOM      5  C4  BZF d   1       3.112   0.693  -0.476  0.00  0.00     0.055 A 
ATOM      6  C5  BZF d   1       2.652   1.048   0.753  0.00  0.00    -0.016 A 
ATOM      7  C6  BZF d   1       1.718   0.289   1.426  0.00  0.00     0.022 A 
ATOM      8  C7  BZF d   1       1.224  -0.855   0.893  0.00  0.00     0.029 A 
ATOM      9  C7A BZF d   1       1.711  -1.234  -0.334  0.00  0.00     0.058 A 
ENDROOT
TORSDOF 0
ENDMDL
