MODEL 1
REMARK minimizedAffinity 4.46615267
REMARK minimizedRMSD -1
REMARK  0 active torsions:
REMARK  status: ('A' for Active; 'I' for Inactive)
ROOT
ATOM      1  O1  BZF d   1       1.871  -1.222   3.779  0.00  0.00    -0.204 OA
ATOM      2  C2  BZF d   1       1.655  -2.251   2.882  0.00  0.00     0.174 A 
ATOM      3  C3  BZF d   1       1.879  -1.838   1.618  0.00  0.00    -0.012 A 
ATOM      4  C3A BZF d   1       2.348  -0.491   1.739  0.00  0.00    -0.107 A 
ATOM      5  C4  BZF d   1       2.751   0.447   0.833  0.00  0.00     0.055 A 
ATOM      6  C5  BZF d   1       3.079   1.691   1.272  0.00  0.00    -0.016 A 
ATOM      7  C6  BZF d   1       3.010   2.031   2.607  0.00  0.00     0.022 A 
ATOM      8  C7  BZF d   1       2.620   1.132   3.544  0.00  0.00     0.029 A 
ATOM      9  C7A BZF d   1       2.320  -0.135   3.107  0.00  0.00     0.058 A 
ENDROOT
TORSDOF 0
ENDMDL
