MODEL 1
REMARK minimizedAffinity -3.91802669
REMARK minimizedRMSD -1
REMARK  0 active torsions:
REMARK  status: ('A' for Active; 'I' for Inactive)
ROOT
ATOM      1  O1  BZF d   1       0.084  -1.511  -0.437  0.00  0.00    -0.204 OA
ATOM      2  C2  BZF d   1       1.278  -1.072  -0.977  0.00  0.00     0.174 A 
ATOM      3  C3  BZF d   1       1.504   0.218  -0.654  0.00  0.00    -0.012 A 
ATOM      4  C3A BZF d   1       0.426   0.583   0.214  0.00  0.00    -0.107 A 
ATOM      5  C4  BZF d   1       0.103   1.732   0.876  0.00  0.00     0.055 A 
ATOM      6  C5  BZF d   1      -1.056   1.783   1.583  0.00  0.00    -0.016 A 
ATOM      7  C6  BZF d   1      -1.917   0.707   1.645  0.00  0.00     0.022 A 
ATOM      8  C7  BZF d   1      -1.637  -0.456   1.008  0.00  0.00     0.029 A 
ATOM      9  C7A BZF d   1      -0.450  -0.522   0.320  0.00  0.00     0.058 A 
ENDROOT
TORSDOF 0
ENDMDL
