MODEL 1
REMARK minimizedAffinity -0.577966869
REMARK minimizedRMSD -1
REMARK  0 active torsions:
REMARK  status: ('A' for Active; 'I' for Inactive)
ROOT
ATOM      1  O1  BZF d   1       0.697   0.212  -0.725  0.00  0.00    -0.204 OA
ATOM      2  C2  BZF d   1       1.254  -1.050  -0.650  0.00  0.00     0.174 A 
ATOM      3  C3  BZF d   1       0.951  -1.637   0.526  0.00  0.00    -0.012 A 
ATOM      4  C3A BZF d   1       0.080  -0.719   1.192  0.00  0.00    -0.107 A 
ATOM      5  C4  BZF d   1      -0.570  -0.743   2.393  0.00  0.00     0.055 A 
ATOM      6  C5  BZF d   1      -1.286   0.345   2.779  0.00  0.00    -0.016 A 
ATOM      7  C6  BZF d   1      -1.370   1.475   1.993  0.00  0.00     0.022 A 
ATOM      8  C7  BZF d   1      -0.747   1.545   0.791  0.00  0.00     0.029 A 
ATOM      9  C7A BZF d   1      -0.050   0.434   0.384  0.00  0.00     0.058 A 
ENDROOT
TORSDOF 0
ENDMDL
