MODEL 1
REMARK minimizedAffinity -3.89200449
REMARK minimizedRMSD -1
REMARK  0 active torsions:
REMARK  status: ('A' for Active; 'I' for Inactive)
ROOT
ATOM      1  O1  BZF d   1       1.822  -3.005  -2.040  0.00  0.00    -0.204 OA
ATOM      2  C2  BZF d   1       0.874  -3.261  -3.012  0.00  0.00     0.174 A 
ATOM      3  C3  BZF d   1      -0.270  -2.597  -2.751  0.00  0.00    -0.012 A 
ATOM      4  C3A BZF d   1       0.009  -1.809  -1.590  0.00  0.00    -0.107 A 
ATOM      5  C4  BZF d   1      -0.729  -0.923  -0.857  0.00  0.00     0.055 A 
ATOM      6  C5  BZF d   1      -0.185  -0.379   0.263  0.00  0.00    -0.016 A 
ATOM      7  C6  BZF d   1       1.089  -0.701   0.682  0.00  0.00     0.022 A 
ATOM      8  C7  BZF d   1       1.861  -1.571  -0.015  0.00  0.00     0.029 A 
ATOM      9  C7A BZF d   1       1.326  -2.097  -1.165  0.00  0.00     0.058 A 
ENDROOT
TORSDOF 0
ENDMDL
