MODEL 1
REMARK minimizedAffinity -0.223402306
REMARK minimizedRMSD -1
REMARK  0 active torsions:
REMARK  status: ('A' for Active; 'I' for Inactive)
ROOT
ATOM      1  O1  BZF d   1      -0.881  -3.575  -1.081  0.00  0.00    -0.204 OA
ATOM      2  C2  BZF d   1      -0.091  -3.882  -2.172  0.00  0.00     0.174 A 
ATOM      3  C3  BZF d   1       0.705  -2.842  -2.493  0.00  0.00    -0.012 A 
ATOM      4  C3A BZF d   1       0.460  -1.855  -1.487  0.00  0.00    -0.107 A 
ATOM      5  C4  BZF d   1       0.963  -0.607  -1.254  0.00  0.00     0.055 A 
ATOM      6  C5  BZF d   1       0.458   0.127  -0.227  0.00  0.00    -0.016 A 
ATOM      7  C6  BZF d   1      -0.551  -0.353   0.581  0.00  0.00     0.022 A 
ATOM      8  C7  BZF d   1      -1.078  -1.587   0.392  0.00  0.00     0.029 A 
ATOM      9  C7A BZF d   1      -0.548  -2.344  -0.624  0.00  0.00     0.058 A 
ENDROOT
TORSDOF 0
ENDMDL
