MODEL 1
REMARK minimizedAffinity -3.56554413
REMARK minimizedRMSD -1
REMARK  0 active torsions:
REMARK  status: ('A' for Active; 'I' for Inactive)
ROOT
ATOM      1  O1  BZF d   1       1.056   1.677  -0.713  0.00  0.00    -0.204 OA
ATOM      2  C2  BZF d   1       1.762   0.578  -1.164  0.00  0.00     0.174 A 
ATOM      3  C3  BZF d   1       1.430  -0.525  -0.463  0.00  0.00    -0.012 A 
ATOM      4  C3A BZF d   1       0.389  -0.107   0.425  0.00  0.00    -0.107 A 
ATOM      5  C4  BZF d   1      -0.361  -0.756   1.364  0.00  0.00     0.055 A 
ATOM      6  C5  BZF d   1      -1.244  -0.044   2.112  0.00  0.00    -0.016 A 
ATOM      7  C6  BZF d   1      -1.400   1.317   1.950  0.00  0.00     0.022 A 
ATOM      8  C7  BZF d   1      -0.683   2.004   1.028  0.00  0.00     0.029 A 
ATOM      9  C7A BZF d   1       0.187   1.281   0.248  0.00  0.00     0.058 A 
ENDROOT
TORSDOF 0
ENDMDL
