MODEL 1
REMARK minimizedAffinity -3.3542521
REMARK minimizedRMSD -1
REMARK  0 active torsions:
REMARK  status: ('A' for Active; 'I' for Inactive)
ROOT
ATOM      1  O1  BZF d   1      -1.310  -3.076  -1.551  0.00  0.00    -0.204 OA
ATOM      2  C2  BZF d   1      -0.305  -3.239  -2.485  0.00  0.00     0.174 A 
ATOM      3  C3  BZF d   1       0.606  -2.250  -2.387  0.00  0.00    -0.012 A 
ATOM      4  C3A BZF d   1       0.191  -1.466  -1.264  0.00  0.00    -0.107 A 
ATOM      5  C4  BZF d   1       0.699  -0.355  -0.656  0.00  0.00     0.055 A 
ATOM      6  C5  BZF d   1       0.013   0.207   0.375  0.00  0.00    -0.016 A 
ATOM      7  C6  BZF d   1      -1.185  -0.314   0.818  0.00  0.00     0.022 A 
ATOM      8  C7  BZF d   1      -1.726  -1.419   0.249  0.00  0.00     0.029 A 
ATOM      9  C7A BZF d   1      -1.019  -2.007  -0.770  0.00  0.00     0.058 A 
ENDROOT
TORSDOF 0
ENDMDL
