MODEL 1
REMARK minimizedAffinity -4.38239431
REMARK minimizedRMSD -1
REMARK  0 active torsions:
REMARK  status: ('A' for Active; 'I' for Inactive)
ROOT
ATOM      1  O1  BZF d   1      -0.451  -2.657  -1.130  0.00  0.00    -0.204 OA
ATOM      2  C2  BZF d   1       0.832  -2.547  -1.631  0.00  0.00     0.174 A 
ATOM      3  C3  BZF d   1       1.452  -1.462  -1.125  0.00  0.00    -0.012 A 
ATOM      4  C3A BZF d   1       0.529  -0.906  -0.183  0.00  0.00    -0.107 A 
ATOM      5  C4  BZF d   1       0.577   0.172   0.654  0.00  0.00     0.055 A 
ATOM      6  C5  BZF d   1      -0.521   0.484   1.392  0.00  0.00    -0.016 A 
ATOM      7  C6  BZF d   1      -1.682  -0.256   1.314  0.00  0.00     0.022 A 
ATOM      8  C7  BZF d   1      -1.775  -1.338   0.503  0.00  0.00     0.029 A 
ATOM      9  C7A BZF d   1      -0.657  -1.675  -0.220  0.00  0.00     0.058 A 
ENDROOT
TORSDOF 0
ENDMDL
