MODEL 1
REMARK minimizedAffinity 1.48183823
REMARK minimizedRMSD -1
REMARK  0 active torsions:
REMARK  status: ('A' for Active; 'I' for Inactive)
ROOT
ATOM      1  O1  BZF d   1       0.402  -0.831  -2.544  0.00  0.00    -0.204 OA
ATOM      2  C2  BZF d   1       0.937  -0.128  -1.482  0.00  0.00     0.174 A 
ATOM      3  C3  BZF d   1       1.415  -0.970  -0.543  0.00  0.00    -0.012 A 
ATOM      4  C3A BZF d   1       1.246  -2.281  -1.092  0.00  0.00    -0.107 A 
ATOM      5  C4  BZF d   1       1.545  -3.534  -0.639  0.00  0.00     0.055 A 
ATOM      6  C5  BZF d   1       1.185  -4.610  -1.387  0.00  0.00    -0.016 A 
ATOM      7  C6  BZF d   1       0.521  -4.470  -2.588  0.00  0.00     0.022 A 
ATOM      8  C7  BZF d   1       0.207  -3.247  -3.081  0.00  0.00     0.029 A 
ATOM      9  C7A BZF d   1       0.599  -2.156  -2.343  0.00  0.00     0.058 A 
ENDROOT
TORSDOF 0
ENDMDL
