MODEL 1
REMARK minimizedAffinity -2.50636935
REMARK minimizedRMSD -1
REMARK  0 active torsions:
REMARK  status: ('A' for Active; 'I' for Inactive)
ROOT
ATOM      1  O1  BZF d   1       0.852  -0.489  -1.705  0.00  0.00    -0.204 OA
ATOM      2  C2  BZF d   1       0.687  -1.856  -1.598  0.00  0.00     0.174 A 
ATOM      3  C3  BZF d   1       0.032  -2.171  -0.462  0.00  0.00    -0.012 A 
ATOM      4  C3A BZF d   1      -0.311  -0.917   0.136  0.00  0.00    -0.107 A 
ATOM      5  C4  BZF d   1      -0.983  -0.572   1.273  0.00  0.00     0.055 A 
ATOM      6  C5  BZF d   1      -1.082   0.741   1.609  0.00  0.00    -0.016 A 
ATOM      7  C6  BZF d   1      -0.517   1.733   0.834  0.00  0.00     0.022 A 
ATOM      8  C7  BZF d   1       0.155   1.440  -0.306  0.00  0.00     0.029 A 
ATOM      9  C7A BZF d   1       0.228   0.116  -0.665  0.00  0.00     0.058 A 
ENDROOT
TORSDOF 0
ENDMDL
