MODEL 1
REMARK minimizedAffinity -3.54571629
REMARK minimizedRMSD -1
REMARK  0 active torsions:
REMARK  status: ('A' for Active; 'I' for Inactive)
ROOT
ATOM      1  O1  BZF d   1      -0.953  -0.225  -0.868  0.00  0.00    -0.204 OA
ATOM      2  C2  BZF d   1       0.069   0.366  -0.150  0.00  0.00     0.174 A 
ATOM      3  C3  BZF d   1       1.164  -0.420  -0.141  0.00  0.00    -0.012 A 
ATOM      4  C3A BZF d   1       0.835  -1.533  -0.979  0.00  0.00    -0.107 A 
ATOM      5  C4  BZF d   1       1.522  -2.645  -1.376  0.00  0.00     0.055 A 
ATOM      6  C5  BZF d   1       0.889  -3.575  -2.138  0.00  0.00    -0.016 A 
ATOM      7  C6  BZF d   1      -0.430  -3.428  -2.516  0.00  0.00     0.022 A 
ATOM      8  C7  BZF d   1      -1.150  -2.340  -2.151  0.00  0.00     0.029 A 
ATOM      9  C7A BZF d   1      -0.503  -1.382  -1.409  0.00  0.00     0.058 A 
ENDROOT
TORSDOF 0
ENDMDL
