MODEL 1
REMARK minimizedAffinity -3.1584692
REMARK minimizedRMSD -1
REMARK  0 active torsions:
REMARK  status: ('A' for Active; 'I' for Inactive)
ROOT
ATOM      1  O1  BZF d   1      -0.887  -3.507  -0.853  0.00  0.00    -0.204 OA
ATOM      2  C2  BZF d   1      -0.039  -3.790  -1.906  0.00  0.00     0.174 A 
ATOM      3  C3  BZF d   1       0.678  -2.700  -2.249  0.00  0.00    -0.012 A 
ATOM      4  C3A BZF d   1       0.317  -1.697  -1.296  0.00  0.00    -0.107 A 
ATOM      5  C4  BZF d   1       0.705  -0.402  -1.103  0.00  0.00     0.055 A 
ATOM      6  C5  BZF d   1       0.108   0.328  -0.125  0.00  0.00    -0.016 A 
ATOM      7  C6  BZF d   1      -0.884  -0.202   0.674  0.00  0.00     0.022 A 
ATOM      8  C7  BZF d   1      -1.299  -1.483   0.524  0.00  0.00     0.029 A 
ATOM      9  C7A BZF d   1      -0.674  -2.234  -0.442  0.00  0.00     0.058 A 
ENDROOT
TORSDOF 0
ENDMDL
