MODEL 1
REMARK minimizedAffinity -4.73200703
REMARK minimizedRMSD -1
REMARK  0 active torsions:
REMARK  status: ('A' for Active; 'I' for Inactive)
ROOT
ATOM      1  O1  BZF d   1       0.592   1.372  -0.773  0.00  0.00    -0.204 OA
ATOM      2  C2  BZF d   1       0.738   2.731  -0.973  0.00  0.00     0.174 A 
ATOM      3  C3  BZF d   1      -0.025   3.427  -0.105  0.00  0.00    -0.012 A 
ATOM      4  C3A BZF d   1      -0.618   2.443   0.748  0.00  0.00    -0.107 A 
ATOM      5  C4  BZF d   1      -1.465   2.515   1.816  0.00  0.00     0.055 A 
ATOM      6  C5  BZF d   1      -1.914   1.363   2.382  0.00  0.00    -0.016 A 
ATOM      7  C6  BZF d   1      -1.541   0.125   1.901  0.00  0.00     0.022 A 
ATOM      8  C7  BZF d   1      -0.699   0.003   0.846  0.00  0.00     0.029 A 
ATOM      9  C7A BZF d   1      -0.217   1.165   0.294  0.00  0.00     0.058 A 
ENDROOT
TORSDOF 0
ENDMDL
