MODEL 1
REMARK minimizedAffinity -3.42212057
REMARK minimizedRMSD -1
REMARK  0 active torsions:
REMARK  status: ('A' for Active; 'I' for Inactive)
ROOT
ATOM      1  O1  BZF d   1       1.898  -1.508  -0.994  0.00  0.00    -0.204 OA
ATOM      2  C2  BZF d   1       1.168  -2.286  -1.871  0.00  0.00     0.174 A 
ATOM      3  C3  BZF d   1      -0.125  -2.348  -1.494  0.00  0.00    -0.012 A 
ATOM      4  C3A BZF d   1      -0.228  -1.483  -0.359  0.00  0.00    -0.107 A 
ATOM      5  C4  BZF d   1      -1.265  -1.115   0.450  0.00  0.00     0.055 A 
ATOM      6  C5  BZF d   1      -1.017  -0.311   1.517  0.00  0.00    -0.016 A 
ATOM      7  C6  BZF d   1       0.255   0.138   1.807  0.00  0.00     0.022 A 
ATOM      8  C7  BZF d   1       1.314  -0.196   1.031  0.00  0.00     0.029 A 
ATOM      9  C7A BZF d   1       1.061  -0.982  -0.067  0.00  0.00     0.058 A 
ENDROOT
TORSDOF 0
ENDMDL
