MODEL 1
REMARK minimizedAffinity -3.2886169
REMARK minimizedRMSD -1
REMARK  0 active torsions:
REMARK  status: ('A' for Active; 'I' for Inactive)
ROOT
ATOM      1  O1  BZF d   1      -0.322   2.673  -0.090  0.00  0.00    -0.204 OA
ATOM      2  C2  BZF d   1      -1.220   2.744   0.958  0.00  0.00     0.174 A 
ATOM      3  C3  BZF d   1      -1.303   1.560   1.597  0.00  0.00    -0.012 A 
ATOM      4  C3A BZF d   1      -0.333   0.721   0.964  0.00  0.00    -0.107 A 
ATOM      5  C4  BZF d   1       0.067  -0.569   1.164  0.00  0.00     0.055 A 
ATOM      6  C5  BZF d   1       0.987  -1.114   0.325  0.00  0.00    -0.016 A 
ATOM      7  C6  BZF d   1       1.523  -0.400  -0.726  0.00  0.00     0.022 A 
ATOM      8  C7  BZF d   1       1.161   0.885  -0.962  0.00  0.00     0.029 A 
ATOM      9  C7A BZF d   1       0.256   1.448  -0.096  0.00  0.00     0.058 A 
ENDROOT
TORSDOF 0
ENDMDL
