MODEL 1
REMARK minimizedAffinity -3.00063634
REMARK minimizedRMSD -1
REMARK  0 active torsions:
REMARK  status: ('A' for Active; 'I' for Inactive)
ROOT
ATOM      1  O1  BZF d   1       1.260   0.796  -0.825  0.00  0.00    -0.204 OA
ATOM      2  C2  BZF d   1       1.383  -0.572  -0.976  0.00  0.00     0.174 A 
ATOM      3  C3  BZF d   1       0.588  -1.223  -0.102  0.00  0.00    -0.012 A 
ATOM      4  C3A BZF d   1      -0.141  -0.197   0.579  0.00  0.00    -0.107 A 
ATOM      5  C4  BZF d   1      -1.098  -0.215   1.554  0.00  0.00     0.055 A 
ATOM      6  C5  BZF d   1      -1.553   0.963   2.054  0.00  0.00    -0.016 A 
ATOM      7  C6  BZF d   1      -1.071   2.176   1.607  0.00  0.00     0.022 A 
ATOM      8  C7  BZF d   1      -0.125   2.245   0.639  0.00  0.00     0.029 A 
ATOM      9  C7A BZF d   1       0.313   1.056   0.108  0.00  0.00     0.058 A 
ENDROOT
TORSDOF 0
ENDMDL
