MODEL 1
REMARK minimizedAffinity -4.15099764
REMARK minimizedRMSD -1
REMARK  0 active torsions:
REMARK  status: ('A' for Active; 'I' for Inactive)
ROOT
ATOM      1  O1  BZF d   1       1.425  -3.252  -1.993  0.00  0.00    -0.204 OA
ATOM      2  C2  BZF d   1       0.523  -3.338  -3.036  0.00  0.00     0.174 A 
ATOM      3  C3  BZF d   1      -0.472  -2.440  -2.883  0.00  0.00    -0.012 A 
ATOM      4  C3A BZF d   1      -0.124  -1.687  -1.718  0.00  0.00    -0.107 A 
ATOM      5  C4  BZF d   1      -0.712  -0.641  -1.065  0.00  0.00     0.055 A 
ATOM      6  C5  BZF d   1      -0.154  -0.184   0.086  0.00  0.00    -0.016 A 
ATOM      7  C6  BZF d   1       0.986  -0.751   0.616  0.00  0.00     0.022 A 
ATOM      8  C7  BZF d   1       1.608  -1.786   0.002  0.00  0.00     0.029 A 
ATOM      9  C7A BZF d   1       1.066  -2.230  -1.179  0.00  0.00     0.058 A 
ENDROOT
TORSDOF 0
ENDMDL
