MODEL 1
REMARK minimizedAffinity -2.65720606
REMARK minimizedRMSD -1
REMARK  0 active torsions:
REMARK  status: ('A' for Active; 'I' for Inactive)
ROOT
ATOM      1  O1  BZF d   1      -0.635   2.189   1.298  0.00  0.00    -0.204 OA
ATOM      2  C2  BZF d   1      -0.912   1.171   2.189  0.00  0.00     0.174 A 
ATOM      3  C3  BZF d   1      -0.428  -0.004   1.738  0.00  0.00    -0.012 A 
ATOM      4  C3A BZF d   1       0.270   0.314   0.531  0.00  0.00    -0.107 A 
ATOM      5  C4  BZF d   1       0.978  -0.431  -0.369  0.00  0.00     0.055 A 
ATOM      6  C5  BZF d   1       1.473   0.173  -1.481  0.00  0.00    -0.016 A 
ATOM      7  C6  BZF d   1       1.276   1.516  -1.728  0.00  0.00     0.022 A 
ATOM      8  C7  BZF d   1       0.585   2.296  -0.861  0.00  0.00     0.029 A 
ATOM      9  C7A BZF d   1       0.112   1.697   0.280  0.00  0.00     0.058 A 
ENDROOT
TORSDOF 0
ENDMDL
