MODEL 1
REMARK minimizedAffinity 14.6638708
REMARK minimizedRMSD -1
REMARK  0 active torsions:
REMARK  status: ('A' for Active; 'I' for Inactive)
ROOT
ATOM      1  C   UNL d   1      -3.772   5.996   1.798  0.00  0.00     0.020 A 
ATOM      2  C1  UNL d   1      -4.810   5.996   0.866  0.00  0.00     0.020 A 
ATOM      3  C2  UNL d   1      -4.521   5.997  -0.500  0.00  0.00     0.034 A 
ATOM      4  C3  UNL d   1      -3.192   5.997  -0.939  0.00  0.00     0.017 A 
ATOM      5  C4  UNL d   1      -2.151   5.997  -0.003  0.00  0.00     0.017 A 
ATOM      6  C5  UNL d   1      -2.446   5.996   1.364  0.00  0.00     0.034 A 
ATOM      7 Cl   UNL d   1      -0.487   5.998  -0.469  0.00  0.00    -0.070 Cl
ATOM      8 Cl1  UNL d   1      -2.909   5.998  -2.644  0.00  0.00    -0.070 Cl
ENDROOT
TORSDOF 0
ENDMDL
