MODEL 1
REMARK minimizedAffinity 18.4264355
REMARK minimizedRMSD -1
REMARK  0 active torsions:
REMARK  status: ('A' for Active; 'I' for Inactive)
ROOT
ATOM      1  C   UNL d   1       1.810  -0.088  -5.992  0.00  0.00     0.020 A 
ATOM      2  C1  UNL d   1       0.576  -0.738  -5.999  0.00  0.00     0.020 A 
ATOM      3  C2  UNL d   1       0.522  -2.133  -6.000  0.00  0.00     0.034 A 
ATOM      4  C3  UNL d   1       1.704  -2.883  -5.994  0.00  0.00     0.017 A 
ATOM      5  C4  UNL d   1       2.942  -2.230  -5.987  0.00  0.00     0.017 A 
ATOM      6  C5  UNL d   1       2.990  -0.832  -5.986  0.00  0.00     0.034 A 
ATOM      7 Cl   UNL d   1       4.442  -3.087  -5.979  0.00  0.00    -0.070 Cl
ATOM      8 Cl1  UNL d   1       1.563  -4.605  -5.995  0.00  0.00    -0.070 Cl
ENDROOT
TORSDOF 0
ENDMDL
