MODEL 1
REMARK minimizedAffinity 18.4145164
REMARK minimizedRMSD -1
REMARK  0 active torsions:
REMARK  status: ('A' for Active; 'I' for Inactive)
ROOT
ATOM      1  C   UNL d   1       0.843  -0.335  -5.989  0.00  0.00     0.020 A 
ATOM      2  C1  UNL d   1       2.187   0.035  -5.992  0.00  0.00     0.020 A 
ATOM      3  C2  UNL d   1       3.181  -0.946  -5.995  0.00  0.00     0.034 A 
ATOM      4  C3  UNL d   1       2.832  -2.302  -5.994  0.00  0.00     0.017 A 
ATOM      5  C4  UNL d   1       1.482  -2.672  -5.991  0.00  0.00     0.017 A 
ATOM      6  C5  UNL d   1       0.491  -1.685  -5.989  0.00  0.00     0.034 A 
ATOM      7 Cl   UNL d   1       0.973  -4.323  -5.990  0.00  0.00    -0.070 Cl
ATOM      8 Cl1  UNL d   1       4.113  -3.461  -5.998  0.00  0.00    -0.070 Cl
ENDROOT
TORSDOF 0
ENDMDL
