MODEL 1
REMARK minimizedAffinity 9.93248081
REMARK minimizedRMSD -1
REMARK  0 active torsions:
REMARK  status: ('A' for Active; 'I' for Inactive)
ROOT
ATOM      1  C   UNL d   1      -3.329   0.298   3.015  0.00  0.00     0.020 A 
ATOM      2  C1  UNL d   1      -2.602  -0.700   3.663  0.00  0.00     0.020 A 
ATOM      3  C2  UNL d   1      -1.262  -0.915   3.331  0.00  0.00     0.034 A 
ATOM      4  C3  UNL d   1      -0.646  -0.132   2.348  0.00  0.00     0.017 A 
ATOM      5  C4  UNL d   1      -1.377   0.869   1.698  0.00  0.00     0.017 A 
ATOM      6  C5  UNL d   1      -2.718   1.080   2.034  0.00  0.00     0.034 A 
ATOM      7 Cl   UNL d   1      -0.686   1.876   0.475  0.00  0.00    -0.070 Cl
ATOM      8 Cl1  UNL d   1       1.013  -0.452   1.989  0.00  0.00    -0.070 Cl
ENDROOT
TORSDOF 0
ENDMDL
