MODEL 1
REMARK minimizedAffinity 17.8210411
REMARK minimizedRMSD -1
REMARK  0 active torsions:
REMARK  status: ('A' for Active; 'I' for Inactive)
ROOT
ATOM      1  C   UNL d   1       5.999  -3.023   1.448  0.00  0.00     0.020 A 
ATOM      2  C1  UNL d   1       5.739  -4.363   1.731  0.00  0.00     0.020 A 
ATOM      3  C2  UNL d   1       4.428  -4.787   1.959  0.00  0.00     0.034 A 
ATOM      4  C3  UNL d   1       3.372  -3.869   1.905  0.00  0.00     0.017 A 
ATOM      5  C4  UNL d   1       3.635  -2.524   1.621  0.00  0.00     0.017 A 
ATOM      6  C5  UNL d   1       4.949  -2.105   1.393  0.00  0.00     0.034 A 
ATOM      7 Cl   UNL d   1       2.385  -1.333   1.537  0.00  0.00    -0.070 Cl
ATOM      8 Cl1  UNL d   1       1.776  -4.462   2.197  0.00  0.00    -0.070 Cl
ENDROOT
TORSDOF 0
ENDMDL
