MODEL 1
REMARK minimizedAffinity 17.9393024
REMARK minimizedRMSD -1
REMARK  0 active torsions:
REMARK  status: ('A' for Active; 'I' for Inactive)
ROOT
ATOM      1  C   UNL d   1      -4.660   6.000   3.034  0.00  0.00     0.020 A 
ATOM      2  C1  UNL d   1      -5.907   6.000   2.409  0.00  0.00     0.020 A 
ATOM      3  C2  UNL d   1      -5.999   5.763   1.036  0.00  0.00     0.034 A 
ATOM      4  C3  UNL d   1      -4.844   5.525   0.283  0.00  0.00     0.017 A 
ATOM      5  C4  UNL d   1      -3.593   5.525   0.911  0.00  0.00     0.017 A 
ATOM      6  C5  UNL d   1      -3.506   5.763   2.286  0.00  0.00     0.034 A 
ATOM      7 Cl   UNL d   1      -2.123   5.240   0.048  0.00  0.00    -0.070 Cl
ATOM      8 Cl1  UNL d   1      -5.033   5.239  -1.411  0.00  0.00    -0.070 Cl
ENDROOT
TORSDOF 0
ENDMDL
