MODEL 1
REMARK minimizedAffinity 21.2647514
REMARK minimizedRMSD -1
REMARK  0 active torsions:
REMARK  status: ('A' for Active; 'I' for Inactive)
ROOT
ATOM      1  C   UNL d   1      -5.294   6.000   1.190  0.00  0.00     0.020 A 
ATOM      2  C1  UNL d   1      -3.914   5.999   1.391  0.00  0.00     0.020 A 
ATOM      3  C2  UNL d   1      -3.056   5.668   0.341  0.00  0.00     0.034 A 
ATOM      4  C3  UNL d   1      -3.576   5.336  -0.916  0.00  0.00     0.017 A 
ATOM      5  C4  UNL d   1      -4.961   5.337  -1.117  0.00  0.00     0.017 A 
ATOM      6  C5  UNL d   1      -5.816   5.669  -0.062  0.00  0.00     0.034 A 
ATOM      7 Cl   UNL d   1      -5.677   4.938  -2.638  0.00  0.00    -0.070 Cl
ATOM      8 Cl1  UNL d   1      -2.456   4.938  -2.169  0.00  0.00    -0.070 Cl
ENDROOT
TORSDOF 0
ENDMDL
