MODEL 1
REMARK minimizedAffinity 8.6157198
REMARK minimizedRMSD -1
REMARK  0 active torsions:
REMARK  status: ('A' for Active; 'I' for Inactive)
ROOT
ATOM      1  C   UNL d   1       0.315   5.611  -1.292  0.00  0.00     0.020 A 
ATOM      2  C1  UNL d   1       0.746   4.286  -1.358  0.00  0.00     0.020 A 
ATOM      3  C2  UNL d   1       0.122   3.310  -0.578  0.00  0.00     0.034 A 
ATOM      4  C3  UNL d   1      -0.934   3.657   0.272  0.00  0.00     0.017 A 
ATOM      5  C4  UNL d   1      -1.365   4.987   0.338  0.00  0.00     0.017 A 
ATOM      6  C5  UNL d   1      -0.738   5.960  -0.446  0.00  0.00     0.034 A 
ATOM      7 Cl   UNL d   1      -2.663   5.492   1.362  0.00  0.00    -0.070 Cl
ATOM      8 Cl1  UNL d   1      -1.659   2.399   1.209  0.00  0.00    -0.070 Cl
ENDROOT
TORSDOF 0
ENDMDL
