MODEL 1
REMARK minimizedAffinity 5.95311689
REMARK minimizedRMSD -1
REMARK  0 active torsions:
REMARK  status: ('A' for Active; 'I' for Inactive)
ROOT
ATOM      1  C   UNL d   1      -0.522   1.660   0.491  0.00  0.00     0.020 A 
ATOM      2  C1  UNL d   1      -0.207   2.687   1.379  0.00  0.00     0.020 A 
ATOM      3  C2  UNL d   1      -0.095   4.001   0.917  0.00  0.00     0.034 A 
ATOM      4  C3  UNL d   1      -0.299   4.290  -0.437  0.00  0.00     0.017 A 
ATOM      5  C4  UNL d   1      -0.616   3.259  -1.328  0.00  0.00     0.017 A 
ATOM      6  C5  UNL d   1      -0.726   1.945  -0.860  0.00  0.00     0.034 A 
ATOM      7 Cl   UNL d   1      -0.882   3.538  -3.013  0.00  0.00    -0.070 Cl
ATOM      8 Cl1  UNL d   1      -0.146   5.937  -0.938  0.00  0.00    -0.070 Cl
ENDROOT
TORSDOF 0
ENDMDL
