MODEL 1
REMARK minimizedAffinity 18.3186169
REMARK minimizedRMSD -1
REMARK  0 active torsions:
REMARK  status: ('A' for Active; 'I' for Inactive)
ROOT
ATOM      1  C   UNL d   1      -1.220   5.080  -3.246  0.00  0.00     0.020 A 
ATOM      2  C1  UNL d   1      -1.831   3.827  -3.242  0.00  0.00     0.020 A 
ATOM      3  C2  UNL d   1      -1.584   2.932  -2.199  0.00  0.00     0.034 A 
ATOM      4  C3  UNL d   1      -0.723   3.289  -1.154  0.00  0.00     0.017 A 
ATOM      5  C4  UNL d   1      -0.110   4.548  -1.159  0.00  0.00     0.017 A 
ATOM      6  C5  UNL d   1      -0.362   5.439  -2.206  0.00  0.00     0.034 A 
ATOM      7 Cl   UNL d   1       0.963   5.060   0.095  0.00  0.00    -0.070 Cl
ATOM      8 Cl1  UNL d   1      -0.463   2.134   0.104  0.00  0.00    -0.070 Cl
ENDROOT
TORSDOF 0
ENDMDL
