MODEL 1
REMARK minimizedAffinity 0.215499848
REMARK minimizedRMSD -1
REMARK  0 active torsions:
REMARK  status: ('A' for Active; 'I' for Inactive)
ROOT
ATOM      1  C   UNL d   1      -0.143   3.717  -0.230  0.00  0.00     0.020 A 
ATOM      2  C1  UNL d   1      -1.270   4.288   0.359  0.00  0.00     0.020 A 
ATOM      3  C2  UNL d   1      -2.059   3.536   1.232  0.00  0.00     0.034 A 
ATOM      4  C3  UNL d   1      -1.723   2.207   1.517  0.00  0.00     0.017 A 
ATOM      5  C4  UNL d   1      -0.591   1.635   0.925  0.00  0.00     0.017 A 
ATOM      6  C5  UNL d   1       0.196   2.393   0.053  0.00  0.00     0.034 A 
ATOM      7 Cl   UNL d   1      -0.112   0.002   1.229  0.00  0.00    -0.070 Cl
ATOM      8 Cl1  UNL d   1      -2.743   1.336   2.605  0.00  0.00    -0.070 Cl
ENDROOT
TORSDOF 0
ENDMDL
