MODEL 1
REMARK minimizedAffinity 10.0047703
REMARK minimizedRMSD -1
REMARK  0 active torsions:
REMARK  status: ('A' for Active; 'I' for Inactive)
ROOT
ATOM      1  C   UNL d   1      -5.886  -3.073   0.345  0.00  0.00     0.020 A 
ATOM      2  C1  UNL d   1      -4.948  -2.052   0.502  0.00  0.00     0.020 A 
ATOM      3  C2  UNL d   1      -4.124  -2.028   1.629  0.00  0.00     0.034 A 
ATOM      4  C3  UNL d   1      -4.236  -3.026   2.604  0.00  0.00     0.017 A 
ATOM      5  C4  UNL d   1      -5.177  -4.050   2.446  0.00  0.00     0.017 A 
ATOM      6  C5  UNL d   1      -6.000  -4.069   1.315  0.00  0.00     0.034 A 
ATOM      7 Cl   UNL d   1      -5.374  -5.316   3.606  0.00  0.00    -0.070 Cl
ATOM      8 Cl1  UNL d   1      -3.185  -2.934   3.972  0.00  0.00    -0.070 Cl
ENDROOT
TORSDOF 0
ENDMDL
