MODEL 1
REMARK minimizedAffinity 3.30908203
REMARK minimizedRMSD -1
REMARK  0 active torsions:
REMARK  status: ('A' for Active; 'I' for Inactive)
ROOT
ATOM      1  C   UNL d   1       0.814   5.420   0.166  0.00  0.00     0.020 A 
ATOM      2  C1  UNL d   1       0.569   5.807  -1.150  0.00  0.00     0.020 A 
ATOM      3  C2  UNL d   1      -0.184   4.985  -1.991  0.00  0.00     0.034 A 
ATOM      4  C3  UNL d   1      -0.693   3.770  -1.517  0.00  0.00     0.017 A 
ATOM      5  C4  UNL d   1      -0.446   3.382  -0.195  0.00  0.00     0.017 A 
ATOM      6  C5  UNL d   1       0.308   4.210   0.643  0.00  0.00     0.034 A 
ATOM      7 Cl   UNL d   1      -1.041   1.898   0.462  0.00  0.00    -0.070 Cl
ATOM      8 Cl1  UNL d   1      -1.615   2.803  -2.612  0.00  0.00    -0.070 Cl
ENDROOT
TORSDOF 0
ENDMDL
