MODEL 1
REMARK minimizedAffinity 8.9620018
REMARK minimizedRMSD -1
REMARK  0 active torsions:
REMARK  status: ('A' for Active; 'I' for Inactive)
ROOT
ATOM      1  C   UNL d   1       0.105   5.513  -1.731  0.00  0.00     0.020 A 
ATOM      2  C1  UNL d   1       0.674   5.166  -0.506  0.00  0.00     0.020 A 
ATOM      3  C2  UNL d   1       0.398   3.922   0.065  0.00  0.00     0.034 A 
ATOM      4  C3  UNL d   1      -0.450   3.021  -0.588  0.00  0.00     0.017 A 
ATOM      5  C4  UNL d   1      -1.021   3.369  -1.818  0.00  0.00     0.017 A 
ATOM      6  C5  UNL d   1      -0.740   4.616  -2.385  0.00  0.00     0.034 A 
ATOM      7 Cl   UNL d   1      -2.076   2.310  -2.684  0.00  0.00    -0.070 Cl
ATOM      8 Cl1  UNL d   1      -0.748   1.500   0.176  0.00  0.00    -0.070 Cl
ENDROOT
TORSDOF 0
ENDMDL
