MODEL 1
REMARK minimizedAffinity 9.64930725
REMARK minimizedRMSD -1
REMARK  0 active torsions:
REMARK  status: ('A' for Active; 'I' for Inactive)
ROOT
ATOM      1  C   UNL d   1       0.250   5.537  -0.147  0.00  0.00     0.020 A 
ATOM      2  C1  UNL d   1      -0.261   5.888  -1.396  0.00  0.00     0.020 A 
ATOM      3  C2  UNL d   1      -0.806   4.908  -2.228  0.00  0.00     0.034 A 
ATOM      4  C3  UNL d   1      -0.841   3.572  -1.813  0.00  0.00     0.017 A 
ATOM      5  C4  UNL d   1      -0.329   3.220  -0.559  0.00  0.00     0.017 A 
ATOM      6  C5  UNL d   1       0.216   4.206   0.271  0.00  0.00     0.034 A 
ATOM      7 Cl   UNL d   1      -0.338   1.593   0.023  0.00  0.00    -0.070 Cl
ATOM      8 Cl1  UNL d   1      -1.530   2.413  -2.893  0.00  0.00    -0.070 Cl
ENDROOT
TORSDOF 0
ENDMDL
