MODEL 1
REMARK minimizedAffinity 4.21464348
REMARK minimizedRMSD -1
REMARK  0 active torsions:
REMARK  status: ('A' for Active; 'I' for Inactive)
ROOT
ATOM      1  C   UNL d   1       0.844   5.390  -0.047  0.00  0.00     0.020 A 
ATOM      2  C1  UNL d   1       0.417   5.907  -1.270  0.00  0.00     0.020 A 
ATOM      3  C2  UNL d   1      -0.337   5.115  -2.138  0.00  0.00     0.034 A 
ATOM      4  C3  UNL d   1      -0.666   3.801  -1.785  0.00  0.00     0.017 A 
ATOM      5  C4  UNL d   1      -0.236   3.283  -0.558  0.00  0.00     0.017 A 
ATOM      6  C5  UNL d   1       0.518   4.081   0.308  0.00  0.00     0.034 A 
ATOM      7 Cl   UNL d   1      -0.603   1.671  -0.053  0.00  0.00    -0.070 Cl
ATOM      8 Cl1  UNL d   1      -1.601   2.877  -2.907  0.00  0.00    -0.070 Cl
ENDROOT
TORSDOF 0
ENDMDL
