MODEL 1
REMARK minimizedAffinity 6.98610687
REMARK minimizedRMSD -1
REMARK  0 active torsions:
REMARK  status: ('A' for Active; 'I' for Inactive)
ROOT
ATOM      1  C   UNL d   1       0.323   4.414   1.187  0.00  0.00     0.020 A 
ATOM      2  C1  UNL d   1       0.489   5.195   0.044  0.00  0.00     0.020 A 
ATOM      3  C2  UNL d   1       0.223   4.655  -1.216  0.00  0.00     0.034 A 
ATOM      4  C3  UNL d   1      -0.211   3.330  -1.336  0.00  0.00     0.017 A 
ATOM      5  C4  UNL d   1      -0.378   2.547  -0.189  0.00  0.00     0.017 A 
ATOM      6  C5  UNL d   1      -0.110   3.093   1.070  0.00  0.00     0.034 A 
ATOM      7 Cl   UNL d   1      -0.911   0.904  -0.257  0.00  0.00    -0.070 Cl
ATOM      8 Cl1  UNL d   1      -0.522   2.728  -2.926  0.00  0.00    -0.070 Cl
ENDROOT
TORSDOF 0
ENDMDL
