MODEL 1
REMARK minimizedAffinity 3.9066093
REMARK minimizedRMSD -1
REMARK  0 active torsions:
REMARK  status: ('A' for Active; 'I' for Inactive)
ROOT
ATOM      1  C   UNL d   1      -0.016   0.924   1.117  0.00  0.00     0.023 A 
ATOM      2  C1  UNL d   1       0.572  -0.307   1.409  0.00  0.00     0.003 A 
ATOM      3  C2  UNL d   1       0.883  -1.196   0.378  0.00  0.00     0.048 A 
ATOM      4  C3  UNL d   1       0.603  -0.848  -0.943  0.00  0.00     0.023 A 
ATOM      5  C4  UNL d   1       0.016   0.383  -1.240  0.00  0.00     0.048 A 
ATOM      6  C5  UNL d   1      -0.293   1.268  -0.206  0.00  0.00     0.003 A 
ATOM      7  I   UNL d   1       1.065  -2.170  -2.479  0.00  0.00    -0.146 I 
ENDROOT
TORSDOF 0
ENDMDL
