MODEL 1
REMARK minimizedAffinity -2.49931502
REMARK minimizedRMSD -1
REMARK  0 active torsions:
REMARK  status: ('A' for Active; 'I' for Inactive)
ROOT
ATOM      1  C   UNL d   1       0.163   0.699   0.133  0.00  0.00     0.023 A 
ATOM      2  C1  UNL d   1       1.218   0.302  -0.689  0.00  0.00     0.003 A 
ATOM      3  C2  UNL d   1       1.262  -1.000  -1.190  0.00  0.00     0.048 A 
ATOM      4  C3  UNL d   1       0.247  -1.900  -0.866  0.00  0.00     0.023 A 
ATOM      5  C4  UNL d   1      -0.810  -1.507  -0.044  0.00  0.00     0.048 A 
ATOM      6  C5  UNL d   1      -0.849  -0.204   0.455  0.00  0.00     0.003 A 
ATOM      7  I   UNL d   1       0.310  -3.840  -1.611  0.00  0.00    -0.146 I 
ENDROOT
TORSDOF 0
ENDMDL
