MODEL 1
REMARK minimizedAffinity -4.5435791
REMARK minimizedRMSD -1
REMARK  0 active torsions:
REMARK  status: ('A' for Active; 'I' for Inactive)
ROOT
ATOM      1  C   UNL d   1      -0.114  -2.867  -1.967  0.00  0.00     0.023 A 
ATOM      2  C1  UNL d   1      -0.508  -4.148  -1.580  0.00  0.00     0.003 A 
ATOM      3  C2  UNL d   1       0.264  -4.873  -0.671  0.00  0.00     0.048 A 
ATOM      4  C3  UNL d   1       1.429  -4.310  -0.150  0.00  0.00     0.023 A 
ATOM      5  C4  UNL d   1       1.827  -3.028  -0.533  0.00  0.00     0.048 A 
ATOM      6  C5  UNL d   1       1.052  -2.308  -1.444  0.00  0.00     0.003 A 
ATOM      7  I   UNL d   1       2.581  -5.387   1.204  0.00  0.00    -0.146 I 
ENDROOT
TORSDOF 0
ENDMDL
