MODEL 1
REMARK minimizedAffinity -2.34314513
REMARK minimizedRMSD -1
REMARK  0 active torsions:
REMARK  status: ('A' for Active; 'I' for Inactive)
ROOT
ATOM      1  C   UNL d   1       1.258  -3.673  -2.271  0.00  0.00     0.023 A 
ATOM      2  C1  UNL d   1       0.497  -2.753  -2.992  0.00  0.00     0.003 A 
ATOM      3  C2  UNL d   1       0.172  -1.518  -2.427  0.00  0.00     0.048 A 
ATOM      4  C3  UNL d   1       0.613  -1.209  -1.140  0.00  0.00     0.023 A 
ATOM      5  C4  UNL d   1       1.376  -2.126  -0.416  0.00  0.00     0.048 A 
ATOM      6  C5  UNL d   1       1.697  -3.360  -0.985  0.00  0.00     0.003 A 
ATOM      7  I   UNL d   1       0.131   0.628  -0.297  0.00  0.00    -0.146 I 
ENDROOT
TORSDOF 0
ENDMDL
