MODEL 1
REMARK minimizedAffinity -1.42688084
REMARK minimizedRMSD -1
REMARK  0 active torsions:
REMARK  status: ('A' for Active; 'I' for Inactive)
ROOT
ATOM      1  C   UNL d   1      -0.058  -2.186  -2.264  0.00  0.00     0.023 A 
ATOM      2  C1  UNL d   1      -0.119  -3.516  -2.681  0.00  0.00     0.003 A 
ATOM      3  C2  UNL d   1       0.510  -4.513  -1.933  0.00  0.00     0.048 A 
ATOM      4  C3  UNL d   1       1.198  -4.174  -0.768  0.00  0.00     0.023 A 
ATOM      5  C4  UNL d   1       1.261  -2.844  -0.346  0.00  0.00     0.048 A 
ATOM      6  C5  UNL d   1       0.631  -1.851  -1.098  0.00  0.00     0.003 A 
ATOM      7  I   UNL d   1       2.135  -5.656   0.347  0.00  0.00    -0.146 I 
ENDROOT
TORSDOF 0
ENDMDL
