MODEL 1
REMARK minimizedAffinity -5.65982056
REMARK minimizedRMSD -1
REMARK  0 active torsions:
REMARK  status: ('A' for Active; 'I' for Inactive)
ROOT
ATOM      1  C   UNL d   1      -1.813   3.110   1.290  0.00  0.00     0.023 A 
ATOM      2  C1  UNL d   1      -1.637   1.930   2.013  0.00  0.00     0.003 A 
ATOM      3  C2  UNL d   1      -0.788   0.933   1.528  0.00  0.00     0.048 A 
ATOM      4  C3  UNL d   1      -0.119   1.122   0.320  0.00  0.00     0.023 A 
ATOM      5  C4  UNL d   1      -0.291   2.301  -0.407  0.00  0.00     0.048 A 
ATOM      6  C5  UNL d   1      -1.142   3.295   0.082  0.00  0.00     0.003 A 
ATOM      7  I   UNL d   1       1.145  -0.361  -0.404  0.00  0.00    -0.146 I 
ENDROOT
TORSDOF 0
ENDMDL
