MODEL 1
REMARK minimizedAffinity -2.8003099
REMARK minimizedRMSD -1
REMARK  0 active torsions:
REMARK  status: ('A' for Active; 'I' for Inactive)
ROOT
ATOM      1  C   UNL d   1      -2.030   2.050   1.763  0.00  0.00     0.023 A 
ATOM      2  C1  UNL d   1      -2.146   1.857   0.387  0.00  0.00     0.003 A 
ATOM      3  C2  UNL d   1      -1.212   1.070  -0.290  0.00  0.00     0.048 A 
ATOM      4  C3  UNL d   1      -0.165   0.478   0.416  0.00  0.00     0.023 A 
ATOM      5  C4  UNL d   1      -0.046   0.668   1.794  0.00  0.00     0.048 A 
ATOM      6  C5  UNL d   1      -0.982   1.457   2.466  0.00  0.00     0.003 A 
ATOM      7  I   UNL d   1       1.227  -0.694  -0.588  0.00  0.00    -0.146 I 
ENDROOT
TORSDOF 0
ENDMDL
