MODEL 1
REMARK minimizedAffinity -3.38249516
REMARK minimizedRMSD -1
REMARK  0 active torsions:
REMARK  status: ('A' for Active; 'I' for Inactive)
ROOT
ATOM      1  C   UNL d   1      -2.113   2.552   1.541  0.00  0.00     0.023 A 
ATOM      2  C1  UNL d   1      -1.143   1.932   2.329  0.00  0.00     0.003 A 
ATOM      3  C2  UNL d   1      -0.209   1.075   1.743  0.00  0.00     0.048 A 
ATOM      4  C3  UNL d   1      -0.250   0.843   0.369  0.00  0.00     0.023 A 
ATOM      5  C4  UNL d   1      -1.218   1.462  -0.424  0.00  0.00     0.048 A 
ATOM      6  C5  UNL d   1      -2.150   2.317   0.166  0.00  0.00     0.003 A 
ATOM      7  I   UNL d   1       1.139  -0.432  -0.505  0.00  0.00    -0.146 I 
ENDROOT
TORSDOF 0
ENDMDL
