MODEL 1
REMARK minimizedAffinity 3.96904182
REMARK minimizedRMSD -1
REMARK  0 active torsions:
REMARK  status: ('A' for Active; 'I' for Inactive)
ROOT
ATOM      1  C   UNL d   1      -0.040   1.284   0.885  0.00  0.00     0.023 A 
ATOM      2  C1  UNL d   1       0.645   1.000  -0.296  0.00  0.00     0.003 A 
ATOM      3  C2  UNL d   1       0.680  -0.306  -0.789  0.00  0.00     0.048 A 
ATOM      4  C3  UNL d   1       0.026  -1.324  -0.095  0.00  0.00     0.023 A 
ATOM      5  C4  UNL d   1      -0.662  -1.045   1.087  0.00  0.00     0.048 A 
ATOM      6  C5  UNL d   1      -0.693   0.263   1.576  0.00  0.00     0.003 A 
ATOM      7  I   UNL d   1       0.077  -3.269  -0.826  0.00  0.00    -0.146 I 
ENDROOT
TORSDOF 0
ENDMDL
