MODEL 1
REMARK minimizedAffinity 1.68279839
REMARK minimizedRMSD -1
REMARK  0 active torsions:
REMARK  status: ('A' for Active; 'I' for Inactive)
ROOT
ATOM      1  C   UNL d   1      -0.123  -0.808  -5.379  0.00  0.00     0.023 A 
ATOM      2  C1  UNL d   1       0.452  -1.665  -4.440  0.00  0.00     0.003 A 
ATOM      3  C2  UNL d   1       0.505  -1.294  -3.095  0.00  0.00     0.048 A 
ATOM      4  C3  UNL d   1      -0.018  -0.064  -2.696  0.00  0.00     0.023 A 
ATOM      5  C4  UNL d   1      -0.595   0.796  -3.632  0.00  0.00     0.048 A 
ATOM      6  C5  UNL d   1      -0.645   0.421  -4.976  0.00  0.00     0.003 A 
ATOM      7  I   UNL d   1       0.061   0.490  -0.695  0.00  0.00    -0.146 I 
ENDROOT
TORSDOF 0
ENDMDL
