MODEL 1
REMARK minimizedAffinity 0.452325106
REMARK minimizedRMSD -1
REMARK  0 active torsions:
REMARK  status: ('A' for Active; 'I' for Inactive)
ROOT
ATOM      1  C   UNL d   1      -0.633   0.267   2.813  0.00  0.00     0.023 A 
ATOM      2  C1  UNL d   1      -0.495   1.647   2.666  0.00  0.00     0.003 A 
ATOM      3  C2  UNL d   1      -0.086   2.183   1.443  0.00  0.00     0.048 A 
ATOM      4  C3  UNL d   1       0.182   1.333   0.371  0.00  0.00     0.023 A 
ATOM      5  C4  UNL d   1       0.044  -0.049   0.513  0.00  0.00     0.048 A 
ATOM      6  C5  UNL d   1      -0.364  -0.580   1.738  0.00  0.00     0.003 A 
ATOM      7  I   UNL d   1       0.791   2.128  -1.450  0.00  0.00    -0.146 I 
ENDROOT
TORSDOF 0
ENDMDL
