MODEL 1
REMARK minimizedAffinity 6.20632315
REMARK minimizedRMSD -1
REMARK  0 active torsions:
REMARK  status: ('A' for Active; 'I' for Inactive)
ROOT
ATOM      1  C   UNL d   1      -0.091   0.010   2.718  0.00  0.00     0.023 A 
ATOM      2  C1  UNL d   1       0.907  -0.441   1.855  0.00  0.00     0.003 A 
ATOM      3  C2  UNL d   1       1.077   0.161   0.606  0.00  0.00     0.048 A 
ATOM      4  C3  UNL d   1       0.245   1.214   0.228  0.00  0.00     0.023 A 
ATOM      5  C4  UNL d   1      -0.755   1.670   1.089  0.00  0.00     0.048 A 
ATOM      6  C5  UNL d   1      -0.921   1.064   2.336  0.00  0.00     0.003 A 
ATOM      7  I   UNL d   1       0.496   2.112  -1.630  0.00  0.00    -0.146 I 
ENDROOT
TORSDOF 0
ENDMDL
