MODEL 1
REMARK minimizedAffinity 7.3524332
REMARK minimizedRMSD -1
REMARK  0 active torsions:
REMARK  status: ('A' for Active; 'I' for Inactive)
ROOT
ATOM      1  C   UNL d   1       1.128  -4.220  -1.253  0.00  0.00     0.023 A 
ATOM      2  C1  UNL d   1       0.744  -5.482  -0.798  0.00  0.00     0.003 A 
ATOM      3  C2  UNL d   1       1.284  -5.994   0.383  0.00  0.00     0.048 A 
ATOM      4  C3  UNL d   1       2.208  -5.239   1.105  0.00  0.00     0.023 A 
ATOM      5  C4  UNL d   1       2.595  -3.976   0.654  0.00  0.00     0.048 A 
ATOM      6  C5  UNL d   1       2.053  -3.469  -0.528  0.00  0.00     0.003 A 
ATOM      7  I   UNL d   1       3.015  -5.999   2.863  0.00  0.00    -0.146 I 
ENDROOT
TORSDOF 0
ENDMDL
