MODEL 1
REMARK minimizedAffinity -0.025917016
REMARK minimizedRMSD -1
REMARK  0 active torsions:
REMARK  status: ('A' for Active; 'I' for Inactive)
ROOT
ATOM      1  C   UNL d   1      -1.573   1.814   2.764  0.00  0.00     0.023 A 
ATOM      2  C1  UNL d   1      -2.563   2.198   1.860  0.00  0.00     0.003 A 
ATOM      3  C2  UNL d   1      -2.399   1.948   0.496  0.00  0.00     0.048 A 
ATOM      4  C3  UNL d   1      -1.243   1.314   0.043  0.00  0.00     0.023 A 
ATOM      5  C4  UNL d   1      -0.250   0.927   0.944  0.00  0.00     0.048 A 
ATOM      6  C5  UNL d   1      -0.418   1.179   2.307  0.00  0.00     0.003 A 
ATOM      7  I   UNL d   1      -0.997   0.941  -1.987  0.00  0.00    -0.146 I 
ENDROOT
TORSDOF 0
ENDMDL
