MODEL 1
REMARK minimizedAffinity 0.6550138
REMARK minimizedRMSD -1
REMARK  0 active torsions:
REMARK  status: ('A' for Active; 'I' for Inactive)
ROOT
ATOM      1  C   UNL d   1      -1.630   1.922   1.640  0.00  0.00     0.023 A 
ATOM      2  C1  UNL d   1      -0.878   1.006   2.375  0.00  0.00     0.003 A 
ATOM      3  C2  UNL d   1      -0.147   0.015   1.718  0.00  0.00     0.048 A 
ATOM      4  C3  UNL d   1      -0.172  -0.055   0.325  0.00  0.00     0.023 A 
ATOM      5  C4  UNL d   1      -0.923   0.861  -0.414  0.00  0.00     0.048 A 
ATOM      6  C5  UNL d   1      -1.653   1.850   0.247  0.00  0.00     0.003 A 
ATOM      7  I   UNL d   1       0.916  -1.530  -0.655  0.00  0.00    -0.146 I 
ENDROOT
TORSDOF 0
ENDMDL
