MODEL 1
REMARK minimizedAffinity 4.06778765
REMARK minimizedRMSD -1
REMARK  1 active torsions:
REMARK  status: ('A' for Active; 'I' for Inactive)
REMARK    1  A    between atoms: N_2  and  C1_3 
ROOT
ATOM      1  C1  UNL d   1      -0.615  -0.658   1.619  0.00  0.00     0.143 A 
ATOM      2  C2  UNL d   1      -0.128  -1.091   0.382  0.00  0.00    -0.057 A 
ATOM      3  C3  UNL d   1       1.076  -0.598  -0.137  0.00  0.00     0.033 A 
ATOM      4  C4  UNL d   1       1.801   0.361   0.562  0.00  0.00    -0.042 A 
ATOM      5  C5  UNL d   1       1.322   0.825   1.782  0.00  0.00     0.033 A 
ATOM      6  C6  UNL d   1       0.123   0.324   2.298  0.00  0.00    -0.057 A 
ENDROOT
BRANCH   1   7
ATOM      7  N   UNL d   1      -1.854  -1.037   2.143  0.00  0.00    -0.732 N 
ATOM      8  C   UNL d   1      -3.028  -0.220   1.924  0.00  0.00     0.284 C 
ATOM      9  H3  UNL d   1      -2.021  -2.037   2.059  0.00  0.00     0.395 HD
ENDBRANCH   1   7
TORSDOF 1
ENDMDL
