MODEL 1
REMARK minimizedAffinity -1.61340964
REMARK minimizedRMSD -1
REMARK  1 active torsions:
REMARK  status: ('A' for Active; 'I' for Inactive)
REMARK    1  A    between atoms: N_2  and  C1_3 
ROOT
ATOM      1  C1  UNL d   1       0.252  -0.030  -0.372  0.00  0.00     0.143 A 
ATOM      2  C2  UNL d   1       0.444  -0.203   1.002  0.00  0.00    -0.057 A 
ATOM      3  C3  UNL d   1       0.106   0.803   1.915  0.00  0.00     0.033 A 
ATOM      4  C4  UNL d   1      -0.405   2.016   1.465  0.00  0.00    -0.042 A 
ATOM      5  C5  UNL d   1      -0.581   2.220   0.101  0.00  0.00     0.033 A 
ATOM      6  C6  UNL d   1      -0.247   1.208  -0.805  0.00  0.00    -0.057 A 
ENDROOT
BRANCH   1   7
ATOM      7  N   UNL d   1       0.660  -0.955  -1.337  0.00  0.00    -0.732 N 
ATOM      8  C   UNL d   1       0.406  -2.368  -1.158  0.00  0.00     0.284 C 
ATOM      9  H3  UNL d   1       0.503  -0.621  -2.286  0.00  0.00     0.395 HD
ENDBRANCH   1   7
TORSDOF 1
ENDMDL
