MODEL 1
REMARK minimizedAffinity -3.19499159
REMARK minimizedRMSD -1
REMARK  1 active torsions:
REMARK  status: ('A' for Active; 'I' for Inactive)
REMARK    1  A    between atoms: N_2  and  C1_3 
ROOT
ATOM      1  C1  UNL d   1      -0.403  -1.580  -0.122  0.00  0.00     0.143 A 
ATOM      2  C2  UNL d   1       0.734  -0.895  -0.564  0.00  0.00    -0.057 A 
ATOM      3  C3  UNL d   1       1.211   0.234   0.114  0.00  0.00     0.033 A 
ATOM      4  C4  UNL d   1       0.538   0.717   1.231  0.00  0.00    -0.042 A 
ATOM      5  C5  UNL d   1      -0.609   0.067   1.673  0.00  0.00     0.033 A 
ATOM      6  C6  UNL d   1      -1.076  -1.064   0.997  0.00  0.00    -0.057 A 
ENDROOT
BRANCH   1   7
ATOM      7  N   UNL d   1      -0.983  -2.649  -0.809  0.00  0.00    -0.732 N 
ATOM      8  C   UNL d   1      -0.193  -3.806  -1.173  0.00  0.00     0.284 C 
ATOM      9  H3  UNL d   1      -1.914  -2.873  -0.466  0.00  0.00     0.395 HD
ENDBRANCH   1   7
TORSDOF 1
ENDMDL
