MODEL 1
REMARK minimizedAffinity -1.58486235
REMARK minimizedRMSD -1
REMARK  1 active torsions:
REMARK  status: ('A' for Active; 'I' for Inactive)
REMARK    1  A    between atoms: N_2  and  C1_3 
ROOT
ATOM      1  C1  UNL d   1       0.422  -0.145  -0.335  0.00  0.00     0.143 A 
ATOM      2  C2  UNL d   1       0.492   0.311   0.986  0.00  0.00    -0.057 A 
ATOM      3  C3  UNL d   1       0.444   1.678   1.286  0.00  0.00     0.033 A 
ATOM      4  C4  UNL d   1       0.354   2.617   0.265  0.00  0.00    -0.042 A 
ATOM      5  C5  UNL d   1       0.309   2.189  -1.057  0.00  0.00     0.033 A 
ATOM      6  C6  UNL d   1       0.350   0.822  -1.350  0.00  0.00    -0.057 A 
ENDROOT
BRANCH   1   7
ATOM      7  N   UNL d   1       0.564  -1.485  -0.704  0.00  0.00    -0.732 N 
ATOM      8  C   UNL d   1      -0.600  -2.311  -0.940  0.00  0.00     0.284 C 
ATOM      9  H3  UNL d   1       1.317  -1.625  -1.374  0.00  0.00     0.395 HD
ENDBRANCH   1   7
TORSDOF 1
ENDMDL
