MODEL 1
REMARK minimizedAffinity -2.26869392
REMARK minimizedRMSD -1
REMARK  1 active torsions:
REMARK  status: ('A' for Active; 'I' for Inactive)
REMARK    1  A    between atoms: N_2  and  C1_3 
ROOT
ATOM      1  C1  UNL d   1       0.460  -1.939  -1.273  0.00  0.00     0.143 A 
ATOM      2  C2  UNL d   1       1.042  -3.040  -0.637  0.00  0.00    -0.057 A 
ATOM      3  C3  UNL d   1       0.612  -4.345  -0.907  0.00  0.00     0.033 A 
ATOM      4  C4  UNL d   1      -0.432  -4.570  -1.798  0.00  0.00    -0.042 A 
ATOM      5  C5  UNL d   1      -1.043  -3.488  -2.423  0.00  0.00     0.033 A 
ATOM      6  C6  UNL d   1      -0.604  -2.187  -2.154  0.00  0.00    -0.057 A 
ENDROOT
BRANCH   1   7
ATOM      7  N   UNL d   1       0.776  -0.611  -0.974  0.00  0.00    -0.732 N 
ATOM      8  C   UNL d   1       0.381  -0.026   0.289  0.00  0.00     0.284 C 
ATOM      9  H3  UNL d   1       1.715  -0.359  -1.273  0.00  0.00     0.395 HD
ENDBRANCH   1   7
TORSDOF 1
ENDMDL
