MODEL 1
REMARK minimizedAffinity -5.13656902
REMARK minimizedRMSD -1
REMARK  1 active torsions:
REMARK  status: ('A' for Active; 'I' for Inactive)
REMARK    1  A    between atoms: N_2  and  C1_3 
ROOT
ATOM      1  C1  UNL d   1       0.053   0.616  -0.080  0.00  0.00     0.143 A 
ATOM      2  C2  UNL d   1      -0.461   1.624  -0.903  0.00  0.00    -0.057 A 
ATOM      3  C3  UNL d   1      -1.128   2.730  -0.365  0.00  0.00     0.033 A 
ATOM      4  C4  UNL d   1      -1.321   2.834   1.009  0.00  0.00    -0.042 A 
ATOM      5  C5  UNL d   1      -0.841   1.831   1.844  0.00  0.00     0.033 A 
ATOM      6  C6  UNL d   1      -0.169   0.732   1.301  0.00  0.00    -0.057 A 
ENDROOT
BRANCH   1   7
ATOM      7  N   UNL d   1       0.639  -0.558  -0.561  0.00  0.00    -0.732 N 
ATOM      8  C   UNL d   1      -0.179  -1.630  -1.086  0.00  0.00     0.284 C 
ATOM      9  H3  UNL d   1       1.483  -0.377  -1.100  0.00  0.00     0.395 HD
ENDBRANCH   1   7
TORSDOF 1
ENDMDL
