MODEL 1
REMARK minimizedAffinity 11.3709497
REMARK minimizedRMSD -1
REMARK  1 active torsions:
REMARK  status: ('A' for Active; 'I' for Inactive)
REMARK    1  A    between atoms: C1_2  and  C2_3 
ROOT
ATOM      1  C2  UNL d   1       5.110  -3.721  -1.569  0.00  0.00    -0.076 A 
ATOM      2  C3  UNL d   1       4.540  -3.268  -2.772  0.00  0.00     0.004 A 
ATOM      3  C4  UNL d   1       4.149  -4.165  -3.764  0.00  0.00    -0.003 A 
ATOM      4  C5  UNL d   1       4.320  -5.531  -3.569  0.00  0.00     0.000 A 
ATOM      5  C6  UNL d   1       4.867  -6.000  -2.374  0.00  0.00     0.000 A 
ATOM      6  C7  UNL d   1       5.252  -5.109  -1.358  0.00  0.00    -0.073 A 
ATOM      7  C8  UNL d   1       5.842  -5.669  -0.092  0.00  0.00     0.078 C 
ENDROOT
BRANCH   1   8
ATOM      8  C1  UNL d   1       5.540  -2.699  -0.541  0.00  0.00     0.053 C 
ATOM      9  C   UNL d   1       4.360  -1.977   0.092  0.00  0.00     0.018 C 
ENDBRANCH   1   8
TORSDOF 1
ENDMDL
