MODEL 1
REMARK minimizedAffinity 4.74077082
REMARK minimizedRMSD -1
REMARK  1 active torsions:
REMARK  status: ('A' for Active; 'I' for Inactive)
REMARK    1  A    between atoms: C1_2  and  C2_3 
ROOT
ATOM      1  C2  UNL d   1      -4.209   2.635  -2.939  0.00  0.00    -0.076 A 
ATOM      2  C3  UNL d   1      -3.700   2.614  -4.249  0.00  0.00     0.004 A 
ATOM      3  C4  UNL d   1      -4.326   1.872  -5.250  0.00  0.00    -0.003 A 
ATOM      4  C5  UNL d   1      -5.470   1.140  -4.957  0.00  0.00     0.000 A 
ATOM      5  C6  UNL d   1      -5.999   1.163  -3.666  0.00  0.00     0.000 A 
ATOM      6  C7  UNL d   1      -5.390   1.918  -2.650  0.00  0.00    -0.073 A 
ATOM      7  C8  UNL d   1      -6.000   1.902  -1.275  0.00  0.00     0.078 C 
ENDROOT
BRANCH   1   8
ATOM      8  C1  UNL d   1      -3.473   3.436  -1.889  0.00  0.00     0.053 C 
ATOM      9  C   UNL d   1      -2.254   4.152  -2.450  0.00  0.00     0.018 C 
ENDBRANCH   1   8
TORSDOF 1
ENDMDL
