MODEL 1
REMARK minimizedAffinity 3.33859968
REMARK minimizedRMSD -1
REMARK  1 active torsions:
REMARK  status: ('A' for Active; 'I' for Inactive)
REMARK    1  A    between atoms: C1_2  and  C2_3 
ROOT
ATOM      1  C2  UNL d   1      -5.350   2.822  -3.750  0.00  0.00    -0.076 A 
ATOM      2  C3  UNL d   1      -6.000   2.959  -4.989  0.00  0.00     0.004 A 
ATOM      3  C4  UNL d   1      -5.458   3.750  -6.000  0.00  0.00    -0.003 A 
ATOM      4  C5  UNL d   1      -4.256   4.417  -5.789  0.00  0.00     0.000 A 
ATOM      5  C6  UNL d   1      -3.589   4.279  -4.572  0.00  0.00     0.000 A 
ATOM      6  C7  UNL d   1      -4.114   3.473  -3.548  0.00  0.00    -0.073 A 
ATOM      7  C8  UNL d   1      -3.356   3.364  -2.253  0.00  0.00     0.078 C 
ENDROOT
BRANCH   1   8
ATOM      8  C1  UNL d   1      -6.000   1.973  -2.681  0.00  0.00     0.053 C 
ATOM      9  C   UNL d   1      -5.979   2.639  -1.314  0.00  0.00     0.018 C 
ENDBRANCH   1   8
TORSDOF 1
ENDMDL
