MODEL 1
REMARK minimizedAffinity 7.78797436
REMARK minimizedRMSD -1
REMARK  1 active torsions:
REMARK  status: ('A' for Active; 'I' for Inactive)
REMARK    1  A    between atoms: C1_2  and  C2_3 
ROOT
ATOM      1  C2  UNL d   1      -0.229   0.916  -1.013  0.00  0.00    -0.076 A 
ATOM      2  C3  UNL d   1       1.019   0.553  -1.549  0.00  0.00     0.004 A 
ATOM      3  C4  UNL d   1       1.301  -0.772  -1.877  0.00  0.00    -0.003 A 
ATOM      4  C5  UNL d   1       0.339  -1.756  -1.674  0.00  0.00     0.000 A 
ATOM      5  C6  UNL d   1      -0.910  -1.411  -1.160  0.00  0.00     0.000 A 
ATOM      6  C7  UNL d   1      -1.216  -0.077  -0.840  0.00  0.00    -0.073 A 
ATOM      7  C8  UNL d   1      -2.577   0.238  -0.282  0.00  0.00     0.078 C 
ENDROOT
BRANCH   1   8
ATOM      8  C1  UNL d   1      -0.467   2.365  -0.652  0.00  0.00     0.053 C 
ATOM      9  C   UNL d   1       0.512   2.873   0.395  0.00  0.00     0.018 C 
ENDBRANCH   1   8
TORSDOF 1
ENDMDL
