MODEL 1
REMARK minimizedAffinity 9.63005352
REMARK minimizedRMSD -1
REMARK  1 active torsions:
REMARK  status: ('A' for Active; 'I' for Inactive)
REMARK    1  A    between atoms: C1_2  and  C2_3 
ROOT
ATOM      1  C2  UNL d   1      -4.000   4.068  -3.040  0.00  0.00    -0.076 A 
ATOM      2  C3  UNL d   1      -3.732   4.898  -4.143  0.00  0.00     0.004 A 
ATOM      3  C4  UNL d   1      -4.580   4.916  -5.249  0.00  0.00    -0.003 A 
ATOM      4  C5  UNL d   1      -5.710   4.105  -5.270  0.00  0.00     0.000 A 
ATOM      5  C6  UNL d   1      -6.000   3.288  -4.178  0.00  0.00     0.000 A 
ATOM      6  C7  UNL d   1      -5.164   3.270  -3.048  0.00  0.00    -0.073 A 
ATOM      7  C8  UNL d   1      -5.522   2.366  -1.900  0.00  0.00     0.078 C 
ENDROOT
BRANCH   1   8
ATOM      8  C1  UNL d   1      -3.030   4.070  -1.880  0.00  0.00     0.053 C 
ATOM      9  C   UNL d   1      -2.710   5.474  -1.391  0.00  0.00     0.018 C 
ENDBRANCH   1   8
TORSDOF 1
ENDMDL
