MODEL 1
REMARK minimizedAffinity 8.10734272
REMARK minimizedRMSD -1
REMARK  1 active torsions:
REMARK  status: ('A' for Active; 'I' for Inactive)
REMARK    1  A    between atoms: C1_2  and  C2_3 
ROOT
ATOM      1  C2  UNL d   1       0.585   2.308   1.675  0.00  0.00    -0.076 A 
ATOM      2  C3  UNL d   1       1.256   1.913   0.504  0.00  0.00     0.004 A 
ATOM      3  C4  UNL d   1       0.561   1.714  -0.688  0.00  0.00    -0.003 A 
ATOM      4  C5  UNL d   1      -0.815   1.906  -0.729  0.00  0.00     0.000 A 
ATOM      5  C6  UNL d   1      -1.494   2.315   0.419  0.00  0.00     0.000 A 
ATOM      6  C7  UNL d   1      -0.807   2.537   1.624  0.00  0.00    -0.073 A 
ATOM      7  C8  UNL d   1      -1.590   2.971   2.833  0.00  0.00     0.078 C 
ENDROOT
BRANCH   1   8
ATOM      8  C1  UNL d   1       1.387   2.483   2.944  0.00  0.00     0.053 C 
ATOM      9  C   UNL d   1       1.309   1.267   3.855  0.00  0.00     0.018 C 
ENDBRANCH   1   8
TORSDOF 1
ENDMDL
