MODEL 1
REMARK minimizedAffinity 7.40079737
REMARK minimizedRMSD -1
REMARK  1 active torsions:
REMARK  status: ('A' for Active; 'I' for Inactive)
REMARK    1  A    between atoms: C1_2  and  C2_3 
ROOT
ATOM      1  C2  UNL d   1       1.121  -1.310  -1.346  0.00  0.00    -0.076 A 
ATOM      2  C3  UNL d   1       0.164  -1.992  -2.118  0.00  0.00     0.004 A 
ATOM      3  C4  UNL d   1      -0.212  -3.297  -1.804  0.00  0.00    -0.003 A 
ATOM      4  C5  UNL d   1       0.362  -3.940  -0.713  0.00  0.00     0.000 A 
ATOM      5  C6  UNL d   1       1.300  -3.273   0.073  0.00  0.00     0.000 A 
ATOM      6  C7  UNL d   1       1.678  -1.951  -0.219  0.00  0.00    -0.073 A 
ATOM      7  C8  UNL d   1       2.699  -1.281   0.659  0.00  0.00     0.078 C 
ENDROOT
BRANCH   1   8
ATOM      8  C1  UNL d   1       1.510   0.094  -1.751  0.00  0.00     0.053 C 
ATOM      9  C   UNL d   1       0.629   1.152  -1.105  0.00  0.00     0.018 C 
ENDBRANCH   1   8
TORSDOF 1
ENDMDL
