MODEL 1
REMARK minimizedAffinity 7.45188141
REMARK minimizedRMSD -1
REMARK  1 active torsions:
REMARK  status: ('A' for Active; 'I' for Inactive)
REMARK    1  A    between atoms: C1_2  and  C2_3 
ROOT
ATOM      1  C2  UNL d   1      -5.406   2.688  -2.795  0.00  0.00    -0.076 A 
ATOM      2  C3  UNL d   1      -6.000   3.769  -2.120  0.00  0.00     0.004 A 
ATOM      3  C4  UNL d   1      -5.478   5.057  -2.229  0.00  0.00    -0.003 A 
ATOM      4  C5  UNL d   1      -4.354   5.285  -3.015  0.00  0.00     0.000 A 
ATOM      5  C6  UNL d   1      -3.763   4.228  -3.706  0.00  0.00     0.000 A 
ATOM      6  C7  UNL d   1      -4.286   2.926  -3.620  0.00  0.00    -0.073 A 
ATOM      7  C8  UNL d   1      -3.604   1.822  -4.381  0.00  0.00     0.078 C 
ENDROOT
BRANCH   1   8
ATOM      8  C1  UNL d   1      -6.000   1.309  -2.617  0.00  0.00     0.053 C 
ATOM      9  C   UNL d   1      -5.997   0.856  -1.165  0.00  0.00     0.018 C 
ENDBRANCH   1   8
TORSDOF 1
ENDMDL
