MODEL 1
REMARK minimizedAffinity -2.84976435
REMARK minimizedRMSD -1
REMARK  0 active torsions:
REMARK  status: ('A' for Active; 'I' for Inactive)
ROOT
ATOM      1  C2' OXE d   1      -0.924  -3.506  -0.853  0.00  0.00     0.078 C 
ATOM      2  C1' OXE d   1       0.033  -2.012  -3.029  0.00  0.00     0.078 C 
ATOM      3  C1  OXE d   1      -0.125  -1.306  -1.706  0.00  0.00    -0.078 A 
ATOM      4  C2  OXE d   1      -0.637  -2.033  -0.658  0.00  0.00    -0.078 A 
ATOM      5  C3  OXE d   1      -0.752  -1.445   0.598  0.00  0.00     0.003 A 
ATOM      6  C4  OXE d   1      -0.494  -0.079   0.767  0.00  0.00    -0.002 A 
ATOM      7  C5  OXE d   1      -0.009   0.689  -0.296  0.00  0.00    -0.002 A 
ATOM      8  C6  OXE d   1       0.221   0.082  -1.526  0.00  0.00     0.003 A 
ENDROOT
TORSDOF 0
ENDMDL
