MODEL 1
REMARK minimizedAffinity -4.13707352
REMARK minimizedRMSD -1
REMARK  0 active torsions:
REMARK  status: ('A' for Active; 'I' for Inactive)
ROOT
ATOM      1  C2' OXE d   1      -0.259   1.675   0.214  0.00  0.00     0.078 C 
ATOM      2  C1' OXE d   1      -1.526   0.242   2.269  0.00  0.00     0.078 C 
ATOM      3  C1  OXE d   1      -1.129  -0.514   1.026  0.00  0.00    -0.078 A 
ATOM      4  C2  OXE d   1      -0.552   0.204   0.007  0.00  0.00    -0.078 A 
ATOM      5  C3  OXE d   1      -0.117  -0.454  -1.140  0.00  0.00     0.003 A 
ATOM      6  C4  OXE d   1      -0.400  -1.812  -1.328  0.00  0.00    -0.002 A 
ATOM      7  C5  OXE d   1      -1.023  -2.554  -0.318  0.00  0.00    -0.002 A 
ATOM      8  C6  OXE d   1      -1.354  -1.931   0.879  0.00  0.00     0.003 A 
ENDROOT
TORSDOF 0
ENDMDL
