MODEL 1
REMARK minimizedAffinity -4.54638624
REMARK minimizedRMSD -1
REMARK  0 active torsions:
REMARK  status: ('A' for Active; 'I' for Inactive)
ROOT
ATOM      1  C2' OXE d   1      -0.016  -2.292  -2.535  0.00  0.00     0.078 C 
ATOM      2  C1' OXE d   1      -1.092  -2.926  -0.020  0.00  0.00     0.078 C 
ATOM      3  C1  OXE d   1      -0.578  -1.523  -0.233  0.00  0.00    -0.078 A 
ATOM      4  C2  OXE d   1      -0.011  -1.236  -1.451  0.00  0.00    -0.078 A 
ATOM      5  C3  OXE d   1       0.429   0.057  -1.719  0.00  0.00     0.003 A 
ATOM      6  C4  OXE d   1       0.439   1.026  -0.707  0.00  0.00    -0.002 A 
ATOM      7  C5  OXE d   1      -0.097   0.742   0.553  0.00  0.00    -0.002 A 
ATOM      8  C6  OXE d   1      -0.648  -0.512   0.793  0.00  0.00     0.003 A 
ENDROOT
TORSDOF 0
ENDMDL
