MODEL 1
REMARK minimizedAffinity -1.56656873
REMARK minimizedRMSD -1
REMARK  0 active torsions:
REMARK  status: ('A' for Active; 'I' for Inactive)
ROOT
ATOM      1  C2' OXE d   1      -0.799  -3.379   0.071  0.00  0.00     0.078 C 
ATOM      2  C1' OXE d   1      -0.262  -1.767  -2.163  0.00  0.00     0.078 C 
ATOM      3  C1  OXE d   1      -0.356  -1.094  -0.817  0.00  0.00    -0.078 A 
ATOM      4  C2  OXE d   1      -0.666  -1.884   0.264  0.00  0.00    -0.078 A 
ATOM      5  C3  OXE d   1      -0.711  -1.323   1.538  0.00  0.00     0.003 A 
ATOM      6  C4  OXE d   1      -0.596   0.062   1.706  0.00  0.00    -0.002 A 
ATOM      7  C5  OXE d   1      -0.320   0.890   0.613  0.00  0.00    -0.002 A 
ATOM      8  C6  OXE d   1      -0.156   0.323  -0.646  0.00  0.00     0.003 A 
ENDROOT
TORSDOF 0
ENDMDL
