MODEL 1
REMARK minimizedAffinity -0.265187353
REMARK minimizedRMSD -1
REMARK  0 active torsions:
REMARK  status: ('A' for Active; 'I' for Inactive)
ROOT
ATOM      1  C2' OXE d   1       0.144   1.529   0.314  0.00  0.00     0.078 C 
ATOM      2  C1' OXE d   1      -0.995  -0.020   2.360  0.00  0.00     0.078 C 
ATOM      3  C1  OXE d   1      -0.748  -0.685   1.028  0.00  0.00    -0.078 A 
ATOM      4  C2  OXE d   1      -0.234   0.094   0.019  0.00  0.00    -0.078 A 
ATOM      5  C3  OXE d   1       0.063  -0.483  -1.213  0.00  0.00     0.003 A 
ATOM      6  C4  OXE d   1      -0.299  -1.808  -1.481  0.00  0.00    -0.002 A 
ATOM      7  C5  OXE d   1      -0.860  -2.608  -0.479  0.00  0.00    -0.002 A 
ATOM      8  C6  OXE d   1      -1.052  -2.074   0.791  0.00  0.00     0.003 A 
ENDROOT
TORSDOF 0
ENDMDL
