MODEL 1
REMARK minimizedAffinity -3.3045578
REMARK minimizedRMSD -1
REMARK  0 active torsions:
REMARK  status: ('A' for Active; 'I' for Inactive)
ROOT
ATOM      1  C2' OXE d   1       0.740  -1.920  -2.302  0.00  0.00     0.078 C 
ATOM      2  C1' OXE d   1      -0.152  -2.933   0.160  0.00  0.00     0.078 C 
ATOM      3  C1  OXE d   1      -0.001  -1.438   0.027  0.00  0.00    -0.078 A 
ATOM      4  C2  OXE d   1       0.480  -0.955  -1.165  0.00  0.00    -0.078 A 
ATOM      5  C3  OXE d   1       0.587   0.420  -1.360  0.00  0.00     0.003 A 
ATOM      6  C4  OXE d   1       0.355   1.305  -0.300  0.00  0.00    -0.002 A 
ATOM      7  C5  OXE d   1      -0.098   0.831   0.935  0.00  0.00    -0.002 A 
ATOM      8  C6  OXE d   1      -0.321  -0.531   1.102  0.00  0.00     0.003 A 
ENDROOT
TORSDOF 0
ENDMDL
