MODEL 1
REMARK minimizedAffinity -2.59979129
REMARK minimizedRMSD -1
REMARK  0 active torsions:
REMARK  status: ('A' for Active; 'I' for Inactive)
ROOT
ATOM      1  C2' OXE d   1      -0.033   0.146   0.071  0.00  0.00     0.078 C 
ATOM      2  C1' OXE d   1      -1.173  -2.139   1.237  0.00  0.00     0.078 C 
ATOM      3  C1  OXE d   1      -0.767  -2.217  -0.214  0.00  0.00    -0.078 A 
ATOM      4  C2  OXE d   1      -0.254  -1.079  -0.789  0.00  0.00    -0.078 A 
ATOM      5  C3  OXE d   1       0.187  -1.113  -2.109  0.00  0.00     0.003 A 
ATOM      6  C4  OXE d   1      -0.029  -2.247  -2.900  0.00  0.00    -0.002 A 
ATOM      7  C5  OXE d   1      -0.587  -3.404  -2.345  0.00  0.00    -0.002 A 
ATOM      8  C6  OXE d   1      -0.922  -3.419  -0.995  0.00  0.00     0.003 A 
ENDROOT
TORSDOF 0
ENDMDL
