MODEL 1
REMARK minimizedAffinity -0.477620959
REMARK minimizedRMSD -1
REMARK  0 active torsions:
REMARK  status: ('A' for Active; 'I' for Inactive)
ROOT
ATOM      1  C2' OXE d   1      -0.903  -0.808   0.455  0.00  0.00     0.078 C 
ATOM      2  C1' OXE d   1       1.611  -0.562   1.679  0.00  0.00     0.078 C 
ATOM      3  C1  OXE d   1       1.025   0.664   1.024  0.00  0.00    -0.078 A 
ATOM      4  C2  OXE d   1      -0.184   0.523   0.387  0.00  0.00    -0.078 A 
ATOM      5  C3  OXE d   1      -0.795   1.634  -0.186  0.00  0.00     0.003 A 
ATOM      6  C4  OXE d   1      -0.119   2.859  -0.253  0.00  0.00    -0.002 A 
ATOM      7  C5  OXE d   1       1.131   3.014   0.354  0.00  0.00    -0.002 A 
ATOM      8  C6  OXE d   1       1.697   1.940   1.033  0.00  0.00     0.003 A 
ENDROOT
TORSDOF 0
ENDMDL
