MODEL 1
REMARK minimizedAffinity -3.78990173
REMARK minimizedRMSD -1
REMARK  0 active torsions:
REMARK  status: ('A' for Active; 'I' for Inactive)
ROOT
ATOM      1  C2' OXE d   1      -1.989   0.394   2.181  0.00  0.00     0.078 C 
ATOM      2  C1' OXE d   1      -0.335   1.801   0.403  0.00  0.00     0.078 C 
ATOM      3  C1  OXE d   1      -0.434   0.305   0.238  0.00  0.00    -0.078 A 
ATOM      4  C2  OXE d   1      -1.209  -0.381   1.141  0.00  0.00    -0.078 A 
ATOM      5  C3  OXE d   1      -1.378  -1.755   1.001  0.00  0.00     0.003 A 
ATOM      6  C4  OXE d   1      -0.644  -2.465   0.043  0.00  0.00    -0.002 A 
ATOM      7  C5  OXE d   1       0.182  -1.791  -0.863  0.00  0.00    -0.002 A 
ATOM      8  C6  OXE d   1       0.265  -0.404  -0.806  0.00  0.00     0.003 A 
ENDROOT
TORSDOF 0
ENDMDL
