MODEL 1
REMARK minimizedAffinity 0.682962596
REMARK minimizedRMSD -1
REMARK  0 active torsions:
REMARK  status: ('A' for Active; 'I' for Inactive)
ROOT
ATOM      1  C2' OXE d   1      -0.153   1.513   0.076  0.00  0.00     0.078 C 
ATOM      2  C1' OXE d   1      -1.813   0.867   2.245  0.00  0.00     0.078 C 
ATOM      3  C1  OXE d   1      -1.364  -0.256   1.344  0.00  0.00    -0.078 A 
ATOM      4  C2  OXE d   1      -0.591   0.076   0.258  0.00  0.00    -0.078 A 
ATOM      5  C3  OXE d   1      -0.104  -0.928  -0.575  0.00  0.00     0.003 A 
ATOM      6  C4  OXE d   1      -0.521  -2.254  -0.405  0.00  0.00    -0.002 A 
ATOM      7  C5  OXE d   1      -1.342  -2.608   0.671  0.00  0.00    -0.002 A 
ATOM      8  C6  OXE d   1      -1.736  -1.630   1.578  0.00  0.00     0.003 A 
ENDROOT
TORSDOF 0
ENDMDL
