MODEL 1
REMARK minimizedAffinity -0.945555806
REMARK minimizedRMSD -1
REMARK  0 active torsions:
REMARK  status: ('A' for Active; 'I' for Inactive)
ROOT
ATOM      1  C2' OXE d   1      -0.175   1.896  -1.690  0.00  0.00     0.078 C 
ATOM      2  C1' OXE d   1       1.450   3.021   0.304  0.00  0.00     0.078 C 
ATOM      3  C1  OXE d   1       0.787   1.699   0.599  0.00  0.00    -0.078 A 
ATOM      4  C2  OXE d   1      -0.043   1.178  -0.364  0.00  0.00    -0.078 A 
ATOM      5  C3  OXE d   1      -0.637  -0.065  -0.165  0.00  0.00     0.003 A 
ATOM      6  C4  OXE d   1      -0.518  -0.717   1.068  0.00  0.00    -0.002 A 
ATOM      7  C5  OXE d   1       0.292  -0.186   2.078  0.00  0.00    -0.002 A 
ATOM      8  C6  OXE d   1       0.984   0.998   1.844  0.00  0.00     0.003 A 
ENDROOT
TORSDOF 0
ENDMDL
