MODEL 1
REMARK minimizedAffinity -3.08292508
REMARK minimizedRMSD -1
REMARK  0 active torsions:
REMARK  status: ('A' for Active; 'I' for Inactive)
ROOT
ATOM      1  C2' OXE d   1      -0.810  -0.135   1.898  0.00  0.00     0.078 C 
ATOM      2  C1' OXE d   1       0.101   0.937  -0.531  0.00  0.00     0.078 C 
ATOM      3  C1  OXE d   1      -0.261  -0.527  -0.500  0.00  0.00    -0.078 A 
ATOM      4  C2  OXE d   1      -0.661  -1.054   0.705  0.00  0.00    -0.078 A 
ATOM      5  C3  OXE d   1      -1.059  -2.386   0.777  0.00  0.00     0.003 A 
ATOM      6  C4  OXE d   1      -0.909  -3.231  -0.329  0.00  0.00    -0.002 A 
ATOM      7  C5  OXE d   1      -0.465  -2.724  -1.555  0.00  0.00    -0.002 A 
ATOM      8  C6  OXE d   1      -0.178  -1.368  -1.668  0.00  0.00     0.003 A 
ENDROOT
TORSDOF 0
ENDMDL
