MODEL 1
REMARK minimizedAffinity -2.66653872
REMARK minimizedRMSD -1
REMARK  0 active torsions:
REMARK  status: ('A' for Active; 'I' for Inactive)
ROOT
ATOM      1  C2' OXE d   1       0.188   1.276  -0.021  0.00  0.00     0.078 C 
ATOM      2  C1' OXE d   1      -1.179   0.100   2.131  0.00  0.00     0.078 C 
ATOM      3  C1  OXE d   1      -0.917  -0.752   0.914  0.00  0.00    -0.078 A 
ATOM      4  C2  OXE d   1      -0.289  -0.155  -0.152  0.00  0.00    -0.078 A 
ATOM      5  C3  OXE d   1       0.025  -0.910  -1.278  0.00  0.00     0.003 A 
ATOM      6  C4  OXE d   1      -0.429  -2.229  -1.396  0.00  0.00    -0.002 A 
ATOM      7  C5  OXE d   1      -1.105  -2.845  -0.337  0.00  0.00    -0.002 A 
ATOM      8  C6  OXE d   1      -1.320  -2.134   0.839  0.00  0.00     0.003 A 
ENDROOT
TORSDOF 0
ENDMDL
