MODEL 1
REMARK minimizedAffinity -1.91701257
REMARK minimizedRMSD -1
REMARK  0 active torsions:
REMARK  status: ('A' for Active; 'I' for Inactive)
ROOT
ATOM      1  C2' OXE d   1      -1.211  -3.369  -0.473  0.00  0.00     0.078 C 
ATOM      2  C1' OXE d   1      -0.310  -1.783  -2.607  0.00  0.00     0.078 C 
ATOM      3  C1  OXE d   1      -0.383  -1.148  -1.241  0.00  0.00    -0.078 A 
ATOM      4  C2  OXE d   1      -0.869  -1.918  -0.211  0.00  0.00    -0.078 A 
ATOM      5  C3  OXE d   1      -0.906  -1.398   1.079  0.00  0.00     0.003 A 
ATOM      6  C4  OXE d   1      -0.597  -0.052   1.311  0.00  0.00    -0.002 A 
ATOM      7  C5  OXE d   1      -0.137   0.760   0.269  0.00  0.00    -0.002 A 
ATOM      8  C6  OXE d   1       0.016   0.217  -1.002  0.00  0.00     0.003 A 
ENDROOT
TORSDOF 0
ENDMDL
