MODEL 1
REMARK minimizedAffinity 0.686430335
REMARK minimizedRMSD -1
REMARK  0 active torsions:
REMARK  status: ('A' for Active; 'I' for Inactive)
ROOT
ATOM      1  C2' OXE d   1       0.320   1.815  -0.024  0.00  0.00     0.078 C 
ATOM      2  C1' OXE d   1       0.021  -0.164  -1.992  0.00  0.00     0.078 C 
ATOM      3  C1  OXE d   1      -0.395  -0.505  -0.582  0.00  0.00    -0.078 A 
ATOM      4  C2  OXE d   1      -0.202   0.454   0.383  0.00  0.00    -0.078 A 
ATOM      5  C3  OXE d   1      -0.619   0.211   1.689  0.00  0.00     0.003 A 
ATOM      6  C4  OXE d   1      -1.090  -1.054   2.059  0.00  0.00    -0.002 A 
ATOM      7  C5  OXE d   1      -1.258  -2.058   1.099  0.00  0.00    -0.002 A 
ATOM      8  C6  OXE d   1      -0.955  -1.786  -0.231  0.00  0.00     0.003 A 
ENDROOT
TORSDOF 0
ENDMDL
