MODEL 1
REMARK minimizedAffinity -4.14175844
REMARK minimizedRMSD -1
REMARK  0 active torsions:
REMARK  status: ('A' for Active; 'I' for Inactive)
ROOT
ATOM      1  C2' OXE d   1       0.002   0.854   0.096  0.00  0.00     0.078 C 
ATOM      2  C1' OXE d   1       0.409   0.113  -2.581  0.00  0.00     0.078 C 
ATOM      3  C1  OXE d   1      -0.069  -0.948  -1.622  0.00  0.00    -0.078 A 
ATOM      4  C2  OXE d   1      -0.221  -0.588  -0.304  0.00  0.00    -0.078 A 
ATOM      5  C3  OXE d   1      -0.712  -1.515   0.611  0.00  0.00     0.003 A 
ATOM      6  C4  OXE d   1      -0.906  -2.849   0.235  0.00  0.00    -0.002 A 
ATOM      7  C5  OXE d   1      -0.720  -3.246  -1.094  0.00  0.00    -0.002 A 
ATOM      8  C6  OXE d   1      -0.343  -2.301  -2.041  0.00  0.00     0.003 A 
ENDROOT
TORSDOF 0
ENDMDL
