MODEL 1
REMARK minimizedAffinity -1.97377145
REMARK minimizedRMSD -1
REMARK  0 active torsions:
REMARK  status: ('A' for Active; 'I' for Inactive)
ROOT
ATOM      1  C   UNL d   1      -0.742   0.284   0.239  0.00  0.00     0.078 C 
ATOM      2  C1  UNL d   1      -1.225   1.153  -0.884  0.00  0.00    -0.077 A 
ATOM      3  C2  UNL d   1      -2.337   0.788  -1.651  0.00  0.00    -0.001 A 
ATOM      4  C3  UNL d   1      -2.770   1.602  -2.699  0.00  0.00     0.003 A 
ATOM      5  C4  UNL d   1      -2.095   2.786  -2.990  0.00  0.00    -0.005 A 
ATOM      6  C5  UNL d   1      -0.985   3.157  -2.233  0.00  0.00     0.003 A 
ATOM      7  C6  UNL d   1      -0.551   2.344  -1.184  0.00  0.00    -0.001 A 
ENDROOT
TORSDOF 0
ENDMDL
