MODEL 1
REMARK minimizedAffinity 0.273400187
REMARK minimizedRMSD -1
REMARK  0 active torsions:
REMARK  status: ('A' for Active; 'I' for Inactive)
ROOT
ATOM      1  C   UNL d   1       0.002   1.296  -0.570  0.00  0.00     0.078 C 
ATOM      2  C1  UNL d   1      -0.621   0.324   0.388  0.00  0.00    -0.077 A 
ATOM      3  C2  UNL d   1      -1.578   0.743   1.320  0.00  0.00    -0.001 A 
ATOM      4  C3  UNL d   1      -2.143  -0.170   2.211  0.00  0.00     0.003 A 
ATOM      5  C4  UNL d   1      -1.756  -1.508   2.180  0.00  0.00    -0.005 A 
ATOM      6  C5  UNL d   1      -0.802  -1.934   1.258  0.00  0.00     0.003 A 
ATOM      7  C6  UNL d   1      -0.237  -1.022   0.366  0.00  0.00    -0.001 A 
ENDROOT
TORSDOF 0
ENDMDL
