MODEL 1
REMARK minimizedAffinity -2.51062393
REMARK minimizedRMSD -1
REMARK  0 active torsions:
REMARK  status: ('A' for Active; 'I' for Inactive)
ROOT
ATOM      1  C   UNL d   1       1.776  -2.467   0.760  0.00  0.00     0.078 C 
ATOM      2  C1  UNL d   1       0.939  -1.236   0.577  0.00  0.00    -0.077 A 
ATOM      3  C2  UNL d   1       1.430  -0.127  -0.122  0.00  0.00    -0.001 A 
ATOM      4  C3  UNL d   1       0.643   1.015  -0.276  0.00  0.00     0.003 A 
ATOM      5  C4  UNL d   1      -0.639   1.060   0.269  0.00  0.00    -0.005 A 
ATOM      6  C5  UNL d   1      -1.135  -0.038   0.968  0.00  0.00     0.003 A 
ATOM      7  C6  UNL d   1      -0.350  -1.181   1.123  0.00  0.00    -0.001 A 
ENDROOT
TORSDOF 0
ENDMDL
