MODEL 1
REMARK minimizedAffinity -2.50062943
REMARK minimizedRMSD -1
REMARK  0 active torsions:
REMARK  status: ('A' for Active; 'I' for Inactive)
ROOT
ATOM      1  C   UNL d   1       0.419   3.689   0.072  0.00  0.00     0.078 C 
ATOM      2  C1  UNL d   1       0.603   2.201   0.061  0.00  0.00    -0.077 A 
ATOM      3  C2  UNL d   1       1.874   1.632  -0.093  0.00  0.00    -0.001 A 
ATOM      4  C3  UNL d   1       2.029   0.245  -0.111  0.00  0.00     0.003 A 
ATOM      5  C4  UNL d   1       0.918  -0.585   0.024  0.00  0.00    -0.005 A 
ATOM      6  C5  UNL d   1      -0.351  -0.028   0.175  0.00  0.00     0.003 A 
ATOM      7  C6  UNL d   1      -0.508   1.358   0.194  0.00  0.00    -0.001 A 
ENDROOT
TORSDOF 0
ENDMDL
