MODEL 1
REMARK minimizedAffinity -3.09808469
REMARK minimizedRMSD -1
REMARK  0 active torsions:
REMARK  status: ('A' for Active; 'I' for Inactive)
ROOT
ATOM      1  C   UNL d   1       2.269   3.379  -0.012  0.00  0.00     0.078 C 
ATOM      2  C1  UNL d   1       1.491   2.099  -0.067  0.00  0.00    -0.077 A 
ATOM      3  C2  UNL d   1       0.095   2.097   0.043  0.00  0.00    -0.001 A 
ATOM      4  C3  UNL d   1      -0.616   0.897  -0.000  0.00  0.00     0.003 A 
ATOM      5  C4  UNL d   1       0.061  -0.312  -0.153  0.00  0.00    -0.005 A 
ATOM      6  C5  UNL d   1       1.450  -0.321  -0.262  0.00  0.00     0.003 A 
ATOM      7  C6  UNL d   1       2.162   0.879  -0.219  0.00  0.00    -0.001 A 
ENDROOT
TORSDOF 0
ENDMDL
