MODEL 1
REMARK minimizedAffinity -4.24074984
REMARK minimizedRMSD -1
REMARK  0 active torsions:
REMARK  status: ('A' for Active; 'I' for Inactive)
ROOT
ATOM      1  C   UNL d   1       0.362   1.708  -0.324  0.00  0.00     0.078 C 
ATOM      2  C1  UNL d   1       0.465   0.313   0.216  0.00  0.00    -0.077 A 
ATOM      3  C2  UNL d   1       1.653  -0.420   0.098  0.00  0.00    -0.001 A 
ATOM      4  C3  UNL d   1       1.732  -1.721   0.596  0.00  0.00     0.003 A 
ATOM      5  C4  UNL d   1       0.627  -2.302   1.216  0.00  0.00    -0.005 A 
ATOM      6  C5  UNL d   1      -0.560  -1.581   1.336  0.00  0.00     0.003 A 
ATOM      7  C6  UNL d   1      -0.641  -0.279   0.838  0.00  0.00    -0.001 A 
ENDROOT
TORSDOF 0
ENDMDL
