MODEL 1
REMARK minimizedAffinity -1.86926174
REMARK minimizedRMSD -1
REMARK  0 active torsions:
REMARK  status: ('A' for Active; 'I' for Inactive)
ROOT
ATOM      1  C   UNL d   1       0.021   1.186  -0.845  0.00  0.00     0.078 C 
ATOM      2  C1  UNL d   1       0.825   2.322  -0.288  0.00  0.00    -0.077 A 
ATOM      3  C2  UNL d   1       2.225   2.297  -0.316  0.00  0.00    -0.001 A 
ATOM      4  C3  UNL d   1       2.961   3.358   0.215  0.00  0.00     0.003 A 
ATOM      5  C4  UNL d   1       2.306   4.450   0.780  0.00  0.00    -0.005 A 
ATOM      6  C5  UNL d   1       0.913   4.483   0.815  0.00  0.00     0.003 A 
ATOM      7  C6  UNL d   1       0.176   3.423   0.284  0.00  0.00    -0.001 A 
ENDROOT
TORSDOF 0
ENDMDL
