MODEL 1
REMARK minimizedAffinity -5.24190474
REMARK minimizedRMSD -1
REMARK  0 active torsions:
REMARK  status: ('A' for Active; 'I' for Inactive)
ROOT
ATOM      1  C   UNL d   1      -0.001   1.555   0.392  0.00  0.00     0.078 C 
ATOM      2  C1  UNL d   1       0.598   0.180   0.369  0.00  0.00    -0.077 A 
ATOM      3  C2  UNL d   1      -0.209  -0.956   0.229  0.00  0.00    -0.001 A 
ATOM      4  C3  UNL d   1       0.362  -2.229   0.219  0.00  0.00     0.003 A 
ATOM      5  C4  UNL d   1       1.741  -2.380   0.350  0.00  0.00    -0.005 A 
ATOM      6  C5  UNL d   1       2.551  -1.255   0.492  0.00  0.00     0.003 A 
ATOM      7  C6  UNL d   1       1.983   0.020   0.503  0.00  0.00    -0.001 A 
ENDROOT
TORSDOF 0
ENDMDL
