MODEL 1
REMARK minimizedAffinity -4.25578642
REMARK minimizedRMSD -1
REMARK  0 active torsions:
REMARK  status: ('A' for Active; 'I' for Inactive)
ROOT
ATOM      1  C   UNL d   1      -0.928   1.075   0.241  0.00  0.00     0.078 C 
ATOM      2  C1  UNL d   1      -1.069   1.670  -1.129  0.00  0.00    -0.077 A 
ATOM      3  C2  UNL d   1      -0.086   2.519  -1.651  0.00  0.00    -0.001 A 
ATOM      4  C3  UNL d   1      -0.234   3.073  -2.923  0.00  0.00     0.003 A 
ATOM      5  C4  UNL d   1      -1.366   2.785  -3.684  0.00  0.00    -0.005 A 
ATOM      6  C5  UNL d   1      -2.351   1.943  -3.172  0.00  0.00     0.003 A 
ATOM      7  C6  UNL d   1      -2.204   1.388  -1.900  0.00  0.00    -0.001 A 
ENDROOT
TORSDOF 0
ENDMDL
