MODEL 1
REMARK minimizedAffinity -3.34602618
REMARK minimizedRMSD -1
REMARK  0 active torsions:
REMARK  status: ('A' for Active; 'I' for Inactive)
ROOT
ATOM      1  C   UNL d   1      -1.389   0.645  -0.199  0.00  0.00     0.078 C 
ATOM      2  C1  UNL d   1      -0.105   1.420  -0.215  0.00  0.00    -0.077 A 
ATOM      3  C2  UNL d   1       1.127   0.771  -0.360  0.00  0.00    -0.001 A 
ATOM      4  C3  UNL d   1       2.315   1.505  -0.364  0.00  0.00     0.003 A 
ATOM      5  C4  UNL d   1       2.282   2.890  -0.222  0.00  0.00    -0.005 A 
ATOM      6  C5  UNL d   1       1.061   3.545  -0.076  0.00  0.00     0.003 A 
ATOM      7  C6  UNL d   1      -0.128   2.813  -0.072  0.00  0.00    -0.001 A 
ENDROOT
TORSDOF 0
ENDMDL
