MODEL 1
REMARK minimizedAffinity 1.20637572
REMARK minimizedRMSD -1
REMARK  0 active torsions:
REMARK  status: ('A' for Active; 'I' for Inactive)
ROOT
ATOM      1  C   UNL d   1      -0.792   0.410  -0.296  0.00  0.00     0.078 C 
ATOM      2  C1  UNL d   1      -1.463   0.800  -1.579  0.00  0.00    -0.077 A 
ATOM      3  C2  UNL d   1      -1.204   2.037  -2.182  0.00  0.00    -0.001 A 
ATOM      4  C3  UNL d   1      -1.843   2.391  -3.371  0.00  0.00     0.003 A 
ATOM      5  C4  UNL d   1      -2.747   1.514  -3.967  0.00  0.00    -0.005 A 
ATOM      6  C5  UNL d   1      -3.014   0.282  -3.373  0.00  0.00     0.003 A 
ATOM      7  C6  UNL d   1      -2.375  -0.074  -2.184  0.00  0.00    -0.001 A 
ENDROOT
TORSDOF 0
ENDMDL
