MODEL 1
REMARK minimizedAffinity -4.51046419
REMARK minimizedRMSD -1
REMARK  0 active torsions:
REMARK  status: ('A' for Active; 'I' for Inactive)
ROOT
ATOM      1  C   UNL d   1       1.496  -2.911   1.279  0.00  0.00     0.078 C 
ATOM      2  C1  UNL d   1       0.712  -1.825   0.606  0.00  0.00    -0.077 A 
ATOM      3  C2  UNL d   1      -0.037  -0.907   1.352  0.00  0.00    -0.001 A 
ATOM      4  C3  UNL d   1      -0.770   0.093   0.711  0.00  0.00     0.003 A 
ATOM      5  C4  UNL d   1      -0.762   0.184  -0.679  0.00  0.00    -0.005 A 
ATOM      6  C5  UNL d   1      -0.022  -0.726  -1.431  0.00  0.00     0.003 A 
ATOM      7  C6  UNL d   1       0.712  -1.727  -0.792  0.00  0.00    -0.001 A 
ENDROOT
TORSDOF 0
ENDMDL
