MODEL 1
REMARK minimizedAffinity -2.80917525
REMARK minimizedRMSD -1
REMARK  0 active torsions:
REMARK  status: ('A' for Active; 'I' for Inactive)
ROOT
ATOM      1  C   UNL d   1      -0.537  -0.267  -0.173  0.00  0.00     0.078 C 
ATOM      2  C1  UNL d   1      -1.356   0.424  -1.222  0.00  0.00    -0.077 A 
ATOM      3  C2  UNL d   1      -0.889   0.547  -2.537  0.00  0.00    -0.001 A 
ATOM      4  C3  UNL d   1      -1.657   1.201  -3.500  0.00  0.00     0.003 A 
ATOM      5  C4  UNL d   1      -2.897   1.740  -3.160  0.00  0.00    -0.005 A 
ATOM      6  C5  UNL d   1      -3.369   1.624  -1.854  0.00  0.00     0.003 A 
ATOM      7  C6  UNL d   1      -2.602   0.970  -0.889  0.00  0.00    -0.001 A 
ENDROOT
TORSDOF 0
ENDMDL
