MODEL 1
REMARK minimizedAffinity -3.95427394
REMARK minimizedRMSD -1
REMARK  0 active torsions:
REMARK  status: ('A' for Active; 'I' for Inactive)
ROOT
ATOM      1  C   UNL d   1       4.098   3.391  -0.399  0.00  0.00     0.078 C 
ATOM      2  C1  UNL d   1       2.655   2.992  -0.305  0.00  0.00    -0.077 A 
ATOM      3  C2  UNL d   1       2.267   1.654  -0.437  0.00  0.00    -0.001 A 
ATOM      4  C3  UNL d   1       0.920   1.298  -0.356  0.00  0.00     0.003 A 
ATOM      5  C4  UNL d   1      -0.050   2.275  -0.144  0.00  0.00    -0.005 A 
ATOM      6  C5  UNL d   1       0.326   3.611  -0.014  0.00  0.00     0.003 A 
ATOM      7  C6  UNL d   1       1.673   3.968  -0.094  0.00  0.00    -0.001 A 
ENDROOT
TORSDOF 0
ENDMDL
