MODEL 1
REMARK minimizedAffinity -2.76653647
REMARK minimizedRMSD -1
REMARK  0 active torsions:
REMARK  status: ('A' for Active; 'I' for Inactive)
ROOT
ATOM      1  C   UNL d   1       1.552  -2.995   1.483  0.00  0.00     0.078 C 
ATOM      2  C1  UNL d   1       0.750  -1.778   1.131  0.00  0.00    -0.077 A 
ATOM      3  C2  UNL d   1      -0.400  -1.439   1.854  0.00  0.00    -0.001 A 
ATOM      4  C3  UNL d   1      -1.143  -0.309   1.509  0.00  0.00     0.003 A 
ATOM      5  C4  UNL d   1      -0.745   0.490   0.439  0.00  0.00    -0.005 A 
ATOM      6  C5  UNL d   1       0.396   0.159  -0.288  0.00  0.00     0.003 A 
ATOM      7  C6  UNL d   1       1.141  -0.971   0.056  0.00  0.00    -0.001 A 
ENDROOT
TORSDOF 0
ENDMDL
