MODEL 1
REMARK minimizedAffinity -4.84502935
REMARK minimizedRMSD -1
REMARK  0 active torsions:
REMARK  status: ('A' for Active; 'I' for Inactive)
ROOT
ATOM      1  C   UNL d   1      -0.457   3.716   0.144  0.00  0.00     0.078 C 
ATOM      2  C1  UNL d   1      -1.111   3.032  -1.020  0.00  0.00    -0.077 A 
ATOM      3  C2  UNL d   1      -1.969   1.942  -0.827  0.00  0.00    -0.001 A 
ATOM      4  C3  UNL d   1      -2.562   1.309  -1.920  0.00  0.00     0.003 A 
ATOM      5  C4  UNL d   1      -2.304   1.757  -3.213  0.00  0.00    -0.005 A 
ATOM      6  C5  UNL d   1      -1.450   2.840  -3.415  0.00  0.00     0.003 A 
ATOM      7  C6  UNL d   1      -0.856   3.474  -2.324  0.00  0.00    -0.001 A 
ENDROOT
TORSDOF 0
ENDMDL
