MODEL 1
REMARK minimizedAffinity 5.62879705
REMARK minimizedRMSD -1
REMARK  0 active torsions:
REMARK  status: ('A' for Active; 'I' for Inactive)
ROOT
ATOM      1  C2' OXE d   1       2.950  -0.352   1.377  0.00  0.00     0.078 C 
ATOM      2  C1' OXE d   1       1.979  -0.608  -1.244  0.00  0.00     0.078 C 
ATOM      3  C1  OXE d   1       3.242   0.190  -1.036  0.00  0.00    -0.078 A 
ATOM      4  C2  OXE d   1       3.684   0.349   0.255  0.00  0.00    -0.078 A 
ATOM      5  C3  OXE d   1       4.873   1.030   0.497  0.00  0.00     0.003 A 
ATOM      6  C4  OXE d   1       5.541   1.685  -0.545  0.00  0.00    -0.002 A 
ATOM      7  C5  OXE d   1       5.085   1.569  -1.863  0.00  0.00    -0.002 A 
ATOM      8  C6  OXE d   1       3.964   0.791  -2.130  0.00  0.00     0.003 A 
ENDROOT
TORSDOF 0
ENDMDL
