MODEL 1
REMARK minimizedAffinity 0.903810382
REMARK minimizedRMSD -1
REMARK  0 active torsions:
REMARK  status: ('A' for Active; 'I' for Inactive)
ROOT
ATOM      1  C2' OXE d   1       4.029  -0.025  -3.825  0.00  0.00     0.078 C 
ATOM      2  C1' OXE d   1       6.000   1.776  -2.959  0.00  0.00     0.078 C 
ATOM      3  C1  OXE d   1       5.027   1.251  -1.933  0.00  0.00    -0.078 A 
ATOM      4  C2  OXE d   1       4.037   0.406  -2.374  0.00  0.00    -0.078 A 
ATOM      5  C3  OXE d   1       3.147  -0.150  -1.460  0.00  0.00     0.003 A 
ATOM      6  C4  OXE d   1       3.156   0.263  -0.122  0.00  0.00    -0.002 A 
ATOM      7  C5  OXE d   1       4.131   1.153   0.341  0.00  0.00    -0.002 A 
ATOM      8  C6  OXE d   1       5.098   1.622  -0.541  0.00  0.00     0.003 A 
ENDROOT
TORSDOF 0
ENDMDL
