MODEL 1
REMARK minimizedAffinity 6.17624331
REMARK minimizedRMSD -1
REMARK  0 active torsions:
REMARK  status: ('A' for Active; 'I' for Inactive)
ROOT
ATOM      1  C2' OXE d   1      -0.048   3.628   0.547  0.00  0.00     0.078 C 
ATOM      2  C1' OXE d   1      -0.918   1.689  -1.287  0.00  0.00     0.078 C 
ATOM      3  C1  OXE d   1       0.403   1.461  -0.596  0.00  0.00    -0.078 A 
ATOM      4  C2  OXE d   1       0.843   2.437   0.265  0.00  0.00    -0.078 A 
ATOM      5  C3  OXE d   1       2.028   2.251   0.971  0.00  0.00     0.003 A 
ATOM      6  C4  OXE d   1       2.851   1.152   0.696  0.00  0.00    -0.002 A 
ATOM      7  C5  OXE d   1       2.440   0.165  -0.206  0.00  0.00    -0.002 A 
ATOM      8  C6  OXE d   1       1.202   0.283  -0.828  0.00  0.00     0.003 A 
ENDROOT
TORSDOF 0
ENDMDL
