MODEL 1
REMARK minimizedAffinity -2.31041718
REMARK minimizedRMSD -1
REMARK  0 active torsions:
REMARK  status: ('A' for Active; 'I' for Inactive)
ROOT
ATOM      1  C2' OXE d   1      -3.050  -0.313  -3.441  0.00  0.00     0.078 C 
ATOM      2  C1' OXE d   1      -5.803  -0.648  -3.871  0.00  0.00     0.078 C 
ATOM      3  C1  OXE d   1      -5.129   0.536  -4.519  0.00  0.00    -0.078 A 
ATOM      4  C2  OXE d   1      -3.791   0.718  -4.265  0.00  0.00    -0.078 A 
ATOM      5  C3  OXE d   1      -3.108   1.763  -4.881  0.00  0.00     0.003 A 
ATOM      6  C4  OXE d   1      -3.803   2.717  -5.634  0.00  0.00    -0.002 A 
ATOM      7  C5  OXE d   1      -5.174   2.572  -5.872  0.00  0.00    -0.002 A 
ATOM      8  C6  OXE d   1      -5.842   1.466  -5.358  0.00  0.00     0.003 A 
ENDROOT
TORSDOF 0
ENDMDL
