MODEL 1
REMARK minimizedAffinity 7.69221258
REMARK minimizedRMSD -1
REMARK  0 active torsions:
REMARK  status: ('A' for Active; 'I' for Inactive)
ROOT
ATOM      1  C2' OXE d   1       5.474   2.122  -2.537  0.00  0.00     0.078 C 
ATOM      2  C1' OXE d   1       5.672   2.292   0.258  0.00  0.00     0.078 C 
ATOM      3  C1  OXE d   1       4.530   1.494  -0.319  0.00  0.00    -0.078 A 
ATOM      4  C2  OXE d   1       4.414   1.454  -1.687  0.00  0.00    -0.078 A 
ATOM      5  C3  OXE d   1       3.411   0.687  -2.272  0.00  0.00     0.003 A 
ATOM      6  C4  OXE d   1       2.429   0.081  -1.479  0.00  0.00    -0.002 A 
ATOM      7  C5  OXE d   1       2.506   0.141  -0.084  0.00  0.00    -0.002 A 
ATOM      8  C6  OXE d   1       3.572   0.807   0.511  0.00  0.00     0.003 A 
ENDROOT
TORSDOF 0
ENDMDL
