MODEL 1
REMARK minimizedAffinity 7.4945488
REMARK minimizedRMSD -1
REMARK  0 active torsions:
REMARK  status: ('A' for Active; 'I' for Inactive)
ROOT
ATOM      1  C2' OXE d   1       5.682   2.161  -2.946  0.00  0.00     0.078 C 
ATOM      2  C1' OXE d   1       6.000   2.125  -0.157  0.00  0.00     0.078 C 
ATOM      3  C1  OXE d   1       4.805   1.411  -0.738  0.00  0.00    -0.078 A 
ATOM      4  C2  OXE d   1       4.632   1.474  -2.100  0.00  0.00    -0.078 A 
ATOM      5  C3  OXE d   1       3.577   0.787  -2.693  0.00  0.00     0.003 A 
ATOM      6  C4  OXE d   1       2.604   0.162  -1.903  0.00  0.00    -0.002 A 
ATOM      7  C5  OXE d   1       2.740   0.121  -0.511  0.00  0.00    -0.002 A 
ATOM      8  C6  OXE d   1       3.854   0.703   0.083  0.00  0.00     0.003 A 
ENDROOT
TORSDOF 0
ENDMDL
