MODEL 1
REMARK minimizedAffinity 18.958395
REMARK minimizedRMSD -1
REMARK  0 active torsions:
REMARK  status: ('A' for Active; 'I' for Inactive)
ROOT
ATOM      1  C2' OXE d   1      -4.199  -2.962  -5.975  0.00  0.00     0.078 C 
ATOM      2  C1' OXE d   1      -2.360  -1.507  -4.433  0.00  0.00     0.078 C 
ATOM      3  C1  OXE d   1      -3.636  -0.816  -4.844  0.00  0.00    -0.078 A 
ATOM      4  C2  OXE d   1      -4.509  -1.520  -5.638  0.00  0.00    -0.078 A 
ATOM      5  C3  OXE d   1      -5.726  -0.948  -5.999  0.00  0.00     0.003 A 
ATOM      6  C4  OXE d   1      -6.000   0.390  -5.692  0.00  0.00    -0.002 A 
ATOM      7  C5  OXE d   1      -5.106   1.138  -4.918  0.00  0.00    -0.002 A 
ATOM      8  C6  OXE d   1      -3.941   0.538  -4.451  0.00  0.00     0.003 A 
ENDROOT
TORSDOF 0
ENDMDL
