MODEL 1
REMARK minimizedAffinity -3.9215548
REMARK minimizedRMSD -1
REMARK  0 active torsions:
REMARK  status: ('A' for Active; 'I' for Inactive)
ROOT
ATOM      1  C   UNL d   1      -0.925  -0.817   0.536  0.00  0.00     0.172 C 
ATOM      2  N   UNL d   1      -1.919   0.075   1.084  0.00  0.00    -0.070 N 
ATOM      3  C1  UNL d   1      -1.663   1.177   1.857  0.00  0.00    -0.004 A 
ATOM      4  C2  UNL d   1      -2.872   1.757   2.176  0.00  0.00    -0.047 A 
ATOM      5  C3  UNL d   1      -3.888   0.977   1.576  0.00  0.00    -0.047 A 
ATOM      6  C4  UNL d   1      -3.270  -0.058   0.907  0.00  0.00    -0.004 A 
ENDROOT
TORSDOF 0
ENDMDL
