MODEL 1
REMARK minimizedAffinity -3.45447135
REMARK minimizedRMSD -1
REMARK  0 active torsions:
REMARK  status: ('A' for Active; 'I' for Inactive)
ROOT
ATOM      1  C   UNL d   1      -0.750  -0.781   0.073  0.00  0.00     0.172 C 
ATOM      2  N   UNL d   1      -1.301  -0.176   1.263  0.00  0.00    -0.070 N 
ATOM      3  C1  UNL d   1      -2.375   0.673   1.304  0.00  0.00    -0.004 A 
ATOM      4  C2  UNL d   1      -2.584   1.026   2.619  0.00  0.00    -0.047 A 
ATOM      5  C3  UNL d   1      -1.602   0.367   3.396  0.00  0.00    -0.047 A 
ATOM      6  C4  UNL d   1      -0.821  -0.371   2.532  0.00  0.00    -0.004 A 
ENDROOT
TORSDOF 0
ENDMDL
