MODEL 1
REMARK minimizedAffinity -3.32880211
REMARK minimizedRMSD -1
REMARK  0 active torsions:
REMARK  status: ('A' for Active; 'I' for Inactive)
ROOT
ATOM      1  C   UNL d   1       0.182  -0.154   0.809  0.00  0.00     0.172 C 
ATOM      2  N   UNL d   1       0.437  -1.130  -0.224  0.00  0.00    -0.070 N 
ATOM      3  C1  UNL d   1       1.653  -1.693  -0.508  0.00  0.00    -0.004 A 
ATOM      4  C2  UNL d   1       1.477  -2.572  -1.555  0.00  0.00    -0.047 A 
ATOM      5  C3  UNL d   1       0.109  -2.535  -1.913  0.00  0.00    -0.047 A 
ATOM      6  C4  UNL d   1      -0.512  -1.635  -1.074  0.00  0.00    -0.004 A 
ENDROOT
TORSDOF 0
ENDMDL
