MODEL 1
REMARK minimizedAffinity -0.9812572
REMARK minimizedRMSD -1
REMARK  0 active torsions:
REMARK  status: ('A' for Active; 'I' for Inactive)
ROOT
ATOM      1  C   UNL d   1      -1.555  -0.796   0.484  0.00  0.00     0.172 C 
ATOM      2  N   UNL d   1      -2.694   0.010   0.856  0.00  0.00    -0.070 N 
ATOM      3  C1  UNL d   1      -3.616   0.537  -0.008  0.00  0.00    -0.004 A 
ATOM      4  C2  UNL d   1      -4.540   1.238   0.736  0.00  0.00    -0.047 A 
ATOM      5  C3  UNL d   1      -4.160   1.129   2.094  0.00  0.00    -0.047 A 
ATOM      6  C4  UNL d   1      -3.014   0.364   2.140  0.00  0.00    -0.004 A 
ENDROOT
TORSDOF 0
ENDMDL
