MODEL 1
REMARK minimizedAffinity -0.53045243
REMARK minimizedRMSD -1
REMARK  0 active torsions:
REMARK  status: ('A' for Active; 'I' for Inactive)
ROOT
ATOM      1  C   UNL d   1      -2.656  -0.681   3.301  0.00  0.00     0.172 C 
ATOM      2  N   UNL d   1      -2.137  -0.793   1.958  0.00  0.00    -0.070 N 
ATOM      3  C1  UNL d   1      -2.752  -1.432   0.915  0.00  0.00    -0.004 A 
ATOM      4  C2  UNL d   1      -1.939  -1.315  -0.191  0.00  0.00    -0.047 A 
ATOM      5  C3  UNL d   1      -0.794  -0.581   0.201  0.00  0.00    -0.047 A 
ATOM      6  C4  UNL d   1      -0.943  -0.271   1.537  0.00  0.00    -0.004 A 
ENDROOT
TORSDOF 0
ENDMDL
