MODEL 1
REMARK minimizedAffinity -3.55733681
REMARK minimizedRMSD -1
REMARK  0 active torsions:
REMARK  status: ('A' for Active; 'I' for Inactive)
ROOT
ATOM      1  C   UNL d   1      -0.002  -1.251  -0.539  0.00  0.00     0.172 C 
ATOM      2  N   UNL d   1      -0.701  -0.561   0.519  0.00  0.00    -0.070 N 
ATOM      3  C1  UNL d   1      -2.009  -0.156   0.480  0.00  0.00    -0.004 A 
ATOM      4  C2  UNL d   1      -2.295   0.462   1.678  0.00  0.00    -0.047 A 
ATOM      5  C3  UNL d   1      -1.119   0.428   2.464  0.00  0.00    -0.047 A 
ATOM      6  C4  UNL d   1      -0.148  -0.210   1.722  0.00  0.00    -0.004 A 
ENDROOT
TORSDOF 0
ENDMDL
