MODEL 1
REMARK minimizedAffinity -2.8737402
REMARK minimizedRMSD -1
REMARK  0 active torsions:
REMARK  status: ('A' for Active; 'I' for Inactive)
ROOT
ATOM      1  C   UNL d   1      -4.410   0.560   0.067  0.00  0.00     0.172 C 
ATOM      2  N   UNL d   1      -3.185  -0.069   0.499  0.00  0.00    -0.070 N 
ATOM      3  C1  UNL d   1      -2.345  -0.808  -0.290  0.00  0.00    -0.004 A 
ATOM      4  C2  UNL d   1      -1.292  -1.231   0.493  0.00  0.00    -0.047 A 
ATOM      5  C3  UNL d   1      -1.507  -0.729   1.798  0.00  0.00    -0.047 A 
ATOM      6  C4  UNL d   1      -2.686  -0.014   1.774  0.00  0.00    -0.004 A 
ENDROOT
TORSDOF 0
ENDMDL
