MODEL 1
REMARK minimizedAffinity -3.48604345
REMARK minimizedRMSD -1
REMARK  0 active torsions:
REMARK  status: ('A' for Active; 'I' for Inactive)
ROOT
ATOM      1  C   UNL d   1      -1.158  -2.459  -0.509  0.00  0.00     0.172 C 
ATOM      2  N   UNL d   1      -1.788  -1.400   0.244  0.00  0.00    -0.070 N 
ATOM      3  C1  UNL d   1      -1.173  -0.609   1.177  0.00  0.00    -0.004 A 
ATOM      4  C2  UNL d   1      -2.110   0.276   1.664  0.00  0.00    -0.047 A 
ATOM      5  C3  UNL d   1      -3.331   0.006   1.001  0.00  0.00    -0.047 A 
ATOM      6  C4  UNL d   1      -3.103  -1.036   0.128  0.00  0.00    -0.004 A 
ENDROOT
TORSDOF 0
ENDMDL
