MODEL 1
REMARK minimizedAffinity -2.47174978
REMARK minimizedRMSD -1
REMARK  0 active torsions:
REMARK  status: ('A' for Active; 'I' for Inactive)
ROOT
ATOM      1  C   UNL d   1      -0.609  -1.472  -1.067  0.00  0.00     0.172 C 
ATOM      2  N   UNL d   1      -1.290  -1.000   0.115  0.00  0.00    -0.070 N 
ATOM      3  C1  UNL d   1      -2.599  -0.604   0.178  0.00  0.00    -0.004 A 
ATOM      4  C2  UNL d   1      -2.864  -0.227   1.477  0.00  0.00    -0.047 A 
ATOM      5  C3  UNL d   1      -1.672  -0.402   2.220  0.00  0.00    -0.047 A 
ATOM      6  C4  UNL d   1      -0.714  -0.881   1.353  0.00  0.00    -0.004 A 
ENDROOT
TORSDOF 0
ENDMDL
