MODEL 1
REMARK minimizedAffinity -3.28232646
REMARK minimizedRMSD -1
REMARK  0 active torsions:
REMARK  status: ('A' for Active; 'I' for Inactive)
ROOT
ATOM      1  C   UNL d   1       0.857  -1.063   3.484  0.00  0.00     0.172 C 
ATOM      2  N   UNL d   1       0.117  -0.971   2.247  0.00  0.00    -0.070 N 
ATOM      3  C1  UNL d   1       0.635  -1.149   0.992  0.00  0.00    -0.004 A 
ATOM      4  C2  UNL d   1      -0.388  -0.979   0.085  0.00  0.00    -0.047 A 
ATOM      5  C3  UNL d   1      -1.561  -0.686   0.820  0.00  0.00    -0.047 A 
ATOM      6  C4  UNL d   1      -1.220  -0.687   2.156  0.00  0.00    -0.004 A 
ENDROOT
TORSDOF 0
ENDMDL
