MODEL 1
REMARK minimizedAffinity -3.67124772
REMARK minimizedRMSD -1
REMARK  0 active torsions:
REMARK  status: ('A' for Active; 'I' for Inactive)
ROOT
ATOM      1  N1  IND d   1       1.637   0.213  -0.238  0.00  0.00    -0.196 N 
ATOM      2  C2  IND d   1       0.574   0.206  -1.098  0.00  0.00     0.054 A 
ATOM      3  C3  IND d   1      -0.559  -0.130  -0.441  0.00  0.00    -0.031 A 
ATOM      4  C4  IND d   1      -0.918  -0.609   2.063  0.00  0.00     0.051 A 
ATOM      5  C5  IND d   1      -0.239  -0.758   3.239  0.00  0.00    -0.031 A 
ATOM      6  C6  IND d   1       1.128  -0.585   3.319  0.00  0.00     0.015 A 
ATOM      7  C7  IND d   1       1.868  -0.243   2.222  0.00  0.00    -0.016 A 
ATOM      8  C8  IND d   1       1.182  -0.098   1.024  0.00  0.00    -0.047 A 
ATOM      9  C9  IND d   1      -0.198  -0.314   0.929  0.00  0.00    -0.096 A 
ATOM     10  HN1 IND d   1       2.453   0.384  -0.450  0.00  0.00     0.298 HD
ENDROOT
TORSDOF 0
ENDMDL
