MODEL 1
REMARK minimizedAffinity -4.48496389
REMARK minimizedRMSD -1
REMARK  0 active torsions:
REMARK  status: ('A' for Active; 'I' for Inactive)
ROOT
ATOM      1  N1  IND d   1       0.824  -0.843   2.036  0.00  0.00    -0.196 N 
ATOM      2  C2  IND d   1      -0.194  -0.219   2.702  0.00  0.00     0.054 A 
ATOM      3  C3  IND d   1      -1.041   0.365   1.824  0.00  0.00    -0.031 A 
ATOM      4  C4  IND d   1      -1.006   0.335  -0.750  0.00  0.00     0.051 A 
ATOM      5  C5  IND d   1      -0.251  -0.076  -1.812  0.00  0.00    -0.031 A 
ATOM      6  C6  IND d   1       0.923  -0.781  -1.642  0.00  0.00     0.015 A 
ATOM      7  C7  IND d   1       1.382  -1.112  -0.399  0.00  0.00    -0.016 A 
ATOM      8  C8  IND d   1       0.622  -0.689   0.682  0.00  0.00    -0.047 A 
ATOM      9  C9  IND d   1      -0.548   0.063   0.518  0.00  0.00    -0.096 A 
ATOM     10  HN1 IND d   1       1.480  -1.261   2.402  0.00  0.00     0.298 HD
ENDROOT
TORSDOF 0
ENDMDL
