MODEL 1
REMARK minimizedAffinity -3.13912535
REMARK minimizedRMSD -1
REMARK  0 active torsions:
REMARK  status: ('A' for Active; 'I' for Inactive)
ROOT
ATOM      1  N1  IND d   1      -0.074  -0.923   2.386  0.00  0.00    -0.196 N 
ATOM      2  C2  IND d   1       1.114  -0.449   2.868  0.00  0.00     0.054 A 
ATOM      3  C3  IND d   1       1.726   0.317   1.937  0.00  0.00    -0.031 A 
ATOM      4  C4  IND d   1       0.912   1.010  -0.405  0.00  0.00     0.051 A 
ATOM      5  C5  IND d   1      -0.097   0.796  -1.301  0.00  0.00    -0.031 A 
ATOM      6  C6  IND d   1      -1.173  -0.017  -1.007  0.00  0.00     0.015 A 
ATOM      7  C7  IND d   1      -1.286  -0.639   0.204  0.00  0.00    -0.016 A 
ATOM      8  C8  IND d   1      -0.260  -0.429   1.114  0.00  0.00    -0.047 A 
ATOM      9  C9  IND d   1       0.855   0.360   0.806  0.00  0.00    -0.096 A 
ATOM     10  HN1 IND d   1      -0.615  -1.443   2.807  0.00  0.00     0.298 HD
ENDROOT
TORSDOF 0
ENDMDL
