MODEL 1
REMARK minimizedAffinity -3.00614429
REMARK minimizedRMSD -1
REMARK  0 active torsions:
REMARK  status: ('A' for Active; 'I' for Inactive)
ROOT
ATOM      1  N1  IND d   1       1.152   0.495  -0.740  0.00  0.00    -0.196 N 
ATOM      2  C2  IND d   1      -0.044   0.638  -1.387  0.00  0.00     0.054 A 
ATOM      3  C3  IND d   1      -1.065   0.307  -0.565  0.00  0.00    -0.031 A 
ATOM      4  C4  IND d   1      -1.010  -0.400   1.910  0.00  0.00     0.051 A 
ATOM      5  C5  IND d   1      -0.146  -0.707   2.923  0.00  0.00    -0.031 A 
ATOM      6  C6  IND d   1       1.222  -0.625   2.765  0.00  0.00     0.015 A 
ATOM      7  C7  IND d   1       1.780  -0.220   1.586  0.00  0.00    -0.016 A 
ATOM      8  C8  IND d   1       0.906   0.086   0.552  0.00  0.00    -0.047 A 
ATOM      9  C9  IND d   1      -0.483  -0.036   0.693  0.00  0.00    -0.096 A 
ATOM     10  HN1 IND d   1       1.928   0.637  -1.083  0.00  0.00     0.298 HD
ENDROOT
TORSDOF 0
ENDMDL
