MODEL 1
REMARK minimizedAffinity -3.02395248
REMARK minimizedRMSD -1
REMARK  0 active torsions:
REMARK  status: ('A' for Active; 'I' for Inactive)
ROOT
ATOM      1  N1  IND d   1      -1.401  -0.677   0.161  0.00  0.00    -0.196 N 
ATOM      2  C2  IND d   1      -1.157   0.199  -0.860  0.00  0.00     0.054 A 
ATOM      3  C3  IND d   1       0.013   0.845  -0.656  0.00  0.00    -0.031 A 
ATOM      4  C4  IND d   1       1.738   0.547   1.232  0.00  0.00     0.051 A 
ATOM      5  C5  IND d   1       1.939  -0.110   2.413  0.00  0.00    -0.031 A 
ATOM      6  C6  IND d   1       1.020  -1.010   2.913  0.00  0.00     0.015 A 
ATOM      7  C7  IND d   1      -0.135  -1.296   2.241  0.00  0.00    -0.016 A 
ATOM      8  C8  IND d   1      -0.346  -0.625   1.045  0.00  0.00    -0.047 A 
ATOM      9  C9  IND d   1       0.564   0.321   0.554  0.00  0.00    -0.096 A 
ATOM     10  HN1 IND d   1      -2.097  -1.176   0.238  0.00  0.00     0.298 HD
ENDROOT
TORSDOF 0
ENDMDL
