MODEL 1
REMARK minimizedAffinity -4.5791707
REMARK minimizedRMSD -1
REMARK  0 active torsions:
REMARK  status: ('A' for Active; 'I' for Inactive)
ROOT
ATOM      1  N1  IND d   1       0.887  -1.464  -1.386  0.00  0.00    -0.196 N 
ATOM      2  C2  IND d   1      -0.016  -0.445  -1.506  0.00  0.00     0.054 A 
ATOM      3  C3  IND d   1      -0.105   0.243  -0.346  0.00  0.00    -0.031 A 
ATOM      4  C4  IND d   1       1.213  -0.065   1.844  0.00  0.00     0.051 A 
ATOM      5  C5  IND d   1       2.124  -0.887   2.447  0.00  0.00    -0.031 A 
ATOM      6  C6  IND d   1       2.682  -1.963   1.788  0.00  0.00     0.015 A 
ATOM      7  C7  IND d   1       2.358  -2.252   0.493  0.00  0.00    -0.016 A 
ATOM      8  C8  IND d   1       1.428  -1.424  -0.120  0.00  0.00    -0.047 A 
ATOM      9  C9  IND d   1       0.826  -0.356   0.557  0.00  0.00    -0.096 A 
ATOM     10  HN1 IND d   1       1.085  -2.034  -1.999  0.00  0.00     0.298 HD
ENDROOT
TORSDOF 0
ENDMDL
