MODEL 1
REMARK minimizedAffinity -5.58096409
REMARK minimizedRMSD -1
REMARK  0 active torsions:
REMARK  status: ('A' for Active; 'I' for Inactive)
ROOT
ATOM      1  N1  IND d   1      -0.466   0.126   1.972  0.00  0.00    -0.196 N 
ATOM      2  C2  IND d   1       0.552  -0.197   2.825  0.00  0.00     0.054 A 
ATOM      3  C3  IND d   1       1.558  -0.797   2.152  0.00  0.00    -0.031 A 
ATOM      4  C4  IND d   1       1.792  -1.260  -0.370  0.00  0.00     0.051 A 
ATOM      5  C5  IND d   1       1.104  -1.178  -1.548  0.00  0.00    -0.031 A 
ATOM      6  C6  IND d   1      -0.166  -0.644  -1.615  0.00  0.00     0.015 A 
ATOM      7  C7  IND d   1      -0.795  -0.159  -0.503  0.00  0.00    -0.016 A 
ATOM      8  C8  IND d   1      -0.103  -0.247   0.696  0.00  0.00    -0.047 A 
ATOM      9  C9  IND d   1       1.170  -0.827   0.778  0.00  0.00    -0.096 A 
ATOM     10  HN1 IND d   1      -1.208   0.499   2.194  0.00  0.00     0.298 HD
ENDROOT
TORSDOF 0
ENDMDL
