MODEL 1
REMARK minimizedAffinity -3.19240308
REMARK minimizedRMSD -1
REMARK  0 active torsions:
REMARK  status: ('A' for Active; 'I' for Inactive)
ROOT
ATOM      1  N1  IND d   1       0.192  -0.163  -0.487  0.00  0.00    -0.196 N 
ATOM      2  C2  IND d   1      -1.150  -0.346  -0.302  0.00  0.00     0.054 A 
ATOM      3  C3  IND d   1      -1.392  -0.844   0.931  0.00  0.00    -0.031 A 
ATOM      4  C4  IND d   1       0.256  -1.339   2.846  0.00  0.00     0.051 A 
ATOM      5  C5  IND d   1       1.591  -1.365   3.139  0.00  0.00    -0.031 A 
ATOM      6  C6  IND d   1       2.546  -0.982   2.221  0.00  0.00     0.015 A 
ATOM      7  C7  IND d   1       2.201  -0.545   0.973  0.00  0.00    -0.016 A 
ATOM      8  C8  IND d   1       0.847  -0.524   0.670  0.00  0.00    -0.047 A 
ATOM      9  C9  IND d   1      -0.125  -0.952   1.583  0.00  0.00    -0.096 A 
ATOM     10  HN1 IND d   1       0.564   0.128  -1.205  0.00  0.00     0.298 HD
ENDROOT
TORSDOF 0
ENDMDL
