MODEL 1
REMARK minimizedAffinity -4.93968678
REMARK minimizedRMSD -1
REMARK  0 active torsions:
REMARK  status: ('A' for Active; 'I' for Inactive)
ROOT
ATOM      1  N1  IND d   1       1.274  -1.359  -1.416  0.00  0.00    -0.196 N 
ATOM      2  C2  IND d   1       0.389  -0.591  -2.120  0.00  0.00     0.054 A 
ATOM      3  C3  IND d   1      -0.511  -0.025  -1.285  0.00  0.00    -0.031 A 
ATOM      4  C4  IND d   1      -0.658  -0.141   1.282  0.00  0.00     0.051 A 
ATOM      5  C5  IND d   1      -0.092  -0.749   2.367  0.00  0.00    -0.031 A 
ATOM      6  C6  IND d   1       0.982  -1.607   2.245  0.00  0.00     0.015 A 
ATOM      7  C7  IND d   1       1.539  -1.881   1.028  0.00  0.00    -0.016 A 
ATOM      8  C8  IND d   1       0.962  -1.271  -0.077  0.00  0.00    -0.047 A 
ATOM      9  C9  IND d   1      -0.154  -0.433   0.037  0.00  0.00    -0.096 A 
ATOM     10  HN1 IND d   1       1.917  -1.820  -1.753  0.00  0.00     0.298 HD
ENDROOT
TORSDOF 0
ENDMDL
