MODEL 1
REMARK minimizedAffinity 7.98356056
REMARK minimizedRMSD -1
REMARK  1 active torsions:
REMARK  status: ('A' for Active; 'I' for Inactive)
REMARK    1  A    between atoms: N_2  and  C1_3 
ROOT
ATOM      1  C1  UNL d   1      -0.636   1.220  -2.495  0.00  0.00     0.143 A 
ATOM      2  C2  UNL d   1       0.356   0.287  -2.175  0.00  0.00    -0.057 A 
ATOM      3  C3  UNL d   1       0.028  -1.009  -1.759  0.00  0.00     0.033 A 
ATOM      4  C4  UNL d   1      -1.304  -1.387  -1.626  0.00  0.00    -0.042 A 
ATOM      5  C5  UNL d   1      -2.307  -0.468  -1.914  0.00  0.00     0.033 A 
ATOM      6  C6  UNL d   1      -1.973   0.822  -2.336  0.00  0.00    -0.057 A 
ENDROOT
BRANCH   1   7
ATOM      7  N   UNL d   1      -0.375   2.553  -2.820  0.00  0.00    -0.732 N 
ATOM      8  C   UNL d   1      -1.460   3.480  -3.060  0.00  0.00     0.284 C 
ATOM      9  H3  UNL d   1       0.392   2.942  -2.276  0.00  0.00     0.395 HD
ENDBRANCH   1   7
TORSDOF 1
ENDMDL
