MODEL 1
REMARK minimizedAffinity -0.484679133
REMARK minimizedRMSD -1
REMARK  1 active torsions:
REMARK  status: ('A' for Active; 'I' for Inactive)
REMARK    1  A    between atoms: N_2  and  C1_3 
ROOT
ATOM      1  C1  UNL d   1       0.059  -1.188   2.948  0.00  0.00     0.143 A 
ATOM      2  C2  UNL d   1      -0.341  -1.921   1.825  0.00  0.00    -0.057 A 
ATOM      3  C3  UNL d   1       0.545  -2.783   1.167  0.00  0.00     0.033 A 
ATOM      4  C4  UNL d   1       1.860  -2.905   1.605  0.00  0.00    -0.042 A 
ATOM      5  C5  UNL d   1       2.287  -2.167   2.703  0.00  0.00     0.033 A 
ATOM      6  C6  UNL d   1       1.395  -1.313   3.360  0.00  0.00    -0.057 A 
ENDROOT
BRANCH   1   7
ATOM      7  N   UNL d   1      -0.746  -0.241   3.585  0.00  0.00    -0.732 N 
ATOM      8  C   UNL d   1      -2.038   0.114   3.041  0.00  0.00     0.284 C 
ATOM      9  H3  UNL d   1      -0.735  -0.340   4.598  0.00  0.00     0.395 HD
ENDBRANCH   1   7
TORSDOF 1
ENDMDL
