MODEL 1
REMARK minimizedAffinity 3.69395614
REMARK minimizedRMSD -1
REMARK  1 active torsions:
REMARK  status: ('A' for Active; 'I' for Inactive)
REMARK    1  A    between atoms: N_2  and  C1_3 
ROOT
ATOM      1  C1  UNL d   1       0.275  -3.053   2.542  0.00  0.00     0.143 A 
ATOM      2  C2  UNL d   1       0.683  -4.319   2.106  0.00  0.00    -0.057 A 
ATOM      3  C3  UNL d   1       1.809  -4.477   1.290  0.00  0.00     0.033 A 
ATOM      4  C4  UNL d   1       2.533  -3.367   0.869  0.00  0.00    -0.042 A 
ATOM      5  C5  UNL d   1       2.131  -2.097   1.269  0.00  0.00     0.033 A 
ATOM      6  C6  UNL d   1       1.009  -1.946   2.090  0.00  0.00    -0.057 A 
ENDROOT
BRANCH   1   7
ATOM      7  N   UNL d   1      -0.892  -2.821   3.273  0.00  0.00    -0.732 N 
ATOM      8  C   UNL d   1      -1.785  -3.912   3.602  0.00  0.00     0.284 C 
ATOM      9  H3  UNL d   1      -0.751  -2.157   4.031  0.00  0.00     0.395 HD
ENDBRANCH   1   7
TORSDOF 1
ENDMDL
