MODEL 1
REMARK minimizedAffinity 4.10559511
REMARK minimizedRMSD -1
REMARK  1 active torsions:
REMARK  status: ('A' for Active; 'I' for Inactive)
REMARK    1  A    between atoms: N_2  and  C1_3 
ROOT
ATOM      1  C1  UNL d   1       0.662   0.022   3.920  0.00  0.00     0.143 A 
ATOM      2  C2  UNL d   1       1.541  -0.724   3.126  0.00  0.00    -0.057 A 
ATOM      3  C3  UNL d   1       1.136  -1.920   2.523  0.00  0.00     0.033 A 
ATOM      4  C4  UNL d   1      -0.151  -2.409   2.727  0.00  0.00    -0.042 A 
ATOM      5  C5  UNL d   1      -1.032  -1.697   3.533  0.00  0.00     0.033 A 
ATOM      6  C6  UNL d   1      -0.624  -0.500   4.127  0.00  0.00    -0.057 A 
ENDROOT
BRANCH   1   7
ATOM      7  N   UNL d   1       1.035   1.168   4.627  0.00  0.00    -0.732 N 
ATOM      8  C   UNL d   1       1.212   2.431   3.944  0.00  0.00     0.284 C 
ATOM      9  H3  UNL d   1       0.559   1.243   5.524  0.00  0.00     0.395 HD
ENDBRANCH   1   7
TORSDOF 1
ENDMDL
