MODEL 1
REMARK minimizedAffinity 6.57049084
REMARK minimizedRMSD -1
REMARK  1 active torsions:
REMARK  status: ('A' for Active; 'I' for Inactive)
REMARK    1  A    between atoms: N_2  and  C1_3 
ROOT
ATOM      1  C1  UNL d   1       1.195  -1.752   0.041  0.00  0.00     0.143 A 
ATOM      2  C2  UNL d   1       0.395  -1.975   1.167  0.00  0.00    -0.057 A 
ATOM      3  C3  UNL d   1       0.957  -2.340   2.396  0.00  0.00     0.033 A 
ATOM      4  C4  UNL d   1       2.332  -2.517   2.514  0.00  0.00    -0.042 A 
ATOM      5  C5  UNL d   1       3.144  -2.326   1.402  0.00  0.00     0.033 A 
ATOM      6  C6  UNL d   1       2.578  -1.955   0.179  0.00  0.00    -0.057 A 
ENDROOT
BRANCH   1   7
ATOM      7  N   UNL d   1       0.688  -1.484  -1.233  0.00  0.00    -0.732 N 
ATOM      8  C   UNL d   1      -0.287  -0.433  -1.432  0.00  0.00     0.284 C 
ATOM      9  H3  UNL d   1       1.405  -1.527  -1.954  0.00  0.00     0.395 HD
ENDBRANCH   1   7
TORSDOF 1
ENDMDL
