MODEL 1
REMARK minimizedAffinity 8.32367611
REMARK minimizedRMSD -1
REMARK  1 active torsions:
REMARK  status: ('A' for Active; 'I' for Inactive)
REMARK    1  A    between atoms: N_2  and  C1_3 
ROOT
ATOM      1  C1  UNL d   1       0.037  -1.527   3.004  0.00  0.00     0.143 A 
ATOM      2  C2  UNL d   1      -0.156  -1.501   1.619  0.00  0.00    -0.057 A 
ATOM      3  C3  UNL d   1       0.769  -2.085   0.745  0.00  0.00     0.033 A 
ATOM      4  C4  UNL d   1       1.922  -2.683   1.242  0.00  0.00    -0.042 A 
ATOM      5  C5  UNL d   1       2.148  -2.698   2.614  0.00  0.00     0.033 A 
ATOM      6  C6  UNL d   1       1.217  -2.119   3.482  0.00  0.00    -0.057 A 
ENDROOT
BRANCH   1   7
ATOM      7  N   UNL d   1      -0.796  -0.877   3.918  0.00  0.00    -0.732 N 
ATOM      8  C   UNL d   1      -1.905  -0.069   3.459  0.00  0.00     0.284 C 
ATOM      9  H3  UNL d   1      -1.010  -1.455   4.728  0.00  0.00     0.395 HD
ENDBRANCH   1   7
TORSDOF 1
ENDMDL
