MODEL 1
REMARK minimizedAffinity -0.36223641
REMARK minimizedRMSD -1
REMARK  1 active torsions:
REMARK  status: ('A' for Active; 'I' for Inactive)
REMARK    1  A    between atoms: N_2  and  C1_3 
ROOT
ATOM      1  C1  UNL d   1      -0.818  -1.042   2.625  0.00  0.00     0.143 A 
ATOM      2  C2  UNL d   1      -1.488  -0.260   3.572  0.00  0.00    -0.057 A 
ATOM      3  C3  UNL d   1      -2.763   0.257   3.316  0.00  0.00     0.033 A 
ATOM      4  C4  UNL d   1      -3.382   0.024   2.092  0.00  0.00    -0.042 A 
ATOM      5  C5  UNL d   1      -2.724  -0.729   1.126  0.00  0.00     0.033 A 
ATOM      6  C6  UNL d   1      -1.453  -1.249   1.390  0.00  0.00    -0.057 A 
ENDROOT
BRANCH   1   7
ATOM      7  N   UNL d   1       0.492  -1.502   2.782  0.00  0.00    -0.732 N 
ATOM      8  C   UNL d   1       1.151  -2.228   1.718  0.00  0.00     0.284 C 
ATOM      9  H3  UNL d   1       1.087  -0.825   3.254  0.00  0.00     0.395 HD
ENDBRANCH   1   7
TORSDOF 1
ENDMDL
