MODEL 1
REMARK minimizedAffinity 2.22492552
REMARK minimizedRMSD -1
REMARK  0 active torsions:
REMARK  status: ('A' for Active; 'I' for Inactive)
ROOT
ATOM      1  C   UNL d   1       2.570  -1.005  -0.706  0.00  0.00     0.023 A 
ATOM      2  C1  UNL d   1       1.431  -0.385  -1.219  0.00  0.00     0.003 A 
ATOM      3  C2  UNL d   1       0.163  -0.803  -0.809  0.00  0.00     0.048 A 
ATOM      4  C3  UNL d   1       0.042  -1.841   0.114  0.00  0.00     0.023 A 
ATOM      5  C4  UNL d   1       1.179  -2.464   0.631  0.00  0.00     0.048 A 
ATOM      6  C5  UNL d   1       2.445  -2.043   0.218  0.00  0.00     0.003 A 
ATOM      7  I   UNL d   1      -1.845  -2.464   0.725  0.00  0.00    -0.146 I 
ENDROOT
TORSDOF 0
ENDMDL
