MODEL 1
REMARK minimizedAffinity -1.16081691
REMARK minimizedRMSD -1
REMARK  0 active torsions:
REMARK  status: ('A' for Active; 'I' for Inactive)
ROOT
ATOM      1  C   UNL d   1      -1.871   0.143   4.642  0.00  0.00     0.023 A 
ATOM      2  C1  UNL d   1      -2.103  -1.114   4.083  0.00  0.00     0.003 A 
ATOM      3  C2  UNL d   1      -3.287  -1.361   3.385  0.00  0.00     0.048 A 
ATOM      4  C3  UNL d   1      -4.234  -0.346   3.249  0.00  0.00     0.023 A 
ATOM      5  C4  UNL d   1      -4.005   0.913   3.806  0.00  0.00     0.048 A 
ATOM      6  C5  UNL d   1      -2.821   1.155   4.504  0.00  0.00     0.003 A 
ATOM      7  I   UNL d   1      -5.996  -0.711   2.210  0.00  0.00    -0.146 I 
ENDROOT
TORSDOF 0
ENDMDL
