MODEL 1
REMARK minimizedAffinity 2.71940327
REMARK minimizedRMSD -1
REMARK  0 active torsions:
REMARK  status: ('A' for Active; 'I' for Inactive)
ROOT
ATOM      1  C   UNL d   1       1.627  -1.436  -4.677  0.00  0.00     0.023 A 
ATOM      2  C1  UNL d   1       1.362  -0.121  -4.295  0.00  0.00     0.003 A 
ATOM      3  C2  UNL d   1       1.039   0.170  -2.968  0.00  0.00     0.048 A 
ATOM      4  C3  UNL d   1       0.984  -0.859  -2.028  0.00  0.00     0.023 A 
ATOM      5  C4  UNL d   1       1.250  -2.176  -2.406  0.00  0.00     0.048 A 
ATOM      6  C5  UNL d   1       1.571  -2.462  -3.734  0.00  0.00     0.003 A 
ATOM      7  I   UNL d   1       0.504  -0.428  -0.052  0.00  0.00    -0.146 I 
ENDROOT
TORSDOF 0
ENDMDL
