MODEL 1
REMARK minimizedAffinity 10.6825428
REMARK minimizedRMSD -1
REMARK  0 active torsions:
REMARK  status: ('A' for Active; 'I' for Inactive)
ROOT
ATOM      1  C   UNL d   1      -3.439   4.966   1.608  0.00  0.00     0.023 A 
ATOM      2  C1  UNL d   1      -2.844   4.489   2.776  0.00  0.00     0.003 A 
ATOM      3  C2  UNL d   1      -3.421   4.765   4.017  0.00  0.00     0.048 A 
ATOM      4  C3  UNL d   1      -4.593   5.518   4.083  0.00  0.00     0.023 A 
ATOM      5  C4  UNL d   1      -5.192   5.997   2.917  0.00  0.00     0.048 A 
ATOM      6  C5  UNL d   1      -4.611   5.719   1.678  0.00  0.00     0.003 A 
ATOM      7  I   UNL d   1      -5.453   5.931   5.930  0.00  0.00    -0.146 I 
ENDROOT
TORSDOF 0
ENDMDL
