MODEL 1
REMARK minimizedAffinity 12.0107155
REMARK minimizedRMSD -1
REMARK  0 active torsions:
REMARK  status: ('A' for Active; 'I' for Inactive)
ROOT
ATOM      1  C   UNL d   1       1.136   2.154  -2.263  0.00  0.00     0.023 A 
ATOM      2  C1  UNL d   1       1.396   1.436  -3.431  0.00  0.00     0.003 A 
ATOM      3  C2  UNL d   1       1.243   0.048  -3.448  0.00  0.00     0.048 A 
ATOM      4  C3  UNL d   1       0.828  -0.616  -2.294  0.00  0.00     0.023 A 
ATOM      5  C4  UNL d   1       0.566   0.098  -1.123  0.00  0.00     0.048 A 
ATOM      6  C5  UNL d   1       0.721   1.486  -1.111  0.00  0.00     0.003 A 
ATOM      7  I   UNL d   1       0.599  -2.681  -2.316  0.00  0.00    -0.146 I 
ENDROOT
TORSDOF 0
ENDMDL
