MODEL 1
REMARK minimizedAffinity 4.04761171
REMARK minimizedRMSD -1
REMARK  0 active torsions:
REMARK  status: ('A' for Active; 'I' for Inactive)
ROOT
ATOM      1  C   UNL d   1       0.553  -2.254  -0.583  0.00  0.00     0.023 A 
ATOM      2  C1  UNL d   1       0.342  -2.354  -1.958  0.00  0.00     0.003 A 
ATOM      3  C2  UNL d   1       0.456  -1.221  -2.767  0.00  0.00     0.048 A 
ATOM      4  C3  UNL d   1       0.782   0.008  -2.194  0.00  0.00     0.023 A 
ATOM      5  C4  UNL d   1       0.995   0.112  -0.818  0.00  0.00     0.048 A 
ATOM      6  C5  UNL d   1       0.879  -1.023  -0.013  0.00  0.00     0.003 A 
ATOM      7  I   UNL d   1       0.953   1.695  -3.395  0.00  0.00    -0.146 I 
ENDROOT
TORSDOF 0
ENDMDL
