MODEL 1
REMARK minimizedAffinity 6.05170202
REMARK minimizedRMSD -1
REMARK  0 active torsions:
REMARK  status: ('A' for Active; 'I' for Inactive)
ROOT
ATOM      1  C   UNL d   1       1.051   1.457  -3.829  0.00  0.00     0.023 A 
ATOM      2  C1  UNL d   1       0.655   2.019  -2.615  0.00  0.00     0.003 A 
ATOM      3  C2  UNL d   1       0.598   1.231  -1.464  0.00  0.00     0.048 A 
ATOM      4  C3  UNL d   1       0.940  -0.120  -1.534  0.00  0.00     0.023 A 
ATOM      5  C4  UNL d   1       1.337  -0.687  -2.745  0.00  0.00     0.048 A 
ATOM      6  C5  UNL d   1       1.392   0.105  -3.894  0.00  0.00     0.003 A 
ATOM      7  I   UNL d   1       0.856  -1.295   0.178  0.00  0.00    -0.146 I 
ENDROOT
TORSDOF 0
ENDMDL
