MODEL 1
REMARK minimizedAffinity 8.24152851
REMARK minimizedRMSD -1
REMARK  0 active torsions:
REMARK  status: ('A' for Active; 'I' for Inactive)
ROOT
ATOM      1  C   UNL d   1       1.167   2.031  -4.508  0.00  0.00     0.023 A 
ATOM      2  C1  UNL d   1       1.908   2.396  -5.632  0.00  0.00     0.003 A 
ATOM      3  C2  UNL d   1       3.295   2.230  -5.640  0.00  0.00     0.048 A 
ATOM      4  C3  UNL d   1       3.934   1.697  -4.521  0.00  0.00     0.023 A 
ATOM      5  C4  UNL d   1       3.196   1.330  -3.394  0.00  0.00     0.048 A 
ATOM      6  C5  UNL d   1       1.810   1.499  -3.390  0.00  0.00     0.003 A 
ATOM      7  I   UNL d   1       5.997   1.449  -4.530  0.00  0.00    -0.146 I 
ENDROOT
TORSDOF 0
ENDMDL
