MODEL 1
REMARK minimizedAffinity 4.57562304
REMARK minimizedRMSD -1
REMARK  0 active torsions:
REMARK  status: ('A' for Active; 'I' for Inactive)
ROOT
ATOM      1  C   UNL d   1       1.373  -2.709  -2.895  0.00  0.00     0.023 A 
ATOM      2  C1  UNL d   1       1.514  -1.711  -3.860  0.00  0.00     0.003 A 
ATOM      3  C2  UNL d   1       1.382  -0.368  -3.502  0.00  0.00     0.048 A 
ATOM      4  C3  UNL d   1       1.109  -0.029  -2.177  0.00  0.00     0.023 A 
ATOM      5  C4  UNL d   1       0.967  -1.024  -1.208  0.00  0.00     0.048 A 
ATOM      6  C5  UNL d   1       1.099  -2.365  -1.571  0.00  0.00     0.003 A 
ATOM      7  I   UNL d   1       0.911   1.969  -1.642  0.00  0.00    -0.146 I 
ENDROOT
TORSDOF 0
ENDMDL
