MODEL 1
REMARK minimizedAffinity 1.92954564
REMARK minimizedRMSD -1
REMARK  0 active torsions:
REMARK  status: ('A' for Active; 'I' for Inactive)
ROOT
ATOM      1  C   UNL d   1       1.217   0.759  -3.224  0.00  0.00     0.023 A 
ATOM      2  C1  UNL d   1       1.553  -0.581  -3.032  0.00  0.00     0.003 A 
ATOM      3  C2  UNL d   1       1.233  -1.217  -1.830  0.00  0.00     0.048 A 
ATOM      4  C3  UNL d   1       0.576  -0.507  -0.826  0.00  0.00     0.023 A 
ATOM      5  C4  UNL d   1       0.237   0.834  -1.014  0.00  0.00     0.048 A 
ATOM      6  C5  UNL d   1       0.560   1.466  -2.216  0.00  0.00     0.003 A 
ATOM      7  I   UNL d   1       0.099  -1.452   0.963  0.00  0.00    -0.146 I 
ENDROOT
TORSDOF 0
ENDMDL
