MODEL 1
REMARK minimizedAffinity 2.97600222
REMARK minimizedRMSD -1
REMARK  0 active torsions:
REMARK  status: ('A' for Active; 'I' for Inactive)
ROOT
ATOM      1  C   UNL d   1       0.749   1.876  -2.150  0.00  0.00     0.023 A 
ATOM      2  C1  UNL d   1       0.413   0.925  -1.186  0.00  0.00     0.003 A 
ATOM      3  C2  UNL d   1       0.598  -0.433  -1.450  0.00  0.00     0.048 A 
ATOM      4  C3  UNL d   1       1.121  -0.834  -2.679  0.00  0.00     0.023 A 
ATOM      5  C4  UNL d   1       1.459   0.114  -3.646  0.00  0.00     0.048 A 
ATOM      6  C5  UNL d   1       1.271   1.471  -3.378  0.00  0.00     0.003 A 
ATOM      7  I   UNL d   1       1.398  -2.856  -3.074  0.00  0.00    -0.146 I 
ENDROOT
TORSDOF 0
ENDMDL
