MODEL 1
REMARK minimizedAffinity -1.72535634
REMARK minimizedRMSD -1
REMARK  0 active torsions:
REMARK  status: ('A' for Active; 'I' for Inactive)
ROOT
ATOM      1  C   UNL d   1      -3.745   5.999   4.568  0.00  0.00     0.023 A 
ATOM      2  C1  UNL d   1      -3.724   5.175   3.443  0.00  0.00     0.003 A 
ATOM      3  C2  UNL d   1      -3.745   3.787   3.592  0.00  0.00     0.048 A 
ATOM      4  C3  UNL d   1      -3.787   3.230   4.870  0.00  0.00     0.023 A 
ATOM      5  C4  UNL d   1      -3.810   4.051   5.999  0.00  0.00     0.048 A 
ATOM      6  C5  UNL d   1      -3.788   5.438   5.844  0.00  0.00     0.003 A 
ATOM      7  I   UNL d   1      -3.818   1.164   5.095  0.00  0.00    -0.146 I 
ENDROOT
TORSDOF 0
ENDMDL
