MODEL 1
REMARK minimizedAffinity 9.47888947
REMARK minimizedRMSD -1
REMARK  0 active torsions:
REMARK  status: ('A' for Active; 'I' for Inactive)
ROOT
ATOM      1  C   UNL d   1       1.272  -5.986   2.797  0.00  0.00     0.023 A 
ATOM      2  C1  UNL d   1       1.491  -5.963   4.175  0.00  0.00     0.003 A 
ATOM      3  C2  UNL d   1       2.795  -5.953   4.676  0.00  0.00     0.048 A 
ATOM      4  C3  UNL d   1       3.875  -5.964   3.793  0.00  0.00     0.023 A 
ATOM      5  C4  UNL d   1       3.660  -5.986   2.414  0.00  0.00     0.048 A 
ATOM      6  C5  UNL d   1       2.355  -5.997   1.918  0.00  0.00     0.003 A 
ATOM      7  I   UNL d   1       5.815  -5.949   4.536  0.00  0.00    -0.146 I 
ENDROOT
TORSDOF 0
ENDMDL
