MODEL 1
REMARK minimizedAffinity 4.85814714
REMARK minimizedRMSD -1
REMARK  0 active torsions:
REMARK  status: ('A' for Active; 'I' for Inactive)
ROOT
ATOM      1  C   UNL d   1       1.507  -2.641  -4.278  0.00  0.00     0.023 A 
ATOM      2  C1  UNL d   1       1.088  -2.902  -2.973  0.00  0.00     0.003 A 
ATOM      3  C2  UNL d   1       0.870  -1.847  -2.084  0.00  0.00     0.048 A 
ATOM      4  C3  UNL d   1       1.072  -0.534  -2.507  0.00  0.00     0.023 A 
ATOM      5  C4  UNL d   1       1.490  -0.268  -3.812  0.00  0.00     0.048 A 
ATOM      6  C5  UNL d   1       1.708  -1.326  -4.697  0.00  0.00     0.003 A 
ATOM      7  I   UNL d   1       0.748   1.038  -1.187  0.00  0.00    -0.146 I 
ENDROOT
TORSDOF 0
ENDMDL
