MODEL 1
REMARK minimizedAffinity -2.02405715
REMARK minimizedRMSD -1
REMARK  1 active torsions:
REMARK  status: ('A' for Active; 'I' for Inactive)
REMARK    1  A    between atoms: C3_4  and  O_7 
ROOT
ATOM      1  C   UNL d   1      -2.194   5.772   5.754  0.00  0.00    -0.033 A 
ATOM      2  C1  UNL d   1      -1.712   4.474   5.932  0.00  0.00     0.039 A 
ATOM      3  C2  UNL d   1      -2.601   3.400   5.998  0.00  0.00    -0.080 A 
ATOM      4  C3  UNL d   1      -3.968   3.636   5.884  0.00  0.00     0.150 A 
ATOM      5  C4  UNL d   1      -4.455   4.926   5.703  0.00  0.00    -0.007 A 
ATOM      6  C5  UNL d   1      -3.566   5.998   5.638  0.00  0.00     0.039 A 
ENDROOT
BRANCH   4   7
ATOM      7  O   UNL d   1      -4.875   2.620   5.948  0.00  0.00    -0.526 OA
ATOM      8  H5  UNL d   1      -4.396   1.790   6.104  0.00  0.00     0.418 HD
ENDBRANCH   4   7
TORSDOF 1
ENDMDL
