MODEL 1
REMARK minimizedAffinity 1.96054733
REMARK minimizedRMSD -1
REMARK  1 active torsions:
REMARK  status: ('A' for Active; 'I' for Inactive)
REMARK    1  A    between atoms: C3_4  and  O_7 
ROOT
ATOM      1  C   UNL d   1       2.644  -1.874   1.227  0.00  0.00    -0.033 A 
ATOM      2  C1  UNL d   1       1.275  -1.644   1.380  0.00  0.00     0.039 A 
ATOM      3  C2  UNL d   1       0.366  -2.689   1.203  0.00  0.00    -0.080 A 
ATOM      4  C3  UNL d   1       0.837  -3.957   0.874  0.00  0.00     0.150 A 
ATOM      5  C4  UNL d   1       2.199  -4.194   0.723  0.00  0.00    -0.007 A 
ATOM      6  C5  UNL d   1       3.106  -3.149   0.899  0.00  0.00     0.039 A 
ENDROOT
BRANCH   4   7
ATOM      7  O   UNL d   1      -0.013  -5.006   0.686  0.00  0.00    -0.526 OA
ATOM      8  H5  UNL d   1      -0.924  -4.687   0.794  0.00  0.00     0.418 HD
ENDBRANCH   4   7
TORSDOF 1
ENDMDL
