MODEL 1
REMARK minimizedAffinity 8.06335831
REMARK minimizedRMSD -1
REMARK  1 active torsions:
REMARK  status: ('A' for Active; 'I' for Inactive)
REMARK    1  A    between atoms: C3_4  and  O_7 
ROOT
ATOM      1  C   UNL d   1      -4.047  -1.603  -1.943  0.00  0.00    -0.033 A 
ATOM      2  C1  UNL d   1      -2.993  -1.073  -1.196  0.00  0.00     0.039 A 
ATOM      3  C2  UNL d   1      -2.698   0.289  -1.269  0.00  0.00    -0.080 A 
ATOM      4  C3  UNL d   1      -3.465   1.111  -2.091  0.00  0.00     0.150 A 
ATOM      5  C4  UNL d   1      -4.519   0.591  -2.835  0.00  0.00    -0.007 A 
ATOM      6  C5  UNL d   1      -4.811  -0.770  -2.761  0.00  0.00     0.039 A 
ENDROOT
BRANCH   4   7
ATOM      7  O   UNL d   1      -3.212   2.446  -2.199  0.00  0.00    -0.526 OA
ATOM      8  H5  UNL d   1      -2.438   2.658  -1.651  0.00  0.00     0.418 HD
ENDBRANCH   4   7
TORSDOF 1
ENDMDL
