MODEL 1
REMARK minimizedAffinity 9.34812069
REMARK minimizedRMSD -1
REMARK  1 active torsions:
REMARK  status: ('A' for Active; 'I' for Inactive)
REMARK    1  A    between atoms: C3_4  and  O_7 
ROOT
ATOM      1  C   UNL d   1      -5.439  -0.987  -5.990  0.00  0.00    -0.033 A 
ATOM      2  C1  UNL d   1      -4.808  -2.217  -5.791  0.00  0.00     0.039 A 
ATOM      3  C2  UNL d   1      -4.733  -2.765  -4.509  0.00  0.00    -0.080 A 
ATOM      4  C3  UNL d   1      -5.293  -2.076  -3.437  0.00  0.00     0.150 A 
ATOM      5  C4  UNL d   1      -5.926  -0.852  -3.629  0.00  0.00    -0.007 A 
ATOM      6  C5  UNL d   1      -5.999  -0.306  -4.909  0.00  0.00     0.039 A 
ENDROOT
BRANCH   4   7
ATOM      7  O   UNL d   1      -5.240  -2.569  -2.167  0.00  0.00    -0.526 OA
ATOM      8  H5  UNL d   1      -4.747  -3.406  -2.183  0.00  0.00     0.418 HD
ENDBRANCH   4   7
TORSDOF 1
ENDMDL
