MODEL 1
REMARK minimizedAffinity 1.57159984
REMARK minimizedRMSD -1
REMARK  1 active torsions:
REMARK  status: ('A' for Active; 'I' for Inactive)
REMARK    1  A    between atoms: C3_4  and  O_7 
ROOT
ATOM      1  C   UNL d   1       2.438  -1.937   1.100  0.00  0.00    -0.033 A 
ATOM      2  C1  UNL d   1       3.508  -2.801   1.343  0.00  0.00     0.039 A 
ATOM      3  C2  UNL d   1       3.444  -4.130   0.921  0.00  0.00    -0.080 A 
ATOM      4  C3  UNL d   1       2.308  -4.582   0.256  0.00  0.00     0.150 A 
ATOM      5  C4  UNL d   1       1.240  -3.726   0.006  0.00  0.00    -0.007 A 
ATOM      6  C5  UNL d   1       1.305  -2.399   0.430  0.00  0.00     0.039 A 
ENDROOT
BRANCH   4   7
ATOM      7  O   UNL d   1       2.198  -5.872  -0.171  0.00  0.00    -0.526 OA
ATOM      8  H5  UNL d   1       2.998  -6.354   0.096  0.00  0.00     0.418 HD
ENDBRANCH   4   7
TORSDOF 1
ENDMDL
