MODEL 1
REMARK minimizedAffinity 2.00791907
REMARK minimizedRMSD -1
REMARK  1 active torsions:
REMARK  status: ('A' for Active; 'I' for Inactive)
REMARK    1  A    between atoms: C3_4  and  O_7 
ROOT
ATOM      1  C   UNL d   1       1.748  -1.801   1.473  0.00  0.00    -0.033 A 
ATOM      2  C1  UNL d   1       2.986  -1.926   2.106  0.00  0.00     0.039 A 
ATOM      3  C2  UNL d   1       3.795  -3.034   1.847  0.00  0.00    -0.080 A 
ATOM      4  C3  UNL d   1       3.356  -4.007   0.954  0.00  0.00     0.150 A 
ATOM      5  C4  UNL d   1       2.126  -3.887   0.316  0.00  0.00    -0.007 A 
ATOM      6  C5  UNL d   1       1.318  -2.780   0.577  0.00  0.00     0.039 A 
ENDROOT
BRANCH   4   7
ATOM      7  O   UNL d   1       4.109  -5.108   0.673  0.00  0.00    -0.526 OA
ATOM      8  H5  UNL d   1       4.920  -5.071   1.208  0.00  0.00     0.418 HD
ENDBRANCH   4   7
TORSDOF 1
ENDMDL
