MODEL 1
REMARK minimizedAffinity 2.17900467
REMARK minimizedRMSD -1
REMARK  1 active torsions:
REMARK  status: ('A' for Active; 'I' for Inactive)
REMARK    1  A    between atoms: C3_4  and  O_7 
ROOT
ATOM      1  C   UNL d   1       2.371  -1.465   2.233  0.00  0.00    -0.033 A 
ATOM      2  C1  UNL d   1       3.469  -2.256   1.889  0.00  0.00     0.039 A 
ATOM      3  C2  UNL d   1       4.479  -2.496   2.824  0.00  0.00    -0.080 A 
ATOM      4  C3  UNL d   1       4.378  -1.941   4.097  0.00  0.00     0.150 A 
ATOM      5  C4  UNL d   1       3.284  -1.155   4.447  0.00  0.00    -0.007 A 
ATOM      6  C5  UNL d   1       2.278  -0.916   3.512  0.00  0.00     0.039 A 
ENDROOT
BRANCH   4   7
ATOM      7  O   UNL d   1       5.340  -2.143   5.041  0.00  0.00    -0.526 OA
ATOM      8  H5  UNL d   1       6.048  -2.681   4.648  0.00  0.00     0.418 HD
ENDBRANCH   4   7
TORSDOF 1
ENDMDL
