MODEL 1
REMARK minimizedAffinity 9.14639568
REMARK minimizedRMSD -1
REMARK  1 active torsions:
REMARK  status: ('A' for Active; 'I' for Inactive)
REMARK    1  A    between atoms: C3_4  and  O_7 
ROOT
ATOM      1  C   UNL d   1       1.714  -0.503   0.526  0.00  0.00    -0.033 A 
ATOM      2  C1  UNL d   1       0.778  -1.418   1.012  0.00  0.00     0.039 A 
ATOM      3  C2  UNL d   1       1.071  -2.784   1.016  0.00  0.00    -0.080 A 
ATOM      4  C3  UNL d   1       2.302  -3.220   0.534  0.00  0.00     0.150 A 
ATOM      5  C4  UNL d   1       3.241  -2.314   0.052  0.00  0.00    -0.007 A 
ATOM      6  C5  UNL d   1       2.946  -0.951   0.048  0.00  0.00     0.039 A 
ENDROOT
BRANCH   4   7
ATOM      7  O   UNL d   1       2.631  -4.543   0.513  0.00  0.00    -0.526 OA
ATOM      8  H5  UNL d   1       1.875  -5.053   0.849  0.00  0.00     0.418 HD
ENDBRANCH   4   7
TORSDOF 1
ENDMDL
