MODEL 1
REMARK minimizedAffinity 3.7636373
REMARK minimizedRMSD -1
REMARK  1 active torsions:
REMARK  status: ('A' for Active; 'I' for Inactive)
REMARK    1  A    between atoms: C3_4  and  O_7 
ROOT
ATOM      1  C   UNL d   1      -3.389  -0.353  -1.437  0.00  0.00    -0.033 A 
ATOM      2  C1  UNL d   1      -2.246  -0.471  -2.230  0.00  0.00     0.039 A 
ATOM      3  C2  UNL d   1      -1.765   0.636  -2.934  0.00  0.00    -0.080 A 
ATOM      4  C3  UNL d   1      -2.435   1.852  -2.835  0.00  0.00     0.150 A 
ATOM      5  C4  UNL d   1      -3.572   1.977  -2.043  0.00  0.00    -0.007 A 
ATOM      6  C5  UNL d   1      -4.051   0.871  -1.342  0.00  0.00     0.039 A 
ENDROOT
BRANCH   4   7
ATOM      7  O   UNL d   1      -2.007   2.958  -3.506  0.00  0.00    -0.526 OA
ATOM      8  H5  UNL d   1      -1.228   2.715  -4.035  0.00  0.00     0.418 HD
ENDBRANCH   4   7
TORSDOF 1
ENDMDL
