MODEL 1
REMARK minimizedAffinity 4.29373217
REMARK minimizedRMSD -1
REMARK  1 active torsions:
REMARK  status: ('A' for Active; 'I' for Inactive)
REMARK    1  A    between atoms: C3_4  and  O_7 
ROOT
ATOM      1  C   UNL d   1       1.623  -1.766   1.138  0.00  0.00    -0.033 A 
ATOM      2  C1  UNL d   1       0.383  -2.222   1.588  0.00  0.00     0.039 A 
ATOM      3  C2  UNL d   1      -0.003  -3.543   1.357  0.00  0.00    -0.080 A 
ATOM      4  C3  UNL d   1       0.860  -4.398   0.677  0.00  0.00     0.150 A 
ATOM      5  C4  UNL d   1       2.099  -3.952   0.230  0.00  0.00    -0.007 A 
ATOM      6  C5  UNL d   1       2.482  -2.632   0.460  0.00  0.00     0.039 A 
ENDROOT
BRANCH   4   7
ATOM      7  O   UNL d   1       0.525  -5.695   0.424  0.00  0.00    -0.526 OA
ATOM      8  H5  UNL d   1      -0.370  -5.854   0.766  0.00  0.00     0.418 HD
ENDBRANCH   4   7
TORSDOF 1
ENDMDL
