MODEL 1
REMARK minimizedAffinity 6.53912973
REMARK minimizedRMSD -1
REMARK  1 active torsions:
REMARK  status: ('A' for Active; 'I' for Inactive)
REMARK    1  A    between atoms: C3_4  and  O_7 
ROOT
ATOM      1  C   UNL d   1      -4.226   5.936   5.997  0.00  0.00    -0.033 A 
ATOM      2  C1  UNL d   1      -3.004   5.260   5.989  0.00  0.00     0.039 A 
ATOM      3  C2  UNL d   1      -2.977   3.864   5.989  0.00  0.00    -0.080 A 
ATOM      4  C3  UNL d   1      -4.177   3.157   5.995  0.00  0.00     0.150 A 
ATOM      5  C4  UNL d   1      -5.397   3.825   5.999  0.00  0.00    -0.007 A 
ATOM      6  C5  UNL d   1      -5.422   5.219   6.000  0.00  0.00     0.039 A 
ENDROOT
BRANCH   4   7
ATOM      7  O   UNL d   1      -4.201   1.794   6.000  0.00  0.00    -0.526 OA
ATOM      8  H5  UNL d   1      -3.285   1.470   6.026  0.00  0.00     0.418 HD
ENDBRANCH   4   7
TORSDOF 1
ENDMDL
