MODEL 1
REMARK minimizedAffinity -3.04085565
REMARK minimizedRMSD -1
REMARK  0 active torsions:
REMARK  status: ('A' for Active; 'I' for Inactive)
ROOT
ATOM      1  C1  BNZ d   1       1.174  -0.538  -0.246  0.00  0.00     0.000 A 
ATOM      2  C2  BNZ d   1       2.154  -0.983  -1.093  0.00  0.00     0.000 A 
ATOM      3  C3  BNZ d   1       2.611  -0.193  -2.111  0.00  0.00     0.000 A 
ATOM      4  C4  BNZ d   1       2.060   1.023  -2.305  0.00  0.00     0.000 A 
ATOM      5  C5  BNZ d   1       1.065   1.482  -1.466  0.00  0.00     0.000 A 
ATOM      6  C6  BNZ d   1       0.634   0.700  -0.418  0.00  0.00     0.000 A 
ENDROOT
TORSDOF 0
ENDMDL
