MODEL 1
REMARK minimizedAffinity -0.744622588
REMARK minimizedRMSD -1
REMARK  0 active torsions:
REMARK  status: ('A' for Active; 'I' for Inactive)
ROOT
ATOM      1  C1  BNZ d   1      -1.494   0.612   0.587  0.00  0.00     0.000 A 
ATOM      2  C2  BNZ d   1      -0.699  -0.451   0.925  0.00  0.00     0.000 A 
ATOM      3  C3  BNZ d   1       0.527  -0.619   0.345  0.00  0.00     0.000 A 
ATOM      4  C4  BNZ d   1       0.939   0.251  -0.599  0.00  0.00     0.000 A 
ATOM      5  C5  BNZ d   1       0.145   1.322  -0.957  0.00  0.00     0.000 A 
ATOM      6  C6  BNZ d   1      -1.072   1.510  -0.343  0.00  0.00     0.000 A 
ENDROOT
TORSDOF 0
ENDMDL
