MODEL 1
REMARK minimizedAffinity -4.47583246
REMARK minimizedRMSD -1
REMARK  0 active torsions:
REMARK  status: ('A' for Active; 'I' for Inactive)
ROOT
ATOM      1  C1  BNZ d   1       0.743  -1.232  -0.147  0.00  0.00     0.000 A 
ATOM      2  C2  BNZ d   1       1.743  -1.724  -0.943  0.00  0.00     0.000 A 
ATOM      3  C3  BNZ d   1       2.522  -0.884  -1.688  0.00  0.00     0.000 A 
ATOM      4  C4  BNZ d   1       2.274   0.442  -1.668  0.00  0.00     0.000 A 
ATOM      5  C5  BNZ d   1       1.263   0.952  -0.878  0.00  0.00     0.000 A 
ATOM      6  C6  BNZ d   1       0.507   0.107  -0.099  0.00  0.00     0.000 A 
ENDROOT
TORSDOF 0
ENDMDL
