MODEL 1
REMARK minimizedAffinity -4.46757317
REMARK minimizedRMSD -1
REMARK  0 active torsions:
REMARK  status: ('A' for Active; 'I' for Inactive)
ROOT
ATOM      1  C1  BNZ d   1       1.194   0.967  -0.836  0.00  0.00     0.000 A 
ATOM      2  C2  BNZ d   1       0.237   0.275  -0.143  0.00  0.00     0.000 A 
ATOM      3  C3  BNZ d   1       0.189  -1.090  -0.190  0.00  0.00     0.000 A 
ATOM      4  C4  BNZ d   1       1.070  -1.759  -0.961  0.00  0.00     0.000 A 
ATOM      5  C5  BNZ d   1       2.035  -1.075  -1.673  0.00  0.00     0.000 A 
ATOM      6  C6  BNZ d   1       2.106   0.297  -1.592  0.00  0.00     0.000 A 
ENDROOT
TORSDOF 0
ENDMDL
