MODEL 1
REMARK minimizedAffinity -3.88089919
REMARK minimizedRMSD -1
REMARK  0 active torsions:
REMARK  status: ('A' for Active; 'I' for Inactive)
ROOT
ATOM      1  C1  BNZ d   1       1.974  -0.417  -1.787  0.00  0.00     0.000 A 
ATOM      2  C2  BNZ d   1       1.715   0.679  -1.009  0.00  0.00     0.000 A 
ATOM      3  C3  BNZ d   1       0.864   0.596   0.057  0.00  0.00     0.000 A 
ATOM      4  C4  BNZ d   1       0.242  -0.572   0.319  0.00  0.00     0.000 A 
ATOM      5  C5  BNZ d   1       0.485  -1.684  -0.462  0.00  0.00     0.000 A 
ATOM      6  C6  BNZ d   1       1.373  -1.607  -1.511  0.00  0.00     0.000 A 
ENDROOT
TORSDOF 0
ENDMDL
