MODEL 1
REMARK minimizedAffinity -2.38974047
REMARK minimizedRMSD -1
REMARK  0 active torsions:
REMARK  status: ('A' for Active; 'I' for Inactive)
ROOT
ATOM      1  C1  BNZ d   1       0.033   0.076   0.732  0.00  0.00     0.000 A 
ATOM      2  C2  BNZ d   1      -0.602   0.020   1.944  0.00  0.00     0.000 A 
ATOM      3  C3  BNZ d   1      -1.899   0.430   2.075  0.00  0.00     0.000 A 
ATOM      4  C4  BNZ d   1      -2.547   0.933   1.004  0.00  0.00     0.000 A 
ATOM      5  C5  BNZ d   1      -1.917   1.005  -0.223  0.00  0.00     0.000 A 
ATOM      6  C6  BNZ d   1      -0.624   0.555  -0.359  0.00  0.00     0.000 A 
ENDROOT
TORSDOF 0
ENDMDL
