MODEL 1
REMARK minimizedAffinity -3.51182818
REMARK minimizedRMSD -1
REMARK  0 active torsions:
REMARK  status: ('A' for Active; 'I' for Inactive)
ROOT
ATOM      1  C1  BNZ d   1       1.529  -1.337  -1.245  0.00  0.00     0.000 A 
ATOM      2  C2  BNZ d   1       0.272  -0.800  -1.162  0.00  0.00     0.000 A 
ATOM      3  C3  BNZ d   1      -0.156  -0.195  -0.013  0.00  0.00     0.000 A 
ATOM      4  C4  BNZ d   1       0.657  -0.164   1.062  0.00  0.00     0.000 A 
ATOM      5  C5  BNZ d   1       1.924  -0.709   0.997  0.00  0.00     0.000 A 
ATOM      6  C6  BNZ d   1       2.365  -1.282  -0.173  0.00  0.00     0.000 A 
ENDROOT
TORSDOF 0
ENDMDL
