MODEL 1
REMARK minimizedAffinity -4.1006217
REMARK minimizedRMSD -1
REMARK  0 active torsions:
REMARK  status: ('A' for Active; 'I' for Inactive)
ROOT
ATOM      1  C1  BNZ d   1       1.442  -0.602  -1.404  0.00  0.00     0.000 A 
ATOM      2  C2  BNZ d   1       2.713  -0.590  -1.914  0.00  0.00     0.000 A 
ATOM      3  C3  BNZ d   1       3.207   0.523  -2.535  0.00  0.00     0.000 A 
ATOM      4  C4  BNZ d   1       2.418   1.606  -2.682  0.00  0.00     0.000 A 
ATOM      5  C5  BNZ d   1       1.131   1.607  -2.182  0.00  0.00     0.000 A 
ATOM      6  C6  BNZ d   1       0.650   0.499  -1.522  0.00  0.00     0.000 A 
ENDROOT
TORSDOF 0
ENDMDL
