MODEL 1
REMARK minimizedAffinity -4.92183828
REMARK minimizedRMSD -1
REMARK  0 active torsions:
REMARK  status: ('A' for Active; 'I' for Inactive)
ROOT
ATOM      1  C1  BNZ d   1       2.672  -1.141  -0.260  0.00  0.00     0.000 A 
ATOM      2  C2  BNZ d   1       2.408  -0.844   1.051  0.00  0.00     0.000 A 
ATOM      3  C3  BNZ d   1       1.170  -0.409   1.435  0.00  0.00     0.000 A 
ATOM      4  C4  BNZ d   1       0.211  -0.233   0.503  0.00  0.00     0.000 A 
ATOM      5  C5  BNZ d   1       0.464  -0.519  -0.824  0.00  0.00     0.000 A 
ATOM      6  C6  BNZ d   1       1.699  -0.994  -1.200  0.00  0.00     0.000 A 
ENDROOT
TORSDOF 0
ENDMDL
