MODEL 1
REMARK minimizedAffinity -1.76195717
REMARK minimizedRMSD -1
REMARK  0 active torsions:
REMARK  status: ('A' for Active; 'I' for Inactive)
ROOT
ATOM      1  C1  BNZ d   1      -1.121   0.723   0.698  0.00  0.00     0.000 A 
ATOM      2  C2  BNZ d   1      -0.889   0.175  -0.535  0.00  0.00     0.000 A 
ATOM      3  C3  BNZ d   1       0.103  -0.748  -0.716  0.00  0.00     0.000 A 
ATOM      4  C4  BNZ d   1       0.888  -1.090   0.326  0.00  0.00     0.000 A 
ATOM      5  C5  BNZ d   1       0.673  -0.539   1.574  0.00  0.00     0.000 A 
ATOM      6  C6  BNZ d   1      -0.352   0.360   1.760  0.00  0.00     0.000 A 
ENDROOT
TORSDOF 0
ENDMDL
