MODEL 1
REMARK minimizedAffinity -4.72371626
REMARK minimizedRMSD -1
REMARK  0 active torsions:
REMARK  status: ('A' for Active; 'I' for Inactive)
ROOT
ATOM      1  C1  BNZ d   1       1.698   0.453   0.644  0.00  0.00     0.000 A 
ATOM      2  C2  BNZ d   1       2.867   0.131   0.008  0.00  0.00     0.000 A 
ATOM      3  C3  BNZ d   1       2.933  -0.945  -0.831  0.00  0.00     0.000 A 
ATOM      4  C4  BNZ d   1       1.844  -1.722  -1.002  0.00  0.00     0.000 A 
ATOM      5  C5  BNZ d   1       0.660  -1.416  -0.359  0.00  0.00     0.000 A 
ATOM      6  C6  BNZ d   1       0.586  -0.308   0.454  0.00  0.00     0.000 A 
ENDROOT
TORSDOF 0
ENDMDL
