MODEL 1
REMARK minimizedAffinity -4.24565268
REMARK minimizedRMSD -1
REMARK  0 active torsions:
REMARK  status: ('A' for Active; 'I' for Inactive)
ROOT
ATOM      1  C1  BNZ d   1       2.855  -0.812  -1.133  0.00  0.00     0.000 A 
ATOM      2  C2  BNZ d   1       2.253  -1.941  -0.645  0.00  0.00     0.000 A 
ATOM      3  C3  BNZ d   1       0.952  -1.916  -0.226  0.00  0.00     0.000 A 
ATOM      4  C4  BNZ d   1       0.268  -0.754  -0.257  0.00  0.00     0.000 A 
ATOM      5  C5  BNZ d   1       0.864   0.396  -0.737  0.00  0.00     0.000 A 
ATOM      6  C6  BNZ d   1       2.161   0.358  -1.194  0.00  0.00     0.000 A 
ENDROOT
TORSDOF 0
ENDMDL
