MODEL 1
REMARK minimizedAffinity -3.87024188
REMARK minimizedRMSD -1
REMARK  0 active torsions:
REMARK  status: ('A' for Active; 'I' for Inactive)
ROOT
ATOM      1  C1  BNZ d   1       1.272   0.409  -0.875  0.00  0.00     0.000 A 
ATOM      2  C2  BNZ d   1       0.140   0.300  -0.112  0.00  0.00     0.000 A 
ATOM      3  C3  BNZ d   1      -0.317  -0.924   0.291  0.00  0.00     0.000 A 
ATOM      4  C4  BNZ d   1       0.334  -2.037  -0.102  0.00  0.00     0.000 A 
ATOM      5  C5  BNZ d   1       1.472  -1.945  -0.878  0.00  0.00     0.000 A 
ATOM      6  C6  BNZ d   1       1.951  -0.710  -1.250  0.00  0.00     0.000 A 
ENDROOT
TORSDOF 0
ENDMDL
