MODEL 1
REMARK minimizedAffinity 0.910705984
REMARK minimizedRMSD -1
REMARK  0 active torsions:
REMARK  status: ('A' for Active; 'I' for Inactive)
ROOT
ATOM      1  C1  BNZ d   1       0.198   0.403  -0.778  0.00  0.00     0.000 A 
ATOM      2  C2  BNZ d   1      -0.525  -0.562  -0.130  0.00  0.00     0.000 A 
ATOM      3  C3  BNZ d   1      -0.803  -0.451   1.204  0.00  0.00     0.000 A 
ATOM      4  C4  BNZ d   1      -0.325   0.603   1.895  0.00  0.00     0.000 A 
ATOM      5  C5  BNZ d   1       0.414   1.580   1.258  0.00  0.00     0.000 A 
ATOM      6  C6  BNZ d   1       0.659   1.485  -0.093  0.00  0.00     0.000 A 
ENDROOT
TORSDOF 0
ENDMDL
