MODEL 1
REMARK minimizedAffinity 16.398922
REMARK minimizedRMSD -1
REMARK  0 active torsions:
REMARK  status: ('A' for Active; 'I' for Inactive)
ROOT
ATOM      1  N1  IND d   1      -5.542   3.888   5.532  0.00  0.00    -0.196 N 
ATOM      2  C2  IND d   1      -5.817   5.143   5.999  0.00  0.00     0.054 A 
ATOM      3  C3  IND d   1      -6.000   5.999   4.969  0.00  0.00    -0.031 A 
ATOM      4  C4  IND d   1      -5.996   5.535   2.437  0.00  0.00     0.051 A 
ATOM      5  C5  IND d   1      -5.755   4.548   1.523  0.00  0.00    -0.031 A 
ATOM      6  C6  IND d   1      -5.428   3.264   1.906  0.00  0.00     0.015 A 
ATOM      7  C7  IND d   1      -5.339   2.914   3.224  0.00  0.00    -0.016 A 
ATOM      8  C8  IND d   1      -5.576   3.916   4.155  0.00  0.00    -0.047 A 
ATOM      9  C9  IND d   1      -5.867   5.232   3.771  0.00  0.00    -0.096 A 
ATOM     10  HN1 IND d   1      -5.377   3.197   6.016  0.00  0.00     0.298 HD
ENDROOT
TORSDOF 0
ENDMDL
