MODEL 1
REMARK minimizedAffinity 10.0808954
REMARK minimizedRMSD -1
REMARK  0 active torsions:
REMARK  status: ('A' for Active; 'I' for Inactive)
ROOT
ATOM      1  N1  IND d   1       1.978   1.366  -0.210  0.00  0.00    -0.196 N 
ATOM      2  C2  IND d   1       1.543   0.071  -0.154  0.00  0.00     0.054 A 
ATOM      3  C3  IND d   1       2.594  -0.776  -0.084  0.00  0.00    -0.031 A 
ATOM      4  C4  IND d   1       5.110  -0.251   0.055  0.00  0.00     0.051 A 
ATOM      5  C5  IND d   1       5.999   0.785   0.002  0.00  0.00    -0.031 A 
ATOM      6  C6  IND d   1       5.584   2.096  -0.124  0.00  0.00     0.015 A 
ATOM      7  C7  IND d   1       4.259   2.420  -0.191  0.00  0.00    -0.016 A 
ATOM      8  C8  IND d   1       3.354   1.369  -0.144  0.00  0.00    -0.047 A 
ATOM      9  C9  IND d   1       3.770   0.034  -0.059  0.00  0.00    -0.096 A 
ATOM     10  HN1 IND d   1       1.476   2.061  -0.275  0.00  0.00     0.298 HD
ENDROOT
TORSDOF 0
ENDMDL
