MODEL 1
REMARK minimizedAffinity 6.10946608
REMARK minimizedRMSD -1
REMARK  0 active torsions:
REMARK  status: ('A' for Active; 'I' for Inactive)
ROOT
ATOM      1  N1  IND d   1      -3.369   5.960   0.980  0.00  0.00    -0.196 N 
ATOM      2  C2  IND d   1      -4.429   5.909   0.117  0.00  0.00     0.054 A 
ATOM      3  C3  IND d   1      -5.592   5.864   0.804  0.00  0.00    -0.031 A 
ATOM      4  C4  IND d   1      -5.997   5.965   3.344  0.00  0.00     0.051 A 
ATOM      5  C5  IND d   1      -5.337   5.979   4.541  0.00  0.00    -0.031 A 
ATOM      6  C6  IND d   1      -3.959   5.991   4.613  0.00  0.00     0.015 A 
ATOM      7  C7  IND d   1      -3.187   6.000   3.486  0.00  0.00    -0.016 A 
ATOM      8  C8  IND d   1      -3.854   5.979   2.269  0.00  0.00    -0.047 A 
ATOM      9  C9  IND d   1      -5.252   5.924   2.190  0.00  0.00    -0.096 A 
ATOM     10  HN1 IND d   1      -2.540   5.978   0.755  0.00  0.00     0.298 HD
ENDROOT
TORSDOF 0
ENDMDL
