MODEL 1
REMARK minimizedAffinity 2.08899689
REMARK minimizedRMSD -1
REMARK  0 active torsions:
REMARK  status: ('A' for Active; 'I' for Inactive)
ROOT
ATOM      1  N1  IND d   1       1.307  -1.253   4.807  0.00  0.00    -0.196 N 
ATOM      2  C2  IND d   1       0.350  -0.325   5.111  0.00  0.00     0.054 A 
ATOM      3  C3  IND d   1      -0.771  -0.934   5.556  0.00  0.00    -0.031 A 
ATOM      4  C4  IND d   1      -1.222  -3.436   5.964  0.00  0.00     0.051 A 
ATOM      5  C5  IND d   1      -0.663  -4.672   5.800  0.00  0.00    -0.031 A 
ATOM      6  C6  IND d   1       0.608  -4.835   5.288  0.00  0.00     0.015 A 
ATOM      7  C7  IND d   1       1.375  -3.762   4.931  0.00  0.00    -0.016 A 
ATOM      8  C8  IND d   1       0.808  -2.506   5.090  0.00  0.00    -0.047 A 
ATOM      9  C9  IND d   1      -0.498  -2.336   5.569  0.00  0.00    -0.096 A 
ATOM     10  HN1 IND d   1       2.089  -1.083   4.493  0.00  0.00     0.298 HD
ENDROOT
TORSDOF 0
ENDMDL
