MODEL 1
REMARK minimizedAffinity 0.905922174
REMARK minimizedRMSD -1
REMARK  0 active torsions:
REMARK  status: ('A' for Active; 'I' for Inactive)
ROOT
ATOM      1  N1  IND d   1      -2.533   5.909   2.623  0.00  0.00    -0.196 N 
ATOM      2  C2  IND d   1      -3.030   5.825   1.353  0.00  0.00     0.054 A 
ATOM      3  C3  IND d   1      -4.381   5.774   1.379  0.00  0.00    -0.031 A 
ATOM      4  C4  IND d   1      -5.984   5.918   3.389  0.00  0.00     0.051 A 
ATOM      5  C5  IND d   1      -5.998   5.965   4.754  0.00  0.00    -0.031 A 
ATOM      6  C6  IND d   1      -4.834   6.000   5.495  0.00  0.00     0.015 A 
ATOM      7  C7  IND d   1      -3.607   6.000   4.893  0.00  0.00    -0.016 A 
ATOM      8  C8  IND d   1      -3.589   5.945   3.507  0.00  0.00    -0.047 A 
ATOM      9  C9  IND d   1      -4.767   5.866   2.752  0.00  0.00    -0.096 A 
ATOM     10  HN1 IND d   1      -1.700   5.936   2.835  0.00  0.00     0.298 HD
ENDROOT
TORSDOF 0
ENDMDL
