MODEL 1
REMARK minimizedAffinity 3.6558342
REMARK minimizedRMSD -1
REMARK  0 active torsions:
REMARK  status: ('A' for Active; 'I' for Inactive)
ROOT
ATOM      1  N1  IND d   1      -4.626   2.294  -4.164  0.00  0.00    -0.196 N 
ATOM      2  C2  IND d   1      -3.665   1.623  -4.869  0.00  0.00     0.054 A 
ATOM      3  C3  IND d   1      -3.264   0.525  -4.190  0.00  0.00    -0.031 A 
ATOM      4  C4  IND d   1      -4.121  -0.418  -1.953  0.00  0.00     0.051 A 
ATOM      5  C5  IND d   1      -4.967  -0.134  -0.918  0.00  0.00    -0.031 A 
ATOM      6  C6  IND d   1      -5.761   0.995  -0.913  0.00  0.00     0.015 A 
ATOM      7  C7  IND d   1      -5.746   1.880  -1.953  0.00  0.00    -0.016 A 
ATOM      8  C8  IND d   1      -4.883   1.599  -3.003  0.00  0.00    -0.047 A 
ATOM      9  C9  IND d   1      -4.044   0.477  -2.994  0.00  0.00    -0.096 A 
ATOM     10  HN1 IND d   1      -5.005   3.027  -4.406  0.00  0.00     0.298 HD
ENDROOT
TORSDOF 0
ENDMDL
