MODEL 1
REMARK minimizedAffinity -5.79380369
REMARK minimizedRMSD -1
REMARK  0 active torsions:
REMARK  status: ('A' for Active; 'I' for Inactive)
ROOT
ATOM      1  C   UNL d   1       1.739  -1.362   2.766  0.00  0.00     0.020 A 
ATOM      2  C1  UNL d   1       2.625  -1.427   1.692  0.00  0.00     0.020 A 
ATOM      3  C2  UNL d   1       2.209  -1.035   0.418  0.00  0.00     0.034 A 
ATOM      4  C3  UNL d   1       0.903  -0.575   0.214  0.00  0.00     0.017 A 
ATOM      5  C4  UNL d   1       0.014  -0.510   1.293  0.00  0.00     0.017 A 
ATOM      6  C5  UNL d   1       0.436  -0.904   2.567  0.00  0.00     0.034 A 
ATOM      7 Cl   UNL d   1      -1.614   0.047   1.120  0.00  0.00    -0.070 Cl
ATOM      8 Cl1  UNL d   1       0.456  -0.106  -1.387  0.00  0.00    -0.070 Cl
ENDROOT
TORSDOF 0
ENDMDL
