MODEL 1
REMARK minimizedAffinity -5.77835464
REMARK minimizedRMSD -1
REMARK  0 active torsions:
REMARK  status: ('A' for Active; 'I' for Inactive)
ROOT
ATOM      1  C   UNL d   1       2.010  -1.543   2.935  0.00  0.00     0.020 A 
ATOM      2  C1  UNL d   1       2.793  -1.855   1.824  0.00  0.00     0.020 A 
ATOM      3  C2  UNL d   1       2.273  -1.700   0.537  0.00  0.00     0.034 A 
ATOM      4  C3  UNL d   1       0.966  -1.232   0.358  0.00  0.00     0.017 A 
ATOM      5  C4  UNL d   1       0.181  -0.919   1.473  0.00  0.00     0.017 A 
ATOM      6  C5  UNL d   1       0.706  -1.076   2.759  0.00  0.00     0.034 A 
ATOM      7 Cl   UNL d   1      -1.441  -0.337   1.331  0.00  0.00    -0.070 Cl
ATOM      8 Cl1  UNL d   1       0.388  -1.065  -1.262  0.00  0.00    -0.070 Cl
ENDROOT
TORSDOF 0
ENDMDL
