MODEL 1
REMARK minimizedAffinity -4.14220524
REMARK minimizedRMSD -1
REMARK  0 active torsions:
REMARK  status: ('A' for Active; 'I' for Inactive)
ROOT
ATOM      1  C   UNL d   1      -0.049  -0.547   2.607  0.00  0.00     0.020 A 
ATOM      2  C1  UNL d   1       1.098  -1.288   2.889  0.00  0.00     0.020 A 
ATOM      3  C2  UNL d   1       1.961  -1.659   1.855  0.00  0.00     0.034 A 
ATOM      4  C3  UNL d   1       1.678  -1.289   0.535  0.00  0.00     0.017 A 
ATOM      5  C4  UNL d   1       0.527  -0.545   0.253  0.00  0.00     0.017 A 
ATOM      6  C5  UNL d   1      -0.334  -0.176   1.292  0.00  0.00     0.034 A 
ATOM      7 Cl   UNL d   1       0.111  -0.052  -1.350  0.00  0.00    -0.070 Cl
ATOM      8 Cl1  UNL d   1       2.789  -1.782  -0.693  0.00  0.00    -0.070 Cl
ENDROOT
TORSDOF 0
ENDMDL
