MODEL 1
REMARK minimizedAffinity -5.25504589
REMARK minimizedRMSD -1
REMARK  0 active torsions:
REMARK  status: ('A' for Active; 'I' for Inactive)
ROOT
ATOM      1  C   UNL d   1       2.041  -1.585   2.254  0.00  0.00     0.020 A 
ATOM      2  C1  UNL d   1       2.572  -1.778   0.979  0.00  0.00     0.020 A 
ATOM      3  C2  UNL d   1       1.884  -1.309  -0.142  0.00  0.00     0.034 A 
ATOM      4  C3  UNL d   1       0.661  -0.646   0.009  0.00  0.00     0.017 A 
ATOM      5  C4  UNL d   1       0.128  -0.454   1.289  0.00  0.00     0.017 A 
ATOM      6  C5  UNL d   1       0.821  -0.925   2.408  0.00  0.00     0.034 A 
ATOM      7 Cl   UNL d   1      -1.376   0.355   1.555  0.00  0.00    -0.070 Cl
ATOM      8 Cl1  UNL d   1      -0.135  -0.093  -1.421  0.00  0.00    -0.070 Cl
ENDROOT
TORSDOF 0
ENDMDL
