MODEL 1
REMARK minimizedAffinity -3.10228419
REMARK minimizedRMSD -1
REMARK  0 active torsions:
REMARK  status: ('A' for Active; 'I' for Inactive)
ROOT
ATOM      1  C   UNL d   1       1.874  -1.430   2.549  0.00  0.00     0.020 A 
ATOM      2  C1  UNL d   1       2.616  -1.449   1.368  0.00  0.00     0.020 A 
ATOM      3  C2  UNL d   1       2.071  -0.930   0.192  0.00  0.00     0.034 A 
ATOM      4  C3  UNL d   1       0.779  -0.390   0.194  0.00  0.00     0.017 A 
ATOM      5  C4  UNL d   1       0.035  -0.371   1.379  0.00  0.00     0.017 A 
ATOM      6  C5  UNL d   1       0.586  -0.892   2.554  0.00  0.00     0.034 A 
ATOM      7 Cl   UNL d   1      -1.564   0.279   1.459  0.00  0.00    -0.070 Cl
ATOM      8 Cl1  UNL d   1       0.168   0.235  -1.297  0.00  0.00    -0.070 Cl
ENDROOT
TORSDOF 0
ENDMDL
