MODEL 1
REMARK minimizedAffinity -4.51637363
REMARK minimizedRMSD -1
REMARK  0 active torsions:
REMARK  status: ('A' for Active; 'I' for Inactive)
ROOT
ATOM      1  C   UNL d   1       2.833  -2.174   1.764  0.00  0.00     0.020 A 
ATOM      2  C1  UNL d   1       3.129  -1.952   0.420  0.00  0.00     0.020 A 
ATOM      3  C2  UNL d   1       2.244  -1.224  -0.379  0.00  0.00     0.034 A 
ATOM      4  C3  UNL d   1       1.059  -0.716   0.166  0.00  0.00     0.017 A 
ATOM      5  C4  UNL d   1       0.763  -0.940   1.515  0.00  0.00     0.017 A 
ATOM      6  C5  UNL d   1       1.652  -1.669   2.311  0.00  0.00     0.034 A 
ATOM      7 Cl   UNL d   1      -0.680  -0.345   2.259  0.00  0.00    -0.070 Cl
ATOM      8 Cl1  UNL d   1       0.011   0.175  -0.880  0.00  0.00    -0.070 Cl
ENDROOT
TORSDOF 0
ENDMDL
