MODEL 1
REMARK minimizedAffinity -4.2245245
REMARK minimizedRMSD -1
REMARK  0 active torsions:
REMARK  status: ('A' for Active; 'I' for Inactive)
ROOT
ATOM      1  C   UNL d   1       1.723  -1.693   1.992  0.00  0.00     0.020 A 
ATOM      2  C1  UNL d   1       0.585  -0.972   2.351  0.00  0.00     0.020 A 
ATOM      3  C2  UNL d   1      -0.134  -0.272   1.380  0.00  0.00     0.034 A 
ATOM      4  C3  UNL d   1       0.285  -0.291   0.044  0.00  0.00     0.017 A 
ATOM      5  C4  UNL d   1       1.427  -1.015  -0.315  0.00  0.00     0.017 A 
ATOM      6  C5  UNL d   1       2.143  -1.714   0.662  0.00  0.00     0.034 A 
ATOM      7 Cl   UNL d   1       2.006  -1.086  -1.942  0.00  0.00    -0.070 Cl
ATOM      8 Cl1  UNL d   1      -0.652   0.597  -1.104  0.00  0.00    -0.070 Cl
ENDROOT
TORSDOF 0
ENDMDL
