MODEL 1
REMARK minimizedAffinity -4.38165951
REMARK minimizedRMSD -1
REMARK  0 active torsions:
REMARK  status: ('A' for Active; 'I' for Inactive)
ROOT
ATOM      1  C   UNL d   1       1.753  -0.943   2.982  0.00  0.00     0.020 A 
ATOM      2  C1  UNL d   1       2.357  -1.344   1.791  0.00  0.00     0.020 A 
ATOM      3  C2  UNL d   1       1.724  -1.102   0.571  0.00  0.00     0.034 A 
ATOM      4  C3  UNL d   1       0.482  -0.456   0.538  0.00  0.00     0.017 A 
ATOM      5  C4  UNL d   1      -0.123  -0.054   1.734  0.00  0.00     0.017 A 
ATOM      6  C5  UNL d   1       0.516  -0.299   2.953  0.00  0.00     0.034 A 
ATOM      7 Cl   UNL d   1      -1.654   0.748   1.773  0.00  0.00    -0.070 Cl
ATOM      8 Cl1  UNL d   1      -0.244  -0.189  -1.007  0.00  0.00    -0.070 Cl
ENDROOT
TORSDOF 0
ENDMDL
