MODEL 1
REMARK minimizedAffinity 13.0943289
REMARK minimizedRMSD -1
REMARK  1 active torsions:
REMARK  status: ('A' for Active; 'I' for Inactive)
REMARK    1  A    between atoms: C1_2  and  C2_3 
ROOT
ATOM      1  C2  UNL d   1       1.565   0.359   2.983  0.00  0.00    -0.081 A 
ATOM      2  C3  UNL d   1       2.107   0.740   4.216  0.00  0.00     0.006 A 
ATOM      3  C4  UNL d   1       2.371  -0.216   5.200  0.00  0.00     0.002 A 
ATOM      4  C5  UNL d   1       2.104  -1.569   4.964  0.00  0.00    -0.080 A 
ATOM      5  C6  UNL d   1       2.411  -2.609   6.000  0.00  0.00     0.076 C 
ATOM      6  C7  UNL d   1       1.547  -1.948   3.738  0.00  0.00     0.002 A 
ATOM      7  C8  UNL d   1       1.282  -0.992   2.755  0.00  0.00     0.006 A 
ENDROOT
BRANCH   1   8
ATOM      8  C1  UNL d   1       1.340   1.380   1.896  0.00  0.00     0.054 C 
ATOM      9  C   UNL d   1       2.643   2.056   1.493  0.00  0.00     0.018 C 
ENDBRANCH   1   8
TORSDOF 1
ENDMDL
