MODEL 1
REMARK minimizedAffinity 7.47015619
REMARK minimizedRMSD -1
REMARK  1 active torsions:
REMARK  status: ('A' for Active; 'I' for Inactive)
REMARK    1  A    between atoms: C1_2  and  C2_3 
ROOT
ATOM      1  C2  UNL d   1      -1.248  -3.500  -4.492  0.00  0.00    -0.081 A 
ATOM      2  C3  UNL d   1      -1.434  -4.259  -3.331  0.00  0.00     0.006 A 
ATOM      3  C4  UNL d   1      -1.215  -3.693  -2.072  0.00  0.00     0.002 A 
ATOM      4  C5  UNL d   1      -0.814  -2.358  -1.954  0.00  0.00    -0.080 A 
ATOM      5  C6  UNL d   1      -0.605  -1.730  -0.609  0.00  0.00     0.076 C 
ATOM      6  C7  UNL d   1      -0.611  -1.605  -3.116  0.00  0.00     0.002 A 
ATOM      7  C8  UNL d   1      -0.829  -2.170  -4.374  0.00  0.00     0.006 A 
ENDROOT
BRANCH   1   8
ATOM      8  C1  UNL d   1      -1.545  -4.088  -5.848  0.00  0.00     0.054 C 
ATOM      9  C   UNL d   1      -2.002  -5.535  -5.735  0.00  0.00     0.018 C 
ENDBRANCH   1   8
TORSDOF 1
ENDMDL
