MODEL 1
REMARK minimizedAffinity 7.0118227
REMARK minimizedRMSD -1
REMARK  1 active torsions:
REMARK  status: ('A' for Active; 'I' for Inactive)
REMARK    1  A    between atoms: C1_2  and  C2_3 
ROOT
ATOM      1  C2  UNL d   1       4.392  -3.333   5.340  0.00  0.00    -0.081 A 
ATOM      2  C3  UNL d   1       3.106  -3.467   4.802  0.00  0.00     0.006 A 
ATOM      3  C4  UNL d   1       2.483  -2.383   4.180  0.00  0.00     0.002 A 
ATOM      4  C5  UNL d   1       3.137  -1.150   4.079  0.00  0.00    -0.080 A 
ATOM      5  C6  UNL d   1       2.491   0.013   3.386  0.00  0.00     0.076 C 
ATOM      6  C7  UNL d   1       4.415  -1.012   4.632  0.00  0.00     0.002 A 
ATOM      7  C8  UNL d   1       5.038  -2.095   5.255  0.00  0.00     0.006 A 
ENDROOT
BRANCH   1   8
ATOM      8  C1  UNL d   1       5.093  -4.518   5.955  0.00  0.00     0.054 C 
ATOM      9  C   UNL d   1       5.999  -5.209   4.946  0.00  0.00     0.018 C 
ENDBRANCH   1   8
TORSDOF 1
ENDMDL
