MODEL 1
REMARK minimizedAffinity 12.1560698
REMARK minimizedRMSD -1
REMARK  1 active torsions:
REMARK  status: ('A' for Active; 'I' for Inactive)
REMARK    1  A    between atoms: C1_2  and  C2_3 
ROOT
ATOM      1  C2  UNL d   1      -1.497  -3.259  -4.210  0.00  0.00    -0.081 A 
ATOM      2  C3  UNL d   1      -0.724  -2.681  -5.224  0.00  0.00     0.006 A 
ATOM      3  C4  UNL d   1       0.107  -1.592  -4.947  0.00  0.00     0.002 A 
ATOM      4  C5  UNL d   1       0.184  -1.070  -3.652  0.00  0.00    -0.080 A 
ATOM      5  C6  UNL d   1       1.095   0.079  -3.334  0.00  0.00     0.076 C 
ATOM      6  C7  UNL d   1      -0.601  -1.637  -2.642  0.00  0.00     0.002 A 
ATOM      7  C8  UNL d   1      -1.432  -2.725  -2.919  0.00  0.00     0.006 A 
ENDROOT
BRANCH   1   8
ATOM      8  C1  UNL d   1      -2.344  -4.474  -4.491  0.00  0.00     0.054 C 
ATOM      9  C   UNL d   1      -1.764  -5.718  -3.833  0.00  0.00     0.018 C 
ENDBRANCH   1   8
TORSDOF 1
ENDMDL
