MODEL 1
REMARK minimizedAffinity 11.0177774
REMARK minimizedRMSD -1
REMARK  1 active torsions:
REMARK  status: ('A' for Active; 'I' for Inactive)
REMARK    1  A    between atoms: C1_2  and  C2_3 
ROOT
ATOM      1  C2  UNL d   1       1.936  -1.215  -3.231  0.00  0.00    -0.081 A 
ATOM      2  C3  UNL d   1       1.827  -1.944  -2.041  0.00  0.00     0.006 A 
ATOM      3  C4  UNL d   1       0.572  -2.268  -1.521  0.00  0.00     0.002 A 
ATOM      4  C5  UNL d   1      -0.595  -1.876  -2.186  0.00  0.00    -0.080 A 
ATOM      5  C6  UNL d   1      -1.948  -2.243  -1.655  0.00  0.00     0.076 C 
ATOM      6  C7  UNL d   1      -0.486  -1.133  -3.366  0.00  0.00     0.002 A 
ATOM      7  C8  UNL d   1       0.768  -0.808  -3.886  0.00  0.00     0.006 A 
ENDROOT
BRANCH   1   8
ATOM      8  C1  UNL d   1       3.288  -0.920  -3.829  0.00  0.00     0.054 C 
ATOM      9  C   UNL d   1       3.563   0.577  -3.863  0.00  0.00     0.018 C 
ENDBRANCH   1   8
TORSDOF 1
ENDMDL
