MODEL 1
REMARK minimizedAffinity 15.6973248
REMARK minimizedRMSD -1
REMARK  1 active torsions:
REMARK  status: ('A' for Active; 'I' for Inactive)
REMARK    1  A    between atoms: C1_2  and  C2_3 
ROOT
ATOM      1  C2  UNL d   1       1.663  -0.426  -4.025  0.00  0.00    -0.081 A 
ATOM      2  C3  UNL d   1       0.773  -0.803  -5.037  0.00  0.00     0.006 A 
ATOM      3  C4  UNL d   1      -0.486  -1.318  -4.718  0.00  0.00     0.002 A 
ATOM      4  C5  UNL d   1      -0.877  -1.459  -3.382  0.00  0.00    -0.080 A 
ATOM      5  C6  UNL d   1      -2.237  -1.982  -3.026  0.00  0.00     0.076 C 
ATOM      6  C7  UNL d   1       0.019  -1.099  -2.370  0.00  0.00     0.002 A 
ATOM      7  C8  UNL d   1       1.278  -0.584  -2.689  0.00  0.00     0.006 A 
ENDROOT
BRANCH   1   8
ATOM      8  C1  UNL d   1       2.996   0.190  -4.366  0.00  0.00     0.054 C 
ATOM      9  C   UNL d   1       4.139  -0.554  -3.692  0.00  0.00     0.018 C 
ENDBRANCH   1   8
TORSDOF 1
ENDMDL
