MODEL 1
REMARK minimizedAffinity -4.6866684
REMARK minimizedRMSD -1
REMARK  0 active torsions:
REMARK  status: ('A' for Active; 'I' for Inactive)
ROOT
ATOM      1  C   UNL d   1      -2.148   2.769   4.479  0.00  0.00     0.078 C 
ATOM      2  C1  UNL d   1      -2.613   1.809   3.425  0.00  0.00    -0.077 A 
ATOM      3  C2  UNL d   1      -1.707   1.221   2.534  0.00  0.00    -0.001 A 
ATOM      4  C3  UNL d   1      -2.155   0.337   1.552  0.00  0.00     0.003 A 
ATOM      5  C4  UNL d   1      -3.511   0.034   1.450  0.00  0.00    -0.005 A 
ATOM      6  C5  UNL d   1      -4.421   0.615   2.331  0.00  0.00     0.003 A 
ATOM      7  C6  UNL d   1      -3.974   1.500   3.314  0.00  0.00    -0.001 A 
ENDROOT
TORSDOF 0
ENDMDL
