MODEL 1
REMARK minimizedAffinity -3.00493193
REMARK minimizedRMSD -1
REMARK  0 active torsions:
REMARK  status: ('A' for Active; 'I' for Inactive)
ROOT
ATOM      1  C   UNL d   1       1.395   0.024  -2.718  0.00  0.00     0.078 C 
ATOM      2  C1  UNL d   1       0.663  -0.216  -1.431  0.00  0.00    -0.077 A 
ATOM      3  C2  UNL d   1       0.442   0.825  -0.521  0.00  0.00    -0.001 A 
ATOM      4  C3  UNL d   1      -0.232   0.584   0.677  0.00  0.00     0.003 A 
ATOM      5  C4  UNL d   1      -0.691  -0.697   0.977  0.00  0.00    -0.005 A 
ATOM      6  C5  UNL d   1      -0.474  -1.740   0.078  0.00  0.00     0.003 A 
ATOM      7  C6  UNL d   1       0.200  -1.501  -1.120  0.00  0.00    -0.001 A 
ENDROOT
TORSDOF 0
ENDMDL
