MODEL 1
REMARK minimizedAffinity -4.24168015
REMARK minimizedRMSD -1
REMARK  0 active torsions:
REMARK  status: ('A' for Active; 'I' for Inactive)
ROOT
ATOM      1  C   UNL d   1       1.454   0.023  -2.865  0.00  0.00     0.078 C 
ATOM      2  C1  UNL d   1       0.811  -0.038  -1.512  0.00  0.00    -0.077 A 
ATOM      3  C2  UNL d   1       0.752   1.093  -0.689  0.00  0.00    -0.001 A 
ATOM      4  C3  UNL d   1       0.159   1.019   0.572  0.00  0.00     0.003 A 
ATOM      5  C4  UNL d   1      -0.378  -0.184   1.023  0.00  0.00    -0.005 A 
ATOM      6  C5  UNL d   1      -0.323  -1.317   0.213  0.00  0.00     0.003 A 
ATOM      7  C6  UNL d   1       0.270  -1.244  -1.049  0.00  0.00    -0.001 A 
ENDROOT
TORSDOF 0
ENDMDL
