MODEL 1
REMARK minimizedAffinity 2.05878162
REMARK minimizedRMSD -1
REMARK  0 active torsions:
REMARK  status: ('A' for Active; 'I' for Inactive)
ROOT
ATOM      1  C   UNL d   1       0.053  -2.585   0.070  0.00  0.00     0.078 C 
ATOM      2  C1  UNL d   1       0.184  -1.092   0.119  0.00  0.00    -0.077 A 
ATOM      3  C2  UNL d   1       1.216  -0.437  -0.564  0.00  0.00    -0.001 A 
ATOM      4  C3  UNL d   1       1.332   0.953  -0.502  0.00  0.00     0.003 A 
ATOM      5  C4  UNL d   1       0.420   1.699   0.242  0.00  0.00    -0.005 A 
ATOM      6  C5  UNL d   1      -0.609   1.055   0.926  0.00  0.00     0.003 A 
ATOM      7  C6  UNL d   1      -0.726  -0.334   0.866  0.00  0.00    -0.001 A 
ENDROOT
TORSDOF 0
ENDMDL
