MODEL 1
REMARK minimizedAffinity -4.9341197
REMARK minimizedRMSD -1
REMARK  0 active torsions:
REMARK  status: ('A' for Active; 'I' for Inactive)
ROOT
ATOM      1  C   UNL d   1       1.288   0.061  -2.674  0.00  0.00     0.078 C 
ATOM      2  C1  UNL d   1       0.778  -0.323  -1.317  0.00  0.00    -0.077 A 
ATOM      3  C2  UNL d   1       0.451   0.652  -0.367  0.00  0.00    -0.001 A 
ATOM      4  C3  UNL d   1      -0.013   0.279   0.896  0.00  0.00     0.003 A 
ATOM      5  C4  UNL d   1      -0.155  -1.068   1.220  0.00  0.00    -0.005 A 
ATOM      6  C5  UNL d   1       0.170  -2.046   0.281  0.00  0.00     0.003 A 
ATOM      7  C6  UNL d   1       0.635  -1.675  -0.982  0.00  0.00    -0.001 A 
ENDROOT
TORSDOF 0
ENDMDL
