MODEL 1
REMARK minimizedAffinity -3.27633095
REMARK minimizedRMSD -1
REMARK  0 active torsions:
REMARK  status: ('A' for Active; 'I' for Inactive)
ROOT
ATOM      1  C   UNL d   1       0.560  -0.649  -2.240  0.00  0.00     0.078 C 
ATOM      2  C1  UNL d   1       0.181  -0.730  -0.791  0.00  0.00    -0.077 A 
ATOM      3  C2  UNL d   1      -0.028  -1.966  -0.168  0.00  0.00    -0.001 A 
ATOM      4  C3  UNL d   1      -0.391  -2.026   1.179  0.00  0.00     0.003 A 
ATOM      5  C4  UNL d   1      -0.547  -0.853   1.914  0.00  0.00    -0.005 A 
ATOM      6  C5  UNL d   1      -0.343   0.382   1.302  0.00  0.00     0.003 A 
ATOM      7  C6  UNL d   1       0.019   0.444  -0.045  0.00  0.00    -0.001 A 
ENDROOT
TORSDOF 0
ENDMDL
