MODEL 1
REMARK minimizedAffinity -4.16600227
REMARK minimizedRMSD -1
REMARK  0 active torsions:
REMARK  status: ('A' for Active; 'I' for Inactive)
ROOT
ATOM      1  C   UNL d   1      -5.242   0.607  -5.623  0.00  0.00     0.078 C 
ATOM      2  C1  UNL d   1      -4.892   2.064  -5.553  0.00  0.00    -0.077 A 
ATOM      3  C2  UNL d   1      -3.563   2.492  -5.656  0.00  0.00    -0.001 A 
ATOM      4  C3  UNL d   1      -3.251   3.850  -5.579  0.00  0.00     0.003 A 
ATOM      5  C4  UNL d   1      -4.262   4.791  -5.397  0.00  0.00    -0.005 A 
ATOM      6  C5  UNL d   1      -5.588   4.374  -5.290  0.00  0.00     0.003 A 
ATOM      7  C6  UNL d   1      -5.902   3.017  -5.367  0.00  0.00    -0.001 A 
ENDROOT
TORSDOF 0
ENDMDL
