MODEL 1
REMARK minimizedAffinity -3.96366119
REMARK minimizedRMSD -1
REMARK  0 active torsions:
REMARK  status: ('A' for Active; 'I' for Inactive)
ROOT
ATOM      1  C   UNL d   1       1.870  -0.682  -2.942  0.00  0.00     0.078 C 
ATOM      2  C1  UNL d   1       1.139  -0.410  -1.661  0.00  0.00    -0.077 A 
ATOM      3  C2  UNL d   1       1.134   0.869  -1.091  0.00  0.00    -0.001 A 
ATOM      4  C3  UNL d   1       0.457   1.105   0.107  0.00  0.00     0.003 A 
ATOM      5  C4  UNL d   1      -0.219   0.067   0.744  0.00  0.00    -0.005 A 
ATOM      6  C5  UNL d   1      -0.218  -1.209   0.186  0.00  0.00     0.003 A 
ATOM      7  C6  UNL d   1       0.458  -1.447  -1.012  0.00  0.00    -0.001 A 
ENDROOT
TORSDOF 0
ENDMDL
