MODEL 1
REMARK minimizedAffinity 1.36374581
REMARK minimizedRMSD -1
REMARK  0 active torsions:
REMARK  status: ('A' for Active; 'I' for Inactive)
ROOT
ATOM      1  C   UNL d   1       2.562   0.028  -2.008  0.00  0.00     0.078 C 
ATOM      2  C1  UNL d   1       1.954   0.339  -0.673  0.00  0.00    -0.077 A 
ATOM      3  C2  UNL d   1       0.770  -0.283  -0.258  0.00  0.00    -0.001 A 
ATOM      4  C3  UNL d   1       0.210   0.023   0.983  0.00  0.00     0.003 A 
ATOM      5  C4  UNL d   1       0.825   0.953   1.819  0.00  0.00    -0.005 A 
ATOM      6  C5  UNL d   1       2.002   1.579   1.413  0.00  0.00     0.003 A 
ATOM      7  C6  UNL d   1       2.564   1.274   0.172  0.00  0.00    -0.001 A 
ENDROOT
TORSDOF 0
ENDMDL
