MODEL 1
REMARK minimizedAffinity -5.64359045
REMARK minimizedRMSD -1
REMARK  0 active torsions:
REMARK  status: ('A' for Active; 'I' for Inactive)
ROOT
ATOM      1  C   UNL d   1       1.620   0.001  -2.782  0.00  0.00     0.078 C 
ATOM      2  C1  UNL d   1       0.921  -0.064  -1.457  0.00  0.00    -0.077 A 
ATOM      3  C2  UNL d   1       0.329  -1.252  -1.011  0.00  0.00    -0.001 A 
ATOM      4  C3  UNL d   1      -0.327  -1.295   0.220  0.00  0.00     0.003 A 
ATOM      5  C4  UNL d   1      -0.398  -0.154   1.016  0.00  0.00    -0.005 A 
ATOM      6  C5  UNL d   1       0.186   1.034   0.580  0.00  0.00     0.003 A 
ATOM      7  C6  UNL d   1       0.842   1.079  -0.651  0.00  0.00    -0.001 A 
ENDROOT
TORSDOF 0
ENDMDL
