MODEL 1
REMARK minimizedAffinity -1.46664619
REMARK minimizedRMSD -1
REMARK  0 active torsions:
REMARK  status: ('A' for Active; 'I' for Inactive)
ROOT
ATOM      1  C   UNL d   1      -5.992   5.168  -5.999  0.00  0.00     0.078 C 
ATOM      2  C1  UNL d   1      -4.694   4.423  -5.911  0.00  0.00    -0.077 A 
ATOM      3  C2  UNL d   1      -4.656   3.026  -6.000  0.00  0.00    -0.001 A 
ATOM      4  C3  UNL d   1      -3.441   2.346  -5.906  0.00  0.00     0.003 A 
ATOM      5  C4  UNL d   1      -2.255   3.053  -5.722  0.00  0.00    -0.005 A 
ATOM      6  C5  UNL d   1      -2.283   4.443  -5.630  0.00  0.00     0.003 A 
ATOM      7  C6  UNL d   1      -3.497   5.126  -5.723  0.00  0.00    -0.001 A 
ENDROOT
TORSDOF 0
ENDMDL
