MODEL 1
REMARK minimizedAffinity -4.2100358
REMARK minimizedRMSD -1
REMARK  0 active torsions:
REMARK  status: ('A' for Active; 'I' for Inactive)
ROOT
ATOM      1  C   UNL d   1       0.719  -2.678  -0.742  0.00  0.00     0.078 C 
ATOM      2  C1  UNL d   1       0.500  -1.303  -0.185  0.00  0.00    -0.077 A 
ATOM      3  C2  UNL d   1       0.911  -0.166  -0.891  0.00  0.00    -0.001 A 
ATOM      4  C3  UNL d   1       0.709   1.108  -0.356  0.00  0.00     0.003 A 
ATOM      5  C4  UNL d   1       0.096   1.256   0.887  0.00  0.00    -0.005 A 
ATOM      6  C5  UNL d   1      -0.314   0.130   1.597  0.00  0.00     0.003 A 
ATOM      7  C6  UNL d   1      -0.113  -1.145   1.064  0.00  0.00    -0.001 A 
ENDROOT
TORSDOF 0
ENDMDL
