MODEL 1
REMARK minimizedAffinity -2.21515155
REMARK minimizedRMSD -1
REMARK  0 active torsions:
REMARK  status: ('A' for Active; 'I' for Inactive)
ROOT
ATOM      1  C   UNL d   1       0.684  -1.011  -1.721  0.00  0.00     0.078 C 
ATOM      2  C1  UNL d   1       0.167  -0.332  -0.488  0.00  0.00    -0.077 A 
ATOM      3  C2  UNL d   1       0.512   0.993  -0.195  0.00  0.00    -0.001 A 
ATOM      4  C3  UNL d   1       0.031   1.608   0.961  0.00  0.00     0.003 A 
ATOM      5  C4  UNL d   1      -0.796   0.907   1.835  0.00  0.00    -0.005 A 
ATOM      6  C5  UNL d   1      -1.144  -0.413   1.554  0.00  0.00     0.003 A 
ATOM      7  C6  UNL d   1      -0.664  -1.031   0.398  0.00  0.00    -0.001 A 
ENDROOT
TORSDOF 0
ENDMDL
