MODEL 1
REMARK minimizedAffinity -4.84996653
REMARK minimizedRMSD -1
REMARK  0 active torsions:
REMARK  status: ('A' for Active; 'I' for Inactive)
ROOT
ATOM      1  C   UNL d   1      -0.137   0.732   0.874  0.00  0.00     0.078 C 
ATOM      2  C1  UNL d   1       0.640   0.327  -0.343  0.00  0.00    -0.077 A 
ATOM      3  C2  UNL d   1       0.338  -0.855  -1.031  0.00  0.00    -0.001 A 
ATOM      4  C3  UNL d   1       1.076  -1.225  -2.156  0.00  0.00     0.003 A 
ATOM      5  C4  UNL d   1       2.121  -0.420  -2.603  0.00  0.00    -0.005 A 
ATOM      6  C5  UNL d   1       2.431   0.757  -1.924  0.00  0.00     0.003 A 
ATOM      7  C6  UNL d   1       1.694   1.129  -0.798  0.00  0.00    -0.001 A 
ENDROOT
TORSDOF 0
ENDMDL
