MODEL 1
REMARK minimizedAffinity -1.48870051
REMARK minimizedRMSD -1
REMARK  0 active torsions:
REMARK  status: ('A' for Active; 'I' for Inactive)
ROOT
ATOM      1  C   UNL d   1       5.630   5.998   3.405  0.00  0.00     0.023 A 
ATOM      2  C1  UNL d   1       5.260   5.062   2.439  0.00  0.00     0.003 A 
ATOM      3  C2  UNL d   1       5.260   3.700   2.748  0.00  0.00     0.048 A 
ATOM      4  C3  UNL d   1       5.630   3.281   4.026  0.00  0.00     0.023 A 
ATOM      5  C4  UNL d   1       5.999   4.214   4.996  0.00  0.00     0.048 A 
ATOM      6  C5  UNL d   1       5.999   5.575   4.682  0.00  0.00     0.003 A 
ATOM      7  I   UNL d   1       5.630   1.255   4.489  0.00  0.00    -0.146 I 
ENDROOT
TORSDOF 0
ENDMDL
