MODEL 1
REMARK minimizedAffinity -1.44450891
REMARK minimizedRMSD -1
REMARK  0 active torsions:
REMARK  status: ('A' for Active; 'I' for Inactive)
ROOT
ATOM      1  C   UNL d   1       5.971  -0.694   4.993  0.00  0.00     0.023 A 
ATOM      2  C1  UNL d   1       5.946  -0.530   3.608  0.00  0.00     0.003 A 
ATOM      3  C2  UNL d   1       5.947   0.752   3.055  0.00  0.00     0.048 A 
ATOM      4  C3  UNL d   1       5.974   1.866   3.893  0.00  0.00     0.023 A 
ATOM      5  C4  UNL d   1       6.000   1.707   5.280  0.00  0.00     0.048 A 
ATOM      6  C5  UNL d   1       5.998   0.423   5.828  0.00  0.00     0.003 A 
ATOM      7  I   UNL d   1       5.976   3.776   3.072  0.00  0.00    -0.146 I 
ENDROOT
TORSDOF 0
ENDMDL
