MODEL 1
REMARK minimizedAffinity -1.84064937
REMARK minimizedRMSD -1
REMARK  0 active torsions:
REMARK  status: ('A' for Active; 'I' for Inactive)
ROOT
ATOM      1  C   UNL d   1       5.979   6.000   2.991  0.00  0.00     0.023 A 
ATOM      2  C1  UNL d   1       5.967   5.097   1.928  0.00  0.00     0.003 A 
ATOM      3  C2  UNL d   1       5.967   3.723   2.177  0.00  0.00     0.048 A 
ATOM      4  C3  UNL d   1       5.979   3.259   3.492  0.00  0.00     0.023 A 
ATOM      5  C4  UNL d   1       5.990   4.159   4.559  0.00  0.00     0.048 A 
ATOM      6  C5  UNL d   1       5.991   5.531   4.305  0.00  0.00     0.003 A 
ATOM      7  I   UNL d   1       5.979   1.214   3.865  0.00  0.00    -0.146 I 
ENDROOT
TORSDOF 0
ENDMDL
