MODEL 1
REMARK minimizedAffinity 2.64407897
REMARK minimizedRMSD -1
REMARK  0 active torsions:
REMARK  status: ('A' for Active; 'I' for Inactive)
ROOT
ATOM      1  C   UNL d   1       5.985  -1.986   5.188  0.00  0.00     0.023 A 
ATOM      2  C1  UNL d   1       5.989  -0.849   5.996  0.00  0.00     0.003 A 
ATOM      3  C2  UNL d   1       5.992   0.422   5.416  0.00  0.00     0.048 A 
ATOM      4  C3  UNL d   1       5.990   0.548   4.028  0.00  0.00     0.023 A 
ATOM      5  C4  UNL d   1       5.985  -0.587   3.215  0.00  0.00     0.048 A 
ATOM      6  C5  UNL d   1       5.983  -1.855   3.799  0.00  0.00     0.003 A 
ATOM      7  I   UNL d   1       5.995   2.438   3.162  0.00  0.00    -0.146 I 
ENDROOT
TORSDOF 0
ENDMDL
