MODEL 1
REMARK minimizedAffinity -2.05848098
REMARK minimizedRMSD -1
REMARK  0 active torsions:
REMARK  status: ('A' for Active; 'I' for Inactive)
ROOT
ATOM      1  C   UNL d   1       4.867   4.116   3.771  0.00  0.00     0.023 A 
ATOM      2  C1  UNL d   1       5.783   3.286   3.124  0.00  0.00     0.003 A 
ATOM      3  C2  UNL d   1       6.000   1.988   3.589  0.00  0.00     0.048 A 
ATOM      4  C3  UNL d   1       5.296   1.525   4.701  0.00  0.00     0.023 A 
ATOM      5  C4  UNL d   1       4.378   2.352   5.350  0.00  0.00     0.048 A 
ATOM      6  C5  UNL d   1       4.165   3.650   4.882  0.00  0.00     0.003 A 
ATOM      7  I   UNL d   1       5.616  -0.408   5.395  0.00  0.00    -0.146 I 
ENDROOT
TORSDOF 0
ENDMDL
