MODEL 1
REMARK minimizedAffinity -2.06722951
REMARK minimizedRMSD -1
REMARK  0 active torsions:
REMARK  status: ('A' for Active; 'I' for Inactive)
ROOT
ATOM      1  C   UNL d   1       5.999   2.500   4.255  0.00  0.00     0.023 A 
ATOM      2  C1  UNL d   1       5.999   1.568   3.217  0.00  0.00     0.003 A 
ATOM      3  C2  UNL d   1       5.995   0.201   3.504  0.00  0.00     0.048 A 
ATOM      4  C3  UNL d   1       5.989  -0.226   4.831  0.00  0.00     0.023 A 
ATOM      5  C4  UNL d   1       5.988   0.703   5.873  0.00  0.00     0.048 A 
ATOM      6  C5  UNL d   1       5.993   2.068   5.581  0.00  0.00     0.003 A 
ATOM      7  I   UNL d   1       5.982  -2.260   5.261  0.00  0.00    -0.146 I 
ENDROOT
TORSDOF 0
ENDMDL
