MODEL 1
REMARK minimizedAffinity 5.09298515
REMARK minimizedRMSD -1
REMARK  0 active torsions:
REMARK  status: ('A' for Active; 'I' for Inactive)
ROOT
ATOM      1  C   UNL d   1       5.828   0.871   4.085  0.00  0.00     0.023 A 
ATOM      2  C1  UNL d   1       5.794   0.665   5.464  0.00  0.00     0.003 A 
ATOM      3  C2  UNL d   1       5.838  -0.633   5.979  0.00  0.00     0.048 A 
ATOM      4  C3  UNL d   1       5.917  -1.719   5.108  0.00  0.00     0.023 A 
ATOM      5  C4  UNL d   1       5.952  -1.518   3.728  0.00  0.00     0.048 A 
ATOM      6  C5  UNL d   1       5.907  -0.219   3.218  0.00  0.00     0.003 A 
ATOM      7  I   UNL d   1       5.983  -3.651   5.872  0.00  0.00    -0.146 I 
ENDROOT
TORSDOF 0
ENDMDL
