MODEL 1
REMARK minimizedAffinity -1.65046787
REMARK minimizedRMSD -1
REMARK  0 active torsions:
REMARK  status: ('A' for Active; 'I' for Inactive)
ROOT
ATOM      1  C   UNL d   1       5.977   4.196   4.496  0.00  0.00     0.023 A 
ATOM      2  C1  UNL d   1       5.987   5.552   4.168  0.00  0.00     0.003 A 
ATOM      3  C2  UNL d   1       5.994   5.947   2.828  0.00  0.00     0.048 A 
ATOM      4  C3  UNL d   1       5.990   4.982   1.822  0.00  0.00     0.023 A 
ATOM      5  C4  UNL d   1       5.978   3.624   2.146  0.00  0.00     0.048 A 
ATOM      6  C5  UNL d   1       5.972   3.234   3.487  0.00  0.00     0.003 A 
ATOM      7  I   UNL d   1       6.000   5.568  -0.172  0.00  0.00    -0.146 I 
ENDROOT
TORSDOF 0
ENDMDL
