MODEL 1
REMARK minimizedAffinity 1.05666542
REMARK minimizedRMSD -1
REMARK  0 active torsions:
REMARK  status: ('A' for Active; 'I' for Inactive)
ROOT
ATOM      1  C   UNL d   1       5.622   1.263   3.612  0.00  0.00     0.023 A 
ATOM      2  C1  UNL d   1       5.461   2.259   4.574  0.00  0.00     0.003 A 
ATOM      3  C2  UNL d   1       5.569   3.604   4.214  0.00  0.00     0.048 A 
ATOM      4  C3  UNL d   1       5.838   3.945   2.889  0.00  0.00     0.023 A 
ATOM      5  C4  UNL d   1       5.999   2.951   1.922  0.00  0.00     0.048 A 
ATOM      6  C5  UNL d   1       5.891   1.608   2.287  0.00  0.00     0.003 A 
ATOM      7  I   UNL d   1       5.999   5.946   2.349  0.00  0.00    -0.146 I 
ENDROOT
TORSDOF 0
ENDMDL
