MODEL 1
REMARK minimizedAffinity -0.308320194
REMARK minimizedRMSD -1
REMARK  0 active torsions:
REMARK  status: ('A' for Active; 'I' for Inactive)
ROOT
ATOM      1  C   UNL d   1      -1.192   4.201   3.796  0.00  0.00     0.023 A 
ATOM      2  C1  UNL d   1      -2.289   3.905   2.987  0.00  0.00     0.003 A 
ATOM      3  C2  UNL d   1      -2.709   2.582   2.834  0.00  0.00     0.048 A 
ATOM      4  C3  UNL d   1      -2.027   1.559   3.494  0.00  0.00     0.023 A 
ATOM      5  C4  UNL d   1      -0.929   1.851   4.305  0.00  0.00     0.048 A 
ATOM      6  C5  UNL d   1      -0.513   3.175   4.454  0.00  0.00     0.003 A 
ATOM      7  I   UNL d   1      -2.650  -0.411   3.268  0.00  0.00    -0.146 I 
ENDROOT
TORSDOF 0
ENDMDL
