MODEL 1
REMARK minimizedAffinity -1.09813344
REMARK minimizedRMSD -1
REMARK  0 active torsions:
REMARK  status: ('A' for Active; 'I' for Inactive)
ROOT
ATOM      1  C   UNL d   1       5.990  -1.009   4.923  0.00  0.00     0.023 A 
ATOM      2  C1  UNL d   1       5.995   0.111   5.755  0.00  0.00     0.003 A 
ATOM      3  C2  UNL d   1       5.997   1.393   5.202  0.00  0.00     0.048 A 
ATOM      4  C3  UNL d   1       5.993   1.549   3.816  0.00  0.00     0.023 A 
ATOM      5  C4  UNL d   1       5.987   0.431   2.980  0.00  0.00     0.048 A 
ATOM      6  C5  UNL d   1       5.986  -0.849   3.537  0.00  0.00     0.003 A 
ATOM      7  I   UNL d   1       5.996   3.456   2.991  0.00  0.00    -0.146 I 
ENDROOT
TORSDOF 0
ENDMDL
