MODEL 1
REMARK minimizedAffinity -2.12584209
REMARK minimizedRMSD -1
REMARK  0 active torsions:
REMARK  status: ('A' for Active; 'I' for Inactive)
ROOT
ATOM      1  C   UNL d   1       5.670  -0.710   5.150  0.00  0.00     0.023 A 
ATOM      2  C1  UNL d   1       5.906  -0.513   3.789  0.00  0.00     0.003 A 
ATOM      3  C2  UNL d   1       5.998   0.782   3.275  0.00  0.00     0.048 A 
ATOM      4  C3  UNL d   1       5.854   1.876   4.128  0.00  0.00     0.023 A 
ATOM      5  C4  UNL d   1       5.619   1.684   5.490  0.00  0.00     0.048 A 
ATOM      6  C5  UNL d   1       5.526   0.388   5.999  0.00  0.00     0.003 A 
ATOM      7  I   UNL d   1       5.992   3.805   3.365  0.00  0.00    -0.146 I 
ENDROOT
TORSDOF 0
ENDMDL
