MODEL 1
REMARK minimizedAffinity -2.78893781
REMARK minimizedRMSD -1
REMARK  0 active torsions:
REMARK  status: ('A' for Active; 'I' for Inactive)
ROOT
ATOM      1  C   UNL d   1       5.998   0.097   5.136  0.00  0.00     0.023 A 
ATOM      2  C1  UNL d   1       6.000   1.214   5.971  0.00  0.00     0.003 A 
ATOM      3  C2  UNL d   1       6.000   2.498   5.422  0.00  0.00     0.048 A 
ATOM      4  C3  UNL d   1       5.998   2.657   4.037  0.00  0.00     0.023 A 
ATOM      5  C4  UNL d   1       5.996   1.542   3.197  0.00  0.00     0.048 A 
ATOM      6  C5  UNL d   1       5.997   0.260   3.751  0.00  0.00     0.003 A 
ATOM      7  I   UNL d   1       5.998   4.567   3.217  0.00  0.00    -0.146 I 
ENDROOT
TORSDOF 0
ENDMDL
