MODEL 1
REMARK minimizedAffinity -1.02478516
REMARK minimizedRMSD -1
REMARK  0 active torsions:
REMARK  status: ('A' for Active; 'I' for Inactive)
ROOT
ATOM      1  C   UNL d   1       5.975  -1.061   5.027  0.00  0.00     0.023 A 
ATOM      2  C1  UNL d   1       5.958  -0.820   3.653  0.00  0.00     0.003 A 
ATOM      3  C2  UNL d   1       5.960   0.491   3.172  0.00  0.00     0.048 A 
ATOM      4  C3  UNL d   1       5.981   1.557   4.071  0.00  0.00     0.023 A 
ATOM      5  C4  UNL d   1       6.000   1.321   5.447  0.00  0.00     0.048 A 
ATOM      6  C5  UNL d   1       5.996   0.008   5.923  0.00  0.00     0.003 A 
ATOM      7  I   UNL d   1       5.985   3.509   3.358  0.00  0.00    -0.146 I 
ENDROOT
TORSDOF 0
ENDMDL
