MODEL 1
REMARK minimizedAffinity -4.30104351
REMARK minimizedRMSD -1
REMARK  3 active torsions:
REMARK  status: ('A' for Active; 'I' for Inactive)
REMARK    1  A    between atoms: C3'_2  and  C2'_3 
REMARK    2  A    between atoms: C2'_3  and  C1'_4 
REMARK    3  A    between atoms: C1'_4  and  C1_5 
ROOT
ATOM      1  C1  N4B d   1      -0.424  -0.205   0.361  0.00  0.00    -0.075 A 
ATOM      2  C2  N4B d   1       0.754   0.094   1.078  0.00  0.00     0.002 A 
ATOM      3  C3  N4B d   1       0.780  -0.046   2.444  0.00  0.00     0.002 A 
ATOM      4  C4  N4B d   1      -0.361  -0.463   3.113  0.00  0.00    -0.004 A 
ATOM      5  C5  N4B d   1      -1.487  -0.774   2.410  0.00  0.00     0.002 A 
ATOM      6  C6  N4B d   1      -1.527  -0.642   1.036  0.00  0.00     0.002 A 
ENDROOT
BRANCH   1   7
ATOM      7  C1' N4B d   1      -0.527   0.015  -1.124  0.00  0.00     0.057 C 
BRANCH   7   8
ATOM      8  C2' N4B d   1       0.751  -0.481  -1.794  0.00  0.00     0.009 C 
BRANCH   8   9
ATOM      9  C3' N4B d   1       0.460  -1.450  -2.926  0.00  0.00     0.004 C 
ATOM     10  C4' N4B d   1       1.547  -1.481  -3.958  0.00  0.00     0.003 C 
ENDBRANCH   8   9
ENDBRANCH   7   8
ENDBRANCH   1   7
TORSDOF 3
ENDMDL
