MODEL 1
REMARK minimizedAffinity -2.38908148
REMARK minimizedRMSD -1
REMARK  3 active torsions:
REMARK  status: ('A' for Active; 'I' for Inactive)
REMARK    1  A    between atoms: C3'_2  and  C2'_3 
REMARK    2  A    between atoms: C2'_3  and  C1'_4 
REMARK    3  A    between atoms: C1'_4  and  C1_5 
ROOT
ATOM      1  C1  N4B d   1      -0.196  -0.100  -0.718  0.00  0.00    -0.075 A 
ATOM      2  C2  N4B d   1       1.056  -0.593  -0.290  0.00  0.00     0.002 A 
ATOM      3  C3  N4B d   1       1.358  -0.633   1.049  0.00  0.00     0.002 A 
ATOM      4  C4  N4B d   1       0.434  -0.169   1.974  0.00  0.00    -0.004 A 
ATOM      5  C5  N4B d   1      -0.783   0.283   1.554  0.00  0.00     0.002 A 
ATOM      6  C6  N4B d   1      -1.101   0.324   0.211  0.00  0.00     0.002 A 
ENDROOT
BRANCH   1   7
ATOM      7  C1' N4B d   1      -0.537   0.042  -2.176  0.00  0.00     0.057 C 
BRANCH   7   8
ATOM      8  C2' N4B d   1       0.737  -0.089  -3.004  0.00  0.00     0.009 C 
BRANCH   8   9
ATOM      9  C3' N4B d   1       0.779  -1.395  -3.780  0.00  0.00     0.004 C 
ATOM     10  C4' N4B d   1       2.111  -2.079  -3.694  0.00  0.00     0.003 C 
ENDBRANCH   8   9
ENDBRANCH   7   8
ENDBRANCH   1   7
TORSDOF 3
ENDMDL
