MODEL 1
REMARK minimizedAffinity -4.32375669
REMARK minimizedRMSD -1
REMARK  3 active torsions:
REMARK  status: ('A' for Active; 'I' for Inactive)
REMARK    1  A    between atoms: C3'_2  and  C2'_3 
REMARK    2  A    between atoms: C2'_3  and  C1'_4 
REMARK    3  A    between atoms: C1'_4  and  C1_5 
ROOT
ATOM      1  C1  N4B d   1      -1.225  -0.570   0.638  0.00  0.00    -0.075 A 
ATOM      2  C2  N4B d   1      -1.746   0.569  -0.014  0.00  0.00     0.002 A 
ATOM      3  C3  N4B d   1      -1.193   0.997  -1.196  0.00  0.00     0.002 A 
ATOM      4  C4  N4B d   1      -0.110   0.316  -1.732  0.00  0.00    -0.004 A 
ATOM      5  C5  N4B d   1       0.372  -0.798  -1.109  0.00  0.00     0.002 A 
ATOM      6  C6  N4B d   1      -0.178  -1.242   0.077  0.00  0.00     0.002 A 
ENDROOT
BRANCH   1   7
ATOM      7  C1' N4B d   1      -1.742  -1.025   1.975  0.00  0.00     0.057 C 
BRANCH   7   8
ATOM      8  C2' N4B d   1      -0.696  -0.724   3.045  0.00  0.00     0.009 C 
BRANCH   8   9
ATOM      9  C3' N4B d   1      -0.181   0.702   2.951  0.00  0.00     0.004 C 
ATOM     10  C4' N4B d   1       1.199   0.784   2.371  0.00  0.00     0.003 C 
ENDBRANCH   8   9
ENDBRANCH   7   8
ENDBRANCH   1   7
TORSDOF 3
ENDMDL
