MODEL 1
REMARK minimizedAffinity -6.34311438
REMARK minimizedRMSD -1
REMARK  3 active torsions:
REMARK  status: ('A' for Active; 'I' for Inactive)
REMARK    1  A    between atoms: C3'_2  and  C2'_3 
REMARK    2  A    between atoms: C2'_3  and  C1'_4 
REMARK    3  A    between atoms: C1'_4  and  C1_5 
ROOT
ATOM      1  C1  N4B d   1       0.449  -0.813  -0.001  0.00  0.00    -0.075 A 
ATOM      2  C2  N4B d   1       0.811  -1.775  -0.969  0.00  0.00     0.002 A 
ATOM      3  C3  N4B d   1       1.028  -1.393  -2.270  0.00  0.00     0.002 A 
ATOM      4  C4  N4B d   1       0.871  -0.062  -2.629  0.00  0.00    -0.004 A 
ATOM      5  C5  N4B d   1       0.546   0.865  -1.683  0.00  0.00     0.002 A 
ATOM      6  C6  N4B d   1       0.329   0.495  -0.371  0.00  0.00     0.002 A 
ENDROOT
BRANCH   1   7
ATOM      7  C1' N4B d   1       0.118  -1.197   1.415  0.00  0.00     0.057 C 
BRANCH   7   8
ATOM      8  C2' N4B d   1      -0.306   0.050   2.186  0.00  0.00     0.009 C 
BRANCH   8   9
ATOM      9  C3' N4B d   1      -1.712  -0.080   2.747  0.00  0.00     0.004 C 
ATOM     10  C4' N4B d   1      -2.772   0.074   1.698  0.00  0.00     0.003 C 
ENDBRANCH   8   9
ENDBRANCH   7   8
ENDBRANCH   1   7
TORSDOF 3
ENDMDL
