MODEL 1
REMARK minimizedAffinity -3.29784322
REMARK minimizedRMSD -1
REMARK  3 active torsions:
REMARK  status: ('A' for Active; 'I' for Inactive)
REMARK    1  A    between atoms: C3'_2  and  C2'_3 
REMARK    2  A    between atoms: C2'_3  and  C1'_4 
REMARK    3  A    between atoms: C1'_4  and  C1_5 
ROOT
ATOM      1  C1  N4B d   1       0.624  -0.455   0.003  0.00  0.00    -0.075 A 
ATOM      2  C2  N4B d   1       1.138   0.822   0.320  0.00  0.00     0.002 A 
ATOM      3  C3  N4B d   1       1.193   1.234   1.628  0.00  0.00     0.002 A 
ATOM      4  C4  N4B d   1       0.726   0.398   2.631  0.00  0.00    -0.004 A 
ATOM      5  C5  N4B d   1       0.255  -0.843   2.319  0.00  0.00     0.002 A 
ATOM      6  C6  N4B d   1       0.197  -1.272   1.008  0.00  0.00     0.002 A 
ENDROOT
BRANCH   1   7
ATOM      7  C1' N4B d   1       0.464  -0.915  -1.420  0.00  0.00     0.057 C 
BRANCH   7   8
ATOM      8  C2' N4B d   1       1.351  -0.065  -2.325  0.00  0.00     0.009 C 
BRANCH   8   9
ATOM      9  C3' N4B d   1       2.308  -0.914  -3.143  0.00  0.00     0.004 C 
ATOM     10  C4' N4B d   1       1.601  -1.853  -4.075  0.00  0.00     0.003 C 
ENDBRANCH   8   9
ENDBRANCH   7   8
ENDBRANCH   1   7
TORSDOF 3
ENDMDL
