MODEL 1
REMARK minimizedAffinity -4.20311975
REMARK minimizedRMSD -1
REMARK  3 active torsions:
REMARK  status: ('A' for Active; 'I' for Inactive)
REMARK    1  A    between atoms: C3'_2  and  C2'_3 
REMARK    2  A    between atoms: C2'_3  and  C1'_4 
REMARK    3  A    between atoms: C1'_4  and  C1_5 
ROOT
ATOM      1  C1  N4B d   1       0.466   0.071  -0.206  0.00  0.00    -0.075 A 
ATOM      2  C2  N4B d   1       0.917   0.919   0.830  0.00  0.00     0.002 A 
ATOM      3  C3  N4B d   1       0.834   0.509   2.138  0.00  0.00     0.002 A 
ATOM      4  C4  N4B d   1       0.289  -0.731   2.435  0.00  0.00    -0.004 A 
ATOM      5  C5  N4B d   1      -0.121  -1.555   1.427  0.00  0.00     0.002 A 
ATOM      6  C6  N4B d   1      -0.040  -1.157   0.108  0.00  0.00     0.002 A 
ENDROOT
BRANCH   1   7
ATOM      7  C1' N4B d   1       0.457   0.510  -1.645  0.00  0.00     0.057 C 
BRANCH   7   8
ATOM      8  C2' N4B d   1       0.061  -0.671  -2.526  0.00  0.00     0.009 C 
BRANCH   8   9
ATOM      9  C3' N4B d   1       1.201  -1.115  -3.426  0.00  0.00     0.004 C 
ATOM     10  C4' N4B d   1       0.793  -2.183  -4.396  0.00  0.00     0.003 C 
ENDBRANCH   8   9
ENDBRANCH   7   8
ENDBRANCH   1   7
TORSDOF 3
ENDMDL
