MODEL 1
REMARK minimizedAffinity -5.54190731
REMARK minimizedRMSD -1
REMARK  3 active torsions:
REMARK  status: ('A' for Active; 'I' for Inactive)
REMARK    1  A    between atoms: C3'_2  and  C2'_3 
REMARK    2  A    between atoms: C2'_3  and  C1'_4 
REMARK    3  A    between atoms: C1'_4  and  C1_5 
ROOT
ATOM      1  C1  N4B d   1       0.096   0.271  -0.177  0.00  0.00    -0.075 A 
ATOM      2  C2  N4B d   1      -1.033   0.395   0.662  0.00  0.00     0.002 A 
ATOM      3  C3  N4B d   1      -0.901   0.237   2.020  0.00  0.00     0.002 A 
ATOM      4  C4  N4B d   1       0.341  -0.063   2.557  0.00  0.00    -0.004 A 
ATOM      5  C5  N4B d   1       1.432  -0.156   1.744  0.00  0.00     0.002 A 
ATOM      6  C6  N4B d   1       1.315   0.005   0.378  0.00  0.00     0.002 A 
ENDROOT
BRANCH   1   7
ATOM      7  C1' N4B d   1      -0.014   0.351  -1.675  0.00  0.00     0.057 C 
BRANCH   7   8
ATOM      8  C2' N4B d   1       1.308  -0.086  -2.298  0.00  0.00     0.009 C 
BRANCH   8   9
ATOM      9  C3' N4B d   1       1.178  -1.405  -3.040  0.00  0.00     0.004 C 
ATOM     10  C4' N4B d   1      -0.119  -1.528  -3.782  0.00  0.00     0.003 C 
ENDBRANCH   8   9
ENDBRANCH   7   8
ENDBRANCH   1   7
TORSDOF 3
ENDMDL
