MODEL 1
REMARK minimizedAffinity -4.24514866
REMARK minimizedRMSD -1
REMARK  3 active torsions:
REMARK  status: ('A' for Active; 'I' for Inactive)
REMARK    1  A    between atoms: C3'_2  and  C2'_3 
REMARK    2  A    between atoms: C2'_3  and  C1'_4 
REMARK    3  A    between atoms: C1'_4  and  C1_5 
ROOT
ATOM      1  C1  N4B d   1      -0.107   0.392  -0.221  0.00  0.00    -0.075 A 
ATOM      2  C2  N4B d   1       1.034   0.477   0.607  0.00  0.00     0.002 A 
ATOM      3  C3  N4B d   1       0.927   0.220   1.952  0.00  0.00     0.002 A 
ATOM      4  C4  N4B d   1      -0.308  -0.106   2.492  0.00  0.00    -0.004 A 
ATOM      5  C5  N4B d   1      -1.400  -0.211   1.681  0.00  0.00     0.002 A 
ATOM      6  C6  N4B d   1      -1.307   0.041   0.327  0.00  0.00     0.002 A 
ENDROOT
BRANCH   1   7
ATOM      7  C1' N4B d   1      -0.057   0.748  -1.681  0.00  0.00     0.057 C 
BRANCH   7   8
ATOM      8  C2' N4B d   1       0.961  -0.148  -2.381  0.00  0.00     0.009 C 
BRANCH   8   9
ATOM      9  C3' N4B d   1       0.553  -1.610  -2.341  0.00  0.00     0.004 C 
ATOM     10  C4' N4B d   1       0.099  -2.123  -3.675  0.00  0.00     0.003 C 
ENDBRANCH   8   9
ENDBRANCH   7   8
ENDBRANCH   1   7
TORSDOF 3
ENDMDL
