MODEL 1
REMARK minimizedAffinity -3.16580319
REMARK minimizedRMSD -1
REMARK  3 active torsions:
REMARK  status: ('A' for Active; 'I' for Inactive)
REMARK    1  A    between atoms: C3'_2  and  C2'_3 
REMARK    2  A    between atoms: C2'_3  and  C1'_4 
REMARK    3  A    between atoms: C1'_4  and  C1_5 
ROOT
ATOM      1  C1  N4B d   1       0.878  -0.087  -2.039  0.00  0.00    -0.075 A 
ATOM      2  C2  N4B d   1       1.649   0.663  -2.954  0.00  0.00     0.002 A 
ATOM      3  C3  N4B d   1       2.025   0.107  -4.153  0.00  0.00     0.002 A 
ATOM      4  C4  N4B d   1       1.659  -1.197  -4.448  0.00  0.00    -0.004 A 
ATOM      5  C5  N4B d   1       0.893  -1.906  -3.570  0.00  0.00     0.002 A 
ATOM      6  C6  N4B d   1       0.505  -1.359  -2.364  0.00  0.00     0.002 A 
ENDROOT
BRANCH   1   7
ATOM      7  C1' N4B d   1       0.517   0.448  -0.680  0.00  0.00     0.057 C 
BRANCH   7   8
ATOM      8  C2' N4B d   1       0.140  -0.716   0.232  0.00  0.00     0.009 C 
BRANCH   8   9
ATOM      9  C3' N4B d   1      -1.064  -0.391   1.099  0.00  0.00     0.004 C 
ATOM     10  C4' N4B d   1      -2.175   0.261   0.330  0.00  0.00     0.003 C 
ENDBRANCH   8   9
ENDBRANCH   7   8
ENDBRANCH   1   7
TORSDOF 3
ENDMDL
