MODEL 1
REMARK minimizedAffinity 19.9931011
REMARK minimizedRMSD -1
REMARK  0 active torsions:
REMARK  status: ('A' for Active; 'I' for Inactive)
ROOT
ATOM      1  C   UNL d   1      -0.846  -3.637   0.612  0.00  0.00    -0.002 A 
ATOM      2  C1  UNL d   1      -0.812  -2.327   0.155  0.00  0.00     0.010 A 
ATOM      3  C2  UNL d   1      -1.992  -1.595   0.007  0.00  0.00     0.041 A 
ATOM      4  C3  UNL d   1      -3.219  -2.208   0.331  0.00  0.00    -0.075 A 
ATOM      5  S   UNL d   1      -4.790  -1.506   0.229  0.00  0.00     0.015 SA
ATOM      6  C4  UNL d   1      -5.544  -2.928   0.790  0.00  0.00     0.022 A 
ATOM      7  C5  UNL d   1      -4.634  -3.924   1.053  0.00  0.00     0.026 A 
ATOM      8  C6  UNL d   1      -3.279  -3.525   0.793  0.00  0.00    -0.082 A 
ATOM      9  C7  UNL d   1      -2.065  -4.241   0.932  0.00  0.00     0.045 A 
ENDROOT
TORSDOF 0
ENDMDL
