MODEL 1
REMARK minimizedAffinity 17.6748447
REMARK minimizedRMSD -1
REMARK  0 active torsions:
REMARK  status: ('A' for Active; 'I' for Inactive)
ROOT
ATOM      1  C   UNL d   1      -1.539  -2.741   1.411  0.00  0.00    -0.002 A 
ATOM      2  C1  UNL d   1      -0.773  -3.794   0.930  0.00  0.00     0.010 A 
ATOM      3  C2  UNL d   1      -0.470  -3.888  -0.430  0.00  0.00     0.041 A 
ATOM      4  C3  UNL d   1      -0.952  -2.896  -1.306  0.00  0.00    -0.075 A 
ATOM      5  S   UNL d   1      -0.706  -2.805  -3.010  0.00  0.00     0.015 SA
ATOM      6  C4  UNL d   1      -1.610  -1.367  -3.140  0.00  0.00     0.022 A 
ATOM      7  C5  UNL d   1      -2.096  -0.952  -1.922  0.00  0.00     0.026 A 
ATOM      8  C6  UNL d   1      -1.725  -1.826  -0.846  0.00  0.00    -0.082 A 
ATOM      9  C7  UNL d   1      -2.016  -1.759   0.538  0.00  0.00     0.045 A 
ENDROOT
TORSDOF 0
ENDMDL
