MODEL 1
REMARK minimizedAffinity 18.4570332
REMARK minimizedRMSD -1
REMARK  0 active torsions:
REMARK  status: ('A' for Active; 'I' for Inactive)
ROOT
ATOM      1  C   UNL d   1      -1.546  -2.967  -0.138  0.00  0.00    -0.002 A 
ATOM      2  C1  UNL d   1      -0.846  -4.157   0.001  0.00  0.00     0.010 A 
ATOM      3  C2  UNL d   1      -0.858  -4.851   1.212  0.00  0.00     0.041 A 
ATOM      4  C3  UNL d   1      -1.594  -4.325   2.292  0.00  0.00    -0.075 A 
ATOM      5  S   UNL d   1      -1.754  -5.002   3.869  0.00  0.00     0.015 SA
ATOM      6  C4  UNL d   1      -2.756  -3.728   4.396  0.00  0.00     0.022 A 
ATOM      7  C5  UNL d   1      -2.973  -2.800   3.406  0.00  0.00     0.026 A 
ATOM      8  C6  UNL d   1      -2.307  -3.128   2.177  0.00  0.00    -0.082 A 
ATOM      9  C7  UNL d   1      -2.275  -2.448   0.936  0.00  0.00     0.045 A 
ENDROOT
TORSDOF 0
ENDMDL
