MODEL 1
REMARK minimizedAffinity 17.6115513
REMARK minimizedRMSD -1
REMARK  0 active torsions:
REMARK  status: ('A' for Active; 'I' for Inactive)
ROOT
ATOM      1  C   UNL d   1      -4.004   3.142   5.951  0.00  0.00    -0.002 A 
ATOM      2  C1  UNL d   1      -5.326   2.721   5.987  0.00  0.00     0.010 A 
ATOM      3  C2  UNL d   1      -5.638   1.360   5.998  0.00  0.00     0.041 A 
ATOM      4  C3  UNL d   1      -4.588   0.421   5.974  0.00  0.00    -0.075 A 
ATOM      5  S   UNL d   1      -4.732  -1.298   5.983  0.00  0.00     0.015 SA
ATOM      6  C4  UNL d   1      -3.042  -1.513   5.940  0.00  0.00     0.022 A 
ATOM      7  C5  UNL d   1      -2.369  -0.314   5.919  0.00  0.00     0.026 A 
ATOM      8  C6  UNL d   1      -3.249   0.820   5.939  0.00  0.00    -0.082 A 
ATOM      9  C7  UNL d   1      -2.966   2.207   5.928  0.00  0.00     0.045 A 
ENDROOT
TORSDOF 0
ENDMDL
