MODEL 1
REMARK minimizedAffinity 9.60451794
REMARK minimizedRMSD -1
REMARK  0 active torsions:
REMARK  status: ('A' for Active; 'I' for Inactive)
ROOT
ATOM      1  C   UNL d   1      -0.503  -4.734   0.766  0.00  0.00    -0.002 A 
ATOM      2  C1  UNL d   1      -0.258  -4.679  -0.599  0.00  0.00     0.010 A 
ATOM      3  C2  UNL d   1      -0.739  -3.615  -1.364  0.00  0.00     0.041 A 
ATOM      4  C3  UNL d   1      -1.476  -2.596  -0.728  0.00  0.00    -0.075 A 
ATOM      5  S   UNL d   1      -2.162  -1.196  -1.463  0.00  0.00     0.015 SA
ATOM      6  C4  UNL d   1      -2.796  -0.638   0.017  0.00  0.00     0.022 A 
ATOM      7  C5  UNL d   1      -2.500  -1.487   1.057  0.00  0.00     0.026 A 
ATOM      8  C6  UNL d   1      -1.734  -2.629   0.645  0.00  0.00    -0.082 A 
ATOM      9  C7  UNL d   1      -1.234  -3.722   1.393  0.00  0.00     0.045 A 
ENDROOT
TORSDOF 0
ENDMDL
