MODEL 1
REMARK minimizedAffinity 16.4618015
REMARK minimizedRMSD -1
REMARK  0 active torsions:
REMARK  status: ('A' for Active; 'I' for Inactive)
ROOT
ATOM      1  C   UNL d   1      -4.590   5.743   5.959  0.00  0.00    -0.002 A 
ATOM      2  C1  UNL d   1      -3.242   5.413   5.964  0.00  0.00     0.010 A 
ATOM      3  C2  UNL d   1      -2.838   4.077   5.977  0.00  0.00     0.041 A 
ATOM      4  C3  UNL d   1      -3.821   3.068   5.983  0.00  0.00    -0.075 A 
ATOM      5  S   UNL d   1      -3.562   1.363   5.997  0.00  0.00     0.015 SA
ATOM      6  C4  UNL d   1      -5.234   1.033   5.996  0.00  0.00     0.022 A 
ATOM      7  C5  UNL d   1      -5.986   2.184   5.985  0.00  0.00     0.026 A 
ATOM      8  C6  UNL d   1      -5.185   3.375   5.977  0.00  0.00    -0.082 A 
ATOM      9  C7  UNL d   1      -5.562   4.740   5.965  0.00  0.00     0.045 A 
ENDROOT
TORSDOF 0
ENDMDL
