MODEL 1
REMARK minimizedAffinity 16.3974857
REMARK minimizedRMSD -1
REMARK  0 active torsions:
REMARK  status: ('A' for Active; 'I' for Inactive)
ROOT
ATOM      1  C   UNL d   1       1.980   1.692  -2.231  0.00  0.00    -0.002 A 
ATOM      2  C1  UNL d   1       1.980   0.346  -1.893  0.00  0.00     0.010 A 
ATOM      3  C2  UNL d   1       2.521  -0.081  -0.678  0.00  0.00     0.041 A 
ATOM      4  C3  UNL d   1       3.066   0.877   0.199  0.00  0.00    -0.075 A 
ATOM      5  S   UNL d   1       3.782   0.586   1.741  0.00  0.00     0.015 SA
ATOM      6  C4  UNL d   1       4.105   2.241   1.986  0.00  0.00     0.022 A 
ATOM      7  C5  UNL d   1       3.683   3.011   0.928  0.00  0.00     0.026 A 
ATOM      8  C6  UNL d   1       3.077   2.238  -0.119  0.00  0.00    -0.082 A 
ATOM      9  C7  UNL d   1       2.522   2.639  -1.358  0.00  0.00     0.045 A 
ENDROOT
TORSDOF 0
ENDMDL
