MODEL 1
REMARK minimizedAffinity 9.61707783
REMARK minimizedRMSD -1
REMARK  0 active torsions:
REMARK  status: ('A' for Active; 'I' for Inactive)
ROOT
ATOM      1  C   UNL d   1      -1.800   3.749  -4.496  0.00  0.00    -0.002 A 
ATOM      2  C1  UNL d   1      -2.346   3.043  -5.558  0.00  0.00     0.010 A 
ATOM      3  C2  UNL d   1      -3.643   3.312  -5.998  0.00  0.00     0.041 A 
ATOM      4  C3  UNL d   1      -4.389   4.314  -5.348  0.00  0.00    -0.075 A 
ATOM      5  S   UNL d   1      -5.997   4.817  -5.714  0.00  0.00     0.015 SA
ATOM      6  C4  UNL d   1      -5.997   5.981  -4.470  0.00  0.00     0.022 A 
ATOM      7  C5  UNL d   1      -4.808   6.000  -3.781  0.00  0.00     0.026 A 
ATOM      8  C6  UNL d   1      -3.861   5.040  -4.276  0.00  0.00    -0.082 A 
ATOM      9  C7  UNL d   1      -2.543   4.743  -3.853  0.00  0.00     0.045 A 
ENDROOT
TORSDOF 0
ENDMDL
