MODEL 1
REMARK minimizedAffinity 13.183795
REMARK minimizedRMSD -1
REMARK  0 active torsions:
REMARK  status: ('A' for Active; 'I' for Inactive)
ROOT
ATOM      1  C   UNL d   1      -5.175   3.484   5.981  0.00  0.00    -0.002 A 
ATOM      2  C1  UNL d   1      -3.788   3.526   5.983  0.00  0.00     0.010 A 
ATOM      3  C2  UNL d   1      -3.042   2.345   5.985  0.00  0.00     0.041 A 
ATOM      4  C3  UNL d   1      -3.720   1.110   5.982  0.00  0.00    -0.075 A 
ATOM      5  S   UNL d   1      -3.014  -0.463   5.982  0.00  0.00     0.015 SA
ATOM      6  C4  UNL d   1      -4.537  -1.227   5.978  0.00  0.00     0.022 A 
ATOM      7  C5  UNL d   1      -5.570  -0.320   5.977  0.00  0.00     0.026 A 
ATOM      8  C6  UNL d   1      -5.116   1.043   5.978  0.00  0.00    -0.082 A 
ATOM      9  C7  UNL d   1      -5.844   2.257   5.978  0.00  0.00     0.045 A 
ENDROOT
TORSDOF 0
ENDMDL
