MODEL 1
REMARK minimizedAffinity 13.3477459
REMARK minimizedRMSD -1
REMARK  0 active torsions:
REMARK  status: ('A' for Active; 'I' for Inactive)
ROOT
ATOM      1  C   UNL d   1      -2.579  -2.744   5.329  0.00  0.00    -0.002 A 
ATOM      2  C1  UNL d   1      -1.502  -1.895   5.120  0.00  0.00     0.010 A 
ATOM      3  C2  UNL d   1      -1.664  -0.510   5.201  0.00  0.00     0.041 A 
ATOM      4  C3  UNL d   1      -2.938   0.011   5.499  0.00  0.00    -0.075 A 
ATOM      5  S   UNL d   1      -3.372   1.673   5.650  0.00  0.00     0.015 SA
ATOM      6  C4  UNL d   1      -4.998   1.294   5.996  0.00  0.00     0.022 A 
ATOM      7  C5  UNL d   1      -5.221  -0.062   6.000  0.00  0.00     0.026 A 
ATOM      8  C6  UNL d   1      -4.038  -0.824   5.714  0.00  0.00    -0.082 A 
ATOM      9  C7  UNL d   1      -3.842  -2.223   5.625  0.00  0.00     0.045 A 
ENDROOT
TORSDOF 0
ENDMDL
