MODEL 1
REMARK minimizedAffinity 11.6507788
REMARK minimizedRMSD -1
REMARK  0 active torsions:
REMARK  status: ('A' for Active; 'I' for Inactive)
ROOT
ATOM      1  C   UNL d   1      -1.085  -0.328  -3.067  0.00  0.00    -0.002 A 
ATOM      2  C1  UNL d   1      -0.261  -0.925  -2.122  0.00  0.00     0.010 A 
ATOM      3  C2  UNL d   1      -0.764  -1.291  -0.872  0.00  0.00     0.041 A 
ATOM      4  C3  UNL d   1      -2.122  -1.047  -0.585  0.00  0.00    -0.075 A 
ATOM      5  S   UNL d   1      -2.956  -1.412   0.878  0.00  0.00     0.015 SA
ATOM      6  C4  UNL d   1      -4.426  -0.785   0.284  0.00  0.00     0.022 A 
ATOM      7  C5  UNL d   1      -4.300  -0.305  -0.998  0.00  0.00     0.026 A 
ATOM      8  C6  UNL d   1      -2.970  -0.448  -1.520  0.00  0.00    -0.082 A 
ATOM      9  C7  UNL d   1      -2.431  -0.088  -2.778  0.00  0.00     0.045 A 
ENDROOT
TORSDOF 0
ENDMDL
