MODEL 1
REMARK minimizedAffinity -1.34917915
REMARK minimizedRMSD -1
REMARK  0 active torsions:
REMARK  status: ('A' for Active; 'I' for Inactive)
ROOT
ATOM      1  C   UNL d   1      -0.019   0.945   0.016  0.00  0.00     0.023 A 
ATOM      2  C1  UNL d   1       1.295   0.560  -0.254  0.00  0.00     0.003 A 
ATOM      3  C2  UNL d   1       1.777  -0.661   0.219  0.00  0.00     0.048 A 
ATOM      4  C3  UNL d   1       0.940  -1.495   0.961  0.00  0.00     0.023 A 
ATOM      5  C4  UNL d   1      -0.375  -1.114   1.232  0.00  0.00     0.048 A 
ATOM      6  C5  UNL d   1      -0.853   0.109   0.758  0.00  0.00     0.003 A 
ATOM      7  I   UNL d   1       1.655  -3.314   1.666  0.00  0.00    -0.146 I 
ENDROOT
TORSDOF 0
ENDMDL
