MODEL 1
REMARK minimizedAffinity -0.060680531
REMARK minimizedRMSD -1
REMARK  0 active torsions:
REMARK  status: ('A' for Active; 'I' for Inactive)
ROOT
ATOM      1  C   UNL d   1       2.937  -0.055   0.039  0.00  0.00     0.023 A 
ATOM      2  C1  UNL d   1       1.814   0.576  -0.497  0.00  0.00     0.003 A 
ATOM      3  C2  UNL d   1       0.539   0.246  -0.036  0.00  0.00     0.048 A 
ATOM      4  C3  UNL d   1       0.392  -0.715   0.963  0.00  0.00     0.023 A 
ATOM      5  C4  UNL d   1       1.512  -1.349   1.504  0.00  0.00     0.048 A 
ATOM      6  C5  UNL d   1       2.785  -1.016   1.039  0.00  0.00     0.003 A 
ATOM      7  I   UNL d   1      -1.506  -1.208   1.652  0.00  0.00    -0.146 I 
ENDROOT
TORSDOF 0
ENDMDL
