MODEL 1
REMARK minimizedAffinity -2.88448739
REMARK minimizedRMSD -1
REMARK  0 active torsions:
REMARK  status: ('A' for Active; 'I' for Inactive)
ROOT
ATOM      1  C   UNL d   1       0.917  -1.054   1.098  0.00  0.00     0.023 A 
ATOM      2  C1  UNL d   1       1.838  -0.296   0.375  0.00  0.00     0.003 A 
ATOM      3  C2  UNL d   1       1.429   0.872  -0.271  0.00  0.00     0.048 A 
ATOM      4  C3  UNL d   1       0.098   1.278  -0.189  0.00  0.00     0.023 A 
ATOM      5  C4  UNL d   1      -0.827   0.524   0.535  0.00  0.00     0.048 A 
ATOM      6  C5  UNL d   1      -0.414  -0.644   1.179  0.00  0.00     0.003 A 
ATOM      7  I   UNL d   1      -0.513   3.017  -1.149  0.00  0.00    -0.146 I 
ENDROOT
TORSDOF 0
ENDMDL
