MODEL 1
REMARK minimizedAffinity -4.40246487
REMARK minimizedRMSD -1
REMARK  0 active torsions:
REMARK  status: ('A' for Active; 'I' for Inactive)
ROOT
ATOM      1  C   UNL d   1       1.754  -1.580   1.085  0.00  0.00     0.023 A 
ATOM      2  C1  UNL d   1       0.381  -1.427   1.275  0.00  0.00     0.003 A 
ATOM      3  C2  UNL d   1      -0.263  -0.273   0.823  0.00  0.00     0.048 A 
ATOM      4  C3  UNL d   1       0.472   0.724   0.183  0.00  0.00     0.023 A 
ATOM      5  C4  UNL d   1       1.847   0.574  -0.010  0.00  0.00     0.048 A 
ATOM      6  C5  UNL d   1       2.486  -0.581   0.444  0.00  0.00     0.003 A 
ATOM      7  I   UNL d   1      -0.484   2.442  -0.490  0.00  0.00    -0.146 I 
ENDROOT
TORSDOF 0
ENDMDL
