MODEL 1
REMARK minimizedAffinity -3.11846733
REMARK minimizedRMSD -1
REMARK  0 active torsions:
REMARK  status: ('A' for Active; 'I' for Inactive)
ROOT
ATOM      1  C   UNL d   1      -2.571   2.593  -3.053  0.00  0.00     0.023 A 
ATOM      2  C1  UNL d   1      -1.336   3.143  -2.711  0.00  0.00     0.003 A 
ATOM      3  C2  UNL d   1      -0.454   2.428  -1.898  0.00  0.00     0.048 A 
ATOM      4  C3  UNL d   1      -0.813   1.164  -1.431  0.00  0.00     0.023 A 
ATOM      5  C4  UNL d   1      -2.048   0.610  -1.772  0.00  0.00     0.048 A 
ATOM      6  C5  UNL d   1      -2.927   1.329  -2.584  0.00  0.00     0.003 A 
ATOM      7  I   UNL d   1       0.498   0.098  -0.221  0.00  0.00    -0.146 I 
ENDROOT
TORSDOF 0
ENDMDL
