MODEL 1
REMARK minimizedAffinity -4.28671312
REMARK minimizedRMSD -1
REMARK  0 active torsions:
REMARK  status: ('A' for Active; 'I' for Inactive)
ROOT
ATOM      1  C   UNL d   1       1.928  -2.501   1.034  0.00  0.00     0.023 A 
ATOM      2  C1  UNL d   1       0.541  -2.647   1.045  0.00  0.00     0.003 A 
ATOM      3  C2  UNL d   1      -0.280  -1.557   0.748  0.00  0.00     0.048 A 
ATOM      4  C3  UNL d   1       0.294  -0.324   0.440  0.00  0.00     0.023 A 
ATOM      5  C4  UNL d   1       1.681  -0.173   0.426  0.00  0.00     0.048 A 
ATOM      6  C5  UNL d   1       2.497  -1.266   0.725  0.00  0.00     0.003 A 
ATOM      7  I   UNL d   1      -0.926   1.300  -0.003  0.00  0.00    -0.146 I 
ENDROOT
TORSDOF 0
ENDMDL
