MODEL 1
REMARK minimizedAffinity -4.65585613
REMARK minimizedRMSD -1
REMARK  0 active torsions:
REMARK  status: ('A' for Active; 'I' for Inactive)
ROOT
ATOM      1  C   UNL d   1       2.095  -2.058   1.203  0.00  0.00     0.023 A 
ATOM      2  C1  UNL d   1       0.735  -2.365   1.248  0.00  0.00     0.003 A 
ATOM      3  C2  UNL d   1      -0.194  -1.514   0.647  0.00  0.00     0.048 A 
ATOM      4  C3  UNL d   1       0.243  -0.358   0.001  0.00  0.00     0.023 A 
ATOM      5  C4  UNL d   1       1.603  -0.048  -0.048  0.00  0.00     0.048 A 
ATOM      6  C5  UNL d   1       2.529  -0.901   0.555  0.00  0.00     0.003 A 
ATOM      7  I   UNL d   1      -1.138   0.911  -0.895  0.00  0.00    -0.146 I 
ENDROOT
TORSDOF 0
ENDMDL
