MODEL 1
REMARK minimizedAffinity -4.32873201
REMARK minimizedRMSD -1
REMARK  0 active torsions:
REMARK  status: ('A' for Active; 'I' for Inactive)
ROOT
ATOM      1  C   UNL d   1       1.878  -2.719   0.801  0.00  0.00     0.023 A 
ATOM      2  C1  UNL d   1       2.504  -1.528   0.433  0.00  0.00     0.003 A 
ATOM      3  C2  UNL d   1       1.738  -0.413   0.087  0.00  0.00     0.048 A 
ATOM      4  C3  UNL d   1       0.346  -0.496   0.112  0.00  0.00     0.023 A 
ATOM      5  C4  UNL d   1      -0.285  -1.686   0.479  0.00  0.00     0.048 A 
ATOM      6  C5  UNL d   1       0.486  -2.798   0.824  0.00  0.00     0.003 A 
ATOM      7  I   UNL d   1      -0.797   1.162  -0.403  0.00  0.00    -0.146 I 
ENDROOT
TORSDOF 0
ENDMDL
