MODEL 1
REMARK minimizedAffinity -1.01850569
REMARK minimizedRMSD -1
REMARK  0 active torsions:
REMARK  status: ('A' for Active; 'I' for Inactive)
ROOT
ATOM      1  C   UNL d   1      -0.138  -0.115   0.547  0.00  0.00     0.023 A 
ATOM      2  C1  UNL d   1      -1.480   0.263   0.591  0.00  0.00     0.003 A 
ATOM      3  C2  UNL d   1      -2.041   0.974  -0.472  0.00  0.00     0.048 A 
ATOM      4  C3  UNL d   1      -1.255   1.303  -1.575  0.00  0.00     0.023 A 
ATOM      5  C4  UNL d   1       0.088   0.926  -1.624  0.00  0.00     0.048 A 
ATOM      6  C5  UNL d   1       0.645   0.216  -0.559  0.00  0.00     0.003 A 
ATOM      7  I   UNL d   1      -2.088   2.362  -3.158  0.00  0.00    -0.146 I 
ENDROOT
TORSDOF 0
ENDMDL
