MODEL 1
REMARK minimizedAffinity 3.09331512
REMARK minimizedRMSD -1
REMARK  0 active torsions:
REMARK  status: ('A' for Active; 'I' for Inactive)
ROOT
ATOM      1  C   UNL d   1      -2.252   2.618  -3.376  0.00  0.00     0.023 A 
ATOM      2  C1  UNL d   1      -3.017   1.506  -3.025  0.00  0.00     0.003 A 
ATOM      3  C2  UNL d   1      -2.654   0.726  -1.925  0.00  0.00     0.048 A 
ATOM      4  C3  UNL d   1      -1.525   1.064  -1.180  0.00  0.00     0.023 A 
ATOM      5  C4  UNL d   1      -0.757   2.177  -1.527  0.00  0.00     0.048 A 
ATOM      6  C5  UNL d   1      -1.123   2.953  -2.628  0.00  0.00     0.003 A 
ATOM      7  I   UNL d   1      -0.983  -0.095   0.457  0.00  0.00    -0.146 I 
ENDROOT
TORSDOF 0
ENDMDL
