MODEL 1
REMARK minimizedAffinity -4.351964
REMARK minimizedRMSD -1
REMARK  0 active torsions:
REMARK  status: ('A' for Active; 'I' for Inactive)
ROOT
ATOM      1  C   UNL d   1       1.556  -2.279   1.962  0.00  0.00     0.023 A 
ATOM      2  C1  UNL d   1       2.218  -1.583   0.951  0.00  0.00     0.003 A 
ATOM      3  C2  UNL d   1       1.555  -0.579   0.243  0.00  0.00     0.048 A 
ATOM      4  C3  UNL d   1       0.229  -0.275   0.552  0.00  0.00     0.023 A 
ATOM      5  C4  UNL d   1      -0.437  -0.968   1.564  0.00  0.00     0.048 A 
ATOM      6  C5  UNL d   1       0.230  -1.972   2.269  0.00  0.00     0.003 A 
ATOM      7  I   UNL d   1      -0.760   1.220  -0.500  0.00  0.00    -0.146 I 
ENDROOT
TORSDOF 0
ENDMDL
