MODEL 1
REMARK minimizedAffinity -3.89376807
REMARK minimizedRMSD -1
REMARK  0 active torsions:
REMARK  status: ('A' for Active; 'I' for Inactive)
ROOT
ATOM      1  C   UNL d   1       2.259  -1.859   0.889  0.00  0.00     0.023 A 
ATOM      2  C1  UNL d   1       2.696  -0.777   0.125  0.00  0.00     0.003 A 
ATOM      3  C2  UNL d   1       1.787   0.195  -0.296  0.00  0.00     0.048 A 
ATOM      4  C3  UNL d   1       0.441   0.081   0.052  0.00  0.00     0.023 A 
ATOM      5  C4  UNL d   1      -0.001  -1.000   0.818  0.00  0.00     0.048 A 
ATOM      6  C5  UNL d   1       0.912  -1.970   1.235  0.00  0.00     0.003 A 
ATOM      7  I   UNL d   1      -0.914   1.527  -0.572  0.00  0.00    -0.146 I 
ENDROOT
TORSDOF 0
ENDMDL
