MODEL 1
REMARK minimizedAffinity -1.84272277
REMARK minimizedRMSD -1
REMARK  0 active torsions:
REMARK  status: ('A' for Active; 'I' for Inactive)
ROOT
ATOM      1  C   UNL d   1       1.856  -1.610   0.809  0.00  0.00     0.023 A 
ATOM      2  C1  UNL d   1       2.340  -0.447   0.209  0.00  0.00     0.003 A 
ATOM      3  C2  UNL d   1       1.452   0.551  -0.197  0.00  0.00     0.048 A 
ATOM      4  C3  UNL d   1       0.082   0.382   0.002  0.00  0.00     0.023 A 
ATOM      5  C4  UNL d   1      -0.406  -0.780   0.603  0.00  0.00     0.048 A 
ATOM      6  C5  UNL d   1       0.485  -1.776   1.006  0.00  0.00     0.003 A 
ATOM      7  I   UNL d   1      -1.240   1.867  -0.601  0.00  0.00    -0.146 I 
ENDROOT
TORSDOF 0
ENDMDL
