MODEL 1
REMARK minimizedAffinity -4.5019927
REMARK minimizedRMSD -1
REMARK  0 active torsions:
REMARK  status: ('A' for Active; 'I' for Inactive)
ROOT
ATOM      1  C   UNL d   1       0.488  -2.546   2.412  0.00  0.00     0.023 A 
ATOM      2  C1  UNL d   1       1.299  -2.404   1.286  0.00  0.00     0.003 A 
ATOM      3  C2  UNL d   1       0.904  -1.564   0.242  0.00  0.00     0.048 A 
ATOM      4  C3  UNL d   1      -0.302  -0.870   0.331  0.00  0.00     0.023 A 
ATOM      5  C4  UNL d   1      -1.116  -1.009   1.456  0.00  0.00     0.048 A 
ATOM      6  C5  UNL d   1      -0.718  -1.850   2.497  0.00  0.00     0.003 A 
ATOM      7  I   UNL d   1      -0.891   0.380  -1.221  0.00  0.00    -0.146 I 
ENDROOT
TORSDOF 0
ENDMDL
