MODEL 1
REMARK minimizedAffinity -3.14802456
REMARK minimizedRMSD -1
REMARK  0 active torsions:
REMARK  status: ('A' for Active; 'I' for Inactive)
ROOT
ATOM      1  C   UNL d   1       2.480  -1.484   0.814  0.00  0.00     0.023 A 
ATOM      2  C1  UNL d   1       2.674  -0.418  -0.065  0.00  0.00     0.003 A 
ATOM      3  C2  UNL d   1       1.578   0.292  -0.557  0.00  0.00     0.048 A 
ATOM      4  C3  UNL d   1       0.289  -0.068  -0.166  0.00  0.00     0.023 A 
ATOM      5  C4  UNL d   1       0.089  -1.133   0.714  0.00  0.00     0.048 A 
ATOM      6  C5  UNL d   1       1.188  -1.841   1.203  0.00  0.00     0.003 A 
ATOM      7  I   UNL d   1      -1.345   0.988  -0.897  0.00  0.00    -0.146 I 
ENDROOT
TORSDOF 0
ENDMDL
