MODEL 1
REMARK minimizedAffinity -4.12310362
REMARK minimizedRMSD -1
REMARK  0 active torsions:
REMARK  status: ('A' for Active; 'I' for Inactive)
ROOT
ATOM      1  C   UNL d   1       0.069   5.379  -3.807  0.00  0.00     0.023 A 
ATOM      2  C1  UNL d   1      -0.236   4.985  -2.504  0.00  0.00     0.003 A 
ATOM      3  C2  UNL d   1      -1.018   3.850  -2.281  0.00  0.00     0.048 A 
ATOM      4  C3  UNL d   1      -1.491   3.113  -3.366  0.00  0.00     0.023 A 
ATOM      5  C4  UNL d   1      -1.188   3.503  -4.671  0.00  0.00     0.048 A 
ATOM      6  C5  UNL d   1      -0.407   4.639  -4.889  0.00  0.00     0.003 A 
ATOM      7  I   UNL d   1      -2.656   1.423  -3.037  0.00  0.00    -0.146 I 
ENDROOT
TORSDOF 0
ENDMDL
