MODEL 1
REMARK minimizedAffinity 2.38728404
REMARK minimizedRMSD -1
REMARK  1 active torsions:
REMARK  status: ('A' for Active; 'I' for Inactive)
REMARK    1  A    between atoms: C1_2  and  C2_3 
ROOT
ATOM      1  C2  UNL d   1      -0.119  -1.211   0.781  0.00  0.00    -0.076 A 
ATOM      2  C3  UNL d   1       0.822  -1.006  -0.243  0.00  0.00     0.004 A 
ATOM      3  C4  UNL d   1       1.892  -1.882  -0.420  0.00  0.00    -0.003 A 
ATOM      4  C5  UNL d   1       2.038  -2.977   0.424  0.00  0.00     0.000 A 
ATOM      5  C6  UNL d   1       1.105  -3.206   1.434  0.00  0.00     0.000 A 
ATOM      6  C7  UNL d   1       0.011  -2.342   1.616  0.00  0.00    -0.073 A 
ATOM      7  C8  UNL d   1      -0.962  -2.633   2.725  0.00  0.00     0.078 C 
ENDROOT
BRANCH   1   8
ATOM      8  C1  UNL d   1      -1.243  -0.213   0.942  0.00  0.00     0.053 C 
ATOM      9  C   UNL d   1      -2.280  -0.319  -0.166  0.00  0.00     0.018 C 
ENDBRANCH   1   8
TORSDOF 1
ENDMDL
