MODEL 1
REMARK minimizedAffinity 5.54767513
REMARK minimizedRMSD -1
REMARK  1 active torsions:
REMARK  status: ('A' for Active; 'I' for Inactive)
REMARK    1  A    between atoms: C1_2  and  C2_3 
ROOT
ATOM      1  C2  UNL d   1       0.924  -2.051   0.672  0.00  0.00    -0.076 A 
ATOM      2  C3  UNL d   1       0.471  -3.272   1.200  0.00  0.00     0.004 A 
ATOM      3  C4  UNL d   1       1.174  -4.455   0.979  0.00  0.00    -0.003 A 
ATOM      4  C5  UNL d   1       2.343  -4.436   0.225  0.00  0.00     0.000 A 
ATOM      5  C6  UNL d   1       2.817  -3.231  -0.292  0.00  0.00     0.000 A 
ATOM      6  C7  UNL d   1       2.128  -2.027  -0.064  0.00  0.00    -0.073 A 
ATOM      7  C8  UNL d   1       2.681  -0.757  -0.651  0.00  0.00     0.078 C 
ENDROOT
BRANCH   1   8
ATOM      8  C1  UNL d   1       0.105  -0.805   0.922  0.00  0.00     0.053 C 
ATOM      9  C   UNL d   1       0.010  -0.457   2.399  0.00  0.00     0.018 C 
ENDBRANCH   1   8
TORSDOF 1
ENDMDL
