MODEL 1
REMARK minimizedAffinity 8.90540409
REMARK minimizedRMSD -1
REMARK  1 active torsions:
REMARK  status: ('A' for Active; 'I' for Inactive)
REMARK    1  A    between atoms: C1_2  and  C2_3 
ROOT
ATOM      1  C2  UNL d   1       1.358  -1.805   0.375  0.00  0.00    -0.076 A 
ATOM      2  C3  UNL d   1       0.129  -2.005   1.027  0.00  0.00     0.004 A 
ATOM      3  C4  UNL d   1      -0.399  -1.034   1.875  0.00  0.00    -0.003 A 
ATOM      4  C5  UNL d   1       0.293   0.154   2.085  0.00  0.00     0.000 A 
ATOM      5  C6  UNL d   1       1.506   0.376   1.433  0.00  0.00     0.000 A 
ATOM      6  C7  UNL d   1       2.044  -0.586   0.561  0.00  0.00    -0.073 A 
ATOM      7  C8  UNL d   1       3.358  -0.296  -0.111  0.00  0.00     0.078 C 
ENDROOT
BRANCH   1   8
ATOM      8  C1  UNL d   1       1.894  -2.906  -0.513  0.00  0.00     0.053 C 
ATOM      9  C   UNL d   1       2.673  -3.955   0.266  0.00  0.00     0.018 C 
ENDBRANCH   1   8
TORSDOF 1
ENDMDL
