MODEL 1
REMARK minimizedAffinity 1.9043349
REMARK minimizedRMSD -1
REMARK  1 active torsions:
REMARK  status: ('A' for Active; 'I' for Inactive)
REMARK    1  A    between atoms: C1_2  and  C2_3 
ROOT
ATOM      1  C2  UNL d   1      -0.007  -1.256   0.742  0.00  0.00    -0.076 A 
ATOM      2  C3  UNL d   1       0.920  -1.093  -0.302  0.00  0.00     0.004 A 
ATOM      3  C4  UNL d   1       1.938  -2.022  -0.510  0.00  0.00    -0.003 A 
ATOM      4  C5  UNL d   1       2.045  -3.130   0.323  0.00  0.00     0.000 A 
ATOM      5  C6  UNL d   1       1.124  -3.317   1.353  0.00  0.00     0.000 A 
ATOM      6  C7  UNL d   1       0.082  -2.399   1.566  0.00  0.00    -0.073 A 
ATOM      7  C8  UNL d   1      -0.879  -2.647   2.696  0.00  0.00     0.078 C 
ENDROOT
BRANCH   1   8
ATOM      8  C1  UNL d   1      -1.073  -0.202   0.936  0.00  0.00     0.053 C 
ATOM      9  C   UNL d   1      -2.052  -0.142  -0.226  0.00  0.00     0.018 C 
ENDBRANCH   1   8
TORSDOF 1
ENDMDL
