MODEL 1
REMARK minimizedAffinity 3.13146544
REMARK minimizedRMSD -1
REMARK  1 active torsions:
REMARK  status: ('A' for Active; 'I' for Inactive)
REMARK    1  A    between atoms: C1_2  and  C2_3 
ROOT
ATOM      1  C2  UNL d   1       0.965  -2.228   0.933  0.00  0.00    -0.076 A 
ATOM      2  C3  UNL d   1       1.443  -0.908   0.874  0.00  0.00     0.004 A 
ATOM      3  C4  UNL d   1       0.667   0.158   1.327  0.00  0.00    -0.003 A 
ATOM      4  C5  UNL d   1      -0.601  -0.081   1.847  0.00  0.00     0.000 A 
ATOM      5  C6  UNL d   1      -1.084  -1.386   1.930  0.00  0.00     0.000 A 
ATOM      6  C7  UNL d   1      -0.308  -2.473   1.492  0.00  0.00    -0.073 A 
ATOM      7  C8  UNL d   1      -0.881  -3.859   1.599  0.00  0.00     0.078 C 
ENDROOT
BRANCH   1   8
ATOM      8  C1  UNL d   1       1.841  -3.340   0.402  0.00  0.00     0.053 C 
ATOM      9  C   UNL d   1       2.878  -3.800   1.415  0.00  0.00     0.018 C 
ENDBRANCH   1   8
TORSDOF 1
ENDMDL
