MODEL 1
REMARK minimizedAffinity -1.36776638
REMARK minimizedRMSD -1
REMARK  1 active torsions:
REMARK  status: ('A' for Active; 'I' for Inactive)
REMARK    1  A    between atoms: C1_2  and  C2_3 
ROOT
ATOM      1  C2  UNL d   1       1.322  -2.194   0.413  0.00  0.00    -0.076 A 
ATOM      2  C3  UNL d   1       0.841  -3.392   0.968  0.00  0.00     0.004 A 
ATOM      3  C4  UNL d   1       1.576  -4.573   0.873  0.00  0.00    -0.003 A 
ATOM      4  C5  UNL d   1       2.805  -4.573   0.224  0.00  0.00     0.000 A 
ATOM      5  C6  UNL d   1       3.306  -3.390  -0.317  0.00  0.00     0.000 A 
ATOM      6  C7  UNL d   1       2.585  -2.187  -0.216  0.00  0.00    -0.073 A 
ATOM      7  C8  UNL d   1       3.170  -0.942  -0.823  0.00  0.00     0.078 C 
ENDROOT
BRANCH   1   8
ATOM      8  C1  UNL d   1       0.468  -0.951   0.523  0.00  0.00     0.053 C 
ATOM      9  C   UNL d   1      -0.353  -0.919   1.802  0.00  0.00     0.018 C 
ENDBRANCH   1   8
TORSDOF 1
ENDMDL
