MODEL 1
REMARK minimizedAffinity -2.12138295
REMARK minimizedRMSD -1
REMARK  0 active torsions:
REMARK  status: ('A' for Active; 'I' for Inactive)
ROOT
ATOM      1  N1  IND d   1       3.769  -4.872   4.740  0.00  0.00    -0.196 N 
ATOM      2  C2  IND d   1       4.129  -4.476   5.998  0.00  0.00     0.054 A 
ATOM      3  C3  IND d   1       5.038  -3.478   5.935  0.00  0.00    -0.031 A 
ATOM      4  C4  IND d   1       6.000  -2.269   3.875  0.00  0.00     0.051 A 
ATOM      5  C5  IND d   1       6.000  -2.303   2.509  0.00  0.00    -0.031 A 
ATOM      6  C6  IND d   1       5.239  -3.211   1.802  0.00  0.00     0.015 A 
ATOM      7  C7  IND d   1       4.437  -4.117   2.438  0.00  0.00    -0.016 A 
ATOM      8  C8  IND d   1       4.440  -4.090   3.825  0.00  0.00    -0.047 A 
ATOM      9  C9  IND d   1       5.243  -3.199   4.549  0.00  0.00    -0.096 A 
ATOM     10  HN1 IND d   1       3.217  -5.504   4.551  0.00  0.00     0.298 HD
ENDROOT
TORSDOF 0
ENDMDL
