MODEL 1
REMARK minimizedAffinity -3.6020112
REMARK minimizedRMSD -1
REMARK  0 active torsions:
REMARK  status: ('A' for Active; 'I' for Inactive)
ROOT
ATOM      1  N1  IND d   1       4.851  -5.199   5.091  0.00  0.00    -0.196 N 
ATOM      2  C2  IND d   1       4.627  -4.202   6.000  0.00  0.00     0.054 A 
ATOM      3  C3  IND d   1       4.898  -2.996   5.452  0.00  0.00    -0.031 A 
ATOM      4  C4  IND d   1       5.626  -2.416   3.052  0.00  0.00     0.051 A 
ATOM      5  C5  IND d   1       5.995  -2.993   1.869  0.00  0.00    -0.031 A 
ATOM      6  C6  IND d   1       6.000  -4.362   1.696  0.00  0.00     0.015 A 
ATOM      7  C7  IND d   1       5.622  -5.208   2.699  0.00  0.00    -0.016 A 
ATOM      8  C8  IND d   1       5.253  -4.627   3.904  0.00  0.00    -0.047 A 
ATOM      9  C9  IND d   1       5.287  -3.240   4.100  0.00  0.00    -0.096 A 
ATOM     10  HN1 IND d   1       4.757  -6.041   5.236  0.00  0.00     0.298 HD
ENDROOT
TORSDOF 0
ENDMDL
