MODEL 1
REMARK minimizedAffinity 3.58575892
REMARK minimizedRMSD -1
REMARK  0 active torsions:
REMARK  status: ('A' for Active; 'I' for Inactive)
ROOT
ATOM      1  N1  IND d   1       5.753  -4.721   4.509  0.00  0.00    -0.196 N 
ATOM      2  C2  IND d   1       5.889  -5.997   4.036  0.00  0.00     0.054 A 
ATOM      3  C3  IND d   1       5.968  -5.992   2.686  0.00  0.00    -0.031 A 
ATOM      4  C4  IND d   1       5.999  -3.999   1.057  0.00  0.00     0.051 A 
ATOM      5  C5  IND d   1       5.865  -2.640   1.015  0.00  0.00    -0.031 A 
ATOM      6  C6  IND d   1       5.685  -1.889   2.159  0.00  0.00     0.015 A 
ATOM      7  C7  IND d   1       5.645  -2.472   3.394  0.00  0.00    -0.016 A 
ATOM      8  C8  IND d   1       5.774  -3.853   3.440  0.00  0.00    -0.047 A 
ATOM      9  C9  IND d   1       5.914  -4.624   2.279  0.00  0.00    -0.096 A 
ATOM     10  HN1 IND d   1       5.669  -4.499   5.335  0.00  0.00     0.298 HD
ENDROOT
TORSDOF 0
ENDMDL
