MODEL 1
REMARK minimizedAffinity -3.59395266
REMARK minimizedRMSD -1
REMARK  0 active torsions:
REMARK  status: ('A' for Active; 'I' for Inactive)
ROOT
ATOM      1  N1  IND d   1       6.000  -5.135   2.455  0.00  0.00    -0.196 N 
ATOM      2  C2  IND d   1       5.999  -4.187   1.470  0.00  0.00     0.054 A 
ATOM      3  C3  IND d   1       5.917  -2.950   2.009  0.00  0.00    -0.031 A 
ATOM      4  C4  IND d   1       5.875  -2.243   4.484  0.00  0.00     0.051 A 
ATOM      5  C5  IND d   1       5.820  -2.755   5.750  0.00  0.00    -0.031 A 
ATOM      6  C6  IND d   1       5.826  -4.115   5.987  0.00  0.00     0.015 A 
ATOM      7  C7  IND d   1       5.897  -5.016   4.963  0.00  0.00    -0.016 A 
ATOM      8  C8  IND d   1       5.946  -4.499   3.676  0.00  0.00    -0.047 A 
ATOM      9  C9  IND d   1       5.898  -3.122   3.427  0.00  0.00    -0.096 A 
ATOM     10  HN1 IND d   1       6.029  -5.986   2.332  0.00  0.00     0.298 HD
ENDROOT
TORSDOF 0
ENDMDL
