MODEL 1
REMARK minimizedAffinity -2.61470509
REMARK minimizedRMSD -1
REMARK  0 active torsions:
REMARK  status: ('A' for Active; 'I' for Inactive)
ROOT
ATOM      1  N1  IND d   1       5.713  -5.997   4.727  0.00  0.00    -0.196 N 
ATOM      2  C2  IND d   1       5.646  -5.495   5.997  0.00  0.00     0.054 A 
ATOM      3  C3  IND d   1       5.713  -4.145   5.972  0.00  0.00    -0.031 A 
ATOM      4  C4  IND d   1       5.832  -2.549   3.956  0.00  0.00     0.051 A 
ATOM      5  C5  IND d   1       5.952  -2.541   2.594  0.00  0.00    -0.031 A 
ATOM      6  C6  IND d   1       5.997  -3.708   1.859  0.00  0.00     0.015 A 
ATOM      7  C7  IND d   1       5.912  -4.932   2.460  0.00  0.00    -0.016 A 
ATOM      8  C8  IND d   1       5.797  -4.944   3.843  0.00  0.00    -0.047 A 
ATOM      9  C9  IND d   1       5.793  -3.764   4.598  0.00  0.00    -0.096 A 
ATOM     10  HN1 IND d   1       5.705  -6.831   4.516  0.00  0.00     0.298 HD
ENDROOT
TORSDOF 0
ENDMDL
