MODEL 1
REMARK minimizedAffinity -2.79213858
REMARK minimizedRMSD -1
REMARK  0 active torsions:
REMARK  status: ('A' for Active; 'I' for Inactive)
ROOT
ATOM      1  N1  IND d   1       5.999  -2.548   4.892  0.00  0.00    -0.196 N 
ATOM      2  C2  IND d   1       5.999  -3.353   5.997  0.00  0.00     0.054 A 
ATOM      3  C3  IND d   1       4.919  -4.166   5.986  0.00  0.00    -0.031 A 
ATOM      4  C4  IND d   1       3.078  -4.417   4.205  0.00  0.00     0.051 A 
ATOM      5  C5  IND d   1       2.631  -3.872   3.034  0.00  0.00    -0.031 A 
ATOM      6  C6  IND d   1       3.299  -2.839   2.409  0.00  0.00     0.015 A 
ATOM      7  C7  IND d   1       4.450  -2.318   2.927  0.00  0.00    -0.016 A 
ATOM      8  C8  IND d   1       4.903  -2.864   4.120  0.00  0.00    -0.047 A 
ATOM      9  C9  IND d   1       4.206  -3.883   4.781  0.00  0.00    -0.096 A 
ATOM     10  HN1 IND d   1       6.586  -1.946   4.710  0.00  0.00     0.298 HD
ENDROOT
TORSDOF 0
ENDMDL
