MODEL 1
REMARK minimizedAffinity -0.880859971
REMARK minimizedRMSD -1
REMARK  0 active torsions:
REMARK  status: ('A' for Active; 'I' for Inactive)
ROOT
ATOM      1  N1  IND d   1       5.461  -4.741   4.665  0.00  0.00    -0.196 N 
ATOM      2  C2  IND d   1       5.771  -5.827   3.895  0.00  0.00     0.054 A 
ATOM      3  C3  IND d   1       5.992  -5.450   2.616  0.00  0.00    -0.031 A 
ATOM      4  C4  IND d   1       6.000  -3.091   1.585  0.00  0.00     0.051 A 
ATOM      5  C5  IND d   1       5.738  -1.783   1.885  0.00  0.00    -0.031 A 
ATOM      6  C6  IND d   1       5.365  -1.387   3.153  0.00  0.00     0.015 A 
ATOM      7  C7  IND d   1       5.251  -2.285   4.176  0.00  0.00    -0.016 A 
ATOM      8  C8  IND d   1       5.510  -3.615   3.874  0.00  0.00    -0.047 A 
ATOM      9  C9  IND d   1       5.847  -4.029   2.579  0.00  0.00    -0.096 A 
ATOM     10  HN1 IND d   1       5.268  -4.758   5.503  0.00  0.00     0.298 HD
ENDROOT
TORSDOF 0
ENDMDL
