MODEL 1
REMARK minimizedAffinity -4.05733013
REMARK minimizedRMSD -1
REMARK  0 active torsions:
REMARK  status: ('A' for Active; 'I' for Inactive)
ROOT
ATOM      1  N1  IND d   1       5.454  -4.849   4.931  0.00  0.00    -0.196 N 
ATOM      2  C2  IND d   1       5.260  -3.943   5.935  0.00  0.00     0.054 A 
ATOM      3  C3  IND d   1       5.319  -2.683   5.450  0.00  0.00    -0.031 A 
ATOM      4  C4  IND d   1       5.622  -1.877   3.023  0.00  0.00     0.051 A 
ATOM      5  C5  IND d   1       5.875  -2.334   1.760  0.00  0.00    -0.031 A 
ATOM      6  C6  IND d   1       6.000  -3.680   1.483  0.00  0.00     0.015 A 
ATOM      7  C7  IND d   1       5.865  -4.624   2.462  0.00  0.00    -0.016 A 
ATOM      8  C8  IND d   1       5.616  -4.164   3.747  0.00  0.00    -0.047 A 
ATOM      9  C9  IND d   1       5.530  -2.797   4.041  0.00  0.00    -0.096 A 
ATOM     10  HN1 IND d   1       5.473  -5.704   5.023  0.00  0.00     0.298 HD
ENDROOT
TORSDOF 0
ENDMDL
