MODEL 1
REMARK minimizedAffinity -2.85584164
REMARK minimizedRMSD -1
REMARK  0 active torsions:
REMARK  status: ('A' for Active; 'I' for Inactive)
ROOT
ATOM      1  N1  IND d   1       5.999  -5.256   2.334  0.00  0.00    -0.196 N 
ATOM      2  C2  IND d   1       5.986  -4.418   1.255  0.00  0.00     0.054 A 
ATOM      3  C3  IND d   1       5.946  -3.129   1.660  0.00  0.00    -0.031 A 
ATOM      4  C4  IND d   1       6.000  -2.163   4.046  0.00  0.00     0.051 A 
ATOM      5  C5  IND d   1       5.976  -2.536   5.360  0.00  0.00    -0.031 A 
ATOM      6  C6  IND d   1       5.961  -3.863   5.741  0.00  0.00     0.015 A 
ATOM      7  C7  IND d   1       5.981  -4.869   4.817  0.00  0.00    -0.016 A 
ATOM      8  C8  IND d   1       5.998  -4.493   3.481  0.00  0.00    -0.047 A 
ATOM      9  C9  IND d   1       5.970  -3.149   3.088  0.00  0.00    -0.096 A 
ATOM     10  HN1 IND d   1       6.007  -6.115   2.302  0.00  0.00     0.298 HD
ENDROOT
TORSDOF 0
ENDMDL
