MODEL 1
REMARK minimizedAffinity -4.22231483
REMARK minimizedRMSD -1
REMARK  0 active torsions:
REMARK  status: ('A' for Active; 'I' for Inactive)
ROOT
ATOM      1  N1  IND d   1       5.925  -1.815   4.710  0.00  0.00    -0.196 N 
ATOM      2  C2  IND d   1       5.949  -2.333   5.975  0.00  0.00     0.054 A 
ATOM      3  C3  IND d   1       5.944  -3.684   5.931  0.00  0.00    -0.031 A 
ATOM      4  C4  IND d   1       6.000  -5.254   3.892  0.00  0.00     0.051 A 
ATOM      5  C5  IND d   1       5.950  -5.247   2.526  0.00  0.00    -0.031 A 
ATOM      6  C6  IND d   1       5.890  -4.073   1.804  0.00  0.00     0.015 A 
ATOM      7  C7  IND d   1       5.890  -2.855   2.423  0.00  0.00    -0.016 A 
ATOM      8  C8  IND d   1       5.934  -2.858   3.810  0.00  0.00    -0.047 A 
ATOM      9  C9  IND d   1       5.951  -4.047   4.550  0.00  0.00    -0.096 A 
ATOM     10  HN1 IND d   1       5.907  -0.979   4.511  0.00  0.00     0.298 HD
ENDROOT
TORSDOF 0
ENDMDL
