MODEL 1
REMARK minimizedAffinity -3.20891023
REMARK minimizedRMSD -1
REMARK  0 active torsions:
REMARK  status: ('A' for Active; 'I' for Inactive)
ROOT
ATOM      1  N1  IND d   1       3.960  -3.632   5.999  0.00  0.00    -0.196 N 
ATOM      2  C2  IND d   1       2.650  -4.000   5.875  0.00  0.00     0.054 A 
ATOM      3  C3  IND d   1       2.301  -4.065   4.570  0.00  0.00    -0.031 A 
ATOM      4  C4  IND d   1       3.748  -3.708   2.471  0.00  0.00     0.051 A 
ATOM      5  C5  IND d   1       4.998  -3.320   2.078  0.00  0.00    -0.031 A 
ATOM      6  C6  IND d   1       5.987  -3.014   2.990  0.00  0.00     0.015 A 
ATOM      7  C7  IND d   1       5.765  -3.094   4.335  0.00  0.00    -0.016 A 
ATOM      8  C8  IND d   1       4.495  -3.480   4.738  0.00  0.00    -0.047 A 
ATOM      9  C9  IND d   1       3.474  -3.752   3.818  0.00  0.00    -0.096 A 
ATOM     10  HN1 IND d   1       4.381  -3.515   6.740  0.00  0.00     0.298 HD
ENDROOT
TORSDOF 0
ENDMDL
