MODEL 1
REMARK minimizedAffinity -4.16347265
REMARK minimizedRMSD -1
REMARK  0 active torsions:
REMARK  status: ('A' for Active; 'I' for Inactive)
ROOT
ATOM      1  N1  IND d   1       5.977  -6.000   4.164  0.00  0.00    -0.196 N 
ATOM      2  C2  IND d   1       5.965  -5.847   5.522  0.00  0.00     0.054 A 
ATOM      3  C3  IND d   1       5.975  -4.535   5.849  0.00  0.00    -0.031 A 
ATOM      4  C4  IND d   1       5.910  -2.468   4.315  0.00  0.00     0.051 A 
ATOM      5  C5  IND d   1       5.949  -2.102   2.999  0.00  0.00    -0.031 A 
ATOM      6  C6  IND d   1       5.998  -3.035   1.984  0.00  0.00     0.015 A 
ATOM      7  C7  IND d   1       5.998  -4.375   2.247  0.00  0.00    -0.016 A 
ATOM      8  C8  IND d   1       5.965  -4.751   3.583  0.00  0.00    -0.047 A 
ATOM      9  C9  IND d   1       5.958  -3.809   4.619  0.00  0.00    -0.096 A 
ATOM     10  HN1 IND d   1       5.990  -6.750   3.743  0.00  0.00     0.298 HD
ENDROOT
TORSDOF 0
ENDMDL
