MODEL 1
REMARK minimizedAffinity -3.3363409
REMARK minimizedRMSD -1
REMARK  0 active torsions:
REMARK  status: ('A' for Active; 'I' for Inactive)
ROOT
ATOM      1  N1  IND d   1       5.976  -4.421   5.861  0.00  0.00    -0.196 N 
ATOM      2  C2  IND d   1       5.944  -5.734   5.485  0.00  0.00     0.054 A 
ATOM      3  C3  IND d   1       5.909  -5.837   4.137  0.00  0.00    -0.031 A 
ATOM      4  C4  IND d   1       5.999  -3.984   2.353  0.00  0.00     0.051 A 
ATOM      5  C5  IND d   1       5.998  -2.625   2.210  0.00  0.00    -0.031 A 
ATOM      6  C6  IND d   1       5.991  -1.778   3.299  0.00  0.00     0.015 A 
ATOM      7  C7  IND d   1       5.998  -2.260   4.577  0.00  0.00    -0.016 A 
ATOM      8  C8  IND d   1       5.992  -3.640   4.726  0.00  0.00    -0.047 A 
ATOM      9  C9  IND d   1       5.956  -4.505   3.624  0.00  0.00    -0.096 A 
ATOM     10  HN1 IND d   1       5.985  -4.130   6.670  0.00  0.00     0.298 HD
ENDROOT
TORSDOF 0
ENDMDL
