MODEL 1
REMARK minimizedAffinity -2.96652555
REMARK minimizedRMSD -1
REMARK  0 active torsions:
REMARK  status: ('A' for Active; 'I' for Inactive)
ROOT
ATOM      1  N1  IND d   1       5.995  -5.280   2.418  0.00  0.00    -0.196 N 
ATOM      2  C2  IND d   1       5.999  -4.290   1.475  0.00  0.00     0.054 A 
ATOM      3  C3  IND d   1       5.963  -3.076   2.068  0.00  0.00    -0.031 A 
ATOM      4  C4  IND d   1       5.996  -2.477   4.572  0.00  0.00     0.051 A 
ATOM      5  C5  IND d   1       5.955  -3.042   5.815  0.00  0.00    -0.031 A 
ATOM      6  C6  IND d   1       5.928  -4.410   5.994  0.00  0.00     0.015 A 
ATOM      7  C7  IND d   1       5.951  -5.268   4.931  0.00  0.00    -0.016 A 
ATOM      8  C8  IND d   1       5.986  -4.697   3.666  0.00  0.00    -0.047 A 
ATOM      9  C9  IND d   1       5.971  -3.309   3.478  0.00  0.00    -0.096 A 
ATOM     10  HN1 IND d   1       5.997  -6.125   2.258  0.00  0.00     0.298 HD
ENDROOT
TORSDOF 0
ENDMDL
