MODEL 1
REMARK minimizedAffinity -4.34905195
REMARK minimizedRMSD -1
REMARK  0 active torsions:
REMARK  status: ('A' for Active; 'I' for Inactive)
ROOT
ATOM      1  N1  IND d   1       3.783  -5.329   4.905  0.00  0.00    -0.196 N 
ATOM      2  C2  IND d   1       3.319  -4.646   5.995  0.00  0.00     0.054 A 
ATOM      3  C3  IND d   1       3.803  -3.384   6.000  0.00  0.00    -0.031 A 
ATOM      4  C4  IND d   1       5.289  -2.195   4.266  0.00  0.00     0.051 A 
ATOM      5  C5  IND d   1       5.997  -2.420   3.118  0.00  0.00    -0.031 A 
ATOM      6  C6  IND d   1       6.000  -3.650   2.493  0.00  0.00     0.015 A 
ATOM      7  C7  IND d   1       5.284  -4.703   2.989  0.00  0.00    -0.016 A 
ATOM      8  C8  IND d   1       4.570  -4.480   4.158  0.00  0.00    -0.047 A 
ATOM      9  C9  IND d   1       4.597  -3.246   4.820  0.00  0.00    -0.096 A 
ATOM     10  HN1 IND d   1       3.612  -6.150   4.718  0.00  0.00     0.298 HD
ENDROOT
TORSDOF 0
ENDMDL
