MODEL 1
REMARK minimizedAffinity -1.69301844
REMARK minimizedRMSD -1
REMARK  0 active torsions:
REMARK  status: ('A' for Active; 'I' for Inactive)
ROOT
ATOM      1  N1  IND d   1       6.000  -4.101   2.244  0.00  0.00    -0.196 N 
ATOM      2  C2  IND d   1       5.994  -2.957   1.496  0.00  0.00     0.054 A 
ATOM      3  C3  IND d   1       5.955  -1.870   2.300  0.00  0.00    -0.031 A 
ATOM      4  C4  IND d   1       6.000  -1.734   4.870  0.00  0.00     0.051 A 
ATOM      5  C5  IND d   1       5.969  -2.516   5.991  0.00  0.00    -0.031 A 
ATOM      6  C6  IND d   1       5.949  -3.894   5.919  0.00  0.00     0.015 A 
ATOM      7  C7  IND d   1       5.971  -4.544   4.717  0.00  0.00    -0.016 A 
ATOM      8  C8  IND d   1       5.995  -3.754   3.577  0.00  0.00    -0.047 A 
ATOM      9  C9  IND d   1       5.973  -2.355   3.644  0.00  0.00    -0.096 A 
ATOM     10  HN1 IND d   1       6.006  -4.903   1.934  0.00  0.00     0.298 HD
ENDROOT
TORSDOF 0
ENDMDL
