MODEL 1
REMARK minimizedAffinity -3.46215129
REMARK minimizedRMSD -1
REMARK  0 active torsions:
REMARK  status: ('A' for Active; 'I' for Inactive)
ROOT
ATOM      1  N1  IND d   1       5.630  -1.947   4.478  0.00  0.00    -0.196 N 
ATOM      2  C2  IND d   1       6.000  -1.888   3.163  0.00  0.00     0.054 A 
ATOM      3  C3  IND d   1       5.993  -3.125   2.617  0.00  0.00    -0.031 A 
ATOM      4  C4  IND d   1       5.310  -5.373   3.669  0.00  0.00     0.051 A 
ATOM      5  C5  IND d   1       4.935  -5.937   4.856  0.00  0.00    -0.031 A 
ATOM      6  C6  IND d   1       4.766  -5.184   6.000  0.00  0.00     0.015 A 
ATOM      7  C7  IND d   1       4.956  -3.832   5.997  0.00  0.00    -0.016 A 
ATOM      8  C8  IND d   1       5.344  -3.256   4.795  0.00  0.00    -0.047 A 
ATOM      9  C9  IND d   1       5.558  -4.021   3.641  0.00  0.00    -0.096 A 
ATOM     10  HN1 IND d   1       5.584  -1.278   5.016  0.00  0.00     0.298 HD
ENDROOT
TORSDOF 0
ENDMDL
