MODEL 1
REMARK minimizedAffinity -2.05440021
REMARK minimizedRMSD -1
REMARK  0 active torsions:
REMARK  status: ('A' for Active; 'I' for Inactive)
ROOT
ATOM      1  N1  IND d   1       5.990  -4.500   1.956  0.00  0.00    -0.196 N 
ATOM      2  C2  IND d   1       5.970  -3.392   1.156  0.00  0.00     0.054 A 
ATOM      3  C3  IND d   1       5.930  -2.269   1.909  0.00  0.00    -0.031 A 
ATOM      4  C4  IND d   1       5.993  -2.015   4.470  0.00  0.00     0.051 A 
ATOM      5  C5  IND d   1       5.976  -2.744   5.626  0.00  0.00    -0.031 A 
ATOM      6  C6  IND d   1       5.965  -4.124   5.617  0.00  0.00     0.015 A 
ATOM      7  C7  IND d   1       5.983  -4.829   4.447  0.00  0.00    -0.016 A 
ATOM      8  C8  IND d   1       5.993  -4.092   3.271  0.00  0.00    -0.047 A 
ATOM      9  C9  IND d   1       5.961  -2.692   3.274  0.00  0.00    -0.096 A 
ATOM     10  HN1 IND d   1       5.999  -5.316   1.683  0.00  0.00     0.298 HD
ENDROOT
TORSDOF 0
ENDMDL
