MODEL 1
REMARK minimizedAffinity 4.00352716
REMARK minimizedRMSD -1
REMARK  2 active torsions:
REMARK  status: ('A' for Active; 'I' for Inactive)
REMARK    1  A    between atoms: C2'_3  and  C1'_4 
REMARK    2  A    between atoms: C1'_4  and  C1_5 
ROOT
ATOM      1  C1  I4B d   1       3.893  -2.270   2.456  0.00  0.00    -0.075 A 
ATOM      2  C2  I4B d   1       2.844  -1.421   2.704  0.00  0.00     0.003 A 
ATOM      3  C3  I4B d   1       1.758  -1.346   1.797  0.00  0.00     0.002 A 
ATOM      4  C4  I4B d   1       1.787  -2.095   0.639  0.00  0.00    -0.004 A 
ATOM      5  C5  I4B d   1       2.841  -2.973   0.401  0.00  0.00     0.002 A 
ATOM      6  C6  I4B d   1       3.895  -3.070   1.321  0.00  0.00     0.003 A 
ENDROOT
BRANCH   1   7
ATOM      7  C1' I4B d   1       5.039  -2.300   3.418  0.00  0.00     0.060 C 
BRANCH   7   8
ATOM      8  C2' I4B d   1       4.548  -2.923   4.709  0.00  0.00    -0.013 C 
ATOM      9  C4' I4B d   1       5.194  -4.262   4.948  0.00  0.00     0.013 C 
ATOM     10  C3' I4B d   1       4.849  -1.970   5.827  0.00  0.00     0.013 C 
ENDBRANCH   7   8
ENDBRANCH   1   7
TORSDOF 2
ENDMDL
