MODEL 1
REMARK minimizedAffinity -3.14565849
REMARK minimizedRMSD -1
REMARK  2 active torsions:
REMARK  status: ('A' for Active; 'I' for Inactive)
REMARK    1  A    between atoms: C2'_3  and  C1'_4 
REMARK    2  A    between atoms: C1'_4  and  C1_5 
ROOT
ATOM      1  C1  I4B d   1       1.558  -2.763   1.454  0.00  0.00    -0.075 A 
ATOM      2  C2  I4B d   1       1.576  -2.132   0.235  0.00  0.00     0.003 A 
ATOM      3  C3  I4B d   1       0.786  -0.977   0.019  0.00  0.00     0.002 A 
ATOM      4  C4  I4B d   1      -0.040  -0.520   1.026  0.00  0.00    -0.004 A 
ATOM      5  C5  I4B d   1      -0.039  -1.148   2.268  0.00  0.00     0.002 A 
ATOM      6  C6  I4B d   1       0.774  -2.269   2.488  0.00  0.00     0.003 A 
ENDROOT
BRANCH   1   7
ATOM      7  C1' I4B d   1       2.380  -4.000   1.637  0.00  0.00     0.060 C 
BRANCH   7   8
ATOM      8  C2' I4B d   1       3.754  -3.580   2.118  0.00  0.00    -0.013 C 
ATOM      9  C4' I4B d   1       3.796  -3.468   3.619  0.00  0.00     0.013 C 
ATOM     10  C3' I4B d   1       4.746  -4.590   1.622  0.00  0.00     0.013 C 
ENDBRANCH   7   8
ENDBRANCH   1   7
TORSDOF 2
ENDMDL
