MODEL 1
REMARK minimizedAffinity 14.6972933
REMARK minimizedRMSD -1
REMARK  2 active torsions:
REMARK  status: ('A' for Active; 'I' for Inactive)
REMARK    1  A    between atoms: C2'_3  and  C1'_4 
REMARK    2  A    between atoms: C1'_4  and  C1_5 
ROOT
ATOM      1  C1  I4B d   1      -3.343   1.745  -4.127  0.00  0.00    -0.075 A 
ATOM      2  C2  I4B d   1      -4.333   2.299  -3.354  0.00  0.00     0.003 A 
ATOM      3  C3  I4B d   1      -5.687   2.204  -3.756  0.00  0.00     0.002 A 
ATOM      4  C4  I4B d   1      -6.000   1.594  -4.954  0.00  0.00    -0.004 A 
ATOM      5  C5  I4B d   1      -4.997   1.013  -5.724  0.00  0.00     0.002 A 
ATOM      6  C6  I4B d   1      -3.661   1.078  -5.303  0.00  0.00     0.003 A 
ENDROOT
BRANCH   1   7
ATOM      7  C1' I4B d   1      -1.920   1.893  -3.690  0.00  0.00     0.060 C 
BRANCH   7   8
ATOM      8  C2' I4B d   1      -1.202   2.746  -4.716  0.00  0.00    -0.013 C 
ATOM      9  C4' I4B d   1      -0.795   4.074  -4.133  0.00  0.00     0.013 C 
ATOM     10  C3' I4B d   1      -0.009   1.979  -5.202  0.00  0.00     0.013 C 
ENDBRANCH   7   8
ENDBRANCH   1   7
TORSDOF 2
ENDMDL
