MODEL 1
REMARK minimizedAffinity 6.79310036
REMARK minimizedRMSD -1
REMARK  2 active torsions:
REMARK  status: ('A' for Active; 'I' for Inactive)
REMARK    1  A    between atoms: C2'_3  and  C1'_4 
REMARK    2  A    between atoms: C1'_4  and  C1_5 
ROOT
ATOM      1  C1  I4B d   1       3.580  -4.526   0.063  0.00  0.00    -0.075 A 
ATOM      2  C2  I4B d   1       3.913  -5.275  -1.038  0.00  0.00     0.003 A 
ATOM      3  C3  I4B d   1       5.129  -5.999  -1.066  0.00  0.00     0.002 A 
ATOM      4  C4  I4B d   1       6.000  -5.907   0.001  0.00  0.00    -0.004 A 
ATOM      5  C5  I4B d   1       5.650  -5.165   1.126  0.00  0.00     0.002 A 
ATOM      6  C6  I4B d   1       4.426  -4.480   1.162  0.00  0.00     0.003 A 
ENDROOT
BRANCH   1   7
ATOM      7  C1' I4B d   1       2.303  -3.747   0.045  0.00  0.00     0.060 C 
BRANCH   7   8
ATOM      8  C2' I4B d   1       1.643  -3.899   1.400  0.00  0.00    -0.013 C 
ATOM      9  C4' I4B d   1       0.509  -2.924   1.568  0.00  0.00     0.013 C 
ATOM     10  C3' I4B d   1       1.164  -5.315   1.525  0.00  0.00     0.013 C 
ENDBRANCH   7   8
ENDBRANCH   1   7
TORSDOF 2
ENDMDL
