MODEL 1
REMARK minimizedAffinity 7.06910658
REMARK minimizedRMSD -1
REMARK  2 active torsions:
REMARK  status: ('A' for Active; 'I' for Inactive)
REMARK    1  A    between atoms: C2'_3  and  C1'_4 
REMARK    2  A    between atoms: C1'_4  and  C1_5 
ROOT
ATOM      1  C1  I4B d   1       4.062   2.878   0.618  0.00  0.00    -0.075 A 
ATOM      2  C2  I4B d   1       3.780   4.109   0.081  0.00  0.00     0.003 A 
ATOM      3  C3  I4B d   1       4.623   5.214   0.350  0.00  0.00     0.002 A 
ATOM      4  C4  I4B d   1       5.701   5.056   1.196  0.00  0.00    -0.004 A 
ATOM      5  C5  I4B d   1       5.999   3.802   1.722  0.00  0.00     0.002 A 
ATOM      6  C6  I4B d   1       5.182   2.703   1.421  0.00  0.00     0.003 A 
ENDROOT
BRANCH   1   7
ATOM      7  C1' I4B d   1       3.132   1.739   0.340  0.00  0.00     0.060 C 
BRANCH   7   8
ATOM      8  C2' I4B d   1       3.886   0.709  -0.476  0.00  0.00    -0.013 C 
ATOM      9  C4' I4B d   1       3.053  -0.525  -0.700  0.00  0.00     0.013 C 
ATOM     10  C3' I4B d   1       4.275   1.344  -1.778  0.00  0.00     0.013 C 
ENDBRANCH   7   8
ENDBRANCH   1   7
TORSDOF 2
ENDMDL
