MODEL 1
REMARK minimizedAffinity 8.13224602
REMARK minimizedRMSD -1
REMARK  2 active torsions:
REMARK  status: ('A' for Active; 'I' for Inactive)
REMARK    1  A    between atoms: C2'_3  and  C1'_4 
REMARK    2  A    between atoms: C1'_4  and  C1_5 
ROOT
ATOM      1  C1  I4B d   1      -2.935   0.202  -4.896  0.00  0.00    -0.075 A 
ATOM      2  C2  I4B d   1      -2.371  -1.007  -5.219  0.00  0.00     0.003 A 
ATOM      3  C3  I4B d   1      -1.941  -1.888  -4.198  0.00  0.00     0.002 A 
ATOM      4  C4  I4B d   1      -2.046  -1.502  -2.877  0.00  0.00    -0.004 A 
ATOM      5  C5  I4B d   1      -2.639  -0.285  -2.551  0.00  0.00     0.002 A 
ATOM      6  C6  I4B d   1      -3.098   0.567  -3.565  0.00  0.00     0.003 A 
ENDROOT
BRANCH   1   7
ATOM      7  C1' I4B d   1      -3.349   1.123  -6.000  0.00  0.00     0.060 C 
BRANCH   7   8
ATOM      8  C2' I4B d   1      -4.862   1.202  -5.999  0.00  0.00    -0.013 C 
ATOM      9  C4' I4B d   1      -5.470   0.010  -5.308  0.00  0.00     0.013 C 
ATOM     10  C3' I4B d   1      -5.258   2.480  -5.322  0.00  0.00     0.013 C 
ENDBRANCH   7   8
ENDBRANCH   1   7
TORSDOF 2
ENDMDL
