MODEL 1
REMARK minimizedAffinity 14.7898636
REMARK minimizedRMSD -1
REMARK  0 active torsions:
REMARK  status: ('A' for Active; 'I' for Inactive)
ROOT
ATOM      1  N1  IND d   1       0.835  -0.292   3.127  0.00  0.00    -0.196 N 
ATOM      2  C2  IND d   1       1.449  -0.516   1.927  0.00  0.00     0.054 A 
ATOM      3  C3  IND d   1       2.249  -1.604   2.004  0.00  0.00    -0.031 A 
ATOM      4  C4  IND d   1       2.621  -3.224   3.969  0.00  0.00     0.051 A 
ATOM      5  C5  IND d   1       2.306  -3.411   5.286  0.00  0.00    -0.031 A 
ATOM      6  C6  IND d   1       1.466  -2.551   5.963  0.00  0.00     0.015 A 
ATOM      7  C7  IND d   1       0.897  -1.475   5.343  0.00  0.00    -0.016 A 
ATOM      8  C8  IND d   1       1.220  -1.278   4.008  0.00  0.00    -0.047 A 
ATOM      9  C9  IND d   1       2.107  -2.123   3.327  0.00  0.00    -0.096 A 
ATOM     10  HN1 IND d   1       0.299   0.357   3.303  0.00  0.00     0.298 HD
ENDROOT
TORSDOF 0
ENDMDL
