MODEL 1
REMARK minimizedAffinity 9.63687134
REMARK minimizedRMSD -1
REMARK  0 active torsions:
REMARK  status: ('A' for Active; 'I' for Inactive)
ROOT
ATOM      1  N1  IND d   1       1.172  -0.966   2.508  0.00  0.00    -0.196 N 
ATOM      2  C2  IND d   1       1.798  -1.481   1.407  0.00  0.00     0.054 A 
ATOM      3  C3  IND d   1       2.608  -2.503   1.761  0.00  0.00    -0.031 A 
ATOM      4  C4  IND d   1       2.983  -3.566   4.076  0.00  0.00     0.051 A 
ATOM      5  C5  IND d   1       2.660  -3.416   5.395  0.00  0.00    -0.031 A 
ATOM      6  C6  IND d   1       1.805  -2.423   5.828  0.00  0.00     0.015 A 
ATOM      7  C7  IND d   1       1.230  -1.547   4.952  0.00  0.00    -0.016 A 
ATOM      8  C8  IND d   1       1.561  -1.692   3.613  0.00  0.00    -0.047 A 
ATOM      9  C9  IND d   1       2.461  -2.670   3.173  0.00  0.00    -0.096 A 
ATOM     10  HN1 IND d   1       0.627  -0.301   2.511  0.00  0.00     0.298 HD
ENDROOT
TORSDOF 0
ENDMDL
