MODEL 1
REMARK minimizedAffinity 14.5960445
REMARK minimizedRMSD -1
REMARK  0 active torsions:
REMARK  status: ('A' for Active; 'I' for Inactive)
ROOT
ATOM      1  N1  IND d   1      -4.062   2.335  -6.000  0.00  0.00    -0.196 N 
ATOM      2  C2  IND d   1      -3.650   3.616  -5.757  0.00  0.00     0.054 A 
ATOM      3  C3  IND d   1      -3.116   3.712  -4.519  0.00  0.00    -0.031 A 
ATOM      4  C4  IND d   1      -2.723   1.873  -2.760  0.00  0.00     0.051 A 
ATOM      5  C5  IND d   1      -2.966   0.552  -2.511  0.00  0.00    -0.031 A 
ATOM      6  C6  IND d   1      -3.597  -0.260  -3.431  0.00  0.00     0.015 A 
ATOM      7  C7  IND d   1      -4.000   0.219  -4.645  0.00  0.00    -0.016 A 
ATOM      8  C8  IND d   1      -3.762   1.562  -4.899  0.00  0.00    -0.047 A 
ATOM      9  C9  IND d   1      -3.160   2.401  -3.953  0.00  0.00    -0.096 A 
ATOM     10  HN1 IND d   1      -4.444   2.059  -6.718  0.00  0.00     0.298 HD
ENDROOT
TORSDOF 0
ENDMDL
