MODEL 1
REMARK minimizedAffinity 17.5716248
REMARK minimizedRMSD -1
REMARK  0 active torsions:
REMARK  status: ('A' for Active; 'I' for Inactive)
ROOT
ATOM      1  N1  IND d   1       1.203  -0.890   5.235  0.00  0.00    -0.196 N 
ATOM      2  C2  IND d   1       1.436  -1.999   5.999  0.00  0.00     0.054 A 
ATOM      3  C3  IND d   1       1.880  -3.017   5.228  0.00  0.00    -0.031 A 
ATOM      4  C4  IND d   1       2.396  -3.054   2.706  0.00  0.00     0.051 A 
ATOM      5  C5  IND d   1       2.307  -2.289   1.577  0.00  0.00    -0.031 A 
ATOM      6  C6  IND d   1       1.839  -0.991   1.611  0.00  0.00     0.015 A 
ATOM      7  C7  IND d   1       1.451  -0.404   2.782  0.00  0.00    -0.016 A 
ATOM      8  C8  IND d   1       1.533  -1.180   3.929  0.00  0.00    -0.047 A 
ATOM      9  C9  IND d   1       1.968  -2.511   3.895  0.00  0.00    -0.096 A 
ATOM     10  HN1 IND d   1       0.902  -0.137   5.522  0.00  0.00     0.298 HD
ENDROOT
TORSDOF 0
ENDMDL
