MODEL 1
REMARK minimizedAffinity 2.89863467
REMARK minimizedRMSD -1
REMARK  0 active torsions:
REMARK  status: ('A' for Active; 'I' for Inactive)
ROOT
ATOM      1  N1  IND d   1      -3.439   1.755  -4.505  0.00  0.00    -0.196 N 
ATOM      2  C2  IND d   1      -3.270   1.008  -3.373  0.00  0.00     0.054 A 
ATOM      3  C3  IND d   1      -3.494   1.763  -2.274  0.00  0.00    -0.031 A 
ATOM      4  C4  IND d   1      -4.247   4.218  -2.101  0.00  0.00     0.051 A 
ATOM      5  C5  IND d   1      -4.495   5.325  -2.864  0.00  0.00    -0.031 A 
ATOM      6  C6  IND d   1      -4.405   5.297  -4.241  0.00  0.00     0.015 A 
ATOM      7  C7  IND d   1      -4.073   4.153  -4.910  0.00  0.00    -0.016 A 
ATOM      8  C8  IND d   1      -3.813   3.029  -4.138  0.00  0.00    -0.047 A 
ATOM      9  C9  IND d   1      -3.861   3.063  -2.738  0.00  0.00    -0.096 A 
ATOM     10  HN1 IND d   1      -3.329   1.477  -5.311  0.00  0.00     0.298 HD
ENDROOT
TORSDOF 0
ENDMDL
