MODEL 1
REMARK minimizedAffinity 12.7184467
REMARK minimizedRMSD -1
REMARK  0 active torsions:
REMARK  status: ('A' for Active; 'I' for Inactive)
ROOT
ATOM      1  N1  IND d   1      -2.645   0.560  -3.070  0.00  0.00    -0.196 N 
ATOM      2  C2  IND d   1      -2.570   0.472  -1.708  0.00  0.00     0.054 A 
ATOM      3  C3  IND d   1      -3.009   1.616  -1.138  0.00  0.00    -0.031 A 
ATOM      4  C4  IND d   1      -3.991   3.723  -2.244  0.00  0.00     0.051 A 
ATOM      5  C5  IND d   1      -4.228   4.287  -3.467  0.00  0.00    -0.031 A 
ATOM      6  C6  IND d   1      -3.945   3.623  -4.643  0.00  0.00     0.015 A 
ATOM      7  C7  IND d   1      -3.424   2.360  -4.641  0.00  0.00    -0.016 A 
ATOM      8  C8  IND d   1      -3.176   1.787  -3.401  0.00  0.00    -0.047 A 
ATOM      9  C9  IND d   1      -3.421   2.473  -2.204  0.00  0.00    -0.096 A 
ATOM     10  HN1 IND d   1      -2.401  -0.048  -3.626  0.00  0.00     0.298 HD
ENDROOT
TORSDOF 0
ENDMDL
