MODEL 1
REMARK minimizedAffinity 12.8023701
REMARK minimizedRMSD -1
REMARK  0 active torsions:
REMARK  status: ('A' for Active; 'I' for Inactive)
ROOT
ATOM      1  N1  IND d   1       0.744  -1.061   3.136  0.00  0.00    -0.196 N 
ATOM      2  C2  IND d   1       1.139  -1.410   1.874  0.00  0.00     0.054 A 
ATOM      3  C3  IND d   1       1.860  -2.553   1.906  0.00  0.00    -0.031 A 
ATOM      4  C4  IND d   1       2.426  -4.074   3.905  0.00  0.00     0.051 A 
ATOM      5  C5  IND d   1       2.314  -4.152   5.265  0.00  0.00    -0.031 A 
ATOM      6  C6  IND d   1       1.657  -3.186   5.999  0.00  0.00     0.015 A 
ATOM      7  C7  IND d   1       1.075  -2.107   5.397  0.00  0.00    -0.016 A 
ATOM      8  C8  IND d   1       1.193  -2.020   4.017  0.00  0.00    -0.047 A 
ATOM      9  C9  IND d   1       1.895  -2.976   3.271  0.00  0.00    -0.096 A 
ATOM     10  HN1 IND d   1       0.290  -0.361   3.344  0.00  0.00     0.298 HD
ENDROOT
TORSDOF 0
ENDMDL
