MODEL 1
REMARK minimizedAffinity 15.7963533
REMARK minimizedRMSD -1
REMARK  0 active torsions:
REMARK  status: ('A' for Active; 'I' for Inactive)
ROOT
ATOM      1  N1  IND d   1       0.880  -0.639   2.695  0.00  0.00    -0.196 N 
ATOM      2  C2  IND d   1       1.423  -0.867   1.461  0.00  0.00     0.054 A 
ATOM      3  C3  IND d   1       2.156  -2.002   1.472  0.00  0.00    -0.031 A 
ATOM      4  C4  IND d   1       2.521  -3.696   3.376  0.00  0.00     0.051 A 
ATOM      5  C5  IND d   1       2.257  -3.899   4.701  0.00  0.00    -0.031 A 
ATOM      6  C6  IND d   1       1.504  -3.010   5.440  0.00  0.00     0.015 A 
ATOM      7  C7  IND d   1       0.974  -1.885   4.875  0.00  0.00    -0.016 A 
ATOM      8  C8  IND d   1       1.245  -1.671   3.531  0.00  0.00    -0.047 A 
ATOM      9  C9  IND d   1       2.045  -2.548   2.787  0.00  0.00    -0.096 A 
ATOM     10  HN1 IND d   1       0.394   0.036   2.912  0.00  0.00     0.298 HD
ENDROOT
TORSDOF 0
ENDMDL
