MODEL 1
REMARK minimizedAffinity 10.2631826
REMARK minimizedRMSD -1
REMARK  0 active torsions:
REMARK  status: ('A' for Active; 'I' for Inactive)
ROOT
ATOM      1  N1  IND d   1       1.204   0.888   4.187  0.00  0.00    -0.196 N 
ATOM      2  C2  IND d   1       1.718   1.182   5.420  0.00  0.00     0.054 A 
ATOM      3  C3  IND d   1       2.412   0.127   5.903  0.00  0.00    -0.031 A 
ATOM      4  C4  IND d   1       2.921  -2.141   4.797  0.00  0.00     0.051 A 
ATOM      5  C5  IND d   1       2.635  -2.887   3.688  0.00  0.00    -0.031 A 
ATOM      6  C6  IND d   1       1.845  -2.402   2.666  0.00  0.00     0.015 A 
ATOM      7  C7  IND d   1       1.317  -1.142   2.711  0.00  0.00    -0.016 A 
ATOM      8  C8  IND d   1       1.599  -0.385   3.839  0.00  0.00    -0.047 A 
ATOM      9  C9  IND d   1       2.365  -0.888   4.898  0.00  0.00    -0.096 A 
ATOM     10  HN1 IND d   1       0.717   1.411   3.709  0.00  0.00     0.298 HD
ENDROOT
TORSDOF 0
ENDMDL
