MODEL 1
REMARK minimizedAffinity 12.3597221
REMARK minimizedRMSD -1
REMARK  0 active torsions:
REMARK  status: ('A' for Active; 'I' for Inactive)
ROOT
ATOM      1  N1  IND d   1       1.066  -1.115   2.387  0.00  0.00    -0.196 N 
ATOM      2  C2  IND d   1       1.732  -1.947   1.531  0.00  0.00     0.054 A 
ATOM      3  C3  IND d   1       2.326  -2.950   2.215  0.00  0.00    -0.031 A 
ATOM      4  C4  IND d   1       2.253  -3.479   4.733  0.00  0.00     0.051 A 
ATOM      5  C5  IND d   1       1.801  -2.985   5.925  0.00  0.00    -0.031 A 
ATOM      6  C6  IND d   1       1.064  -1.821   6.000  0.00  0.00     0.015 A 
ATOM      7  C7  IND d   1       0.740  -1.109   4.879  0.00  0.00    -0.016 A 
ATOM      8  C8  IND d   1       1.203  -1.604   3.668  0.00  0.00    -0.047 A 
ATOM      9  C9  IND d   1       1.987  -2.762   3.590  0.00  0.00    -0.096 A 
ATOM     10  HN1 IND d   1       0.634  -0.406   2.164  0.00  0.00     0.298 HD
ENDROOT
TORSDOF 0
ENDMDL
