MODEL 1
REMARK minimizedAffinity 16.8766365
REMARK minimizedRMSD -1
REMARK  0 active torsions:
REMARK  status: ('A' for Active; 'I' for Inactive)
ROOT
ATOM      1  N1  IND d   1      -1.903  -5.909  -1.316  0.00  0.00    -0.196 N 
ATOM      2  C2  IND d   1      -2.651  -5.614  -0.210  0.00  0.00     0.054 A 
ATOM      3  C3  IND d   1      -1.886  -5.010   0.727  0.00  0.00    -0.031 A 
ATOM      4  C4  IND d   1       0.590  -4.315   0.619  0.00  0.00     0.051 A 
ATOM      5  C5  IND d   1       1.701  -4.405  -0.173  0.00  0.00    -0.031 A 
ATOM      6  C6  IND d   1       1.665  -5.011  -1.412  0.00  0.00     0.015 A 
ATOM      7  C7  IND d   1       0.510  -5.542  -1.913  0.00  0.00    -0.016 A 
ATOM      8  C8  IND d   1      -0.618  -5.458  -1.109  0.00  0.00    -0.047 A 
ATOM      9  C9  IND d   1      -0.578  -4.882   0.167  0.00  0.00    -0.096 A 
ATOM     10  HN1 IND d   1      -2.187  -6.309  -2.022  0.00  0.00     0.298 HD
ENDROOT
TORSDOF 0
ENDMDL
