MODEL 1
REMARK minimizedAffinity 9.99523163
REMARK minimizedRMSD -1
REMARK  0 active torsions:
REMARK  status: ('A' for Active; 'I' for Inactive)
ROOT
ATOM      1  N1  IND d   1       2.537  -0.735   3.522  0.00  0.00    -0.196 N 
ATOM      2  C2  IND d   1       1.953  -1.450   4.530  0.00  0.00     0.054 A 
ATOM      3  C3  IND d   1       2.760  -1.481   5.614  0.00  0.00    -0.031 A 
ATOM      4  C4  IND d   1       5.037  -0.342   5.991  0.00  0.00     0.051 A 
ATOM      5  C5  IND d   1       5.996   0.389   5.347  0.00  0.00    -0.031 A 
ATOM      6  C6  IND d   1       5.846   0.794   4.036  0.00  0.00     0.015 A 
ATOM      7  C7  IND d   1       4.722   0.491   3.321  0.00  0.00    -0.016 A 
ATOM      8  C8  IND d   1       3.750  -0.258   3.969  0.00  0.00    -0.047 A 
ATOM      9  C9  IND d   1       3.915  -0.708   5.286  0.00  0.00    -0.096 A 
ATOM     10  HN1 IND d   1       2.204  -0.604   2.740  0.00  0.00     0.298 HD
ENDROOT
TORSDOF 0
ENDMDL
