MODEL 1
REMARK minimizedAffinity 2.94348335
REMARK minimizedRMSD -1
REMARK  0 active torsions:
REMARK  status: ('A' for Active; 'I' for Inactive)
ROOT
ATOM      1  N1  IND d   1       5.314   3.362   3.370  0.00  0.00    -0.196 N 
ATOM      2  C2  IND d   1       6.000   3.466   4.548  0.00  0.00     0.054 A 
ATOM      3  C3  IND d   1       5.966   2.292   5.217  0.00  0.00    -0.031 A 
ATOM      4  C4  IND d   1       4.932   0.040   4.518  0.00  0.00     0.051 A 
ATOM      5  C5  IND d   1       4.169  -0.538   3.543  0.00  0.00    -0.031 A 
ATOM      6  C6  IND d   1       3.743   0.167   2.436  0.00  0.00     0.015 A 
ATOM      7  C7  IND d   1       4.075   1.480   2.257  0.00  0.00    -0.016 A 
ATOM      8  C8  IND d   1       4.843   2.073   3.249  0.00  0.00    -0.047 A 
ATOM      9  C9  IND d   1       5.243   1.374   4.395  0.00  0.00    -0.096 A 
ATOM     10  HN1 IND d   1       5.197   3.995   2.800  0.00  0.00     0.298 HD
ENDROOT
TORSDOF 0
ENDMDL
