MODEL 1
REMARK minimizedAffinity 6.58477449
REMARK minimizedRMSD -1
REMARK  0 active torsions:
REMARK  status: ('A' for Active; 'I' for Inactive)
ROOT
ATOM      1  N1  IND d   1       2.457   4.994  -1.824  0.00  0.00    -0.196 N 
ATOM      2  C2  IND d   1       2.915   4.968  -3.112  0.00  0.00     0.054 A 
ATOM      3  C3  IND d   1       2.340   3.952  -3.794  0.00  0.00    -0.031 A 
ATOM      4  C4  IND d   1       0.547   2.273  -3.025  0.00  0.00     0.051 A 
ATOM      5  C5  IND d   1      -0.156   1.878  -1.922  0.00  0.00    -0.031 A 
ATOM      6  C6  IND d   1      -0.024   2.516  -0.706  0.00  0.00     0.015 A 
ATOM      7  C7  IND d   1       0.812   3.585  -0.550  0.00  0.00    -0.016 A 
ATOM      8  C8  IND d   1       1.533   3.985  -1.666  0.00  0.00    -0.047 A 
ATOM      9  C9  IND d   1       1.435   3.314  -2.892  0.00  0.00    -0.096 A 
ATOM     10  HN1 IND d   1       2.705   5.548  -1.215  0.00  0.00     0.298 HD
ENDROOT
TORSDOF 0
ENDMDL
