MODEL 1
REMARK minimizedAffinity 5.14044952
REMARK minimizedRMSD -1
REMARK  0 active torsions:
REMARK  status: ('A' for Active; 'I' for Inactive)
ROOT
ATOM      1  N1  IND d   1       4.769  -0.276   2.626  0.00  0.00    -0.196 N 
ATOM      2  C2  IND d   1       5.396  -1.136   3.484  0.00  0.00     0.054 A 
ATOM      3  C3  IND d   1       5.999  -0.449   4.481  0.00  0.00    -0.031 A 
ATOM      4  C4  IND d   1       6.000   2.081   4.956  0.00  0.00     0.051 A 
ATOM      5  C5  IND d   1       5.593   3.276   4.431  0.00  0.00    -0.031 A 
ATOM      6  C6  IND d   1       4.873   3.349   3.256  0.00  0.00     0.015 A 
ATOM      7  C7  IND d   1       4.523   2.224   2.564  0.00  0.00    -0.016 A 
ATOM      8  C8  IND d   1       4.941   1.010   3.090  0.00  0.00    -0.047 A 
ATOM      9  C9  IND d   1       5.707   0.932   4.260  0.00  0.00    -0.096 A 
ATOM     10  HN1 IND d   1       4.339  -0.501   1.916  0.00  0.00     0.298 HD
ENDROOT
TORSDOF 0
ENDMDL
