MODEL 1
REMARK minimizedAffinity -0.554233313
REMARK minimizedRMSD -1
REMARK  0 active torsions:
REMARK  status: ('A' for Active; 'I' for Inactive)
ROOT
ATOM      1  N1  IND d   1       5.965   2.684   4.235  0.00  0.00    -0.196 N 
ATOM      2  C2  IND d   1       5.391   2.918   3.017  0.00  0.00     0.054 A 
ATOM      3  C3  IND d   1       4.717   1.824   2.597  0.00  0.00    -0.031 A 
ATOM      4  C4  IND d   1       4.338  -0.423   3.794  0.00  0.00     0.051 A 
ATOM      5  C5  IND d   1       4.695  -1.121   4.913  0.00  0.00    -0.031 A 
ATOM      6  C6  IND d   1       5.509  -0.574   5.885  0.00  0.00     0.015 A 
ATOM      7  C7  IND d   1       5.988   0.701   5.778  0.00  0.00    -0.016 A 
ATOM      8  C8  IND d   1       5.633   1.410   4.639  0.00  0.00    -0.047 A 
ATOM      9  C9  IND d   1       4.842   0.845   3.630  0.00  0.00    -0.096 A 
ATOM     10  HN1 IND d   1       6.452   3.240   4.675  0.00  0.00     0.298 HD
ENDROOT
TORSDOF 0
ENDMDL
