MODEL 1
REMARK minimizedAffinity 0.102073066
REMARK minimizedRMSD -1
REMARK  0 active torsions:
REMARK  status: ('A' for Active; 'I' for Inactive)
ROOT
ATOM      1  N1  IND d   1       5.471   1.948   3.758  0.00  0.00    -0.196 N 
ATOM      2  C2  IND d   1       6.000   1.531   4.947  0.00  0.00     0.054 A 
ATOM      3  C3  IND d   1       5.422   0.374   5.339  0.00  0.00    -0.031 A 
ATOM      4  C4  IND d   1       3.659  -1.064   4.134  0.00  0.00     0.051 A 
ATOM      5  C5  IND d   1       2.847  -1.076   3.035  0.00  0.00    -0.031 A 
ATOM      6  C6  IND d   1       2.870  -0.060   2.100  0.00  0.00     0.015 A 
ATOM      7  C7  IND d   1       3.718   1.003   2.225  0.00  0.00    -0.016 A 
ATOM      8  C8  IND d   1       4.540   1.021   3.343  0.00  0.00    -0.047 A 
ATOM      9  C9  IND d   1       4.491   0.015   4.317  0.00  0.00    -0.096 A 
ATOM     10  HN1 IND d   1       5.684   2.668   3.339  0.00  0.00     0.298 HD
ENDROOT
TORSDOF 0
ENDMDL
