MODEL 1
REMARK minimizedAffinity 5.40259933
REMARK minimizedRMSD -1
REMARK  0 active torsions:
REMARK  status: ('A' for Active; 'I' for Inactive)
ROOT
ATOM      1  N1  IND d   1      -5.133  -1.130   4.561  0.00  0.00    -0.196 N 
ATOM      2  C2  IND d   1      -6.000  -1.805   3.747  0.00  0.00     0.054 A 
ATOM      3  C3  IND d   1      -5.741  -1.524   2.450  0.00  0.00    -0.031 A 
ATOM      4  C4  IND d   1      -3.880  -0.066   1.431  0.00  0.00     0.051 A 
ATOM      5  C5  IND d   1      -2.866   0.783   1.777  0.00  0.00    -0.031 A 
ATOM      6  C6  IND d   1      -2.548   1.040   3.094  0.00  0.00     0.015 A 
ATOM      7  C7  IND d   1      -3.228   0.447   4.121  0.00  0.00    -0.016 A 
ATOM      8  C8  IND d   1      -4.262  -0.410   3.774  0.00  0.00    -0.047 A 
ATOM      9  C9  IND d   1      -4.617  -0.642   2.439  0.00  0.00    -0.096 A 
ATOM     10  HN1 IND d   1      -5.133  -1.152   5.421  0.00  0.00     0.298 HD
ENDROOT
TORSDOF 0
ENDMDL
