MODEL 1
REMARK minimizedAffinity 0.46256578
REMARK minimizedRMSD -1
REMARK  0 active torsions:
REMARK  status: ('A' for Active; 'I' for Inactive)
ROOT
ATOM      1  N1  IND d   1       3.167   0.122   2.309  0.00  0.00    -0.196 N 
ATOM      2  C2  IND d   1       2.937  -1.155   2.738  0.00  0.00     0.054 A 
ATOM      3  C3  IND d   1       3.732  -1.448   3.792  0.00  0.00    -0.031 A 
ATOM      4  C4  IND d   1       5.412   0.052   5.040  0.00  0.00     0.051 A 
ATOM      5  C5  IND d   1       5.994   1.287   4.994  0.00  0.00    -0.031 A 
ATOM      6  C6  IND d   1       5.655   2.218   4.033  0.00  0.00     0.015 A 
ATOM      7  C7  IND d   1       4.708   1.950   3.085  0.00  0.00    -0.016 A 
ATOM      8  C8  IND d   1       4.120   0.693   3.124  0.00  0.00    -0.047 A 
ATOM      9  C9  IND d   1       4.491  -0.270   4.071  0.00  0.00    -0.096 A 
ATOM     10  HN1 IND d   1       2.782   0.505   1.643  0.00  0.00     0.298 HD
ENDROOT
TORSDOF 0
ENDMDL
