MODEL 1
REMARK minimizedAffinity 4.06672239
REMARK minimizedRMSD -1
REMARK  0 active torsions:
REMARK  status: ('A' for Active; 'I' for Inactive)
ROOT
ATOM      1  N1  IND d   1      -5.018  -0.886   2.574  0.00  0.00    -0.196 N 
ATOM      2  C2  IND d   1      -3.832  -1.028   3.238  0.00  0.00     0.054 A 
ATOM      3  C3  IND d   1      -2.803  -0.646   2.448  0.00  0.00    -0.031 A 
ATOM      4  C4  IND d   1      -2.845   0.339   0.070  0.00  0.00     0.051 A 
ATOM      5  C5  IND d   1      -3.692   0.623  -0.963  0.00  0.00    -0.031 A 
ATOM      6  C6  IND d   1      -5.053   0.417  -0.868  0.00  0.00     0.015 A 
ATOM      7  C7  IND d   1      -5.621  -0.073   0.275  0.00  0.00    -0.016 A 
ATOM      8  C8  IND d   1      -4.762  -0.369   1.324  0.00  0.00    -0.047 A 
ATOM      9  C9  IND d   1      -3.376  -0.201   1.217  0.00  0.00    -0.096 A 
ATOM     10  HN1 IND d   1      -5.794  -1.087   2.886  0.00  0.00     0.298 HD
ENDROOT
TORSDOF 0
ENDMDL
