MODEL 1
REMARK minimizedAffinity 0.891161561
REMARK minimizedRMSD -1
REMARK  0 active torsions:
REMARK  status: ('A' for Active; 'I' for Inactive)
ROOT
ATOM      1  N1  IND d   1      -2.481   2.973   1.741  0.00  0.00    -0.196 N 
ATOM      2  C2  IND d   1      -2.794   3.096   0.416  0.00  0.00     0.054 A 
ATOM      3  C3  IND d   1      -3.295   1.933  -0.059  0.00  0.00    -0.031 A 
ATOM      4  C4  IND d   1      -3.782  -0.267   1.185  0.00  0.00     0.051 A 
ATOM      5  C5  IND d   1      -3.630  -0.874   2.400  0.00  0.00    -0.031 A 
ATOM      6  C6  IND d   1      -3.078  -0.216   3.480  0.00  0.00     0.015 A 
ATOM      7  C7  IND d   1      -2.667   1.084   3.387  0.00  0.00    -0.016 A 
ATOM      8  C8  IND d   1      -2.814   1.701   2.153  0.00  0.00    -0.047 A 
ATOM      9  C9  IND d   1      -3.334   1.025   1.042  0.00  0.00    -0.096 A 
ATOM     10  HN1 IND d   1      -2.135   3.586   2.234  0.00  0.00     0.298 HD
ENDROOT
TORSDOF 0
ENDMDL
