MODEL 1
REMARK minimizedAffinity -2.07829165
REMARK minimizedRMSD -1
REMARK  0 active torsions:
REMARK  status: ('A' for Active; 'I' for Inactive)
ROOT
ATOM      1  N1  IND d   1       1.519  -4.571   1.513  0.00  0.00    -0.196 N 
ATOM      2  C2  IND d   1       0.422  -5.364   1.321  0.00  0.00     0.054 A 
ATOM      3  C3  IND d   1      -0.563  -4.665   0.713  0.00  0.00    -0.031 A 
ATOM      4  C4  IND d   1      -0.556  -2.239  -0.147  0.00  0.00     0.051 A 
ATOM      5  C5  IND d   1       0.207  -1.106  -0.167  0.00  0.00    -0.031 A 
ATOM      6  C6  IND d   1       1.474  -1.069   0.380  0.00  0.00     0.015 A 
ATOM      7  C7  IND d   1       2.031  -2.174   0.960  0.00  0.00    -0.016 A 
ATOM      8  C8  IND d   1       1.256  -3.324   0.989  0.00  0.00    -0.047 A 
ATOM      9  C9  IND d   1      -0.046  -3.355   0.474  0.00  0.00    -0.096 A 
ATOM     10  HN1 IND d   1       2.250  -4.810   1.897  0.00  0.00     0.298 HD
ENDROOT
TORSDOF 0
ENDMDL
