MODEL 1
REMARK minimizedAffinity -2.79865313
REMARK minimizedRMSD -1
REMARK  0 active torsions:
REMARK  status: ('A' for Active; 'I' for Inactive)
ROOT
ATOM      1  N1  IND d   1       5.168   1.133   4.122  0.00  0.00    -0.196 N 
ATOM      2  C2  IND d   1       5.997   0.309   4.829  0.00  0.00     0.054 A 
ATOM      3  C3  IND d   1       5.769  -0.983   4.501  0.00  0.00    -0.031 A 
ATOM      4  C4  IND d   1       4.153  -1.964   2.754  0.00  0.00     0.051 A 
ATOM      5  C5  IND d   1       3.162  -1.608   1.883  0.00  0.00    -0.031 A 
ATOM      6  C6  IND d   1       2.783  -0.293   1.709  0.00  0.00     0.015 A 
ATOM      7  C7  IND d   1       3.391   0.721   2.393  0.00  0.00    -0.016 A 
ATOM      8  C8  IND d   1       4.394   0.362   3.284  0.00  0.00    -0.047 A 
ATOM      9  C9  IND d   1       4.754  -0.975   3.496  0.00  0.00    -0.096 A 
ATOM     10  HN1 IND d   1       5.135   1.990   4.189  0.00  0.00     0.298 HD
ENDROOT
TORSDOF 0
ENDMDL
