MODEL 1
REMARK minimizedAffinity -3.56074667
REMARK minimizedRMSD -1
REMARK  0 active torsions:
REMARK  status: ('A' for Active; 'I' for Inactive)
ROOT
ATOM      1  C2' OXE d   1       1.245   2.248  -1.403  0.00  0.00     0.078 C 
ATOM      2  C1' OXE d   1       2.410  -0.297  -1.188  0.00  0.00     0.078 C 
ATOM      3  C1  OXE d   1       1.101  -0.060  -0.477  0.00  0.00    -0.078 A 
ATOM      4  C2  OXE d   1       0.562   1.202  -0.549  0.00  0.00    -0.078 A 
ATOM      5  C3  OXE d   1      -0.672   1.459   0.043  0.00  0.00     0.003 A 
ATOM      6  C4  OXE d   1      -1.292   0.489   0.839  0.00  0.00    -0.002 A 
ATOM      7  C5  OXE d   1      -0.740  -0.791   0.958  0.00  0.00    -0.002 A 
ATOM      8  C6  OXE d   1       0.432  -1.094   0.273  0.00  0.00     0.003 A 
ENDROOT
TORSDOF 0
ENDMDL
