MODEL 1
REMARK minimizedAffinity -1.60597074
REMARK minimizedRMSD -1
REMARK  0 active torsions:
REMARK  status: ('A' for Active; 'I' for Inactive)
ROOT
ATOM      1  C2' OXE d   1       0.767  -2.923   0.344  0.00  0.00     0.078 C 
ATOM      2  C1' OXE d   1       2.667  -1.267  -0.891  0.00  0.00     0.078 C 
ATOM      3  C1  OXE d   1       1.377  -0.636  -0.432  0.00  0.00    -0.078 A 
ATOM      4  C2  OXE d   1       0.433  -1.463   0.129  0.00  0.00    -0.078 A 
ATOM      5  C3  OXE d   1      -0.753  -0.923   0.619  0.00  0.00     0.003 A 
ATOM      6  C4  OXE d   1      -1.058   0.427   0.407  0.00  0.00    -0.002 A 
ATOM      7  C5  OXE d   1      -0.127   1.279  -0.198  0.00  0.00    -0.002 A 
ATOM      8  C6  OXE d   1       1.109   0.773  -0.584  0.00  0.00     0.003 A 
ENDROOT
TORSDOF 0
ENDMDL
