MODEL 1
REMARK minimizedAffinity -2.05387115
REMARK minimizedRMSD -1
REMARK  0 active torsions:
REMARK  status: ('A' for Active; 'I' for Inactive)
ROOT
ATOM      1  C2' OXE d   1      -1.095   1.025   0.250  0.00  0.00     0.078 C 
ATOM      2  C1' OXE d   1      -0.634  -1.736   0.036  0.00  0.00     0.078 C 
ATOM      3  C1  OXE d   1       0.429  -0.803  -0.487  0.00  0.00    -0.078 A 
ATOM      4  C2  OXE d   1       0.175   0.546  -0.421  0.00  0.00    -0.078 A 
ATOM      5  C3  OXE d   1       1.145   1.451  -0.840  0.00  0.00     0.003 A 
ATOM      6  C4  OXE d   1       2.312   1.000  -1.468  0.00  0.00    -0.002 A 
ATOM      7  C5  OXE d   1       2.573  -0.370  -1.581  0.00  0.00    -0.002 A 
ATOM      8  C6  OXE d   1       1.663  -1.282  -1.059  0.00  0.00     0.003 A 
ENDROOT
TORSDOF 0
ENDMDL
