MODEL 1
REMARK minimizedAffinity -3.58724761
REMARK minimizedRMSD -1
REMARK  0 active torsions:
REMARK  status: ('A' for Active; 'I' for Inactive)
ROOT
ATOM      1  C2' OXE d   1      -1.442   0.359   0.266  0.00  0.00     0.078 C 
ATOM      2  C1' OXE d   1       0.297   2.167  -0.992  0.00  0.00     0.078 C 
ATOM      3  C1  OXE d   1       0.778   0.751  -0.794  0.00  0.00    -0.078 A 
ATOM      4  C2  OXE d   1      -0.062  -0.115  -0.136  0.00  0.00    -0.078 A 
ATOM      5  C3  OXE d   1       0.309  -1.446   0.025  0.00  0.00     0.003 A 
ATOM      6  C4  OXE d   1       1.592  -1.874  -0.341  0.00  0.00    -0.002 A 
ATOM      7  C5  OXE d   1       2.477  -0.998  -0.977  0.00  0.00    -0.002 A 
ATOM      8  C6  OXE d   1       2.071   0.304  -1.249  0.00  0.00     0.003 A 
ENDROOT
TORSDOF 0
ENDMDL
