MODEL 1
REMARK minimizedAffinity -3.82169843
REMARK minimizedRMSD -1
REMARK  0 active torsions:
REMARK  status: ('A' for Active; 'I' for Inactive)
ROOT
ATOM      1  C2' OXE d   1       2.763  -0.749  -0.779  0.00  0.00     0.078 C 
ATOM      2  C1' OXE d   1       0.661  -2.212   0.370  0.00  0.00     0.078 C 
ATOM      3  C1  OXE d   1       0.387  -0.785  -0.032  0.00  0.00    -0.078 A 
ATOM      4  C2  OXE d   1       1.434  -0.062  -0.551  0.00  0.00    -0.078 A 
ATOM      5  C3  OXE d   1       1.221   1.243  -0.989  0.00  0.00     0.003 A 
ATOM      6  C4  OXE d   1      -0.008   1.874  -0.764  0.00  0.00    -0.002 A 
ATOM      7  C5  OXE d   1      -1.076   1.168  -0.201  0.00  0.00    -0.002 A 
ATOM      8  C6  OXE d   1      -0.908  -0.172   0.131  0.00  0.00     0.003 A 
ENDROOT
TORSDOF 0
ENDMDL
