MODEL 1
REMARK minimizedAffinity -2.81241059
REMARK minimizedRMSD -1
REMARK  0 active torsions:
REMARK  status: ('A' for Active; 'I' for Inactive)
ROOT
ATOM      1  C2' OXE d   1       0.614  -2.378   0.011  0.00  0.00     0.078 C 
ATOM      2  C1' OXE d   1       2.801  -1.106  -1.207  0.00  0.00     0.078 C 
ATOM      3  C1  OXE d   1       1.558  -0.287  -0.962  0.00  0.00    -0.078 A 
ATOM      4  C2  OXE d   1       0.477  -0.930  -0.408  0.00  0.00    -0.078 A 
ATOM      5  C3  OXE d   1      -0.676  -0.208  -0.111  0.00  0.00     0.003 A 
ATOM      6  C4  OXE d   1      -0.799   1.128  -0.511  0.00  0.00    -0.002 A 
ATOM      7  C5  OXE d   1       0.277   1.791  -1.112  0.00  0.00    -0.002 A 
ATOM      8  C6  OXE d   1       1.474   1.111  -1.306  0.00  0.00     0.003 A 
ENDROOT
TORSDOF 0
ENDMDL
