MODEL 1
REMARK minimizedAffinity -4.2433691
REMARK minimizedRMSD -1
REMARK  0 active torsions:
REMARK  status: ('A' for Active; 'I' for Inactive)
ROOT
ATOM      1  C2' OXE d   1      -0.352  -2.364   0.187  0.00  0.00     0.078 C 
ATOM      2  C1' OXE d   1      -0.944   0.358   0.533  0.00  0.00     0.078 C 
ATOM      3  C1  OXE d   1       0.405  -0.002  -0.038  0.00  0.00    -0.078 A 
ATOM      4  C2  OXE d   1       0.704  -1.337  -0.160  0.00  0.00    -0.078 A 
ATOM      5  C3  OXE d   1       1.913  -1.723  -0.733  0.00  0.00     0.003 A 
ATOM      6  C4  OXE d   1       2.888  -0.767  -1.042  0.00  0.00    -0.002 A 
ATOM      7  C5  OXE d   1       2.619   0.597  -0.888  0.00  0.00    -0.002 A 
ATOM      8  C6  OXE d   1       1.369   0.997  -0.428  0.00  0.00     0.003 A 
ENDROOT
TORSDOF 0
ENDMDL
