MODEL 1
REMARK minimizedAffinity -1.71988201
REMARK minimizedRMSD -1
REMARK  0 active torsions:
REMARK  status: ('A' for Active; 'I' for Inactive)
ROOT
ATOM      1  C2' OXE d   1       0.475  -2.864   0.374  0.00  0.00     0.078 C 
ATOM      2  C1' OXE d   1       2.279  -1.176  -0.958  0.00  0.00     0.078 C 
ATOM      3  C1  OXE d   1       0.994  -0.571  -0.450  0.00  0.00    -0.078 A 
ATOM      4  C2  OXE d   1       0.096  -1.414   0.159  0.00  0.00    -0.078 A 
ATOM      5  C3  OXE d   1      -1.080  -0.898   0.695  0.00  0.00     0.003 A 
ATOM      6  C4  OXE d   1      -1.427   0.442   0.483  0.00  0.00    -0.002 A 
ATOM      7  C5  OXE d   1      -0.545   1.309  -0.170  0.00  0.00    -0.002 A 
ATOM      8  C6  OXE d   1       0.686   0.829  -0.604  0.00  0.00     0.003 A 
ENDROOT
TORSDOF 0
ENDMDL
