MODEL 1
REMARK minimizedAffinity -2.45972157
REMARK minimizedRMSD -1
REMARK  0 active torsions:
REMARK  status: ('A' for Active; 'I' for Inactive)
ROOT
ATOM      1  C2' OXE d   1       2.772  -0.049  -1.029  0.00  0.00     0.078 C 
ATOM      2  C1' OXE d   1       1.158   2.050  -1.960  0.00  0.00     0.078 C 
ATOM      3  C1  OXE d   1       0.612   1.179  -0.856  0.00  0.00    -0.078 A 
ATOM      4  C2  OXE d   1       1.390   0.125  -0.439  0.00  0.00    -0.078 A 
ATOM      5  C3  OXE d   1       0.958  -0.676   0.614  0.00  0.00     0.003 A 
ATOM      6  C4  OXE d   1      -0.326  -0.514   1.147  0.00  0.00    -0.002 A 
ATOM      7  C5  OXE d   1      -1.151   0.528   0.710  0.00  0.00    -0.002 A 
ATOM      8  C6  OXE d   1      -0.681   1.408  -0.259  0.00  0.00     0.003 A 
ENDROOT
TORSDOF 0
ENDMDL
