MODEL 1
REMARK minimizedAffinity -2.65238571
REMARK minimizedRMSD -1
REMARK  0 active torsions:
REMARK  status: ('A' for Active; 'I' for Inactive)
ROOT
ATOM      1  C2' OXE d   1       1.216   2.515  -1.800  0.00  0.00     0.078 C 
ATOM      2  C1' OXE d   1       2.636   0.151  -1.276  0.00  0.00     0.078 C 
ATOM      3  C1  OXE d   1       1.197   0.221  -0.831  0.00  0.00    -0.078 A 
ATOM      4  C2  OXE d   1       0.523   1.398  -1.049  0.00  0.00    -0.078 A 
ATOM      5  C3  OXE d   1      -0.822   1.497  -0.707  0.00  0.00     0.003 A 
ATOM      6  C4  OXE d   1      -1.452   0.463  -0.004  0.00  0.00    -0.002 A 
ATOM      7  C5  OXE d   1      -0.773  -0.731   0.264  0.00  0.00    -0.002 A 
ATOM      8  C6  OXE d   1       0.536  -0.884  -0.179  0.00  0.00     0.003 A 
ENDROOT
TORSDOF 0
ENDMDL
