MODEL 1
REMARK minimizedAffinity -5.52739096
REMARK minimizedRMSD -1
REMARK  0 active torsions:
REMARK  status: ('A' for Active; 'I' for Inactive)
ROOT
ATOM      1  C2' OXE d   1      -1.452   1.378  -1.120  0.00  0.00     0.078 C 
ATOM      2  C1' OXE d   1      -1.077   0.125   1.364  0.00  0.00     0.078 C 
ATOM      3  C1  OXE d   1       0.110   0.219   0.437  0.00  0.00    -0.078 A 
ATOM      4  C2  OXE d   1      -0.094   0.793  -0.795  0.00  0.00    -0.078 A 
ATOM      5  C3  OXE d   1       0.979   0.954  -1.666  0.00  0.00     0.003 A 
ATOM      6  C4  OXE d   1       2.229   0.401  -1.361  0.00  0.00    -0.002 A 
ATOM      7  C5  OXE d   1       2.448  -0.222  -0.128  0.00  0.00    -0.002 A 
ATOM      8  C6  OXE d   1       1.412  -0.283   0.798  0.00  0.00     0.003 A 
ENDROOT
TORSDOF 0
ENDMDL
