MODEL 1
REMARK minimizedAffinity -4.41050911
REMARK minimizedRMSD -1
REMARK  0 active torsions:
REMARK  status: ('A' for Active; 'I' for Inactive)
ROOT
ATOM      1  C2' OXE d   1       3.111  -0.549  -1.079  0.00  0.00     0.078 C 
ATOM      2  C1' OXE d   1       1.820   1.935  -1.295  0.00  0.00     0.078 C 
ATOM      3  C1  OXE d   1       1.027   0.775  -0.747  0.00  0.00    -0.078 A 
ATOM      4  C2  OXE d   1       1.652  -0.448  -0.688  0.00  0.00    -0.078 A 
ATOM      5  C3  OXE d   1       0.984  -1.539  -0.140  0.00  0.00     0.003 A 
ATOM      6  C4  OXE d   1      -0.368  -1.439   0.209  0.00  0.00    -0.002 A 
ATOM      7  C5  OXE d   1      -1.036  -0.213   0.120  0.00  0.00    -0.002 A 
ATOM      8  C6  OXE d   1      -0.342   0.911  -0.315  0.00  0.00     0.003 A 
ENDROOT
TORSDOF 0
ENDMDL
