MODEL 1
REMARK minimizedAffinity -5.42181921
REMARK minimizedRMSD -1
REMARK  0 active torsions:
REMARK  status: ('A' for Active; 'I' for Inactive)
ROOT
ATOM      1  C2' OXE d   1       0.439   2.103  -1.534  0.00  0.00     0.078 C 
ATOM      2  C1' OXE d   1      -1.109   0.656   0.307  0.00  0.00     0.078 C 
ATOM      3  C1  OXE d   1       0.145   0.006  -0.223  0.00  0.00    -0.078 A 
ATOM      4  C2  OXE d   1       0.871   0.702  -1.159  0.00  0.00    -0.078 A 
ATOM      5  C3  OXE d   1       2.065   0.172  -1.639  0.00  0.00     0.003 A 
ATOM      6  C4  OXE d   1       2.452  -1.129  -1.294  0.00  0.00    -0.002 A 
ATOM      7  C5  OXE d   1       1.706  -1.871  -0.373  0.00  0.00    -0.002 A 
ATOM      8  C6  OXE d   1       0.575  -1.303   0.204  0.00  0.00     0.003 A 
ENDROOT
TORSDOF 0
ENDMDL
