MODEL 1
REMARK minimizedAffinity -6.00308847
REMARK minimizedRMSD -1
REMARK  0 active torsions:
REMARK  status: ('A' for Active; 'I' for Inactive)
ROOT
ATOM      1  C2' OXE d   1      -0.119  -2.126   0.147  0.00  0.00     0.078 C 
ATOM      2  C1' OXE d   1      -1.126   0.493   0.252  0.00  0.00     0.078 C 
ATOM      3  C1  OXE d   1       0.262   0.294  -0.305  0.00  0.00    -0.078 A 
ATOM      4  C2  OXE d   1       0.765  -0.984  -0.309  0.00  0.00    -0.078 A 
ATOM      5  C3  OXE d   1       2.018  -1.231  -0.861  0.00  0.00     0.003 A 
ATOM      6  C4  OXE d   1       2.833  -0.168  -1.272  0.00  0.00    -0.002 A 
ATOM      7  C5  OXE d   1       2.356   1.146  -1.239  0.00  0.00    -0.002 A 
ATOM      8  C6  OXE d   1       1.059   1.390  -0.799  0.00  0.00     0.003 A 
ENDROOT
TORSDOF 0
ENDMDL
