MODEL 1
REMARK minimizedAffinity -3.93343019
REMARK minimizedRMSD -1
REMARK  0 active torsions:
REMARK  status: ('A' for Active; 'I' for Inactive)
ROOT
ATOM      1  C2' OXE d   1      -0.944   0.718   0.021  0.00  0.00     0.078 C 
ATOM      2  C1' OXE d   1      -0.415  -2.039   0.054  0.00  0.00     0.078 C 
ATOM      3  C1  OXE d   1       0.574  -1.141  -0.646  0.00  0.00    -0.078 A 
ATOM      4  C2  OXE d   1       0.284   0.201  -0.697  0.00  0.00    -0.078 A 
ATOM      5  C3  OXE d   1       1.190   1.080  -1.284  0.00  0.00     0.003 A 
ATOM      6  C4  OXE d   1       2.318   0.593  -1.955  0.00  0.00    -0.002 A 
ATOM      7  C5  OXE d   1       2.612  -0.775  -1.948  0.00  0.00    -0.002 A 
ATOM      8  C6  OXE d   1       1.774  -1.649  -1.264  0.00  0.00     0.003 A 
ENDROOT
TORSDOF 0
ENDMDL
