MODEL 1
REMARK minimizedAffinity -2.02223659
REMARK minimizedRMSD -1
REMARK  0 active torsions:
REMARK  status: ('A' for Active; 'I' for Inactive)
ROOT
ATOM      1  C2' OXE d   1      -1.352   0.733   0.557  0.00  0.00     0.078 C 
ATOM      2  C1' OXE d   1       0.302   1.718  -1.486  0.00  0.00     0.078 C 
ATOM      3  C1  OXE d   1       0.519   0.297  -1.028  0.00  0.00    -0.078 A 
ATOM      4  C2  OXE d   1      -0.264  -0.161   0.004  0.00  0.00    -0.078 A 
ATOM      5  C3  OXE d   1      -0.142  -1.482   0.428  0.00  0.00     0.003 A 
ATOM      6  C4  OXE d   1       0.874  -2.299  -0.082  0.00  0.00    -0.002 A 
ATOM      7  C5  OXE d   1       1.709  -1.839  -1.106  0.00  0.00    -0.002 A 
ATOM      8  C6  OXE d   1       1.517  -0.561  -1.619  0.00  0.00     0.003 A 
ENDROOT
TORSDOF 0
ENDMDL
