MODEL 1
REMARK minimizedAffinity -4.79283237
REMARK minimizedRMSD -1
REMARK  0 active torsions:
REMARK  status: ('A' for Active; 'I' for Inactive)
ROOT
ATOM      1  C2' OXE d   1       2.696  -0.669  -1.312  0.00  0.00     0.078 C 
ATOM      2  C1' OXE d   1       1.314   1.764  -1.544  0.00  0.00     0.078 C 
ATOM      3  C1  OXE d   1       0.638   0.639  -0.800  0.00  0.00    -0.078 A 
ATOM      4  C2  OXE d   1       1.302  -0.562  -0.732  0.00  0.00    -0.078 A 
ATOM      5  C3  OXE d   1       0.747  -1.616  -0.011  0.00  0.00     0.003 A 
ATOM      6  C4  OXE d   1      -0.547  -1.513   0.513  0.00  0.00    -0.002 A 
ATOM      7  C5  OXE d   1      -1.256  -0.311   0.421  0.00  0.00    -0.002 A 
ATOM      8  C6  OXE d   1      -0.662   0.786  -0.195  0.00  0.00     0.003 A 
ENDROOT
TORSDOF 0
ENDMDL
