MODEL 1
REMARK minimizedAffinity -3.23568559
REMARK minimizedRMSD -1
REMARK  0 active torsions:
REMARK  status: ('A' for Active; 'I' for Inactive)
ROOT
ATOM      1  C2' OXE d   1       0.403  -2.087   0.596  0.00  0.00     0.078 C 
ATOM      2  C1' OXE d   1       2.133  -1.160  -1.411  0.00  0.00     0.078 C 
ATOM      3  C1  OXE d   1       1.035  -0.236  -0.946  0.00  0.00    -0.078 A 
ATOM      4  C2  OXE d   1       0.165  -0.715   0.004  0.00  0.00    -0.078 A 
ATOM      5  C3  OXE d   1      -0.832   0.116   0.507  0.00  0.00     0.003 A 
ATOM      6  C4  OXE d   1      -1.051   1.380  -0.054  0.00  0.00    -0.002 A 
ATOM      7  C5  OXE d   1      -0.201   1.872  -1.049  0.00  0.00    -0.002 A 
ATOM      8  C6  OXE d   1       0.871   1.095  -1.476  0.00  0.00     0.003 A 
ENDROOT
TORSDOF 0
ENDMDL
