MODEL 1
REMARK minimizedAffinity -3.92682767
REMARK minimizedRMSD -1
REMARK  0 active torsions:
REMARK  status: ('A' for Active; 'I' for Inactive)
ROOT
ATOM      1  C2' OXE d   1      -1.457   1.613  -0.909  0.00  0.00     0.078 C 
ATOM      2  C1' OXE d   1      -0.906   0.372   1.548  0.00  0.00     0.078 C 
ATOM      3  C1  OXE d   1       0.178   0.368   0.499  0.00  0.00    -0.078 A 
ATOM      4  C2  OXE d   1      -0.117   0.936  -0.717  0.00  0.00    -0.078 A 
ATOM      5  C3  OXE d   1       0.865   1.007  -1.701  0.00  0.00     0.003 A 
ATOM      6  C4  OXE d   1       2.098   0.369  -1.518  0.00  0.00    -0.002 A 
ATOM      7  C5  OXE d   1       2.404  -0.250  -0.302  0.00  0.00    -0.002 A 
ATOM      8  C6  OXE d   1       1.473  -0.223   0.730  0.00  0.00     0.003 A 
ENDROOT
TORSDOF 0
ENDMDL
