MODEL 1
REMARK minimizedAffinity -2.10250854
REMARK minimizedRMSD -1
REMARK  0 active torsions:
REMARK  status: ('A' for Active; 'I' for Inactive)
ROOT
ATOM      1  C   UNL d   1       1.150  -2.895   0.770  0.00  0.00     0.078 C 
ATOM      2  C1  UNL d   1       0.323  -1.651   0.637  0.00  0.00    -0.077 A 
ATOM      3  C2  UNL d   1      -0.817  -1.455   1.427  0.00  0.00    -0.001 A 
ATOM      4  C3  UNL d   1      -1.583  -0.298   1.285  0.00  0.00     0.003 A 
ATOM      5  C4  UNL d   1      -1.219   0.673   0.354  0.00  0.00    -0.005 A 
ATOM      6  C5  UNL d   1      -0.089   0.485  -0.439  0.00  0.00     0.003 A 
ATOM      7  C6  UNL d   1       0.679  -0.672  -0.298  0.00  0.00    -0.001 A 
ENDROOT
TORSDOF 0
ENDMDL
