MODEL 1
REMARK minimizedAffinity -3.53119731
REMARK minimizedRMSD -1
REMARK  0 active torsions:
REMARK  status: ('A' for Active; 'I' for Inactive)
ROOT
ATOM      1  C   UNL d   1      -0.016   4.217  -3.723  0.00  0.00     0.078 C 
ATOM      2  C1  UNL d   1      -1.108   3.199  -3.591  0.00  0.00    -0.077 A 
ATOM      3  C2  UNL d   1      -1.039   2.189  -2.624  0.00  0.00    -0.001 A 
ATOM      4  C3  UNL d   1      -2.058   1.241  -2.518  0.00  0.00     0.003 A 
ATOM      5  C4  UNL d   1      -3.154   1.293  -3.378  0.00  0.00    -0.005 A 
ATOM      6  C5  UNL d   1      -3.230   2.293  -4.345  0.00  0.00     0.003 A 
ATOM      7  C6  UNL d   1      -2.212   3.242  -4.452  0.00  0.00    -0.001 A 
ENDROOT
TORSDOF 0
ENDMDL
