MODEL 1
REMARK minimizedAffinity -0.491306126
REMARK minimizedRMSD -1
REMARK  0 active torsions:
REMARK  status: ('A' for Active; 'I' for Inactive)
ROOT
ATOM      1  C   UNL d   1       0.599  -2.687   0.381  0.00  0.00     0.078 C 
ATOM      2  C1  UNL d   1       0.331  -1.238   0.105  0.00  0.00    -0.077 A 
ATOM      3  C2  UNL d   1      -0.975  -0.770  -0.086  0.00  0.00    -0.001 A 
ATOM      4  C3  UNL d   1      -1.210   0.580  -0.351  0.00  0.00     0.003 A 
ATOM      5  C4  UNL d   1      -0.144   1.473  -0.429  0.00  0.00    -0.005 A 
ATOM      6  C5  UNL d   1       1.159   1.017  -0.242  0.00  0.00     0.003 A 
ATOM      7  C6  UNL d   1       1.396  -0.333   0.023  0.00  0.00    -0.001 A 
ENDROOT
TORSDOF 0
ENDMDL
