MODEL 1
REMARK minimizedAffinity -1.16071069
REMARK minimizedRMSD -1
REMARK  0 active torsions:
REMARK  status: ('A' for Active; 'I' for Inactive)
ROOT
ATOM      1  C   UNL d   1      -0.681  -2.049   0.883  0.00  0.00     0.078 C 
ATOM      2  C1  UNL d   1      -0.819  -0.640   0.389  0.00  0.00    -0.077 A 
ATOM      3  C2  UNL d   1       0.091  -0.106  -0.532  0.00  0.00    -0.001 A 
ATOM      4  C3  UNL d   1      -0.043   1.210  -0.976  0.00  0.00     0.003 A 
ATOM      5  C4  UNL d   1      -1.086   2.004  -0.504  0.00  0.00    -0.005 A 
ATOM      6  C5  UNL d   1      -1.996   1.483   0.414  0.00  0.00     0.003 A 
ATOM      7  C6  UNL d   1      -1.863   0.166   0.859  0.00  0.00    -0.001 A 
ENDROOT
TORSDOF 0
ENDMDL
