MODEL 1
REMARK minimizedAffinity 2.97497559
REMARK minimizedRMSD -1
REMARK  0 active torsions:
REMARK  status: ('A' for Active; 'I' for Inactive)
ROOT
ATOM      1  C   UNL d   1       0.748   0.893  -0.597  0.00  0.00     0.078 C 
ATOM      2  C1  UNL d   1       1.709   1.980  -0.217  0.00  0.00    -0.077 A 
ATOM      3  C2  UNL d   1       3.092   1.769  -0.270  0.00  0.00    -0.001 A 
ATOM      4  C3  UNL d   1       3.976   2.786   0.096  0.00  0.00     0.003 A 
ATOM      5  C4  UNL d   1       3.485   4.020   0.518  0.00  0.00    -0.005 A 
ATOM      6  C5  UNL d   1       2.110   4.238   0.575  0.00  0.00     0.003 A 
ATOM      7  C6  UNL d   1       1.226   3.223   0.210  0.00  0.00    -0.001 A 
ENDROOT
TORSDOF 0
ENDMDL
