MODEL 1
REMARK minimizedAffinity -0.85263592
REMARK minimizedRMSD -1
REMARK  0 active torsions:
REMARK  status: ('A' for Active; 'I' for Inactive)
ROOT
ATOM      1  C   UNL d   1      -2.579   1.820  -3.773  0.00  0.00     0.078 C 
ATOM      2  C1  UNL d   1      -1.622   2.175  -2.675  0.00  0.00    -0.077 A 
ATOM      3  C2  UNL d   1      -1.043   3.448  -2.606  0.00  0.00    -0.001 A 
ATOM      4  C3  UNL d   1      -0.147   3.762  -1.583  0.00  0.00     0.003 A 
ATOM      5  C4  UNL d   1       0.180   2.808  -0.622  0.00  0.00    -0.005 A 
ATOM      6  C5  UNL d   1      -0.390   1.538  -0.683  0.00  0.00     0.003 A 
ATOM      7  C6  UNL d   1      -1.287   1.222  -1.705  0.00  0.00    -0.001 A 
ENDROOT
TORSDOF 0
ENDMDL
