MODEL 1
REMARK minimizedAffinity -4.45582962
REMARK minimizedRMSD -1
REMARK  0 active torsions:
REMARK  status: ('A' for Active; 'I' for Inactive)
ROOT
ATOM      1  C   UNL d   1       0.179   3.963  -0.448  0.00  0.00     0.078 C 
ATOM      2  C1  UNL d   1      -0.690   3.156  -1.366  0.00  0.00    -0.077 A 
ATOM      3  C2  UNL d   1      -0.740   3.429  -2.738  0.00  0.00    -0.001 A 
ATOM      4  C3  UNL d   1      -1.560   2.676  -3.579  0.00  0.00     0.003 A 
ATOM      5  C4  UNL d   1      -2.337   1.644  -3.056  0.00  0.00    -0.005 A 
ATOM      6  C5  UNL d   1      -2.296   1.365  -1.692  0.00  0.00     0.003 A 
ATOM      7  C6  UNL d   1      -1.476   2.118  -0.849  0.00  0.00    -0.001 A 
ENDROOT
TORSDOF 0
ENDMDL
