MODEL 1
REMARK minimizedAffinity -3.85408854
REMARK minimizedRMSD -1
REMARK  0 active torsions:
REMARK  status: ('A' for Active; 'I' for Inactive)
ROOT
ATOM      1  C   UNL d   1       1.265  -2.576   0.795  0.00  0.00     0.078 C 
ATOM      2  C1  UNL d   1       0.358  -1.383   0.753  0.00  0.00    -0.077 A 
ATOM      3  C2  UNL d   1       0.499  -0.405  -0.239  0.00  0.00    -0.001 A 
ATOM      4  C3  UNL d   1      -0.346   0.706  -0.260  0.00  0.00     0.003 A 
ATOM      5  C4  UNL d   1      -1.337   0.850   0.709  0.00  0.00    -0.005 A 
ATOM      6  C5  UNL d   1      -1.483  -0.117   1.701  0.00  0.00     0.003 A 
ATOM      7  C6  UNL d   1      -0.639  -1.228   1.724  0.00  0.00    -0.001 A 
ENDROOT
TORSDOF 0
ENDMDL
