MODEL 1
REMARK minimizedAffinity -3.10619521
REMARK minimizedRMSD -1
REMARK  0 active torsions:
REMARK  status: ('A' for Active; 'I' for Inactive)
ROOT
ATOM      1  C   UNL d   1      -1.280   1.448  -0.624  0.00  0.00     0.078 C 
ATOM      2  C1  UNL d   1      -1.439   2.088  -1.971  0.00  0.00    -0.077 A 
ATOM      3  C2  UNL d   1      -2.224   1.491  -2.965  0.00  0.00    -0.001 A 
ATOM      4  C3  UNL d   1      -2.355   2.093  -4.217  0.00  0.00     0.003 A 
ATOM      5  C4  UNL d   1      -1.702   3.294  -4.488  0.00  0.00    -0.005 A 
ATOM      6  C5  UNL d   1      -0.917   3.894  -3.506  0.00  0.00     0.003 A 
ATOM      7  C6  UNL d   1      -0.785   3.294  -2.253  0.00  0.00    -0.001 A 
ENDROOT
TORSDOF 0
ENDMDL
