MODEL 1
REMARK minimizedAffinity -4.53559399
REMARK minimizedRMSD -1
REMARK  0 active torsions:
REMARK  status: ('A' for Active; 'I' for Inactive)
ROOT
ATOM      1  C   UNL d   1      -0.703   0.639  -1.370  0.00  0.00     0.078 C 
ATOM      2  C1  UNL d   1       0.047  -0.347  -0.525  0.00  0.00    -0.077 A 
ATOM      3  C2  UNL d   1       1.208   0.027   0.161  0.00  0.00    -0.001 A 
ATOM      4  C3  UNL d   1       1.901  -0.904   0.936  0.00  0.00     0.003 A 
ATOM      5  C4  UNL d   1       1.441  -2.216   1.031  0.00  0.00    -0.005 A 
ATOM      6  C5  UNL d   1       0.287  -2.598   0.350  0.00  0.00     0.003 A 
ATOM      7  C6  UNL d   1      -0.407  -1.668  -0.426  0.00  0.00    -0.001 A 
ENDROOT
TORSDOF 0
ENDMDL
