MODEL 1
REMARK minimizedAffinity -3.72207022
REMARK minimizedRMSD -1
REMARK  0 active torsions:
REMARK  status: ('A' for Active; 'I' for Inactive)
ROOT
ATOM      1  C   UNL d   1       2.286   0.774  -0.761  0.00  0.00     0.078 C 
ATOM      2  C1  UNL d   1       1.625  -0.372  -0.055  0.00  0.00    -0.077 A 
ATOM      3  C2  UNL d   1       0.237  -0.552  -0.115  0.00  0.00    -0.001 A 
ATOM      4  C3  UNL d   1      -0.366  -1.617   0.556  0.00  0.00     0.003 A 
ATOM      5  C4  UNL d   1       0.411  -2.510   1.292  0.00  0.00    -0.005 A 
ATOM      6  C5  UNL d   1       1.792  -2.338   1.359  0.00  0.00     0.003 A 
ATOM      7  C6  UNL d   1       2.396  -1.273   0.689  0.00  0.00    -0.001 A 
ENDROOT
TORSDOF 0
ENDMDL
