MODEL 1
REMARK minimizedAffinity -4.54847765
REMARK minimizedRMSD -1
REMARK  0 active torsions:
REMARK  status: ('A' for Active; 'I' for Inactive)
ROOT
ATOM      1  C   UNL d   1       1.868  -2.824   1.399  0.00  0.00     0.078 C 
ATOM      2  C1  UNL d   1       0.883  -1.749   1.047  0.00  0.00    -0.077 A 
ATOM      3  C2  UNL d   1       1.072  -0.938  -0.079  0.00  0.00    -0.001 A 
ATOM      4  C3  UNL d   1       0.152   0.064  -0.389  0.00  0.00     0.003 A 
ATOM      5  C4  UNL d   1      -0.963   0.266   0.422  0.00  0.00    -0.005 A 
ATOM      6  C5  UNL d   1      -1.158  -0.534   1.545  0.00  0.00     0.003 A 
ATOM      7  C6  UNL d   1      -0.239  -1.537   1.857  0.00  0.00    -0.001 A 
ENDROOT
TORSDOF 0
ENDMDL
