MODEL 1
REMARK minimizedAffinity -3.92565513
REMARK minimizedRMSD -1
REMARK  0 active torsions:
REMARK  status: ('A' for Active; 'I' for Inactive)
ROOT
ATOM      1  C   UNL d   1      -0.612   1.138  -0.262  0.00  0.00     0.078 C 
ATOM      2  C1  UNL d   1       0.123  -0.133   0.047  0.00  0.00    -0.077 A 
ATOM      3  C2  UNL d   1       1.363  -0.409  -0.542  0.00  0.00    -0.001 A 
ATOM      4  C3  UNL d   1       2.031  -1.600  -0.253  0.00  0.00     0.003 A 
ATOM      5  C4  UNL d   1       1.466  -2.525   0.624  0.00  0.00    -0.005 A 
ATOM      6  C5  UNL d   1       0.231  -2.259   1.213  0.00  0.00     0.003 A 
ATOM      7  C6  UNL d   1      -0.438  -1.068   0.925  0.00  0.00    -0.001 A 
ENDROOT
TORSDOF 0
ENDMDL
