MODEL 1
REMARK minimizedAffinity -5.68151808
REMARK minimizedRMSD -1
REMARK  0 active torsions:
REMARK  status: ('A' for Active; 'I' for Inactive)
ROOT
ATOM      1  C   UNL d   1      -3.919   1.738  -2.958  0.00  0.00     0.078 C 
ATOM      2  C1  UNL d   1      -2.706   2.583  -3.210  0.00  0.00    -0.077 A 
ATOM      3  C2  UNL d   1      -1.868   2.972  -2.158  0.00  0.00    -0.001 A 
ATOM      4  C3  UNL d   1      -0.748   3.767  -2.406  0.00  0.00     0.003 A 
ATOM      5  C4  UNL d   1      -0.456   4.180  -3.705  0.00  0.00    -0.005 A 
ATOM      6  C5  UNL d   1      -1.286   3.800  -4.757  0.00  0.00     0.003 A 
ATOM      7  C6  UNL d   1      -2.407   3.005  -4.511  0.00  0.00    -0.001 A 
ENDROOT
TORSDOF 0
ENDMDL
