MODEL 1
REMARK minimizedAffinity -1.79550707
REMARK minimizedRMSD -1
REMARK  0 active torsions:
REMARK  status: ('A' for Active; 'I' for Inactive)
ROOT
ATOM      1  C   UNL d   1       3.098  -1.322   2.179  0.00  0.00     0.078 C 
ATOM      2  C1  UNL d   1       1.883  -0.957   1.378  0.00  0.00    -0.077 A 
ATOM      3  C2  UNL d   1       1.852   0.210   0.605  0.00  0.00    -0.001 A 
ATOM      4  C3  UNL d   1       0.712   0.542  -0.128  0.00  0.00     0.003 A 
ATOM      5  C4  UNL d   1      -0.408  -0.287  -0.093  0.00  0.00    -0.005 A 
ATOM      6  C5  UNL d   1      -0.387  -1.450   0.675  0.00  0.00     0.003 A 
ATOM      7  C6  UNL d   1       0.752  -1.783   1.408  0.00  0.00    -0.001 A 
ENDROOT
TORSDOF 0
ENDMDL
