MODEL 1
REMARK minimizedAffinity -5.75189018
REMARK minimizedRMSD -1
REMARK  0 active torsions:
REMARK  status: ('A' for Active; 'I' for Inactive)
ROOT
ATOM      1  C   UNL d   1      -0.615   0.883  -0.087  0.00  0.00     0.078 C 
ATOM      2  C1  UNL d   1       0.227  -0.317   0.230  0.00  0.00    -0.077 A 
ATOM      3  C2  UNL d   1       1.611  -0.304   0.014  0.00  0.00    -0.001 A 
ATOM      4  C3  UNL d   1       2.381  -1.431   0.305  0.00  0.00     0.003 A 
ATOM      5  C4  UNL d   1       1.776  -2.580   0.810  0.00  0.00    -0.005 A 
ATOM      6  C5  UNL d   1       0.400  -2.603   1.026  0.00  0.00     0.003 A 
ATOM      7  C6  UNL d   1      -0.372  -1.477   0.736  0.00  0.00    -0.001 A 
ENDROOT
TORSDOF 0
ENDMDL
