MODEL 1
REMARK minimizedAffinity -3.98617435
REMARK minimizedRMSD -1
REMARK  0 active torsions:
REMARK  status: ('A' for Active; 'I' for Inactive)
ROOT
ATOM      1  C   UNL d   1       2.773   1.996  -0.101  0.00  0.00     0.078 C 
ATOM      2  C1  UNL d   1       1.685   0.979   0.079  0.00  0.00    -0.077 A 
ATOM      3  C2  UNL d   1       1.980  -0.387   0.154  0.00  0.00    -0.001 A 
ATOM      4  C3  UNL d   1       0.956  -1.323   0.311  0.00  0.00     0.003 A 
ATOM      5  C4  UNL d   1      -0.370  -0.902   0.393  0.00  0.00    -0.005 A 
ATOM      6  C5  UNL d   1      -0.673   0.456   0.316  0.00  0.00     0.003 A 
ATOM      7  C6  UNL d   1       0.349   1.393   0.159  0.00  0.00    -0.001 A 
ENDROOT
TORSDOF 0
ENDMDL
