MODEL 1
REMARK minimizedAffinity -4.63373423
REMARK minimizedRMSD -1
REMARK  0 active torsions:
REMARK  status: ('A' for Active; 'I' for Inactive)
ROOT
ATOM      1  C   UNL d   1       3.711   3.060  -0.069  0.00  0.00     0.078 C 
ATOM      2  C1  UNL d   1       2.332   2.473  -0.098  0.00  0.00    -0.077 A 
ATOM      3  C2  UNL d   1       2.136   1.100  -0.289  0.00  0.00    -0.001 A 
ATOM      4  C3  UNL d   1       0.846   0.568  -0.323  0.00  0.00     0.003 A 
ATOM      5  C4  UNL d   1      -0.259   1.403  -0.169  0.00  0.00    -0.005 A 
ATOM      6  C5  UNL d   1      -0.074   2.771   0.019  0.00  0.00     0.003 A 
ATOM      7  C6  UNL d   1       1.215   3.305   0.054  0.00  0.00    -0.001 A 
ENDROOT
TORSDOF 0
ENDMDL
