MODEL 1
REMARK minimizedAffinity -1.73062801
REMARK minimizedRMSD -1
REMARK  0 active torsions:
REMARK  status: ('A' for Active; 'I' for Inactive)
ROOT
ATOM      1  C1  BNZ d   1      -4.355   0.322  -3.992  0.00  0.00     0.000 A 
ATOM      2  C2  BNZ d   1      -5.372   1.229  -3.868  0.00  0.00     0.000 A 
ATOM      3  C3  BNZ d   1      -5.111   2.536  -3.564  0.00  0.00     0.000 A 
ATOM      4  C4  BNZ d   1      -3.839   2.925  -3.346  0.00  0.00     0.000 A 
ATOM      5  C5  BNZ d   1      -2.802   2.019  -3.458  0.00  0.00     0.000 A 
ATOM      6  C6  BNZ d   1      -3.065   0.713  -3.802  0.00  0.00     0.000 A 
ENDROOT
TORSDOF 0
ENDMDL
