MODEL 1
REMARK minimizedAffinity -3.28369761
REMARK minimizedRMSD -1
REMARK  0 active torsions:
REMARK  status: ('A' for Active; 'I' for Inactive)
ROOT
ATOM      1  C1  BNZ d   1      -5.258   1.256  -3.718  0.00  0.00     0.000 A 
ATOM      2  C2  BNZ d   1      -4.149   0.630  -4.221  0.00  0.00     0.000 A 
ATOM      3  C3  BNZ d   1      -2.895   1.103  -3.950  0.00  0.00     0.000 A 
ATOM      4  C4  BNZ d   1      -2.754   2.222  -3.211  0.00  0.00     0.000 A 
ATOM      5  C5  BNZ d   1      -3.863   2.870  -2.704  0.00  0.00     0.000 A 
ATOM      6  C6  BNZ d   1      -5.122   2.369  -2.946  0.00  0.00     0.000 A 
ENDROOT
TORSDOF 0
ENDMDL
