MODEL 1
REMARK minimizedAffinity -1.83677614
REMARK minimizedRMSD -1
REMARK  0 active torsions:
REMARK  status: ('A' for Active; 'I' for Inactive)
ROOT
ATOM      1  C1  BNZ d   1      -5.992   3.402   4.758  0.00  0.00     0.000 A 
ATOM      2  C2  BNZ d   1      -5.981   3.706   3.423  0.00  0.00     0.000 A 
ATOM      3  C3  BNZ d   1      -5.953   5.006   3.002  0.00  0.00     0.000 A 
ATOM      4  C4  BNZ d   1      -5.977   5.999   3.914  0.00  0.00     0.000 A 
ATOM      5  C5  BNZ d   1      -5.997   5.709   5.263  0.00  0.00     0.000 A 
ATOM      6  C6  BNZ d   1      -5.986   4.399   5.684  0.00  0.00     0.000 A 
ENDROOT
TORSDOF 0
ENDMDL
