MODEL 1
REMARK minimizedAffinity -0.027898524
REMARK minimizedRMSD -1
REMARK  0 active torsions:
REMARK  status: ('A' for Active; 'I' for Inactive)
ROOT
ATOM      1  C1  BNZ d   1       2.553  -0.400   0.392  0.00  0.00     0.000 A 
ATOM      2  C2  BNZ d   1       3.800  -0.153  -0.117  0.00  0.00     0.000 A 
ATOM      3  C3  BNZ d   1       4.170   1.112  -0.481  0.00  0.00     0.000 A 
ATOM      4  C4  BNZ d   1       3.280   2.119  -0.374  0.00  0.00     0.000 A 
ATOM      5  C5  BNZ d   1       2.016   1.885   0.129  0.00  0.00     0.000 A 
ATOM      6  C6  BNZ d   1       1.660   0.618   0.531  0.00  0.00     0.000 A 
ENDROOT
TORSDOF 0
ENDMDL
