MODEL 1
REMARK minimizedAffinity -1.58312166
REMARK minimizedRMSD -1
REMARK  0 active torsions:
REMARK  status: ('A' for Active; 'I' for Inactive)
ROOT
ATOM      1  C1  BNZ d   1      -3.686   0.662  -4.143  0.00  0.00     0.000 A 
ATOM      2  C2  BNZ d   1      -4.838   0.024  -3.769  0.00  0.00     0.000 A 
ATOM      3  C3  BNZ d   1      -6.000   0.723  -3.595  0.00  0.00     0.000 A 
ATOM      4  C4  BNZ d   1      -5.999   2.061  -3.757  0.00  0.00     0.000 A 
ATOM      5  C5  BNZ d   1      -4.843   2.720  -4.125  0.00  0.00     0.000 A 
ATOM      6  C6  BNZ d   1      -3.684   2.009  -4.337  0.00  0.00     0.000 A 
ENDROOT
TORSDOF 0
ENDMDL
