MODEL 1
REMARK minimizedAffinity -1.59325969
REMARK minimizedRMSD -1
REMARK  0 active torsions:
REMARK  status: ('A' for Active; 'I' for Inactive)
ROOT
ATOM      1  C1  BNZ d   1      -3.952   0.686  -4.570  0.00  0.00     0.000 A 
ATOM      2  C2  BNZ d   1      -5.320   0.737  -4.581  0.00  0.00     0.000 A 
ATOM      3  C3  BNZ d   1      -5.995   1.600  -3.765  0.00  0.00     0.000 A 
ATOM      4  C4  BNZ d   1      -5.304   2.382  -2.910  0.00  0.00     0.000 A 
ATOM      5  C5  BNZ d   1      -3.924   2.335  -2.880  0.00  0.00     0.000 A 
ATOM      6  C6  BNZ d   1      -3.247   1.493  -3.732  0.00  0.00     0.000 A 
ENDROOT
TORSDOF 0
ENDMDL
