MODEL 1
REMARK minimizedAffinity 2.7694273
REMARK minimizedRMSD -1
REMARK  0 active torsions:
REMARK  status: ('A' for Active; 'I' for Inactive)
ROOT
ATOM      1  C1  BNZ d   1      -4.565   0.101  -2.398  0.00  0.00     0.000 A 
ATOM      2  C2  BNZ d   1      -3.499  -0.375  -3.114  0.00  0.00     0.000 A 
ATOM      3  C3  BNZ d   1      -2.771   0.454  -3.921  0.00  0.00     0.000 A 
ATOM      4  C4  BNZ d   1      -3.133   1.748  -4.041  0.00  0.00     0.000 A 
ATOM      5  C5  BNZ d   1      -4.211   2.241  -3.333  0.00  0.00     0.000 A 
ATOM      6  C6  BNZ d   1      -4.918   1.412  -2.492  0.00  0.00     0.000 A 
ENDROOT
TORSDOF 0
ENDMDL
