MODEL 1
REMARK minimizedAffinity 1.12294292
REMARK minimizedRMSD -1
REMARK  0 active torsions:
REMARK  status: ('A' for Active; 'I' for Inactive)
ROOT
ATOM      1  C1  BNZ d   1      -4.826   2.013  -2.701  0.00  0.00     0.000 A 
ATOM      2  C2  BNZ d   1      -5.667   2.483  -1.728  0.00  0.00     0.000 A 
ATOM      3  C3  BNZ d   1      -5.991   1.709  -0.649  0.00  0.00     0.000 A 
ATOM      4  C4  BNZ d   1      -5.507   0.453  -0.565  0.00  0.00     0.000 A 
ATOM      5  C5  BNZ d   1      -4.665  -0.039  -1.542  0.00  0.00     0.000 A 
ATOM      6  C6  BNZ d   1      -4.310   0.758  -2.607  0.00  0.00     0.000 A 
ENDROOT
TORSDOF 0
ENDMDL
