MODEL 1
REMARK minimizedAffinity 2.95627117
REMARK minimizedRMSD -1
REMARK  0 active torsions:
REMARK  status: ('A' for Active; 'I' for Inactive)
ROOT
ATOM      1  C1  BNZ d   1       3.745   0.500  -1.427  0.00  0.00     0.000 A 
ATOM      2  C2  BNZ d   1       2.558   0.158  -0.837  0.00  0.00     0.000 A 
ATOM      3  C3  BNZ d   1       2.068   0.876   0.218  0.00  0.00     0.000 A 
ATOM      4  C4  BNZ d   1       2.785   1.909   0.707  0.00  0.00     0.000 A 
ATOM      5  C5  BNZ d   1       3.988   2.261   0.128  0.00  0.00     0.000 A 
ATOM      6  C6  BNZ d   1       4.459   1.560  -0.958  0.00  0.00     0.000 A 
ENDROOT
TORSDOF 0
ENDMDL
