MODEL 1
REMARK minimizedAffinity -3.55643153
REMARK minimizedRMSD -1
REMARK  0 active torsions:
REMARK  status: ('A' for Active; 'I' for Inactive)
ROOT
ATOM      1  C   UNL d   1      -1.770  -1.105   0.693  0.00  0.00    -0.002 A 
ATOM      2  C1  UNL d   1      -0.591  -1.622   0.175  0.00  0.00     0.010 A 
ATOM      3  C2  UNL d   1       0.477  -0.778  -0.138  0.00  0.00     0.041 A 
ATOM      4  C3  UNL d   1       0.338   0.607   0.080  0.00  0.00    -0.075 A 
ATOM      5  S   UNL d   1       1.512   1.831  -0.229  0.00  0.00     0.015 SA
ATOM      6  C4  UNL d   1       0.476   3.068   0.320  0.00  0.00     0.022 A 
ATOM      7  C5  UNL d   1      -0.741   2.577   0.732  0.00  0.00     0.026 A 
ATOM      8  C6  UNL d   1      -0.840   1.150   0.601  0.00  0.00    -0.082 A 
ATOM      9  C7  UNL d   1      -1.904   0.269   0.908  0.00  0.00     0.045 A 
ENDROOT
TORSDOF 0
ENDMDL
