MODEL 1
REMARK minimizedAffinity 0.686880589
REMARK minimizedRMSD -1
REMARK  0 active torsions:
REMARK  status: ('A' for Active; 'I' for Inactive)
ROOT
ATOM      1  C   UNL d   1       0.542   1.988  -0.000  0.00  0.00    -0.002 A 
ATOM      2  C1  UNL d   1       1.860   1.663   0.286  0.00  0.00     0.010 A 
ATOM      3  C2  UNL d   1       2.284   0.333   0.264  0.00  0.00     0.041 A 
ATOM      4  C3  UNL d   1       1.352  -0.674  -0.055  0.00  0.00    -0.075 A 
ATOM      5  S   UNL d   1       1.645  -2.371  -0.144  0.00  0.00     0.015 SA
ATOM      6  C4  UNL d   1       0.027  -2.704  -0.565  0.00  0.00     0.022 A 
ATOM      7  C5  UNL d   1      -0.732  -1.560  -0.640  0.00  0.00     0.026 A 
ATOM      8  C6  UNL d   1       0.019  -0.371  -0.348  0.00  0.00    -0.082 A 
ATOM      9  C7  UNL d   1      -0.380   0.987  -0.317  0.00  0.00     0.045 A 
ENDROOT
TORSDOF 0
ENDMDL
