MODEL 1
REMARK minimizedAffinity -2.59800816
REMARK minimizedRMSD -1
REMARK  0 active torsions:
REMARK  status: ('A' for Active; 'I' for Inactive)
ROOT
ATOM      1  C   UNL d   1      -1.223   2.426   0.369  0.00  0.00    -0.002 A 
ATOM      2  C1  UNL d   1       0.153   2.541   0.237  0.00  0.00     0.010 A 
ATOM      3  C2  UNL d   1       0.945   1.408   0.035  0.00  0.00     0.041 A 
ATOM      4  C3  UNL d   1       0.323   0.146  -0.034  0.00  0.00    -0.075 A 
ATOM      5  S   UNL d   1       1.090  -1.379  -0.276  0.00  0.00     0.015 SA
ATOM      6  C4  UNL d   1      -0.391  -2.219  -0.211  0.00  0.00     0.022 A 
ATOM      7  C5  UNL d   1      -1.456  -1.372  -0.011  0.00  0.00     0.026 A 
ATOM      8  C6  UNL d   1      -1.062   0.005   0.094  0.00  0.00    -0.082 A 
ATOM      9  C7  UNL d   1      -1.837   1.172   0.299  0.00  0.00     0.045 A 
ENDROOT
TORSDOF 0
ENDMDL
