MODEL 1
REMARK minimizedAffinity -0.593107164
REMARK minimizedRMSD -1
REMARK  0 active torsions:
REMARK  status: ('A' for Active; 'I' for Inactive)
ROOT
ATOM      1  C   UNL d   1      -0.091  -0.156   1.033  0.00  0.00    -0.002 A 
ATOM      2  C1  UNL d   1       0.735   0.319   0.024  0.00  0.00     0.010 A 
ATOM      3  C2  UNL d   1       0.917  -0.415  -1.150  0.00  0.00     0.041 A 
ATOM      4  C3  UNL d   1       0.246  -1.645  -1.296  0.00  0.00    -0.075 A 
ATOM      5  S   UNL d   1       0.316  -2.714  -2.646  0.00  0.00     0.015 SA
ATOM      6  C4  UNL d   1      -0.750  -3.826  -1.917  0.00  0.00     0.022 A 
ATOM      7  C5  UNL d   1      -1.159  -3.407  -0.673  0.00  0.00     0.026 A 
ATOM      8  C6  UNL d   1      -0.593  -2.143  -0.294  0.00  0.00    -0.082 A 
ATOM      9  C7  UNL d   1      -0.755  -1.377   0.885  0.00  0.00     0.045 A 
ENDROOT
TORSDOF 0
ENDMDL
