MODEL 1
REMARK minimizedAffinity -4.99998903
REMARK minimizedRMSD -1
REMARK  0 active torsions:
REMARK  status: ('A' for Active; 'I' for Inactive)
ROOT
ATOM      1  C   UNL d   1       0.495   3.574   0.378  0.00  0.00    -0.002 A 
ATOM      2  C1  UNL d   1       1.858   3.424   0.590  0.00  0.00     0.010 A 
ATOM      3  C2  UNL d   1       2.421   2.152   0.717  0.00  0.00     0.041 A 
ATOM      4  C3  UNL d   1       1.583   1.024   0.624  0.00  0.00    -0.075 A 
ATOM      5  S   UNL d   1       2.051  -0.631   0.748  0.00  0.00     0.015 SA
ATOM      6  C4  UNL d   1       0.452  -1.177   0.522  0.00  0.00     0.022 A 
ATOM      7  C5  UNL d   1      -0.430  -0.136   0.354  0.00  0.00     0.026 A 
ATOM      8  C6  UNL d   1       0.208   1.150   0.410  0.00  0.00    -0.082 A 
ATOM      9  C7  UNL d   1      -0.333   2.452   0.286  0.00  0.00     0.045 A 
ENDROOT
TORSDOF 0
ENDMDL
