MODEL 1
REMARK minimizedAffinity -4.55590296
REMARK minimizedRMSD -1
REMARK  0 active torsions:
REMARK  status: ('A' for Active; 'I' for Inactive)
ROOT
ATOM      1  C   UNL d   1      -0.439   2.751  -0.070  0.00  0.00    -0.002 A 
ATOM      2  C1  UNL d   1      -1.487   1.860   0.118  0.00  0.00     0.010 A 
ATOM      3  C2  UNL d   1      -1.234   0.509   0.362  0.00  0.00     0.041 A 
ATOM      4  C3  UNL d   1       0.101   0.064   0.417  0.00  0.00    -0.075 A 
ATOM      5  S   UNL d   1       0.649  -1.545   0.703  0.00  0.00     0.015 SA
ATOM      6  C4  UNL d   1       2.287  -1.088   0.584  0.00  0.00     0.022 A 
ATOM      7  C5  UNL d   1       2.430   0.255   0.331  0.00  0.00     0.026 A 
ATOM      8  C6  UNL d   1       1.173   0.942   0.231  0.00  0.00    -0.082 A 
ATOM      9  C7  UNL d   1       0.884   2.306  -0.016  0.00  0.00     0.045 A 
ENDROOT
TORSDOF 0
ENDMDL
