MODEL 1
REMARK minimizedAffinity -4.0104847
REMARK minimizedRMSD -1
REMARK  0 active torsions:
REMARK  status: ('A' for Active; 'I' for Inactive)
ROOT
ATOM      1  C   UNL d   1      -1.174   2.077   0.048  0.00  0.00    -0.002 A 
ATOM      2  C1  UNL d   1       0.189   2.195  -0.185  0.00  0.00     0.010 A 
ATOM      3  C2  UNL d   1       0.977   1.060  -0.386  0.00  0.00     0.041 A 
ATOM      4  C3  UNL d   1       0.365  -0.209  -0.351  0.00  0.00    -0.075 A 
ATOM      5  S   UNL d   1       1.131  -1.738  -0.571  0.00  0.00     0.015 SA
ATOM      6  C4  UNL d   1      -0.334  -2.584  -0.363  0.00  0.00     0.022 A 
ATOM      7  C5  UNL d   1      -1.391  -1.737  -0.130  0.00  0.00     0.026 A 
ATOM      8  C6  UNL d   1      -1.005  -0.354  -0.119  0.00  0.00    -0.082 A 
ATOM      9  C7  UNL d   1      -1.777   0.816   0.082  0.00  0.00     0.045 A 
ENDROOT
TORSDOF 0
ENDMDL
