MODEL 1
REMARK minimizedAffinity -2.56869268
REMARK minimizedRMSD -1
REMARK  0 active torsions:
REMARK  status: ('A' for Active; 'I' for Inactive)
ROOT
ATOM      1  C   UNL d   1      -1.152   2.646   0.651  0.00  0.00    -0.002 A 
ATOM      2  C1  UNL d   1       0.099   2.963   0.142  0.00  0.00     0.010 A 
ATOM      3  C2  UNL d   1       0.937   1.963  -0.356  0.00  0.00     0.041 A 
ATOM      4  C3  UNL d   1       0.492   0.627  -0.335  0.00  0.00    -0.075 A 
ATOM      5  S   UNL d   1       1.347  -0.763  -0.892  0.00  0.00     0.015 SA
ATOM      6  C4  UNL d   1       0.071  -1.810  -0.468  0.00  0.00     0.022 A 
ATOM      7  C5  UNL d   1      -0.989  -1.133   0.087  0.00  0.00     0.026 A 
ATOM      8  C6  UNL d   1      -0.764   0.283   0.172  0.00  0.00    -0.082 A 
ATOM      9  C7  UNL d   1      -1.590   1.319   0.671  0.00  0.00     0.045 A 
ENDROOT
TORSDOF 0
ENDMDL
