MODEL 1
REMARK minimizedAffinity -0.541905046
REMARK minimizedRMSD -1
REMARK  0 active torsions:
REMARK  status: ('A' for Active; 'I' for Inactive)
ROOT
ATOM      1  C   UNL d   1      -1.069   2.467   0.570  0.00  0.00    -0.002 A 
ATOM      2  C1  UNL d   1       0.294   2.676   0.413  0.00  0.00     0.010 A 
ATOM      3  C2  UNL d   1       1.156   1.601   0.188  0.00  0.00     0.041 A 
ATOM      4  C3  UNL d   1       0.620   0.300   0.121  0.00  0.00    -0.075 A 
ATOM      5  S   UNL d   1       1.484  -1.168  -0.147  0.00  0.00     0.015 SA
ATOM      6  C4  UNL d   1       0.064  -2.107  -0.059  0.00  0.00     0.022 A 
ATOM      7  C5  UNL d   1      -1.051  -1.336   0.168  0.00  0.00     0.026 A 
ATOM      8  C6  UNL d   1      -0.749   0.064   0.275  0.00  0.00    -0.082 A 
ATOM      9  C7  UNL d   1      -1.597   1.175   0.503  0.00  0.00     0.045 A 
ENDROOT
TORSDOF 0
ENDMDL
