MODEL 1
REMARK minimizedAffinity -2.46580648
REMARK minimizedRMSD -1
REMARK  0 active torsions:
REMARK  status: ('A' for Active; 'I' for Inactive)
ROOT
ATOM      1  C   UNL d   1      -0.018   3.118   0.457  0.00  0.00    -0.002 A 
ATOM      2  C1  UNL d   1       1.344   2.968   0.676  0.00  0.00     0.010 A 
ATOM      3  C2  UNL d   1       1.931   1.701   0.660  0.00  0.00     0.041 A 
ATOM      4  C3  UNL d   1       1.118   0.576   0.416  0.00  0.00    -0.075 A 
ATOM      5  S   UNL d   1       1.617  -1.073   0.348  0.00  0.00     0.015 SA
ATOM      6  C4  UNL d   1       0.035  -1.617   0.026  0.00  0.00     0.022 A 
ATOM      7  C5  UNL d   1      -0.866  -0.579  -0.032  0.00  0.00     0.026 A 
ATOM      8  C6  UNL d   1      -0.256   0.702   0.191  0.00  0.00    -0.082 A 
ATOM      9  C7  UNL d   1      -0.821   2.000   0.215  0.00  0.00     0.045 A 
ENDROOT
TORSDOF 0
ENDMDL
