MODEL 1
REMARK minimizedAffinity -3.05228186
REMARK minimizedRMSD -1
REMARK  0 active torsions:
REMARK  status: ('A' for Active; 'I' for Inactive)
ROOT
ATOM      1  C   UNL d   1      -1.279   2.422   0.252  0.00  0.00    -0.002 A 
ATOM      2  C1  UNL d   1      -0.032   3.029   0.205  0.00  0.00     0.010 A 
ATOM      3  C2  UNL d   1       1.132   2.259   0.181  0.00  0.00     0.041 A 
ATOM      4  C3  UNL d   1       1.021   0.855   0.204  0.00  0.00    -0.075 A 
ATOM      5  S   UNL d   1       2.310  -0.290   0.181  0.00  0.00     0.015 SA
ATOM      6  C4  UNL d   1       1.235  -1.612   0.232  0.00  0.00     0.022 A 
ATOM      7  C5  UNL d   1      -0.078  -1.208   0.266  0.00  0.00     0.026 A 
ATOM      8  C6  UNL d   1      -0.224   0.221   0.250  0.00  0.00    -0.082 A 
ATOM      9  C7  UNL d   1      -1.386   1.029   0.274  0.00  0.00     0.045 A 
ENDROOT
TORSDOF 0
ENDMDL
