MODEL 1
REMARK minimizedAffinity -3.83348203
REMARK minimizedRMSD -1
REMARK  0 active torsions:
REMARK  status: ('A' for Active; 'I' for Inactive)
ROOT
ATOM      1  C   UNL d   1       1.555  -0.698   0.632  0.00  0.00    -0.002 A 
ATOM      2  C1  UNL d   1       2.134   0.475   0.169  0.00  0.00     0.010 A 
ATOM      3  C2  UNL d   1       1.342   1.581  -0.149  0.00  0.00     0.041 A 
ATOM      4  C3  UNL d   1      -0.055   1.487   0.011  0.00  0.00    -0.075 A 
ATOM      5  S   UNL d   1      -1.222   2.713  -0.314  0.00  0.00     0.015 SA
ATOM      6  C4  UNL d   1      -2.517   1.709   0.156  0.00  0.00     0.022 A 
ATOM      7  C5  UNL d   1      -2.087   0.465   0.553  0.00  0.00     0.026 A 
ATOM      8  C6  UNL d   1      -0.661   0.317   0.477  0.00  0.00    -0.082 A 
ATOM      9  C7  UNL d   1       0.169  -0.787   0.789  0.00  0.00     0.045 A 
ENDROOT
TORSDOF 0
ENDMDL
