MODEL 1
REMARK minimizedAffinity -0.442444801
REMARK minimizedRMSD -1
REMARK  1 active torsions:
REMARK  status: ('A' for Active; 'I' for Inactive)
REMARK    1  A    between atoms: C1_2  and  C2_3 
ROOT
ATOM      1  C2  UNL d   1       0.407   0.494   1.004  0.00  0.00    -0.076 A 
ATOM      2  C3  UNL d   1       0.673  -0.290  -0.132  0.00  0.00     0.004 A 
ATOM      3  C4  UNL d   1       0.377   0.177  -1.412  0.00  0.00    -0.003 A 
ATOM      4  C5  UNL d   1      -0.189   1.437  -1.576  0.00  0.00     0.000 A 
ATOM      5  C6  UNL d   1      -0.443   2.235  -0.461  0.00  0.00     0.000 A 
ATOM      6  C7  UNL d   1      -0.136   1.785   0.835  0.00  0.00    -0.073 A 
ATOM      7  C8  UNL d   1      -0.438   2.685   2.001  0.00  0.00     0.078 C 
ENDROOT
BRANCH   1   8
ATOM      8  C1  UNL d   1       0.723  -0.077   2.368  0.00  0.00     0.053 C 
ATOM      9  C   UNL d   1       2.168  -0.537   2.486  0.00  0.00     0.018 C 
ENDBRANCH   1   8
TORSDOF 1
ENDMDL
