MODEL 1
REMARK minimizedAffinity -5.06660938
REMARK minimizedRMSD -1
REMARK  1 active torsions:
REMARK  status: ('A' for Active; 'I' for Inactive)
REMARK    1  A    between atoms: C1_2  and  C2_3 
ROOT
ATOM      1  C2  UNL d   1       1.122  -2.079  -1.116  0.00  0.00    -0.076 A 
ATOM      2  C3  UNL d   1       2.249  -2.875  -1.385  0.00  0.00     0.004 A 
ATOM      3  C4  UNL d   1       3.479  -2.602  -0.788  0.00  0.00    -0.003 A 
ATOM      4  C5  UNL d   1       3.601  -1.531   0.090  0.00  0.00     0.000 A 
ATOM      5  C6  UNL d   1       2.489  -0.742   0.382  0.00  0.00     0.000 A 
ATOM      6  C7  UNL d   1       1.238  -1.013  -0.199  0.00  0.00    -0.073 A 
ATOM      7  C8  UNL d   1       0.074  -0.126   0.148  0.00  0.00     0.078 C 
ENDROOT
BRANCH   1   8
ATOM      8  C1  UNL d   1      -0.179  -2.406  -1.814  0.00  0.00     0.053 C 
ATOM      9  C   UNL d   1      -0.440  -3.902  -1.889  0.00  0.00     0.018 C 
ENDBRANCH   1   8
TORSDOF 1
ENDMDL
