MODEL 1
REMARK minimizedAffinity -4.74863577
REMARK minimizedRMSD -1
REMARK  1 active torsions:
REMARK  status: ('A' for Active; 'I' for Inactive)
REMARK    1  A    between atoms: C1_2  and  C2_3 
ROOT
ATOM      1  C2  UNL d   1       1.989   1.604   0.325  0.00  0.00    -0.081 A 
ATOM      2  C3  UNL d   1       1.389   2.308   1.376  0.00  0.00     0.006 A 
ATOM      3  C4  UNL d   1       0.246   1.806   2.002  0.00  0.00     0.002 A 
ATOM      4  C5  UNL d   1      -0.311   0.589   1.594  0.00  0.00    -0.080 A 
ATOM      5  C6  UNL d   1      -1.520   0.024   2.278  0.00  0.00     0.076 C 
ATOM      6  C7  UNL d   1       0.278  -0.106   0.532  0.00  0.00     0.002 A 
ATOM      7  C8  UNL d   1       1.421   0.396  -0.095  0.00  0.00     0.006 A 
ENDROOT
BRANCH   1   8
ATOM      8  C1  UNL d   1       3.259   2.110  -0.310  0.00  0.00     0.054 C 
ATOM      9  C   UNL d   1       4.013   0.989  -1.011  0.00  0.00     0.018 C 
ENDBRANCH   1   8
TORSDOF 1
ENDMDL
