MODEL 1
REMARK minimizedAffinity -2.43714786
REMARK minimizedRMSD -1
REMARK  1 active torsions:
REMARK  status: ('A' for Active; 'I' for Inactive)
REMARK    1  A    between atoms: C1_2  and  C2_3 
ROOT
ATOM      1  C2  UNL d   1      -0.818  -0.898  -0.721  0.00  0.00    -0.081 A 
ATOM      2  C3  UNL d   1      -1.561  -0.341   0.327  0.00  0.00     0.006 A 
ATOM      3  C4  UNL d   1      -1.010   0.658   1.133  0.00  0.00     0.002 A 
ATOM      4  C5  UNL d   1       0.289   1.123   0.899  0.00  0.00    -0.080 A 
ATOM      5  C6  UNL d   1       0.882   2.217   1.737  0.00  0.00     0.076 C 
ATOM      6  C7  UNL d   1       1.037   0.554  -0.138  0.00  0.00     0.002 A 
ATOM      7  C8  UNL d   1       0.487  -0.446  -0.943  0.00  0.00     0.006 A 
ENDROOT
BRANCH   1   8
ATOM      8  C1  UNL d   1      -1.433  -1.930  -1.632  0.00  0.00     0.054 C 
ATOM      9  C   UNL d   1      -1.990  -1.291  -2.895  0.00  0.00     0.018 C 
ENDBRANCH   1   8
TORSDOF 1
ENDMDL
