MODEL 1
REMARK minimizedAffinity -3.83735824
REMARK minimizedRMSD -1
REMARK  1 active torsions:
REMARK  status: ('A' for Active; 'I' for Inactive)
REMARK    1  A    between atoms: C1_2  and  C2_3 
ROOT
ATOM      1  C2  UNL d   1      -0.032  -0.415  -0.317  0.00  0.00    -0.081 A 
ATOM      2  C3  UNL d   1      -0.704   0.404   0.599  0.00  0.00     0.006 A 
ATOM      3  C4  UNL d   1      -0.063   1.512   1.161  0.00  0.00     0.002 A 
ATOM      4  C5  UNL d   1       1.255   1.822   0.811  0.00  0.00    -0.080 A 
ATOM      5  C6  UNL d   1       1.944   3.025   1.383  0.00  0.00     0.076 C 
ATOM      6  C7  UNL d   1       1.932   0.993  -0.091  0.00  0.00     0.002 A 
ATOM      7  C8  UNL d   1       1.292  -0.114  -0.652  0.00  0.00     0.006 A 
ENDROOT
BRANCH   1   8
ATOM      8  C1  UNL d   1      -0.741  -1.572  -0.973  0.00  0.00     0.054 C 
ATOM      9  C   UNL d   1      -1.557  -1.113  -2.173  0.00  0.00     0.018 C 
ENDBRANCH   1   8
TORSDOF 1
ENDMDL
