MODEL 1
REMARK minimizedAffinity -3.80713463
REMARK minimizedRMSD -1
REMARK  1 active torsions:
REMARK  status: ('A' for Active; 'I' for Inactive)
REMARK    1  A    between atoms: C1_2  and  C2_3 
ROOT
ATOM      1  C2  UNL d   1      -0.424  -0.382   0.171  0.00  0.00    -0.081 A 
ATOM      2  C3  UNL d   1      -0.812   0.473   1.211  0.00  0.00     0.006 A 
ATOM      3  C4  UNL d   1      -0.078   1.629   1.489  0.00  0.00     0.002 A 
ATOM      4  C5  UNL d   1       1.050   1.953   0.727  0.00  0.00    -0.080 A 
ATOM      5  C6  UNL d   1       1.829   3.207   0.995  0.00  0.00     0.076 C 
ATOM      6  C7  UNL d   1       1.448   1.091  -0.300  0.00  0.00     0.002 A 
ATOM      7  C8  UNL d   1       0.715  -0.065  -0.578  0.00  0.00     0.006 A 
ENDROOT
BRANCH   1   8
ATOM      8  C1  UNL d   1      -1.250  -1.595  -0.172  0.00  0.00     0.054 C 
ATOM      9  C   UNL d   1      -1.935  -1.434  -1.522  0.00  0.00     0.018 C 
ENDBRANCH   1   8
TORSDOF 1
ENDMDL
