MODEL 1
REMARK minimizedAffinity -5.60366344
REMARK minimizedRMSD -1
REMARK  1 active torsions:
REMARK  status: ('A' for Active; 'I' for Inactive)
REMARK    1  A    between atoms: C1_2  and  C2_3 
ROOT
ATOM      1  C2  UNL d   1       0.035   0.114   0.333  0.00  0.00    -0.081 A 
ATOM      2  C3  UNL d   1       1.321   0.044  -0.216  0.00  0.00     0.006 A 
ATOM      3  C4  UNL d   1       2.266   1.034   0.066  0.00  0.00     0.002 A 
ATOM      4  C5  UNL d   1       1.943   2.105   0.906  0.00  0.00    -0.080 A 
ATOM      5  C6  UNL d   1       2.958   3.158   1.240  0.00  0.00     0.076 C 
ATOM      6  C7  UNL d   1       0.653   2.184   1.440  0.00  0.00     0.002 A 
ATOM      7  C8  UNL d   1      -0.293   1.196   1.158  0.00  0.00     0.006 A 
ENDROOT
BRANCH   1   8
ATOM      8  C1  UNL d   1      -0.966  -0.985   0.083  0.00  0.00     0.054 C 
ATOM      9  C   UNL d   1      -1.124  -1.262  -1.405  0.00  0.00     0.018 C 
ENDBRANCH   1   8
TORSDOF 1
ENDMDL
