MODEL 1
REMARK minimizedAffinity -4.91290903
REMARK minimizedRMSD -1
REMARK  1 active torsions:
REMARK  status: ('A' for Active; 'I' for Inactive)
REMARK    1  A    between atoms: C1_2  and  C2_3 
ROOT
ATOM      1  C2  UNL d   1      -0.980  -1.017  -0.594  0.00  0.00    -0.081 A 
ATOM      2  C3  UNL d   1      -1.637  -0.487   0.524  0.00  0.00     0.006 A 
ATOM      3  C4  UNL d   1      -1.040   0.522   1.283  0.00  0.00     0.002 A 
ATOM      4  C5  UNL d   1       0.218   1.023   0.934  0.00  0.00    -0.080 A 
ATOM      5  C6  UNL d   1       0.857   2.128   1.723  0.00  0.00     0.076 C 
ATOM      6  C7  UNL d   1       0.882   0.482  -0.172  0.00  0.00     0.002 A 
ATOM      7  C8  UNL d   1       0.286  -0.527  -0.932  0.00  0.00     0.006 A 
ENDROOT
BRANCH   1   8
ATOM      8  C1  UNL d   1      -1.649  -2.060  -1.453  0.00  0.00     0.054 C 
ATOM      9  C   UNL d   1      -1.876  -1.548  -2.868  0.00  0.00     0.018 C 
ENDBRANCH   1   8
TORSDOF 1
ENDMDL
