MODEL 1
REMARK minimizedAffinity -5.00707912
REMARK minimizedRMSD -1
REMARK  1 active torsions:
REMARK  status: ('A' for Active; 'I' for Inactive)
REMARK    1  A    between atoms: C1_2  and  C2_3 
ROOT
ATOM      1  C2  UNL d   1      -0.261   0.931   1.125  0.00  0.00    -0.081 A 
ATOM      2  C3  UNL d   1       0.272  -0.079   0.315  0.00  0.00     0.006 A 
ATOM      3  C4  UNL d   1       1.596  -0.010  -0.126  0.00  0.00     0.002 A 
ATOM      4  C5  UNL d   1       2.411   1.066   0.243  0.00  0.00    -0.080 A 
ATOM      5  C6  UNL d   1       3.843   1.138  -0.198  0.00  0.00     0.076 C 
ATOM      6  C7  UNL d   1       1.874   2.084   1.038  0.00  0.00     0.002 A 
ATOM      7  C8  UNL d   1       0.550   2.016   1.478  0.00  0.00     0.006 A 
ENDROOT
BRANCH   1   8
ATOM      8  C1  UNL d   1      -1.668   0.827   1.654  0.00  0.00     0.054 C 
ATOM      9  C   UNL d   1      -1.899  -0.506   2.352  0.00  0.00     0.018 C 
ENDBRANCH   1   8
TORSDOF 1
ENDMDL
