MODEL 1
REMARK minimizedAffinity -3.58202839
REMARK minimizedRMSD -1
REMARK  1 active torsions:
REMARK  status: ('A' for Active; 'I' for Inactive)
REMARK    1  A    between atoms: C1_2  and  C2_3 
ROOT
ATOM      1  C2  UNL d   1      -0.153  -0.461  -0.225  0.00  0.00    -0.081 A 
ATOM      2  C3  UNL d   1      -0.766   0.165   0.867  0.00  0.00     0.006 A 
ATOM      3  C4  UNL d   1      -0.218   1.327   1.416  0.00  0.00     0.002 A 
ATOM      4  C5  UNL d   1       0.945   1.886   0.877  0.00  0.00    -0.080 A 
ATOM      5  C6  UNL d   1       1.527   3.150   1.438  0.00  0.00     0.076 C 
ATOM      6  C7  UNL d   1       1.568   1.251  -0.203  0.00  0.00     0.002 A 
ATOM      7  C8  UNL d   1       1.021   0.089  -0.751  0.00  0.00     0.006 A 
ENDROOT
BRANCH   1   8
ATOM      8  C1  UNL d   1      -0.777  -1.678  -0.860  0.00  0.00     0.054 C 
ATOM      9  C   UNL d   1      -1.664  -1.295  -2.036  0.00  0.00     0.018 C 
ENDBRANCH   1   8
TORSDOF 1
ENDMDL
