MODEL 1
REMARK minimizedAffinity -1.68979096
REMARK minimizedRMSD -1
REMARK  1 active torsions:
REMARK  status: ('A' for Active; 'I' for Inactive)
REMARK    1  A    between atoms: C1_2  and  C2_3 
ROOT
ATOM      1  C2  UNL d   1       0.828   1.532   1.383  0.00  0.00    -0.081 A 
ATOM      2  C3  UNL d   1      -0.456   1.020   1.608  0.00  0.00     0.006 A 
ATOM      3  C4  UNL d   1      -1.006   0.078   0.736  0.00  0.00     0.002 A 
ATOM      4  C5  UNL d   1      -0.279  -0.374  -0.371  0.00  0.00    -0.080 A 
ATOM      5  C6  UNL d   1      -0.846  -1.408  -1.298  0.00  0.00     0.076 C 
ATOM      6  C7  UNL d   1       0.997   0.150  -0.606  0.00  0.00     0.002 A 
ATOM      7  C8  UNL d   1       1.547   1.092   0.265  0.00  0.00     0.006 A 
ENDROOT
BRANCH   1   8
ATOM      8  C1  UNL d   1       1.450   2.500   2.357  0.00  0.00     0.054 C 
ATOM      9  C   UNL d   1       2.311   1.776   3.383  0.00  0.00     0.018 C 
ENDBRANCH   1   8
TORSDOF 1
ENDMDL
