MODEL 1
REMARK minimizedAffinity -5.3443408
REMARK minimizedRMSD -1
REMARK  1 active torsions:
REMARK  status: ('A' for Active; 'I' for Inactive)
REMARK    1  A    between atoms: C1_2  and  C2_3 
ROOT
ATOM      1  C2  UNL d   1      -0.304  -0.489  -0.278  0.00  0.00    -0.081 A 
ATOM      2  C3  UNL d   1      -1.011   0.360   0.582  0.00  0.00     0.006 A 
ATOM      3  C4  UNL d   1      -0.403   1.503   1.106  0.00  0.00     0.002 A 
ATOM      4  C5  UNL d   1       0.919   1.820   0.774  0.00  0.00    -0.080 A 
ATOM      5  C6  UNL d   1       1.573   3.060   1.305  0.00  0.00     0.076 C 
ATOM      6  C7  UNL d   1       1.631   0.962  -0.071  0.00  0.00     0.002 A 
ATOM      7  C8  UNL d   1       1.024  -0.181  -0.595  0.00  0.00     0.006 A 
ENDROOT
BRANCH   1   8
ATOM      8  C1  UNL d   1      -0.977  -1.688  -0.896  0.00  0.00     0.054 C 
ATOM      9  C   UNL d   1      -1.841  -1.286  -2.083  0.00  0.00     0.018 C 
ENDBRANCH   1   8
TORSDOF 1
ENDMDL
