MODEL 1
REMARK minimizedAffinity -5.25165319
REMARK minimizedRMSD -1
REMARK  1 active torsions:
REMARK  status: ('A' for Active; 'I' for Inactive)
REMARK    1  A    between atoms: C1_2  and  C2_3 
ROOT
ATOM      1  C2  UNL d   1       1.699   1.362   0.598  0.00  0.00    -0.081 A 
ATOM      2  C3  UNL d   1       1.058   2.053   1.633  0.00  0.00     0.006 A 
ATOM      3  C4  UNL d   1      -0.065   1.507   2.260  0.00  0.00     0.002 A 
ATOM      4  C5  UNL d   1      -0.559   0.258   1.869  0.00  0.00    -0.080 A 
ATOM      5  C6  UNL d   1      -1.745  -0.353   2.554  0.00  0.00     0.076 C 
ATOM      6  C7  UNL d   1       0.072  -0.424   0.823  0.00  0.00     0.002 A 
ATOM      7  C8  UNL d   1       1.193   0.122   0.195  0.00  0.00     0.006 A 
ENDROOT
BRANCH   1   8
ATOM      8  C1  UNL d   1       2.948   1.919  -0.036  0.00  0.00     0.054 C 
ATOM      9  C   UNL d   1       3.864   0.806  -0.524  0.00  0.00     0.018 C 
ENDBRANCH   1   8
TORSDOF 1
ENDMDL
