MODEL 1
REMARK minimizedAffinity -4.27066946
REMARK minimizedRMSD -1
REMARK  2 active torsions:
REMARK  status: ('A' for Active; 'I' for Inactive)
REMARK    1  A    between atoms: C2'_3  and  C1'_4 
REMARK    2  A    between atoms: C1'_4  and  C1_5 
ROOT
ATOM      1  C1  I4B d   1      -0.195  -0.145  -1.111  0.00  0.00    -0.075 A 
ATOM      2  C2  I4B d   1       0.025   1.103  -0.583  0.00  0.00     0.003 A 
ATOM      3  C3  I4B d   1       1.073   1.309   0.346  0.00  0.00     0.002 A 
ATOM      4  C4  I4B d   1       1.840   0.236   0.755  0.00  0.00    -0.004 A 
ATOM      5  C5  I4B d   1       1.630  -1.023   0.201  0.00  0.00     0.002 A 
ATOM      6  C6  I4B d   1       0.614  -1.213  -0.747  0.00  0.00     0.003 A 
ENDROOT
BRANCH   1   7
ATOM      7  C1' I4B d   1      -1.332  -0.333  -2.065  0.00  0.00     0.060 C 
BRANCH   7   8
ATOM      8  C2' I4B d   1      -0.752  -0.489  -3.457  0.00  0.00    -0.013 C 
ATOM      9  C4' I4B d   1      -1.039  -1.858  -4.017  0.00  0.00     0.013 C 
ATOM     10  C3' I4B d   1      -1.338   0.584  -4.325  0.00  0.00     0.013 C 
ENDBRANCH   7   8
ENDBRANCH   1   7
TORSDOF 2
ENDMDL
