MODEL 1
REMARK minimizedAffinity -0.827346325
REMARK minimizedRMSD -1
REMARK  2 active torsions:
REMARK  status: ('A' for Active; 'I' for Inactive)
REMARK    1  A    between atoms: C2'_3  and  C1'_4 
REMARK    2  A    between atoms: C1'_4  and  C1_5 
ROOT
ATOM      1  C1  I4B d   1      -0.002   0.022  -0.218  0.00  0.00    -0.075 A 
ATOM      2  C2  I4B d   1       0.908  -0.518   0.656  0.00  0.00     0.003 A 
ATOM      3  C3  I4B d   1       1.894   0.303   1.255  0.00  0.00     0.002 A 
ATOM      4  C4  I4B d   1       1.964   1.639   0.916  0.00  0.00    -0.004 A 
ATOM      5  C5  I4B d   1       1.026   2.189   0.047  0.00  0.00     0.002 A 
ATOM      6  C6  I4B d   1       0.029   1.378  -0.514  0.00  0.00     0.003 A 
ENDROOT
BRANCH   1   7
ATOM      7  C1' I4B d   1      -1.009  -0.880  -0.858  0.00  0.00     0.060 C 
BRANCH   7   8
ATOM      8  C2' I4B d   1      -1.575  -0.164  -2.068  0.00  0.00    -0.013 C 
ATOM      9  C4' I4B d   1      -1.140  -0.828  -3.348  0.00  0.00     0.013 C 
ATOM     10  C3' I4B d   1      -3.070  -0.156  -1.943  0.00  0.00     0.013 C 
ENDBRANCH   7   8
ENDBRANCH   1   7
TORSDOF 2
ENDMDL
