MODEL 1
REMARK minimizedAffinity -3.30117631
REMARK minimizedRMSD -1
REMARK  2 active torsions:
REMARK  status: ('A' for Active; 'I' for Inactive)
REMARK    1  A    between atoms: C2'_3  and  C1'_4 
REMARK    2  A    between atoms: C1'_4  and  C1_5 
ROOT
ATOM      1  C1  I4B d   1      -0.060  -0.402  -0.259  0.00  0.00    -0.075 A 
ATOM      2  C2  I4B d   1       0.012  -1.492  -1.090  0.00  0.00     0.003 A 
ATOM      3  C3  I4B d   1      -0.721  -1.515  -2.302  0.00  0.00     0.002 A 
ATOM      4  C4  I4B d   1      -1.547  -0.455  -2.616  0.00  0.00    -0.004 A 
ATOM      5  C5  I4B d   1      -1.601   0.659  -1.783  0.00  0.00     0.002 A 
ATOM      6  C6  I4B d   1      -0.843   0.692  -0.604  0.00  0.00     0.003 A 
ENDROOT
BRANCH   1   7
ATOM      7  C1' I4B d   1       0.702  -0.425   1.028  0.00  0.00     0.060 C 
BRANCH   7   8
ATOM      8  C2' I4B d   1       2.147  -0.087   0.722  0.00  0.00    -0.013 C 
ATOM      9  C4' I4B d   1       2.533   1.241   1.318  0.00  0.00     0.013 C 
ATOM     10  C3' I4B d   1       3.006  -1.192   1.259  0.00  0.00     0.013 C 
ENDBRANCH   7   8
ENDBRANCH   1   7
TORSDOF 2
ENDMDL
