MODEL 1
REMARK minimizedAffinity 0.598657906
REMARK minimizedRMSD -1
REMARK  2 active torsions:
REMARK  status: ('A' for Active; 'I' for Inactive)
REMARK    1  A    between atoms: C2'_3  and  C1'_4 
REMARK    2  A    between atoms: C1'_4  and  C1_5 
ROOT
ATOM      1  C1  I4B d   1      -1.998   0.391   0.690  0.00  0.00    -0.075 A 
ATOM      2  C2  I4B d   1      -1.951   1.297   1.720  0.00  0.00     0.003 A 
ATOM      3  C3  I4B d   1      -3.125   1.615   2.444  0.00  0.00     0.002 A 
ATOM      4  C4  I4B d   1      -4.327   1.046   2.074  0.00  0.00    -0.004 A 
ATOM      5  C5  I4B d   1      -4.369   0.110   1.044  0.00  0.00     0.002 A 
ATOM      6  C6  I4B d   1      -3.195  -0.229   0.355  0.00  0.00     0.003 A 
ENDROOT
BRANCH   1   7
ATOM      7  C1' I4B d   1      -0.745   0.103  -0.075  0.00  0.00     0.060 C 
BRANCH   7   8
ATOM      8  C2' I4B d   1       0.422   0.663   0.712  0.00  0.00    -0.013 C 
ATOM      9  C4' I4B d   1       1.496  -0.375   0.907  0.00  0.00     0.013 C 
ATOM     10  C3' I4B d   1       0.949   1.856  -0.027  0.00  0.00     0.013 C 
ENDBRANCH   7   8
ENDBRANCH   1   7
TORSDOF 2
ENDMDL
