MODEL 1
REMARK minimizedAffinity -2.85854316
REMARK minimizedRMSD -1
REMARK  2 active torsions:
REMARK  status: ('A' for Active; 'I' for Inactive)
REMARK    1  A    between atoms: C2'_3  and  C1'_4 
REMARK    2  A    between atoms: C1'_4  and  C1_5 
ROOT
ATOM      1  C1  I4B d   1       3.029  -0.890  -0.246  0.00  0.00    -0.075 A 
ATOM      2  C2  I4B d   1       2.758  -2.074  -0.885  0.00  0.00     0.003 A 
ATOM      3  C3  I4B d   1       3.318  -2.340  -2.159  0.00  0.00     0.002 A 
ATOM      4  C4  I4B d   1       4.096  -1.380  -2.773  0.00  0.00    -0.004 A 
ATOM      5  C5  I4B d   1       4.387  -0.190  -2.113  0.00  0.00     0.002 A 
ATOM      6  C6  I4B d   1       3.861   0.052  -0.836  0.00  0.00     0.003 A 
ENDROOT
BRANCH   1   7
ATOM      7  C1' I4B d   1       2.395  -0.628   1.084  0.00  0.00     0.060 C 
BRANCH   7   8
ATOM      8  C2' I4B d   1       1.561   0.631   0.963  0.00  0.00    -0.013 C 
ATOM      9  C4' I4B d   1       0.429   0.444  -0.013  0.00  0.00     0.013 C 
ATOM     10  C3' I4B d   1       1.047   0.979   2.328  0.00  0.00     0.013 C 
ENDBRANCH   7   8
ENDBRANCH   1   7
TORSDOF 2
ENDMDL
