MODEL 1
REMARK minimizedAffinity -1.92694688
REMARK minimizedRMSD -1
REMARK  2 active torsions:
REMARK  status: ('A' for Active; 'I' for Inactive)
REMARK    1  A    between atoms: C2'_3  and  C1'_4 
REMARK    2  A    between atoms: C1'_4  and  C1_5 
ROOT
ATOM      1  C1  I4B d   1       0.644  -1.244  -0.825  0.00  0.00    -0.075 A 
ATOM      2  C2  I4B d   1       0.395  -0.232   0.068  0.00  0.00     0.003 A 
ATOM      3  C3  I4B d   1       1.442   0.285   0.869  0.00  0.00     0.002 A 
ATOM      4  C4  I4B d   1       2.702  -0.270   0.782  0.00  0.00    -0.004 A 
ATOM      5  C5  I4B d   1       2.958  -1.280  -0.141  0.00  0.00     0.002 A 
ATOM      6  C6  I4B d   1       1.926  -1.763  -0.958  0.00  0.00     0.003 A 
ENDROOT
BRANCH   1   7
ATOM      7  C1' I4B d   1      -0.492  -1.789  -1.631  0.00  0.00     0.060 C 
BRANCH   7   8
ATOM      8  C2' I4B d   1      -0.390  -1.212  -3.029  0.00  0.00    -0.013 C 
ATOM      9  C4' I4B d   1      -0.648  -2.266  -4.073  0.00  0.00     0.013 C 
ATOM     10  C3' I4B d   1      -1.377  -0.088  -3.139  0.00  0.00     0.013 C 
ENDBRANCH   7   8
ENDBRANCH   1   7
TORSDOF 2
ENDMDL
