MODEL 1
REMARK minimizedAffinity -2.25637722
REMARK minimizedRMSD -1
REMARK  0 active torsions:
REMARK  status: ('A' for Active; 'I' for Inactive)
ROOT
ATOM      1  C   UNL d   1       1.472  -0.508   2.202  0.00  0.00     0.078 C 
ATOM      2  C1  UNL d   1       0.939  -0.447   0.802  0.00  0.00    -0.077 A 
ATOM      3  C2  UNL d   1       1.741  -0.796  -0.291  0.00  0.00    -0.001 A 
ATOM      4  C3  UNL d   1       1.234  -0.725  -1.590  0.00  0.00     0.003 A 
ATOM      5  C4  UNL d   1      -0.076  -0.304  -1.807  0.00  0.00    -0.005 A 
ATOM      6  C5  UNL d   1      -0.881   0.047  -0.726  0.00  0.00     0.003 A 
ATOM      7  C6  UNL d   1      -0.376  -0.023   0.573  0.00  0.00    -0.001 A 
ENDROOT
TORSDOF 0
ENDMDL
