MODEL 1
REMARK minimizedAffinity -4.37670946
REMARK minimizedRMSD -1
REMARK  0 active torsions:
REMARK  status: ('A' for Active; 'I' for Inactive)
ROOT
ATOM      1  C   UNL d   1       1.081  -0.819   2.907  0.00  0.00     0.078 C 
ATOM      2  C1  UNL d   1       0.566  -0.476   1.540  0.00  0.00    -0.077 A 
ATOM      3  C2  UNL d   1       1.385  -0.593   0.411  0.00  0.00    -0.001 A 
ATOM      4  C3  UNL d   1       0.895  -0.261  -0.853  0.00  0.00     0.003 A 
ATOM      5  C4  UNL d   1      -0.415   0.190  -1.000  0.00  0.00    -0.005 A 
ATOM      6  C5  UNL d   1      -1.237   0.312   0.118  0.00  0.00     0.003 A 
ATOM      7  C6  UNL d   1      -0.749  -0.020   1.384  0.00  0.00    -0.001 A 
ENDROOT
TORSDOF 0
ENDMDL
