MODEL 1
REMARK minimizedAffinity -3.90873623
REMARK minimizedRMSD -1
REMARK  0 active torsions:
REMARK  status: ('A' for Active; 'I' for Inactive)
ROOT
ATOM      1  C   UNL d   1      -0.685   0.359  -0.483  0.00  0.00     0.078 C 
ATOM      2  C1  UNL d   1      -0.062  -0.171   0.773  0.00  0.00    -0.077 A 
ATOM      3  C2  UNL d   1       1.230   0.213   1.155  0.00  0.00    -0.001 A 
ATOM      4  C3  UNL d   1       1.802  -0.296   2.322  0.00  0.00     0.003 A 
ATOM      5  C4  UNL d   1       1.090  -1.193   3.116  0.00  0.00    -0.005 A 
ATOM      6  C5  UNL d   1      -0.194  -1.583   2.743  0.00  0.00     0.003 A 
ATOM      7  C6  UNL d   1      -0.768  -1.075   1.577  0.00  0.00    -0.001 A 
ENDROOT
TORSDOF 0
ENDMDL
