MODEL 1
REMARK minimizedAffinity -4.948421
REMARK minimizedRMSD -1
REMARK  0 active torsions:
REMARK  status: ('A' for Active; 'I' for Inactive)
ROOT
ATOM      1  C   UNL d   1       2.619  -1.396  -0.624  0.00  0.00     0.078 C 
ATOM      2  C1  UNL d   1       1.385  -0.971   0.114  0.00  0.00    -0.077 A 
ATOM      3  C2  UNL d   1       1.335  -1.000   1.513  0.00  0.00    -0.001 A 
ATOM      4  C3  UNL d   1       0.176  -0.611   2.186  0.00  0.00     0.003 A 
ATOM      5  C4  UNL d   1      -0.943  -0.191   1.469  0.00  0.00    -0.005 A 
ATOM      6  C5  UNL d   1      -0.903  -0.161   0.077  0.00  0.00     0.003 A 
ATOM      7  C6  UNL d   1       0.255  -0.550  -0.598  0.00  0.00    -0.001 A 
ENDROOT
TORSDOF 0
ENDMDL
