MODEL 1
REMARK minimizedAffinity -1.30571711
REMARK minimizedRMSD -1
REMARK  0 active torsions:
REMARK  status: ('A' for Active; 'I' for Inactive)
ROOT
ATOM      1  C   UNL d   1      -2.962   0.433  -3.028  0.00  0.00     0.078 C 
ATOM      2  C1  UNL d   1      -2.477   1.851  -2.979  0.00  0.00    -0.077 A 
ATOM      3  C2  UNL d   1      -3.367   2.911  -2.770  0.00  0.00    -0.001 A 
ATOM      4  C3  UNL d   1      -2.903   4.227  -2.737  0.00  0.00     0.003 A 
ATOM      5  C4  UNL d   1      -1.547   4.496  -2.914  0.00  0.00    -0.005 A 
ATOM      6  C5  UNL d   1      -0.654   3.448  -3.125  0.00  0.00     0.003 A 
ATOM      7  C6  UNL d   1      -1.116   2.131  -3.159  0.00  0.00    -0.001 A 
ENDROOT
TORSDOF 0
ENDMDL
