MODEL 1
REMARK minimizedAffinity -3.29807091
REMARK minimizedRMSD -1
REMARK  0 active torsions:
REMARK  status: ('A' for Active; 'I' for Inactive)
ROOT
ATOM      1  C   UNL d   1      -1.143   1.463  -2.129  0.00  0.00     0.078 C 
ATOM      2  C1  UNL d   1      -0.126   0.632  -1.406  0.00  0.00    -0.077 A 
ATOM      3  C2  UNL d   1       0.219   0.908  -0.077  0.00  0.00    -0.001 A 
ATOM      4  C3  UNL d   1       1.174   0.132   0.581  0.00  0.00     0.003 A 
ATOM      5  C4  UNL d   1       1.794  -0.925  -0.082  0.00  0.00    -0.005 A 
ATOM      6  C5  UNL d   1       1.460  -1.206  -1.405  0.00  0.00     0.003 A 
ATOM      7  C6  UNL d   1       0.505  -0.431  -2.065  0.00  0.00    -0.001 A 
ENDROOT
TORSDOF 0
ENDMDL
