MODEL 1
REMARK minimizedAffinity -5.40255117
REMARK minimizedRMSD -1
REMARK  0 active torsions:
REMARK  status: ('A' for Active; 'I' for Inactive)
ROOT
ATOM      1  C   UNL d   1      -0.571   0.276  -0.657  0.00  0.00     0.078 C 
ATOM      2  C1  UNL d   1       0.364  -0.438   0.272  0.00  0.00    -0.077 A 
ATOM      3  C2  UNL d   1       1.584  -0.952  -0.187  0.00  0.00    -0.001 A 
ATOM      4  C3  UNL d   1       2.440  -1.623   0.687  0.00  0.00     0.003 A 
ATOM      5  C4  UNL d   1       2.086  -1.789   2.024  0.00  0.00    -0.005 A 
ATOM      6  C5  UNL d   1       0.874  -1.283   2.489  0.00  0.00     0.003 A 
ATOM      7  C6  UNL d   1       0.016  -0.612   1.617  0.00  0.00    -0.001 A 
ENDROOT
TORSDOF 0
ENDMDL
