MODEL 1
REMARK minimizedAffinity -4.51281929
REMARK minimizedRMSD -1
REMARK  0 active torsions:
REMARK  status: ('A' for Active; 'I' for Inactive)
ROOT
ATOM      1  C   UNL d   1      -0.542   0.373  -1.112  0.00  0.00     0.078 C 
ATOM      2  C1  UNL d   1       0.052   0.040   0.224  0.00  0.00    -0.077 A 
ATOM      3  C2  UNL d   1       1.440  -0.028   0.399  0.00  0.00    -0.001 A 
ATOM      4  C3  UNL d   1       1.980  -0.349   1.645  0.00  0.00     0.003 A 
ATOM      5  C4  UNL d   1       1.139  -0.606   2.726  0.00  0.00    -0.005 A 
ATOM      6  C5  UNL d   1      -0.243  -0.543   2.561  0.00  0.00     0.003 A 
ATOM      7  C6  UNL d   1      -0.785  -0.223   1.316  0.00  0.00    -0.001 A 
ENDROOT
TORSDOF 0
ENDMDL
