MODEL 1
REMARK minimizedAffinity -5.44281197
REMARK minimizedRMSD -1
REMARK  0 active torsions:
REMARK  status: ('A' for Active; 'I' for Inactive)
ROOT
ATOM      1  O1  BZF d   1       0.997   2.044   0.025  0.00  0.00    -0.204 OA
ATOM      2  C2  BZF d   1      -0.225   1.894  -0.602  0.00  0.00     0.174 A 
ATOM      3  C3  BZF d   1      -0.519   0.589  -0.772  0.00  0.00    -0.012 A 
ATOM      4  C3A BZF d   1       0.546  -0.122  -0.133  0.00  0.00    -0.107 A 
ATOM      5  C4  BZF d   1       0.812  -1.449   0.048  0.00  0.00     0.055 A 
ATOM      6  C5  BZF d   1       1.974  -1.814   0.651  0.00  0.00    -0.016 A 
ATOM      7  C6  BZF d   1       2.894  -0.879   1.079  0.00  0.00     0.022 A 
ATOM      8  C7  BZF d   1       2.672   0.449   0.925  0.00  0.00     0.029 A 
ATOM      9  C7A BZF d   1       1.483   0.821   0.346  0.00  0.00     0.058 A 
ENDROOT
TORSDOF 0
ENDMDL
