MODEL 1
REMARK minimizedAffinity -2.75484252
REMARK minimizedRMSD -1
REMARK  0 active torsions:
REMARK  status: ('A' for Active; 'I' for Inactive)
ROOT
ATOM      1  O1  BZF d   1      -1.105  -0.162  -0.656  0.00  0.00    -0.204 OA
ATOM      2  C2  BZF d   1      -1.508   1.098  -0.260  0.00  0.00     0.174 A 
ATOM      3  C3  BZF d   1      -0.635   1.624   0.623  0.00  0.00    -0.012 A 
ATOM      4  C3A BZF d   1       0.425   0.668   0.720  0.00  0.00    -0.107 A 
ATOM      5  C4  BZF d   1       1.592   0.629   1.428  0.00  0.00     0.055 A 
ATOM      6  C5  BZF d   1       2.371  -0.482   1.356  0.00  0.00    -0.016 A 
ATOM      7  C6  BZF d   1       2.012  -1.573   0.592  0.00  0.00     0.022 A 
ATOM      8  C7  BZF d   1       0.866  -1.578  -0.132  0.00  0.00     0.029 A 
ATOM      9  C7A BZF d   1       0.092  -0.444  -0.087  0.00  0.00     0.058 A 
ENDROOT
TORSDOF 0
ENDMDL
