MODEL 1
REMARK minimizedAffinity -4.88903284
REMARK minimizedRMSD -1
REMARK  0 active torsions:
REMARK  status: ('A' for Active; 'I' for Inactive)
ROOT
ATOM      1  O1  BZF d   1       2.089  -2.215   0.653  0.00  0.00    -0.204 OA
ATOM      2  C2  BZF d   1       2.625  -1.420   1.647  0.00  0.00     0.174 A 
ATOM      3  C3  BZF d   1       2.114  -0.173   1.591  0.00  0.00    -0.012 A 
ATOM      4  C3A BZF d   1       1.133  -0.215   0.551  0.00  0.00    -0.107 A 
ATOM      5  C4  BZF d   1       0.275   0.712   0.032  0.00  0.00     0.055 A 
ATOM      6  C5  BZF d   1      -0.502   0.371  -1.030  0.00  0.00    -0.016 A 
ATOM      7  C6  BZF d   1      -0.444  -0.884  -1.599  0.00  0.00     0.022 A 
ATOM      8  C7  BZF d   1       0.388  -1.839  -1.115  0.00  0.00     0.029 A 
ATOM      9  C7A BZF d   1       1.151  -1.508  -0.022  0.00  0.00     0.058 A 
ENDROOT
TORSDOF 0
ENDMDL
