MODEL 1
REMARK minimizedAffinity -5.32338524
REMARK minimizedRMSD -1
REMARK  0 active torsions:
REMARK  status: ('A' for Active; 'I' for Inactive)
ROOT
ATOM      1  O1  BZF d   1      -0.648   1.194   0.482  0.00  0.00    -0.204 OA
ATOM      2  C2  BZF d   1      -1.560   0.482  -0.273  0.00  0.00     0.174 A 
ATOM      3  C3  BZF d   1      -1.042  -0.703  -0.657  0.00  0.00    -0.012 A 
ATOM      4  C3A BZF d   1       0.242  -0.772  -0.029  0.00  0.00    -0.107 A 
ATOM      5  C4  BZF d   1       1.231  -1.714  -0.017  0.00  0.00     0.055 A 
ATOM      6  C5  BZF d   1       2.393  -1.444   0.635  0.00  0.00    -0.016 A 
ATOM      7  C6  BZF d   1       2.601  -0.242   1.279  0.00  0.00     0.022 A 
ATOM      8  C7  BZF d   1       1.648   0.721   1.298  0.00  0.00     0.029 A 
ATOM      9  C7A BZF d   1       0.460   0.438   0.669  0.00  0.00     0.058 A 
ENDROOT
TORSDOF 0
ENDMDL
