MODEL 1
REMARK minimizedAffinity -0.752649844
REMARK minimizedRMSD -1
REMARK  0 active torsions:
REMARK  status: ('A' for Active; 'I' for Inactive)
ROOT
ATOM      1  O1  BZF d   1      -0.312   0.956   1.289  0.00  0.00    -0.204 OA
ATOM      2  C2  BZF d   1       0.304   0.113   0.385  0.00  0.00     0.174 A 
ATOM      3  C3  BZF d   1      -0.607  -0.477  -0.416  0.00  0.00    -0.012 A 
ATOM      4  C3A BZF d   1      -1.863   0.099  -0.046  0.00  0.00    -0.107 A 
ATOM      5  C4  BZF d   1      -3.142  -0.071  -0.493  0.00  0.00     0.055 A 
ATOM      6  C5  BZF d   1      -4.153   0.590   0.130  0.00  0.00    -0.016 A 
ATOM      7  C6  BZF d   1      -3.922   1.423   1.205  0.00  0.00     0.022 A 
ATOM      8  C7  BZF d   1      -2.670   1.627   1.681  0.00  0.00     0.029 A 
ATOM      9  C7A BZF d   1      -1.642   0.986   1.033  0.00  0.00     0.058 A 
ENDROOT
TORSDOF 0
ENDMDL
