MODEL 1
REMARK minimizedAffinity -4.14767742
REMARK minimizedRMSD -1
REMARK  0 active torsions:
REMARK  status: ('A' for Active; 'I' for Inactive)
ROOT
ATOM      1  O1  BZF d   1      -0.193  -1.019  -1.707  0.00  0.00    -0.204 OA
ATOM      2  C2  BZF d   1      -1.036   0.012  -1.340  0.00  0.00     0.174 A 
ATOM      3  C3  BZF d   1      -0.612   0.594  -0.200  0.00  0.00    -0.012 A 
ATOM      4  C3A BZF d   1       0.621  -0.058   0.119  0.00  0.00    -0.107 A 
ATOM      5  C4  BZF d   1       1.527   0.092   1.130  0.00  0.00     0.055 A 
ATOM      6  C5  BZF d   1       2.591  -0.752   1.193  0.00  0.00    -0.016 A 
ATOM      7  C6  BZF d   1       2.775  -1.758   0.267  0.00  0.00     0.022 A 
ATOM      8  C7  BZF d   1       1.906  -1.942  -0.756  0.00  0.00     0.029 A 
ATOM      9  C7A BZF d   1       0.848  -1.070  -0.841  0.00  0.00     0.058 A 
ENDROOT
TORSDOF 0
ENDMDL
