MODEL 1
REMARK minimizedAffinity -4.2296772
REMARK minimizedRMSD -1
REMARK  0 active torsions:
REMARK  status: ('A' for Active; 'I' for Inactive)
ROOT
ATOM      1  O1  BZF d   1       2.257  -2.185  -0.136  0.00  0.00    -0.204 OA
ATOM      2  C2  BZF d   1       2.955  -1.413   0.773  0.00  0.00     0.174 A 
ATOM      3  C3  BZF d   1       2.346  -0.224   0.957  0.00  0.00    -0.012 A 
ATOM      4  C3A BZF d   1       1.146  -0.291   0.182  0.00  0.00    -0.107 A 
ATOM      5  C4  BZF d   1       0.114   0.579  -0.028  0.00  0.00     0.055 A 
ATOM      6  C5  BZF d   1      -0.870   0.237  -0.901  0.00  0.00    -0.016 A 
ATOM      7  C6  BZF d   1      -0.852  -0.962  -1.583  0.00  0.00     0.022 A 
ATOM      8  C7  BZF d   1       0.148  -1.858  -1.404  0.00  0.00     0.029 A 
ATOM      9  C7A BZF d   1       1.127  -1.530  -0.498  0.00  0.00     0.058 A 
ENDROOT
TORSDOF 0
ENDMDL
