MODEL 1
REMARK minimizedAffinity -3.84791827
REMARK minimizedRMSD -1
REMARK  0 active torsions:
REMARK  status: ('A' for Active; 'I' for Inactive)
ROOT
ATOM      1  O1  BZF d   1       1.770  -2.130  -0.018  0.00  0.00    -0.204 OA
ATOM      2  C2  BZF d   1       2.737  -1.516   0.755  0.00  0.00     0.174 A 
ATOM      3  C3  BZF d   1       2.417  -0.227   0.987  0.00  0.00    -0.012 A 
ATOM      4  C3A BZF d   1       1.126  -0.048   0.395  0.00  0.00    -0.107 A 
ATOM      5  C4  BZF d   1       0.273   1.015   0.308  0.00  0.00     0.055 A 
ATOM      6  C5  BZF d   1      -0.878   0.881  -0.402  0.00  0.00    -0.016 A 
ATOM      7  C6  BZF d   1      -1.204  -0.297  -1.041  0.00  0.00     0.022 A 
ATOM      8  C7  BZF d   1      -0.392  -1.380  -0.979  0.00  0.00     0.029 A 
ATOM      9  C7A BZF d   1       0.756  -1.258  -0.235  0.00  0.00     0.058 A 
ENDROOT
TORSDOF 0
ENDMDL
