MODEL 1
REMARK minimizedAffinity 1.1727823
REMARK minimizedRMSD -1
REMARK  0 active torsions:
REMARK  status: ('A' for Active; 'I' for Inactive)
ROOT
ATOM      1  N1  IND d   1      -1.038  -0.993   3.500  0.00  0.00    -0.196 N 
ATOM      2  C2  IND d   1      -1.429  -2.220   3.042  0.00  0.00     0.054 A 
ATOM      3  C3  IND d   1      -1.279  -2.292   1.700  0.00  0.00    -0.031 A 
ATOM      4  C4  IND d   1      -0.315  -0.550   0.067  0.00  0.00     0.051 A 
ATOM      5  C5  IND d   1       0.142   0.737   0.011  0.00  0.00    -0.031 A 
ATOM      6  C6  IND d   1       0.233   1.528   1.138  0.00  0.00     0.015 A 
ATOM      7  C7  IND d   1      -0.120   1.055   2.371  0.00  0.00    -0.016 A 
ATOM      8  C8  IND d   1      -0.591  -0.249   2.430  0.00  0.00    -0.047 A 
ATOM      9  C9  IND d   1      -0.726  -1.042   1.284  0.00  0.00    -0.096 A 
ATOM     10  HN1 IND d   1      -1.066  -0.731   4.318  0.00  0.00     0.298 HD
ENDROOT
TORSDOF 0
ENDMDL
