MODEL 1
REMARK minimizedAffinity -0.77679497
REMARK minimizedRMSD -1
REMARK  0 active torsions:
REMARK  status: ('A' for Active; 'I' for Inactive)
ROOT
ATOM      1  N1  IND d   1       1.330  -1.067  -0.054  0.00  0.00    -0.196 N 
ATOM      2  C2  IND d   1       2.289  -0.556  -0.884  0.00  0.00     0.054 A 
ATOM      3  C3  IND d   1       2.432   0.772  -0.674  0.00  0.00    -0.031 A 
ATOM      4  C4  IND d   1       1.270   2.291   1.049  0.00  0.00     0.051 A 
ATOM      5  C5  IND d   1       0.291   2.286   2.002  0.00  0.00    -0.031 A 
ATOM      6  C6  IND d   1      -0.404   1.139   2.327  0.00  0.00     0.015 A 
ATOM      7  C7  IND d   1      -0.137  -0.053   1.716  0.00  0.00    -0.016 A 
ATOM      8  C8  IND d   1       0.852  -0.050   0.743  0.00  0.00    -0.047 A 
ATOM      9  C9  IND d   1       1.532   1.119   0.379  0.00  0.00    -0.096 A 
ATOM     10  HN1 IND d   1       1.070  -1.887  -0.034  0.00  0.00     0.298 HD
ENDROOT
TORSDOF 0
ENDMDL
