MODEL 1
REMARK minimizedAffinity 6.28858995
REMARK minimizedRMSD -1
REMARK  0 active torsions:
REMARK  status: ('A' for Active; 'I' for Inactive)
ROOT
ATOM      1  N1  IND d   1       2.167  -1.140  -1.692  0.00  0.00    -0.196 N 
ATOM      2  C2  IND d   1       3.354  -0.466  -1.755  0.00  0.00     0.054 A 
ATOM      3  C3  IND d   1       3.331   0.605  -0.930  0.00  0.00    -0.031 A 
ATOM      4  C4  IND d   1       1.488   1.382   0.690  0.00  0.00     0.051 A 
ATOM      5  C5  IND d   1       0.205   1.108   1.073  0.00  0.00    -0.031 A 
ATOM      6  C6  IND d   1      -0.503   0.048   0.545  0.00  0.00     0.015 A 
ATOM      7  C7  IND d   1       0.052  -0.788  -0.381  0.00  0.00    -0.016 A 
ATOM      8  C8  IND d   1       1.352  -0.509  -0.778  0.00  0.00    -0.047 A 
ATOM      9  C9  IND d   1       2.061   0.590  -0.277  0.00  0.00    -0.096 A 
ATOM     10  HN1 IND d   1       1.963  -1.840  -2.148  0.00  0.00     0.298 HD
ENDROOT
TORSDOF 0
ENDMDL
