MODEL 1
REMARK minimizedAffinity -0.82698667
REMARK minimizedRMSD -1
REMARK  0 active torsions:
REMARK  status: ('A' for Active; 'I' for Inactive)
ROOT
ATOM      1  N1  IND d   1      -1.172  -0.695  -0.526  0.00  0.00    -0.196 N 
ATOM      2  C2  IND d   1      -0.789  -1.553   0.467  0.00  0.00     0.054 A 
ATOM      3  C3  IND d   1       0.168  -0.986   1.235  0.00  0.00    -0.031 A 
ATOM      4  C4  IND d   1       1.181   1.377   1.106  0.00  0.00     0.051 A 
ATOM      5  C5  IND d   1       1.175   2.512   0.345  0.00  0.00    -0.031 A 
ATOM      6  C6  IND d   1       0.367   2.639  -0.767  0.00  0.00     0.015 A 
ATOM      7  C7  IND d   1      -0.476   1.636  -1.154  0.00  0.00    -0.016 A 
ATOM      8  C8  IND d   1      -0.467   0.480  -0.387  0.00  0.00    -0.047 A 
ATOM      9  C9  IND d   1       0.381   0.329   0.718  0.00  0.00    -0.096 A 
ATOM     10  HN1 IND d   1      -1.756  -0.862  -1.136  0.00  0.00     0.298 HD
ENDROOT
TORSDOF 0
ENDMDL
