MODEL 1
REMARK minimizedAffinity -2.85088825
REMARK minimizedRMSD -1
REMARK  0 active torsions:
REMARK  status: ('A' for Active; 'I' for Inactive)
ROOT
ATOM      1  N1  IND d   1       1.101  -0.932  -0.304  0.00  0.00    -0.196 N 
ATOM      2  C2  IND d   1       2.277  -0.421  -0.781  0.00  0.00     0.054 A 
ATOM      3  C3  IND d   1       2.435   0.857  -0.372  0.00  0.00    -0.031 A 
ATOM      4  C4  IND d   1       0.940   2.278   1.169  0.00  0.00     0.051 A 
ATOM      5  C5  IND d   1      -0.259   2.257   1.824  0.00  0.00    -0.031 A 
ATOM      6  C6  IND d   1      -1.082   1.149   1.805  0.00  0.00     0.015 A 
ATOM      7  C7  IND d   1      -0.728   0.011   1.137  0.00  0.00    -0.016 A 
ATOM      8  C8  IND d   1       0.485   0.031   0.464  0.00  0.00    -0.047 A 
ATOM      9  C9  IND d   1       1.304   1.168   0.445  0.00  0.00    -0.096 A 
ATOM     10  HN1 IND d   1       0.798  -1.721  -0.459  0.00  0.00     0.298 HD
ENDROOT
TORSDOF 0
ENDMDL
