MODEL 1
REMARK minimizedAffinity -0.289991796
REMARK minimizedRMSD -1
REMARK  0 active torsions:
REMARK  status: ('A' for Active; 'I' for Inactive)
ROOT
ATOM      1  N1  IND d   1       2.810   0.738  -0.401  0.00  0.00    -0.196 N 
ATOM      2  C2  IND d   1       2.769   2.003   0.115  0.00  0.00     0.054 A 
ATOM      3  C3  IND d   1       1.550   2.258   0.641  0.00  0.00    -0.031 A 
ATOM      4  C4  IND d   1      -0.496   0.709   0.852  0.00  0.00     0.051 A 
ATOM      5  C5  IND d   1      -0.951  -0.529   0.494  0.00  0.00    -0.031 A 
ATOM      6  C6  IND d   1      -0.160  -1.427  -0.192  0.00  0.00     0.015 A 
ATOM      7  C7  IND d   1       1.127  -1.123  -0.538  0.00  0.00    -0.016 A 
ATOM      8  C8  IND d   1       1.591   0.135  -0.182  0.00  0.00    -0.047 A 
ATOM      9  C9  IND d   1       0.778   1.067   0.477  0.00  0.00    -0.096 A 
ATOM     10  HN1 IND d   1       3.484   0.379  -0.797  0.00  0.00     0.298 HD
ENDROOT
TORSDOF 0
ENDMDL
