MODEL 1
REMARK minimizedAffinity 3.63603687
REMARK minimizedRMSD -1
REMARK  0 active torsions:
REMARK  status: ('A' for Active; 'I' for Inactive)
ROOT
ATOM      1  N1  IND d   1       1.159  -1.141  -0.004  0.00  0.00    -0.196 N 
ATOM      2  C2  IND d   1       1.475  -0.767  -1.280  0.00  0.00     0.054 A 
ATOM      3  C3  IND d   1       1.543   0.580  -1.373  0.00  0.00    -0.031 A 
ATOM      4  C4  IND d   1       1.271   2.362   0.466  0.00  0.00     0.051 A 
ATOM      5  C5  IND d   1       0.940   2.508   1.784  0.00  0.00    -0.031 A 
ATOM      6  C6  IND d   1       0.661   1.423   2.590  0.00  0.00     0.015 A 
ATOM      7  C7  IND d   1       0.715   0.145   2.109  0.00  0.00    -0.016 A 
ATOM      8  C8  IND d   1       1.045  -0.006   0.770  0.00  0.00    -0.047 A 
ATOM      9  C9  IND d   1       1.287   1.093  -0.064  0.00  0.00    -0.096 A 
ATOM     10  HN1 IND d   1       1.049  -1.948   0.270  0.00  0.00     0.298 HD
ENDROOT
TORSDOF 0
ENDMDL
