MODEL 1
REMARK minimizedAffinity -4.63558006
REMARK minimizedRMSD -1
REMARK  0 active torsions:
REMARK  status: ('A' for Active; 'I' for Inactive)
ROOT
ATOM      1  N1  IND d   1       0.103  -1.217  -1.215  0.00  0.00    -0.196 N 
ATOM      2  C2  IND d   1      -1.209  -0.843  -1.289  0.00  0.00     0.054 A 
ATOM      3  C3  IND d   1      -1.380   0.384  -0.747  0.00  0.00    -0.031 A 
ATOM      4  C4  IND d   1       0.373   2.000   0.225  0.00  0.00     0.051 A 
ATOM      5  C5  IND d   1       1.699   2.087   0.542  0.00  0.00    -0.031 A 
ATOM      6  C6  IND d   1       2.580   1.057   0.282  0.00  0.00     0.015 A 
ATOM      7  C7  IND d   1       2.167  -0.098  -0.318  0.00  0.00    -0.016 A 
ATOM      8  C8  IND d   1       0.819  -0.193  -0.635  0.00  0.00    -0.047 A 
ATOM      9  C9  IND d   1      -0.087   0.832  -0.334  0.00  0.00    -0.096 A 
ATOM     10  HN1 IND d   1       0.427  -1.966  -1.485  0.00  0.00     0.298 HD
ENDROOT
TORSDOF 0
ENDMDL
