MODEL 1
REMARK minimizedAffinity -3.92197967
REMARK minimizedRMSD -1
REMARK  0 active torsions:
REMARK  status: ('A' for Active; 'I' for Inactive)
ROOT
ATOM      1  N1  IND d   1       0.050  -1.001  -0.436  0.00  0.00    -0.196 N 
ATOM      2  C2  IND d   1       1.149  -1.072  -1.246  0.00  0.00     0.054 A 
ATOM      3  C3  IND d   1       1.943   0.006  -1.055  0.00  0.00    -0.031 A 
ATOM      4  C4  IND d   1       1.684   1.956   0.605  0.00  0.00     0.051 A 
ATOM      5  C5  IND d   1       0.822   2.477   1.529  0.00  0.00    -0.031 A 
ATOM      6  C6  IND d   1      -0.365   1.851   1.853  0.00  0.00     0.015 A 
ATOM      7  C7  IND d   1      -0.729   0.670   1.271  0.00  0.00    -0.016 A 
ATOM      8  C8  IND d   1       0.141   0.142   0.328  0.00  0.00    -0.047 A 
ATOM      9  C9  IND d   1       1.326   0.794  -0.036  0.00  0.00    -0.096 A 
ATOM     10  HN1 IND d   1      -0.591  -1.574  -0.409  0.00  0.00     0.298 HD
ENDROOT
TORSDOF 0
ENDMDL
