MODEL 1
REMARK minimizedAffinity -4.0633111
REMARK minimizedRMSD -1
REMARK  0 active torsions:
REMARK  status: ('A' for Active; 'I' for Inactive)
ROOT
ATOM      1  N1  IND d   1      -0.626  -0.770   0.323  0.00  0.00    -0.196 N 
ATOM      2  C2  IND d   1      -0.392  -0.620  -1.016  0.00  0.00     0.054 A 
ATOM      3  C3  IND d   1       0.263   0.539  -1.251  0.00  0.00    -0.031 A 
ATOM      4  C4  IND d   1       1.142   2.290   0.419  0.00  0.00     0.051 A 
ATOM      5  C5  IND d   1       1.138   2.607   1.749  0.00  0.00    -0.031 A 
ATOM      6  C6  IND d   1       0.536   1.797   2.690  0.00  0.00     0.015 A 
ATOM      7  C7  IND d   1      -0.077   0.629   2.336  0.00  0.00    -0.016 A 
ATOM      8  C8  IND d   1      -0.082   0.307   0.987  0.00  0.00    -0.047 A 
ATOM      9  C9  IND d   1       0.491   1.146   0.022  0.00  0.00    -0.096 A 
ATOM     10  HN1 IND d   1      -1.043  -1.427   0.688  0.00  0.00     0.298 HD
ENDROOT
TORSDOF 0
ENDMDL
