MODEL 1
REMARK minimizedAffinity 11.4662113
REMARK minimizedRMSD -1
REMARK  0 active torsions:
REMARK  status: ('A' for Active; 'I' for Inactive)
ROOT
ATOM      1  N1  IND d   1       1.091   0.140  -0.402  0.00  0.00    -0.196 N 
ATOM      2  C2  IND d   1       0.113  -0.036   0.537  0.00  0.00     0.054 A 
ATOM      3  C3  IND d   1      -0.732   1.019   0.538  0.00  0.00    -0.031 A 
ATOM      4  C4  IND d   1      -0.759   3.096  -0.983  0.00  0.00     0.051 A 
ATOM      5  C5  IND d   1      -0.045   3.719  -1.967  0.00  0.00    -0.031 A 
ATOM      6  C6  IND d   1       1.106   3.169  -2.493  0.00  0.00     0.015 A 
ATOM      7  C7  IND d   1       1.582   1.964  -2.060  0.00  0.00    -0.016 A 
ATOM      8  C8  IND d   1       0.863   1.331  -1.055  0.00  0.00    -0.047 A 
ATOM      9  C9  IND d   1      -0.282   1.905  -0.488  0.00  0.00    -0.096 A 
ATOM     10  HN1 IND d   1       1.740  -0.403  -0.558  0.00  0.00     0.298 HD
ENDROOT
TORSDOF 0
ENDMDL
