MODEL 1
REMARK minimizedAffinity 8.67723274
REMARK minimizedRMSD -1
REMARK  0 active torsions:
REMARK  status: ('A' for Active; 'I' for Inactive)
ROOT
ATOM      1  N1  IND d   1      -3.780   5.959  -0.680  0.00  0.00    -0.196 N 
ATOM      2  C2  IND d   1      -2.512   5.918  -0.172  0.00  0.00     0.054 A 
ATOM      3  C3  IND d   1      -1.604   5.883  -1.173  0.00  0.00    -0.031 A 
ATOM      4  C4  IND d   1      -1.974   5.991  -3.719  0.00  0.00     0.051 A 
ATOM      5  C5  IND d   1      -2.960   5.999  -4.665  0.00  0.00    -0.031 A 
ATOM      6  C6  IND d   1      -4.297   5.998  -4.324  0.00  0.00     0.015 A 
ATOM      7  C7  IND d   1      -4.699   5.999  -3.018  0.00  0.00    -0.016 A 
ATOM      8  C8  IND d   1      -3.701   5.983  -2.055  0.00  0.00    -0.047 A 
ATOM      9  C9  IND d   1      -2.342   5.942  -2.395  0.00  0.00    -0.096 A 
ATOM     10  HN1 IND d   1      -4.505   5.969  -0.218  0.00  0.00     0.298 HD
ENDROOT
TORSDOF 0
ENDMDL
