MODEL 1
REMARK minimizedAffinity -3.02281737
REMARK minimizedRMSD -1
REMARK  0 active torsions:
REMARK  status: ('A' for Active; 'I' for Inactive)
ROOT
ATOM      1  N1  IND d   1       3.080   4.188  -2.704  0.00  0.00    -0.196 N 
ATOM      2  C2  IND d   1       4.275   3.758  -3.209  0.00  0.00     0.054 A 
ATOM      3  C3  IND d   1       4.379   4.090  -4.516  0.00  0.00    -0.031 A 
ATOM      4  C4  IND d   1       2.753   5.425  -5.999  0.00  0.00     0.051 A 
ATOM      5  C5  IND d   1       1.512   5.998  -5.993  0.00  0.00    -0.031 A 
ATOM      6  C6  IND d   1       0.715   5.998  -4.867  0.00  0.00     0.015 A 
ATOM      7  C7  IND d   1       1.136   5.434  -3.696  0.00  0.00    -0.016 A 
ATOM      8  C8  IND d   1       2.393   4.846  -3.700  0.00  0.00    -0.047 A 
ATOM      9  C9  IND d   1       3.189   4.805  -4.852  0.00  0.00    -0.096 A 
ATOM     10  HN1 IND d   1       2.803   4.067  -1.898  0.00  0.00     0.298 HD
ENDROOT
TORSDOF 0
ENDMDL
