MODEL 1
REMARK minimizedAffinity -2.54431748
REMARK minimizedRMSD -1
REMARK  0 active torsions:
REMARK  status: ('A' for Active; 'I' for Inactive)
ROOT
ATOM      1  N1  IND d   1      -0.463   0.959   2.470  0.00  0.00    -0.196 N 
ATOM      2  C2  IND d   1      -0.323   0.877   1.113  0.00  0.00     0.054 A 
ATOM      3  C3  IND d   1       0.969   1.065   0.761  0.00  0.00    -0.031 A 
ATOM      4  C4  IND d   1       3.035   1.421   2.255  0.00  0.00     0.051 A 
ATOM      5  C5  IND d   1       3.404   1.605   3.558  0.00  0.00    -0.031 A 
ATOM      6  C6  IND d   1       2.484   1.580   4.586  0.00  0.00     0.015 A 
ATOM      7  C7  IND d   1       1.157   1.358   4.350  0.00  0.00    -0.016 A 
ATOM      8  C8  IND d   1       0.778   1.177   3.027  0.00  0.00    -0.047 A 
ATOM      9  C9  IND d   1       1.701   1.244   1.975  0.00  0.00    -0.096 A 
ATOM     10  HN1 IND d   1      -1.202   0.886   2.904  0.00  0.00     0.298 HD
ENDROOT
TORSDOF 0
ENDMDL
