MODEL 1
REMARK minimizedAffinity -1.65748942
REMARK minimizedRMSD -1
REMARK  0 active torsions:
REMARK  status: ('A' for Active; 'I' for Inactive)
ROOT
ATOM      1  N1  IND d   1       0.686   1.505   3.999  0.00  0.00    -0.196 N 
ATOM      2  C2  IND d   1       1.824   2.090   3.517  0.00  0.00     0.054 A 
ATOM      3  C3  IND d   1       2.050   1.700   2.242  0.00  0.00    -0.031 A 
ATOM      4  C4  IND d   1       0.629   0.187   0.719  0.00  0.00     0.051 A 
ATOM      5  C5  IND d   1      -0.480  -0.611   0.725  0.00  0.00    -0.031 A 
ATOM      6  C6  IND d   1      -1.275  -0.746   1.846  0.00  0.00     0.015 A 
ATOM      7  C7  IND d   1      -0.995  -0.075   3.002  0.00  0.00    -0.016 A 
ATOM      8  C8  IND d   1       0.135   0.731   3.001  0.00  0.00    -0.047 A 
ATOM      9  C9  IND d   1       0.969   0.838   1.881  0.00  0.00    -0.096 A 
ATOM     10  HN1 IND d   1       0.369   1.603   4.792  0.00  0.00     0.298 HD
ENDROOT
TORSDOF 0
ENDMDL
