MODEL 1
REMARK minimizedAffinity 3.23361754
REMARK minimizedRMSD -1
REMARK  0 active torsions:
REMARK  status: ('A' for Active; 'I' for Inactive)
ROOT
ATOM      1  N1  IND d   1      -0.176  -0.447  -0.512  0.00  0.00    -0.196 N 
ATOM      2  C2  IND d   1      -0.114  -0.057   0.797  0.00  0.00     0.054 A 
ATOM      3  C3  IND d   1       0.496   1.145   0.900  0.00  0.00    -0.031 A 
ATOM      4  C4  IND d   1       1.377   2.698  -0.954  0.00  0.00     0.051 A 
ATOM      5  C5  IND d   1       1.576   2.757  -2.305  0.00  0.00    -0.031 A 
ATOM      6  C6  IND d   1       1.191   1.732  -3.145  0.00  0.00     0.015 A 
ATOM      7  C7  IND d   1       0.579   0.609  -2.663  0.00  0.00    -0.016 A 
ATOM      8  C8  IND d   1       0.382   0.542  -1.291  0.00  0.00    -0.047 A 
ATOM      9  C9  IND d   1       0.809   1.561  -0.430  0.00  0.00    -0.096 A 
ATOM     10  HN1 IND d   1      -0.508  -1.186  -0.800  0.00  0.00     0.298 HD
ENDROOT
TORSDOF 0
ENDMDL
