MODEL 1
REMARK minimizedAffinity -2.71995807
REMARK minimizedRMSD -1
REMARK  0 active torsions:
REMARK  status: ('A' for Active; 'I' for Inactive)
ROOT
ATOM      1  N1  IND d   1      -3.669   6.000  -4.242  0.00  0.00    -0.196 N 
ATOM      2  C2  IND d   1      -4.084   5.993  -2.940  0.00  0.00     0.054 A 
ATOM      3  C3  IND d   1      -3.022   5.914  -2.108  0.00  0.00    -0.031 A 
ATOM      4  C4  IND d   1      -0.508   5.889  -2.663  0.00  0.00     0.051 A 
ATOM      5  C5  IND d   1       0.362   5.842  -3.716  0.00  0.00    -0.031 A 
ATOM      6  C6  IND d   1      -0.076   5.849  -5.025  0.00  0.00     0.015 A 
ATOM      7  C7  IND d   1      -1.406   5.914  -5.330  0.00  0.00    -0.016 A 
ATOM      8  C8  IND d   1      -2.293   5.954  -4.264  0.00  0.00    -0.047 A 
ATOM      9  C9  IND d   1      -1.856   5.904  -2.934  0.00  0.00    -0.096 A 
ATOM     10  HN1 IND d   1      -4.182   6.028  -4.932  0.00  0.00     0.298 HD
ENDROOT
TORSDOF 0
ENDMDL
