MODEL 1
REMARK minimizedAffinity 17.41786
REMARK minimizedRMSD -1
REMARK  0 active torsions:
REMARK  status: ('A' for Active; 'I' for Inactive)
ROOT
ATOM      1  C   UNL d   1      -1.521  -5.752   0.838  0.00  0.00    -0.002 A 
ATOM      2  C1  UNL d   1      -2.111  -5.383   2.039  0.00  0.00     0.010 A 
ATOM      3  C2  UNL d   1      -3.494  -5.215   2.129  0.00  0.00     0.041 A 
ATOM      4  C3  UNL d   1      -4.282  -5.427   0.981  0.00  0.00    -0.075 A 
ATOM      5  S   UNL d   1      -5.995  -5.280   0.855  0.00  0.00     0.015 SA
ATOM      6  C4  UNL d   1      -5.985  -5.704  -0.796  0.00  0.00     0.022 A 
ATOM      7  C5  UNL d   1      -4.714  -5.954  -1.256  0.00  0.00     0.026 A 
ATOM      8  C6  UNL d   1      -3.712  -5.799  -0.240  0.00  0.00    -0.082 A 
ATOM      9  C7  UNL d   1      -2.306  -5.961  -0.299  0.00  0.00     0.045 A 
ENDROOT
TORSDOF 0
ENDMDL
