MODEL 1
REMARK minimizedAffinity 10.4395638
REMARK minimizedRMSD -1
REMARK  0 active torsions:
REMARK  status: ('A' for Active; 'I' for Inactive)
ROOT
ATOM      1  C   UNL d   1      -4.550   3.409   4.459  0.00  0.00    -0.002 A 
ATOM      2  C1  UNL d   1      -4.340   2.968   5.758  0.00  0.00     0.010 A 
ATOM      3  C2  UNL d   1      -3.761   1.721   6.000  0.00  0.00     0.041 A 
ATOM      4  C3  UNL d   1      -3.391   0.917   4.904  0.00  0.00    -0.075 A 
ATOM      5  S   UNL d   1      -2.664  -0.646   4.959  0.00  0.00     0.015 SA
ATOM      6  C4  UNL d   1      -2.614  -0.765   3.260  0.00  0.00     0.022 A 
ATOM      7  C5  UNL d   1      -3.135   0.352   2.649  0.00  0.00     0.026 A 
ATOM      8  C6  UNL d   1      -3.590   1.340   3.587  0.00  0.00    -0.082 A 
ATOM      9  C7  UNL d   1      -4.181   2.609   3.374  0.00  0.00     0.045 A 
ENDROOT
TORSDOF 0
ENDMDL
