MODEL 1
REMARK minimizedAffinity 31.284708
REMARK minimizedRMSD -1
REMARK  0 active torsions:
REMARK  status: ('A' for Active; 'I' for Inactive)
ROOT
ATOM      1  C   UNL d   1       1.406  -2.198  -1.446  0.00  0.00    -0.002 A 
ATOM      2  C1  UNL d   1       1.231  -1.355  -2.534  0.00  0.00     0.010 A 
ATOM      3  C2  UNL d   1       1.859  -0.109  -2.576  0.00  0.00     0.041 A 
ATOM      4  C3  UNL d   1       2.676   0.279  -1.495  0.00  0.00    -0.075 A 
ATOM      5  S   UNL d   1       3.546   1.758  -1.329  0.00  0.00     0.015 SA
ATOM      6  C4  UNL d   1       4.171   1.305   0.191  0.00  0.00     0.022 A 
ATOM      7  C5  UNL d   1       3.737   0.059   0.577  0.00  0.00     0.026 A 
ATOM      8  C6  UNL d   1       2.869  -0.553  -0.389  0.00  0.00    -0.082 A 
ATOM      9  C7  UNL d   1       2.217  -1.810  -0.376  0.00  0.00     0.045 A 
ENDROOT
TORSDOF 0
ENDMDL
