MODEL 1
REMARK minimizedAffinity 17.8288555
REMARK minimizedRMSD -1
REMARK  0 active torsions:
REMARK  status: ('A' for Active; 'I' for Inactive)
ROOT
ATOM      1  C   UNL d   1       2.286  -5.999  -0.786  0.00  0.00    -0.002 A 
ATOM      2  C1  UNL d   1       1.569  -5.753  -1.949  0.00  0.00     0.010 A 
ATOM      3  C2  UNL d   1       1.597  -4.491  -2.546  0.00  0.00     0.041 A 
ATOM      4  C3  UNL d   1       2.366  -3.472  -1.951  0.00  0.00    -0.075 A 
ATOM      5  S   UNL d   1       2.551  -1.850  -2.506  0.00  0.00     0.015 SA
ATOM      6  C4  UNL d   1       3.586  -1.446  -1.213  0.00  0.00     0.022 A 
ATOM      7  C5  UNL d   1       3.796  -2.511  -0.369  0.00  0.00     0.026 A 
ATOM      8  C6  UNL d   1       3.097  -3.696  -0.780  0.00  0.00    -0.082 A 
ATOM      9  C7  UNL d   1       3.047  -4.986  -0.198  0.00  0.00     0.045 A 
ENDROOT
TORSDOF 0
ENDMDL
