MODEL 1
REMARK minimizedAffinity 14.7905846
REMARK minimizedRMSD -1
REMARK  0 active torsions:
REMARK  status: ('A' for Active; 'I' for Inactive)
ROOT
ATOM      1  C   UNL d   1       5.024   3.155   0.660  0.00  0.00    -0.002 A 
ATOM      2  C1  UNL d   1       5.231   2.368  -0.463  0.00  0.00     0.010 A 
ATOM      3  C2  UNL d   1       4.302   1.391  -0.827  0.00  0.00     0.041 A 
ATOM      4  C3  UNL d   1       3.150   1.218  -0.036  0.00  0.00    -0.075 A 
ATOM      5  S   UNL d   1       1.875   0.085  -0.289  0.00  0.00     0.015 SA
ATOM      6  C4  UNL d   1       1.025   0.620   1.088  0.00  0.00     0.022 A 
ATOM      7  C5  UNL d   1       1.684   1.637   1.737  0.00  0.00     0.026 A 
ATOM      8  C6  UNL d   1       2.918   1.999   1.100  0.00  0.00    -0.082 A 
ATOM      9  C7  UNL d   1       3.879   2.981   1.443  0.00  0.00     0.045 A 
ENDROOT
TORSDOF 0
ENDMDL
