MODEL 1
REMARK minimizedAffinity 12.9148293
REMARK minimizedRMSD -1
REMARK  0 active torsions:
REMARK  status: ('A' for Active; 'I' for Inactive)
ROOT
ATOM      1  C   UNL d   1      -4.537   4.869  -5.998  0.00  0.00    -0.002 A 
ATOM      2  C1  UNL d   1      -3.928   5.998  -5.469  0.00  0.00     0.010 A 
ATOM      3  C2  UNL d   1      -2.644   5.924  -4.926  0.00  0.00     0.041 A 
ATOM      4  C3  UNL d   1      -1.975   4.684  -4.926  0.00  0.00    -0.075 A 
ATOM      5  S   UNL d   1      -0.396   4.355  -4.316  0.00  0.00     0.015 SA
ATOM      6  C4  UNL d   1      -0.492   2.709  -4.745  0.00  0.00     0.022 A 
ATOM      7  C5  UNL d   1      -1.693   2.400  -5.339  0.00  0.00     0.026 A 
ATOM      8  C6  UNL d   1      -2.567   3.534  -5.454  0.00  0.00    -0.082 A 
ATOM      9  C7  UNL d   1      -3.870   3.642  -5.997  0.00  0.00     0.045 A 
ENDROOT
TORSDOF 0
ENDMDL
