MODEL 1
REMARK minimizedAffinity 11.4980211
REMARK minimizedRMSD -1
REMARK  0 active torsions:
REMARK  status: ('A' for Active; 'I' for Inactive)
ROOT
ATOM      1  C   UNL d   1       3.119  -5.051  -1.372  0.00  0.00    -0.002 A 
ATOM      2  C1  UNL d   1       3.759  -4.551  -0.247  0.00  0.00     0.010 A 
ATOM      3  C2  UNL d   1       3.580  -3.221   0.140  0.00  0.00     0.041 A 
ATOM      4  C3  UNL d   1       2.738  -2.395  -0.630  0.00  0.00    -0.075 A 
ATOM      5  S   UNL d   1       2.369  -0.735  -0.347  0.00  0.00     0.015 SA
ATOM      6  C4  UNL d   1       1.353  -0.651  -1.713  0.00  0.00     0.022 A 
ATOM      7  C5  UNL d   1       1.285  -1.851  -2.380  0.00  0.00     0.026 A 
ATOM      8  C6  UNL d   1       2.082  -2.876  -1.767  0.00  0.00    -0.082 A 
ATOM      9  C7  UNL d   1       2.284  -4.229  -2.133  0.00  0.00     0.045 A 
ENDROOT
TORSDOF 0
ENDMDL
