MODEL 1
REMARK minimizedAffinity 17.5681038
REMARK minimizedRMSD -1
REMARK  0 active torsions:
REMARK  status: ('A' for Active; 'I' for Inactive)
ROOT
ATOM      1  C   UNL d   1       3.376   0.466  -1.466  0.00  0.00    -0.002 A 
ATOM      2  C1  UNL d   1       4.432   1.130  -0.857  0.00  0.00     0.010 A 
ATOM      3  C2  UNL d   1       4.308   1.616   0.446  0.00  0.00     0.041 A 
ATOM      4  C3  UNL d   1       3.094   1.421   1.134  0.00  0.00    -0.075 A 
ATOM      5  S   UNL d   1       2.714   1.928   2.737  0.00  0.00     0.015 SA
ATOM      6  C4  UNL d   1       1.142   1.275   2.652  0.00  0.00     0.022 A 
ATOM      7  C5  UNL d   1       0.896   0.681   1.437  0.00  0.00     0.026 A 
ATOM      8  C6  UNL d   1       2.017   0.754   0.542  0.00  0.00    -0.082 A 
ATOM      9  C7  UNL d   1       2.174   0.274  -0.780  0.00  0.00     0.045 A 
ENDROOT
TORSDOF 0
ENDMDL
