MODEL 1
REMARK minimizedAffinity 17.6988468
REMARK minimizedRMSD -1
REMARK  0 active torsions:
REMARK  status: ('A' for Active; 'I' for Inactive)
ROOT
ATOM      1  C   UNL d   1      -3.401  -0.782   3.992  0.00  0.00    -0.002 A 
ATOM      2  C1  UNL d   1      -3.002  -0.574   5.305  0.00  0.00     0.010 A 
ATOM      3  C2  UNL d   1      -3.411   0.566   6.000  0.00  0.00     0.041 A 
ATOM      4  C3  UNL d   1      -4.239   1.501   5.347  0.00  0.00    -0.075 A 
ATOM      5  S   UNL d   1      -4.864   2.969   6.000  0.00  0.00     0.015 SA
ATOM      6  C4  UNL d   1      -5.677   3.354   4.552  0.00  0.00     0.022 A 
ATOM      7  C5  UNL d   1      -5.486   2.397   3.583  0.00  0.00     0.026 A 
ATOM      8  C6  UNL d   1      -4.654   1.313   4.026  0.00  0.00    -0.082 A 
ATOM      9  C7  UNL d   1      -4.221   0.148   3.348  0.00  0.00     0.045 A 
ENDROOT
TORSDOF 0
ENDMDL
