MODEL 1
REMARK minimizedAffinity 3.63744211
REMARK minimizedRMSD -1
REMARK  0 active torsions:
REMARK  status: ('A' for Active; 'I' for Inactive)
ROOT
ATOM      1  C   UNL d   1      -0.947   2.954  -5.233  0.00  0.00    -0.002 A 
ATOM      2  C1  UNL d   1      -1.967   2.043  -5.000  0.00  0.00     0.010 A 
ATOM      3  C2  UNL d   1      -3.304   2.433  -5.095  0.00  0.00     0.041 A 
ATOM      4  C3  UNL d   1      -3.602   3.768  -5.434  0.00  0.00    -0.075 A 
ATOM      5  S   UNL d   1      -5.166   4.471  -5.610  0.00  0.00     0.015 SA
ATOM      6  C4  UNL d   1      -4.517   5.998  -6.000  0.00  0.00     0.022 A 
ATOM      7  C5  UNL d   1      -3.142   5.990  -6.000  0.00  0.00     0.026 A 
ATOM      8  C6  UNL d   1      -2.592   4.704  -5.675  0.00  0.00    -0.082 A 
ATOM      9  C7  UNL d   1      -1.246   4.277  -5.569  0.00  0.00     0.045 A 
ENDROOT
TORSDOF 0
ENDMDL
