MODEL 1
REMARK minimizedAffinity 13.3663216
REMARK minimizedRMSD -1
REMARK  1 active torsions:
REMARK  status: ('A' for Active; 'I' for Inactive)
REMARK    1  A    between atoms: C1_2  and  C2_3 
ROOT
ATOM      1  C2  UNL d   1       4.743   5.228  -3.759  0.00  0.00    -0.076 A 
ATOM      2  C3  UNL d   1       3.831   4.496  -4.539  0.00  0.00     0.004 A 
ATOM      3  C4  UNL d   1       2.813   3.753  -3.945  0.00  0.00    -0.003 A 
ATOM      4  C5  UNL d   1       2.689   3.730  -2.560  0.00  0.00     0.000 A 
ATOM      5  C6  UNL d   1       3.574   4.464  -1.771  0.00  0.00     0.000 A 
ATOM      6  C7  UNL d   1       4.596   5.232  -2.355  0.00  0.00    -0.073 A 
ATOM      7  C8  UNL d   1       5.526   5.999  -1.456  0.00  0.00     0.078 C 
ENDROOT
BRANCH   1   8
ATOM      8  C1  UNL d   1       5.843   5.994  -4.458  0.00  0.00     0.053 C 
ATOM      9  C   UNL d   1       5.734   5.919  -5.973  0.00  0.00     0.018 C 
ENDBRANCH   1   8
TORSDOF 1
ENDMDL
