MODEL 1
REMARK minimizedAffinity 9.29498386
REMARK minimizedRMSD -1
REMARK  1 active torsions:
REMARK  status: ('A' for Active; 'I' for Inactive)
REMARK    1  A    between atoms: C1_2  and  C2_3 
ROOT
ATOM      1  C2  UNL d   1      -4.130  -3.602  -4.372  0.00  0.00    -0.076 A 
ATOM      2  C3  UNL d   1      -3.617  -4.888  -4.128  0.00  0.00     0.004 A 
ATOM      3  C4  UNL d   1      -4.118  -6.000  -4.802  0.00  0.00    -0.003 A 
ATOM      4  C5  UNL d   1      -5.140  -5.844  -5.732  0.00  0.00     0.000 A 
ATOM      5  C6  UNL d   1      -5.649  -4.574  -6.000  0.00  0.00     0.000 A 
ATOM      6  C7  UNL d   1      -5.143  -3.440  -5.341  0.00  0.00    -0.073 A 
ATOM      7  C8  UNL d   1      -5.733  -2.094  -5.664  0.00  0.00     0.078 C 
ENDROOT
BRANCH   1   8
ATOM      8  C1  UNL d   1      -3.566  -2.437  -3.591  0.00  0.00     0.053 C 
ATOM      9  C   UNL d   1      -4.518  -1.942  -2.513  0.00  0.00     0.018 C 
ENDBRANCH   1   8
TORSDOF 1
ENDMDL
