MODEL 1
REMARK minimizedAffinity 14.3952379
REMARK minimizedRMSD -1
REMARK  1 active torsions:
REMARK  status: ('A' for Active; 'I' for Inactive)
REMARK    1  A    between atoms: C1_2  and  C2_3 
ROOT
ATOM      1  C2  UNL d   1      -4.157   2.517  -1.642  0.00  0.00    -0.076 A 
ATOM      2  C3  UNL d   1      -5.195   3.435  -1.404  0.00  0.00     0.004 A 
ATOM      3  C4  UNL d   1      -5.995   3.899  -2.447  0.00  0.00    -0.003 A 
ATOM      4  C5  UNL d   1      -5.770   3.452  -3.745  0.00  0.00     0.000 A 
ATOM      5  C6  UNL d   1      -4.757   2.527  -3.995  0.00  0.00     0.000 A 
ATOM      6  C7  UNL d   1      -3.952   2.037  -2.953  0.00  0.00    -0.073 A 
ATOM      7  C8  UNL d   1      -2.870   1.046  -3.281  0.00  0.00     0.078 C 
ENDROOT
BRANCH   1   8
ATOM      8  C1  UNL d   1      -3.305   2.070  -0.475  0.00  0.00     0.053 C 
ATOM      9  C   UNL d   1      -2.323   3.141  -0.027  0.00  0.00     0.018 C 
ENDBRANCH   1   8
TORSDOF 1
ENDMDL
