MODEL 1
REMARK minimizedAffinity -2.81231785
REMARK minimizedRMSD -1
REMARK  0 active torsions:
REMARK  status: ('A' for Active; 'I' for Inactive)
ROOT
ATOM      1  C   UNL d   1       0.343  -1.417  -0.777  0.00  0.00     0.077 C 
ATOM      2  C1  UNL d   1       0.108  -0.192   0.056  0.00  0.00    -0.074 A 
ATOM      3  C2  UNL d   1       0.178  -0.247   1.451  0.00  0.00    -0.005 A 
ATOM      4  C3  UNL d   1      -0.034   0.903   2.212  0.00  0.00     0.006 A 
ATOM      5  C4  UNL d   1      -0.318   2.117   1.586  0.00  0.00    -0.005 A 
ATOM      6  C5  UNL d   1      -0.391   2.192   0.192  0.00  0.00    -0.074 A 
ATOM      7  C6  UNL d   1      -0.685   3.491  -0.497  0.00  0.00     0.077 C 
ATOM      8  C7  UNL d   1      -0.170   1.034  -0.566  0.00  0.00    -0.001 A 
ENDROOT
TORSDOF 0
ENDMDL
