MODEL 1
REMARK minimizedAffinity -5.30468082
REMARK minimizedRMSD -1
REMARK  0 active torsions:
REMARK  status: ('A' for Active; 'I' for Inactive)
ROOT
ATOM      1  C   UNL d   1      -0.749   2.777  -2.345  0.00  0.00     0.077 C 
ATOM      2  C1  UNL d   1      -0.518   1.988  -1.090  0.00  0.00    -0.074 A 
ATOM      3  C2  UNL d   1       0.160   0.765  -1.125  0.00  0.00    -0.005 A 
ATOM      4  C3  UNL d   1       0.375   0.047   0.051  0.00  0.00     0.006 A 
ATOM      5  C4  UNL d   1      -0.084   0.543   1.272  0.00  0.00    -0.005 A 
ATOM      6  C5  UNL d   1      -0.763   1.764   1.326  0.00  0.00    -0.074 A 
ATOM      7  C6  UNL d   1      -1.255   2.317   2.631  0.00  0.00     0.077 C 
ATOM      8  C7  UNL d   1      -0.970   2.483   0.141  0.00  0.00    -0.001 A 
ENDROOT
TORSDOF 0
ENDMDL
