MODEL 1
REMARK minimizedAffinity -5.54855013
REMARK minimizedRMSD -1
REMARK  0 active torsions:
REMARK  status: ('A' for Active; 'I' for Inactive)
ROOT
ATOM      1  C   UNL d   1      -1.489   3.496  -0.217  0.00  0.00     0.077 C 
ATOM      2  C1  UNL d   1      -0.933   2.280   0.463  0.00  0.00    -0.074 A 
ATOM      3  C2  UNL d   1      -0.887   2.195   1.858  0.00  0.00    -0.005 A 
ATOM      4  C3  UNL d   1      -0.375   1.054   2.477  0.00  0.00     0.006 A 
ATOM      5  C4  UNL d   1       0.094  -0.011   1.708  0.00  0.00    -0.005 A 
ATOM      6  C5  UNL d   1       0.056   0.056   0.311  0.00  0.00    -0.074 A 
ATOM      7  C6  UNL d   1       0.548  -1.084  -0.530  0.00  0.00     0.077 C 
ATOM      8  C7  UNL d   1      -0.466   1.202  -0.303  0.00  0.00    -0.001 A 
ENDROOT
TORSDOF 0
ENDMDL
