MODEL 1
REMARK minimizedAffinity -4.26136923
REMARK minimizedRMSD -1
REMARK  0 active torsions:
REMARK  status: ('A' for Active; 'I' for Inactive)
ROOT
ATOM      1  C   UNL d   1       0.056  -1.024  -0.446  0.00  0.00     0.077 C 
ATOM      2  C1  UNL d   1      -0.213   0.204   0.373  0.00  0.00    -0.074 A 
ATOM      3  C2  UNL d   1      -0.248   0.144   1.770  0.00  0.00    -0.005 A 
ATOM      4  C3  UNL d   1      -0.489   1.296   2.518  0.00  0.00     0.006 A 
ATOM      5  C4  UNL d   1      -0.697   2.519   1.878  0.00  0.00    -0.005 A 
ATOM      6  C5  UNL d   1      -0.664   2.599   0.482  0.00  0.00    -0.074 A 
ATOM      7  C6  UNL d   1      -0.876   3.906  -0.222  0.00  0.00     0.077 C 
ATOM      8  C7  UNL d   1      -0.415   1.438  -0.263  0.00  0.00    -0.001 A 
ENDROOT
TORSDOF 0
ENDMDL
