MODEL 1
REMARK minimizedAffinity -4.69553328
REMARK minimizedRMSD -1
REMARK  0 active torsions:
REMARK  status: ('A' for Active; 'I' for Inactive)
ROOT
ATOM      1  C   UNL d   1      -0.189   3.762  -0.821  0.00  0.00     0.077 C 
ATOM      2  C1  UNL d   1      -0.087   2.523   0.018  0.00  0.00    -0.074 A 
ATOM      3  C2  UNL d   1      -0.153   2.593   1.414  0.00  0.00    -0.005 A 
ATOM      4  C3  UNL d   1      -0.066   1.431   2.181  0.00  0.00     0.006 A 
ATOM      5  C4  UNL d   1       0.087   0.190   1.562  0.00  0.00    -0.005 A 
ATOM      6  C5  UNL d   1       0.153   0.100   0.167  0.00  0.00    -0.074 A 
ATOM      7  C6  UNL d   1       0.307  -1.226  -0.514  0.00  0.00     0.077 C 
ATOM      8  C7  UNL d   1       0.058   1.272  -0.597  0.00  0.00    -0.001 A 
ENDROOT
TORSDOF 0
ENDMDL
