MODEL 1
REMARK minimizedAffinity -5.01680422
REMARK minimizedRMSD -1
REMARK  0 active torsions:
REMARK  status: ('A' for Active; 'I' for Inactive)
ROOT
ATOM      1  C   UNL d   1      -2.088   3.331  -1.452  0.00  0.00     0.077 C 
ATOM      2  C1  UNL d   1      -1.385   2.504  -0.417  0.00  0.00    -0.074 A 
ATOM      3  C2  UNL d   1      -1.305   2.933   0.912  0.00  0.00    -0.005 A 
ATOM      4  C3  UNL d   1      -0.657   2.148   1.866  0.00  0.00     0.006 A 
ATOM      5  C4  UNL d   1      -0.083   0.930   1.502  0.00  0.00    -0.005 A 
ATOM      6  C5  UNL d   1      -0.154   0.484   0.178  0.00  0.00    -0.074 A 
ATOM      7  C6  UNL d   1       0.449  -0.828  -0.228  0.00  0.00     0.077 C 
ATOM      8  C7  UNL d   1      -0.813   1.275  -0.773  0.00  0.00    -0.001 A 
ENDROOT
TORSDOF 0
ENDMDL
