MODEL 1
REMARK minimizedAffinity 1.1142267
REMARK minimizedRMSD -1
REMARK  0 active torsions:
REMARK  status: ('A' for Active; 'I' for Inactive)
ROOT
ATOM      1  C   UNL d   1       0.133   1.507  -1.458  0.00  0.00     0.077 C 
ATOM      2  C1  UNL d   1       0.178   0.317  -0.545  0.00  0.00    -0.074 A 
ATOM      3  C2  UNL d   1       0.449   0.468   0.819  0.00  0.00    -0.005 A 
ATOM      4  C3  UNL d   1       0.478  -0.647   1.657  0.00  0.00     0.006 A 
ATOM      5  C4  UNL d   1       0.237  -1.921   1.141  0.00  0.00    -0.005 A 
ATOM      6  C5  UNL d   1      -0.037  -2.090  -0.220  0.00  0.00    -0.074 A 
ATOM      7  C6  UNL d   1      -0.308  -3.451  -0.789  0.00  0.00     0.077 C 
ATOM      8  C7  UNL d   1      -0.071  -0.965  -1.055  0.00  0.00    -0.001 A 
ENDROOT
TORSDOF 0
ENDMDL
