MODEL 1
REMARK minimizedAffinity -2.54207063
REMARK minimizedRMSD -1
REMARK  0 active torsions:
REMARK  status: ('A' for Active; 'I' for Inactive)
ROOT
ATOM      1  C   UNL d   1       0.584  -1.636  -0.794  0.00  0.00     0.077 C 
ATOM      2  C1  UNL d   1       0.451  -0.423   0.078  0.00  0.00    -0.074 A 
ATOM      3  C2  UNL d   1       0.465  -0.535   1.472  0.00  0.00    -0.005 A 
ATOM      4  C3  UNL d   1       0.350   0.603   2.270  0.00  0.00     0.006 A 
ATOM      5  C4  UNL d   1       0.219   1.862   1.683  0.00  0.00    -0.005 A 
ATOM      6  C5  UNL d   1       0.204   1.994   0.291  0.00  0.00    -0.074 A 
ATOM      7  C6  UNL d   1       0.074   3.341  -0.356  0.00  0.00     0.077 C 
ATOM      8  C7  UNL d   1       0.327   0.846  -0.504  0.00  0.00    -0.001 A 
ENDROOT
TORSDOF 0
ENDMDL
