MODEL 1
REMARK minimizedAffinity -4.43101168
REMARK minimizedRMSD -1
REMARK  0 active torsions:
REMARK  status: ('A' for Active; 'I' for Inactive)
ROOT
ATOM      1  C1  DEN d   1      -0.822   0.755  -0.339  0.00  0.00     0.130 A 
ATOM      2  C2  DEN d   1      -0.815  -0.443   0.496  0.00  0.00    -0.031 A 
ATOM      3  C3  DEN d   1       0.324  -1.285   0.078  0.00  0.00     0.027 A 
ATOM      4  C4  DEN d   1       2.070  -0.850  -1.770  0.00  0.00     0.027 A 
ATOM      5  C5  DEN d   1       2.468   0.026  -2.755  0.00  0.00    -0.003 A 
ATOM      6  C6  DEN d   1       1.782   1.181  -3.025  0.00  0.00     0.001 A 
ATOM      7  C7  DEN d   1       0.688   1.513  -2.270  0.00  0.00     0.017 A 
ATOM      8  C8  DEN d   1       0.277   0.631  -1.280  0.00  0.00    -0.094 A 
ATOM      9  C9  DEN d   1       0.991  -0.526  -1.015  0.00  0.00    -0.072 A 
ENDROOT
TORSDOF 0
ENDMDL
