MODEL 1
REMARK minimizedAffinity -3.70859408
REMARK minimizedRMSD -1
REMARK  0 active torsions:
REMARK  status: ('A' for Active; 'I' for Inactive)
ROOT
ATOM      1  C1  DEN d   1      -0.716   0.416  -0.220  0.00  0.00     0.130 A 
ATOM      2  C2  DEN d   1      -0.813  -0.874   0.456  0.00  0.00    -0.031 A 
ATOM      3  C3  DEN d   1       0.235  -1.758  -0.094  0.00  0.00     0.027 A 
ATOM      4  C4  DEN d   1       1.992  -1.253  -1.913  0.00  0.00     0.027 A 
ATOM      5  C5  DEN d   1       2.459  -0.297  -2.789  0.00  0.00    -0.003 A 
ATOM      6  C6  DEN d   1       1.883   0.941  -2.893  0.00  0.00     0.001 A 
ATOM      7  C7  DEN d   1       0.835   1.273  -2.076  0.00  0.00     0.017 A 
ATOM      8  C8  DEN d   1       0.354   0.313  -1.195  0.00  0.00    -0.094 A 
ATOM      9  C9  DEN d   1       0.958  -0.930  -1.097  0.00  0.00    -0.072 A 
ENDROOT
TORSDOF 0
ENDMDL
