MODEL 1
REMARK minimizedAffinity -1.18354309
REMARK minimizedRMSD -1
REMARK  0 active torsions:
REMARK  status: ('A' for Active; 'I' for Inactive)
ROOT
ATOM      1  C1  DEN d   1       0.468   0.571   0.244  0.00  0.00     0.130 A 
ATOM      2  C2  DEN d   1       0.222  -0.721  -0.391  0.00  0.00    -0.031 A 
ATOM      3  C3  DEN d   1      -1.005  -1.293   0.198  0.00  0.00     0.027 A 
ATOM      4  C4  DEN d   1      -2.543  -0.307   2.018  0.00  0.00     0.027 A 
ATOM      5  C5  DEN d   1      -2.737   0.761   2.867  0.00  0.00    -0.003 A 
ATOM      6  C6  DEN d   1      -1.864   1.815   2.925  0.00  0.00     0.001 A 
ATOM      7  C7  DEN d   1      -0.781   1.846   2.086  0.00  0.00     0.017 A 
ATOM      8  C8  DEN d   1      -0.575   0.770   1.233  0.00  0.00    -0.094 A 
ATOM      9  C9  DEN d   1      -1.476  -0.280   1.181  0.00  0.00    -0.072 A 
ENDROOT
TORSDOF 0
ENDMDL
