MODEL 1
REMARK minimizedAffinity -1.92182255
REMARK minimizedRMSD -1
REMARK  0 active torsions:
REMARK  status: ('A' for Active; 'I' for Inactive)
ROOT
ATOM      1  C1  DEN d   1       1.938  -0.346  -2.535  0.00  0.00     0.130 A 
ATOM      2  C2  DEN d   1       1.591   0.992  -3.005  0.00  0.00    -0.031 A 
ATOM      3  C3  DEN d   1       0.511   1.514  -2.143  0.00  0.00     0.027 A 
ATOM      4  C4  DEN d   1      -0.646   0.387  -0.132  0.00  0.00     0.027 A 
ATOM      5  C5  DEN d   1      -0.699  -0.754   0.638  0.00  0.00    -0.003 A 
ATOM      6  C6  DEN d   1       0.092  -1.843   0.386  0.00  0.00     0.001 A 
ATOM      7  C7  DEN d   1       1.004  -1.797  -0.636  0.00  0.00     0.017 A 
ATOM      8  C8  DEN d   1       1.058  -0.653  -1.421  0.00  0.00    -0.094 A 
ATOM      9  C9  DEN d   1       0.258   0.442  -1.142  0.00  0.00    -0.072 A 
ENDROOT
TORSDOF 0
ENDMDL
