MODEL 1
REMARK minimizedAffinity -6.29366064
REMARK minimizedRMSD -1
REMARK  0 active torsions:
REMARK  status: ('A' for Active; 'I' for Inactive)
ROOT
ATOM      1  C1  DEN d   1       0.575   2.119  -0.918  0.00  0.00     0.130 A 
ATOM      2  C2  DEN d   1      -0.787   1.805  -0.493  0.00  0.00    -0.031 A 
ATOM      3  C3  DEN d   1      -0.821   0.388  -0.080  0.00  0.00     0.027 A 
ATOM      4  C4  DEN d   1       1.094  -1.340  -0.053  0.00  0.00     0.027 A 
ATOM      5  C5  DEN d   1       2.426  -1.544  -0.336  0.00  0.00    -0.003 A 
ATOM      6  C6  DEN d   1       3.220  -0.559  -0.860  0.00  0.00     0.001 A 
ATOM      7  C7  DEN d   1       2.700   0.690  -1.075  0.00  0.00     0.017 A 
ATOM      8  C8  DEN d   1       1.355   0.901  -0.800  0.00  0.00    -0.094 A 
ATOM      9  C9  DEN d   1       0.572  -0.105  -0.259  0.00  0.00    -0.072 A 
ENDROOT
TORSDOF 0
ENDMDL
