MODEL 1
REMARK minimizedAffinity -6.23221731
REMARK minimizedRMSD -1
REMARK  0 active torsions:
REMARK  status: ('A' for Active; 'I' for Inactive)
ROOT
ATOM      1  C1  DEN d   1       0.249  -0.973   0.003  0.00  0.00     0.130 A 
ATOM      2  C2  DEN d   1      -0.833  -0.009   0.186  0.00  0.00    -0.031 A 
ATOM      3  C3  DEN d   1      -0.505   1.198  -0.598  0.00  0.00     0.027 A 
ATOM      4  C4  DEN d   1       1.557   1.664  -2.075  0.00  0.00     0.027 A 
ATOM      5  C5  DEN d   1       2.751   1.149  -2.531  0.00  0.00    -0.003 A 
ATOM      6  C6  DEN d   1       3.207  -0.085  -2.150  0.00  0.00     0.001 A 
ATOM      7  C7  DEN d   1       2.442  -0.866  -1.324  0.00  0.00     0.017 A 
ATOM      8  C8  DEN d   1       1.241  -0.350  -0.854  0.00  0.00    -0.094 A 
ATOM      9  C9  DEN d   1       0.792   0.895  -1.260  0.00  0.00    -0.072 A 
ENDROOT
TORSDOF 0
ENDMDL
