MODEL 1
REMARK minimizedAffinity -4.79363108
REMARK minimizedRMSD -1
REMARK  0 active torsions:
REMARK  status: ('A' for Active; 'I' for Inactive)
ROOT
ATOM      1  C1  DEN d   1       1.995  -1.429  -1.489  0.00  0.00     0.130 A 
ATOM      2  C2  DEN d   1       3.074  -0.492  -1.787  0.00  0.00    -0.031 A 
ATOM      3  C3  DEN d   1       2.614   0.864  -1.425  0.00  0.00     0.027 A 
ATOM      4  C4  DEN d   1       0.350   1.598  -0.431  0.00  0.00     0.027 A 
ATOM      5  C5  DEN d   1      -0.888   1.160  -0.015  0.00  0.00    -0.003 A 
ATOM      6  C6  DEN d   1      -1.262  -0.155  -0.092  0.00  0.00     0.001 A 
ATOM      7  C7  DEN d   1      -0.371  -1.087  -0.555  0.00  0.00     0.017 A 
ATOM      8  C8  DEN d   1       0.877  -0.653  -0.983  0.00  0.00    -0.094 A 
ATOM      9  C9  DEN d   1       1.239   0.680  -0.886  0.00  0.00    -0.072 A 
ENDROOT
TORSDOF 0
ENDMDL
