MODEL 1
REMARK minimizedAffinity -4.40180874
REMARK minimizedRMSD -1
REMARK  0 active torsions:
REMARK  status: ('A' for Active; 'I' for Inactive)
ROOT
ATOM      1  C1  DEN d   1       2.244   1.280  -0.760  0.00  0.00     0.130 A 
ATOM      2  C2  DEN d   1       3.305   0.288  -0.908  0.00  0.00    -0.031 A 
ATOM      3  C3  DEN d   1       2.721  -1.046  -0.660  0.00  0.00     0.027 A 
ATOM      4  C4  DEN d   1       0.288  -1.667  -0.070  0.00  0.00     0.027 A 
ATOM      5  C5  DEN d   1      -0.971  -1.165   0.176  0.00  0.00    -0.003 A 
ATOM      6  C6  DEN d   1      -1.237   0.178   0.161  0.00  0.00     0.001 A 
ATOM      7  C7  DEN d   1      -0.239   1.064  -0.150  0.00  0.00     0.017 A 
ATOM      8  C8  DEN d   1       1.034   0.566  -0.392  0.00  0.00    -0.094 A 
ATOM      9  C9  DEN d   1       1.280  -0.796  -0.385  0.00  0.00    -0.072 A 
ENDROOT
TORSDOF 0
ENDMDL
