MODEL 1
REMARK minimizedAffinity -6.58151245
REMARK minimizedRMSD -1
REMARK  0 active torsions:
REMARK  status: ('A' for Active; 'I' for Inactive)
ROOT
ATOM      1  C1  DEN d   1       2.836   0.026  -2.155  0.00  0.00     0.130 A 
ATOM      2  C2  DEN d   1       2.370   1.312  -2.668  0.00  0.00    -0.031 A 
ATOM      3  C3  DEN d   1       1.038   1.579  -2.088  0.00  0.00     0.027 A 
ATOM      4  C4  DEN d   1      -0.337   0.138  -0.449  0.00  0.00     0.027 A 
ATOM      5  C5  DEN d   1      -0.360  -1.043   0.259  0.00  0.00    -0.003 A 
ATOM      6  C6  DEN d   1       0.656  -1.958   0.187  0.00  0.00     0.001 A 
ATOM      7  C7  DEN d   1       1.761  -1.687  -0.577  0.00  0.00     0.017 A 
ATOM      8  C8  DEN d   1       1.788  -0.502  -1.300  0.00  0.00    -0.094 A 
ATOM      9  C9  DEN d   1       0.756   0.416  -1.204  0.00  0.00    -0.072 A 
ENDROOT
TORSDOF 0
ENDMDL
