MODEL 1
REMARK minimizedAffinity -0.347819716
REMARK minimizedRMSD -1
REMARK  0 active torsions:
REMARK  status: ('A' for Active; 'I' for Inactive)
ROOT
ATOM      1  C1  DEN d   1       0.071   1.474   0.676  0.00  0.00     0.130 A 
ATOM      2  C2  DEN d   1      -0.315   0.557  -0.393  0.00  0.00    -0.031 A 
ATOM      3  C3  DEN d   1      -1.508  -0.189   0.054  0.00  0.00     0.027 A 
ATOM      4  C4  DEN d   1      -2.792  -0.011   2.284  0.00  0.00     0.027 A 
ATOM      5  C5  DEN d   1      -2.834   0.620   3.508  0.00  0.00    -0.003 A 
ATOM      6  C6  DEN d   1      -1.898   1.547   3.884  0.00  0.00     0.001 A 
ATOM      7  C7  DEN d   1      -0.906   1.903   3.009  0.00  0.00     0.017 A 
ATOM      8  C8  DEN d   1      -0.853   1.266   1.776  0.00  0.00    -0.094 A 
ATOM      9  C9  DEN d   1      -1.815   0.340   1.410  0.00  0.00    -0.072 A 
ENDROOT
TORSDOF 0
ENDMDL
