MODEL 1
REMARK minimizedAffinity -4.85560465
REMARK minimizedRMSD -1
REMARK  0 active torsions:
REMARK  status: ('A' for Active; 'I' for Inactive)
ROOT
ATOM      1  C1  DEN d   1      -0.012  -1.364   0.237  0.00  0.00     0.130 A 
ATOM      2  C2  DEN d   1      -0.860  -0.297   0.763  0.00  0.00    -0.031 A 
ATOM      3  C3  DEN d   1      -0.373   0.985   0.217  0.00  0.00     0.027 A 
ATOM      4  C4  DEN d   1       1.599   1.421  -1.388  0.00  0.00     0.027 A 
ATOM      5  C5  DEN d   1       2.620   0.829  -2.098  0.00  0.00    -0.003 A 
ATOM      6  C6  DEN d   1       2.855  -0.520  -2.053  0.00  0.00     0.001 A 
ATOM      7  C7  DEN d   1       2.029  -1.328  -1.317  0.00  0.00     0.017 A 
ATOM      8  C8  DEN d   1       1.002  -0.738  -0.593  0.00  0.00    -0.094 A 
ATOM      9  C9  DEN d   1       0.773   0.626  -0.661  0.00  0.00    -0.072 A 
ENDROOT
TORSDOF 0
ENDMDL
