MODEL 1
REMARK minimizedAffinity -2.76127195
REMARK minimizedRMSD -1
REMARK  0 active torsions:
REMARK  status: ('A' for Active; 'I' for Inactive)
ROOT
ATOM      1  C1  DEN d   1      -0.834   0.831  -0.971  0.00  0.00     0.130 A 
ATOM      2  C2  DEN d   1      -1.720  -0.288  -0.663  0.00  0.00    -0.031 A 
ATOM      3  C3  DEN d   1      -0.884  -1.484  -0.436  0.00  0.00     0.027 A 
ATOM      4  C4  DEN d   1       1.684  -1.708  -0.527  0.00  0.00     0.027 A 
ATOM      5  C5  DEN d   1       2.862  -1.034  -0.761  0.00  0.00    -0.003 A 
ATOM      6  C6  DEN d   1       2.889   0.290  -1.112  0.00  0.00     0.001 A 
ATOM      7  C7  DEN d   1       1.717   0.994  -1.195  0.00  0.00     0.017 A 
ATOM      8  C8  DEN d   1       0.524   0.319  -0.968  0.00  0.00    -0.094 A 
ATOM      9  C9  DEN d   1       0.519  -1.016  -0.602  0.00  0.00    -0.072 A 
ENDROOT
TORSDOF 0
ENDMDL
