MODEL 1
REMARK minimizedAffinity -6.81138897
REMARK minimizedRMSD -1
REMARK  0 active torsions:
REMARK  status: ('A' for Active; 'I' for Inactive)
ROOT
ATOM      1  C1  DEN d   1       0.127  -1.329   0.125  0.00  0.00     0.130 A 
ATOM      2  C2  DEN d   1      -1.099  -0.640   0.517  0.00  0.00    -0.031 A 
ATOM      3  C3  DEN d   1      -1.091   0.698  -0.109  0.00  0.00     0.027 A 
ATOM      4  C4  DEN d   1       0.690   1.761  -1.642  0.00  0.00     0.027 A 
ATOM      5  C5  DEN d   1       1.912   1.565  -2.247  0.00  0.00    -0.003 A 
ATOM      6  C6  DEN d   1       2.634   0.414  -2.078  0.00  0.00     0.001 A 
ATOM      7  C7  DEN d   1       2.120  -0.605  -1.321  0.00  0.00     0.017 A 
ATOM      8  C8  DEN d   1       0.892  -0.412  -0.701  0.00  0.00    -0.094 A 
ATOM      9  C9  DEN d   1       0.171   0.754  -0.895  0.00  0.00    -0.072 A 
ENDROOT
TORSDOF 0
ENDMDL
