MODEL 1
REMARK minimizedAffinity -4.9124136
REMARK minimizedRMSD -1
REMARK  1 active torsions:
REMARK  status: ('A' for Active; 'I' for Inactive)
REMARK    1  A    between atoms: C1_2  and  C2_3 
ROOT
ATOM      1  C2  UNL d   1      -0.888   2.387   0.263  0.00  0.00    -0.081 A 
ATOM      2  C3  UNL d   1      -1.253   2.783   1.555  0.00  0.00     0.006 A 
ATOM      3  C4  UNL d   1      -0.860   2.029   2.664  0.00  0.00     0.002 A 
ATOM      4  C5  UNL d   1      -0.089   0.873   2.499  0.00  0.00    -0.080 A 
ATOM      5  C6  UNL d   1       0.365   0.072   3.683  0.00  0.00     0.076 C 
ATOM      6  C7  UNL d   1       0.261   0.469   1.207  0.00  0.00     0.002 A 
ATOM      7  C8  UNL d   1      -0.132   1.221   0.098  0.00  0.00     0.006 A 
ENDROOT
BRANCH   1   8
ATOM      8  C1  UNL d   1      -1.255   3.233  -0.930  0.00  0.00     0.054 C 
ATOM      9  C   UNL d   1      -0.427   2.858  -2.150  0.00  0.00     0.018 C 
ENDBRANCH   1   8
TORSDOF 1
ENDMDL
