MODEL 1
REMARK minimizedAffinity -3.63026094
REMARK minimizedRMSD -1
REMARK  1 active torsions:
REMARK  status: ('A' for Active; 'I' for Inactive)
REMARK    1  A    between atoms: C1_2  and  C2_3 
ROOT
ATOM      1  C2  UNL d   1      -0.450   2.027  -0.300  0.00  0.00    -0.081 A 
ATOM      2  C3  UNL d   1      -0.051   1.606  -1.575  0.00  0.00     0.006 A 
ATOM      3  C4  UNL d   1       0.294   0.272  -1.804  0.00  0.00     0.002 A 
ATOM      4  C5  UNL d   1       0.239  -0.664  -0.765  0.00  0.00    -0.080 A 
ATOM      5  C6  UNL d   1       0.578  -2.106  -1.005  0.00  0.00     0.076 C 
ATOM      6  C7  UNL d   1      -0.143  -0.240   0.512  0.00  0.00     0.002 A 
ATOM      7  C8  UNL d   1      -0.488   1.094   0.742  0.00  0.00     0.006 A 
ENDROOT
BRANCH   1   8
ATOM      8  C1  UNL d   1      -0.885   3.451  -0.065  0.00  0.00     0.054 C 
ATOM      9  C   UNL d   1      -1.232   3.689   1.398  0.00  0.00     0.018 C 
ENDBRANCH   1   8
TORSDOF 1
ENDMDL
