MODEL 1
REMARK minimizedAffinity -4.23151445
REMARK minimizedRMSD -1
REMARK  1 active torsions:
REMARK  status: ('A' for Active; 'I' for Inactive)
REMARK    1  A    between atoms: C1_2  and  C2_3 
ROOT
ATOM      1  C2  UNL d   1      -0.033   1.051   1.301  0.00  0.00    -0.081 A 
ATOM      2  C3  UNL d   1      -1.201   0.817   0.565  0.00  0.00     0.006 A 
ATOM      3  C4  UNL d   1      -1.325  -0.332  -0.221  0.00  0.00     0.002 A 
ATOM      4  C5  UNL d   1      -0.288  -1.269  -0.276  0.00  0.00    -0.080 A 
ATOM      5  C6  UNL d   1      -0.421  -2.521  -1.091  0.00  0.00     0.076 C 
ATOM      6  C7  UNL d   1       0.886  -1.027   0.445  0.00  0.00     0.002 A 
ATOM      7  C8  UNL d   1       1.011   0.122   1.230  0.00  0.00     0.006 A 
ENDROOT
BRANCH   1   8
ATOM      8  C1  UNL d   1       0.078   2.256   2.199  0.00  0.00     0.054 C 
ATOM      9  C   UNL d   1       1.530   2.671   2.391  0.00  0.00     0.018 C 
ENDBRANCH   1   8
TORSDOF 1
ENDMDL
