MODEL 1
REMARK minimizedAffinity -5.59476948
REMARK minimizedRMSD -1
REMARK  1 active torsions:
REMARK  status: ('A' for Active; 'I' for Inactive)
REMARK    1  A    between atoms: C1_2  and  C2_3 
ROOT
ATOM      1  C2  UNL d   1       0.463  -0.557  -0.420  0.00  0.00    -0.081 A 
ATOM      2  C3  UNL d   1       0.930  -0.328   0.880  0.00  0.00     0.006 A 
ATOM      3  C4  UNL d   1       0.306   0.615   1.700  0.00  0.00     0.002 A 
ATOM      4  C5  UNL d   1      -0.798   1.338   1.238  0.00  0.00    -0.080 A 
ATOM      5  C6  UNL d   1      -1.495   2.332   2.119  0.00  0.00     0.076 C 
ATOM      6  C7  UNL d   1      -1.253   1.123  -0.067  0.00  0.00     0.002 A 
ATOM      7  C8  UNL d   1      -0.630   0.181  -0.888  0.00  0.00     0.006 A 
ENDROOT
BRANCH   1   8
ATOM      8  C1  UNL d   1       1.093  -1.619  -1.285  0.00  0.00     0.054 C 
ATOM      9  C   UNL d   1       0.114  -2.746  -1.578  0.00  0.00     0.018 C 
ENDBRANCH   1   8
TORSDOF 1
ENDMDL
