MODEL 1
REMARK minimizedAffinity -5.00637436
REMARK minimizedRMSD -1
REMARK  1 active torsions:
REMARK  status: ('A' for Active; 'I' for Inactive)
REMARK    1  A    between atoms: C1_2  and  C2_3 
ROOT
ATOM      1  C2  UNL d   1      -0.498   0.920   0.117  0.00  0.00    -0.081 A 
ATOM      2  C3  UNL d   1      -0.448   1.599   1.341  0.00  0.00     0.006 A 
ATOM      3  C4  UNL d   1       0.321   1.102   2.395  0.00  0.00     0.002 A 
ATOM      4  C5  UNL d   1       1.059  -0.077   2.242  0.00  0.00    -0.080 A 
ATOM      5  C6  UNL d   1       1.912  -0.605   3.356  0.00  0.00     0.076 C 
ATOM      6  C7  UNL d   1       0.995  -0.765   1.026  0.00  0.00     0.002 A 
ATOM      7  C8  UNL d   1       0.225  -0.269  -0.029  0.00  0.00     0.006 A 
ENDROOT
BRANCH   1   8
ATOM      8  C1  UNL d   1      -1.275   1.487  -1.043  0.00  0.00     0.054 C 
ATOM      9  C   UNL d   1      -0.456   1.456  -2.326  0.00  0.00     0.018 C 
ENDBRANCH   1   8
TORSDOF 1
ENDMDL
