MODEL 1
REMARK minimizedAffinity -4.52567244
REMARK minimizedRMSD -1
REMARK  1 active torsions:
REMARK  status: ('A' for Active; 'I' for Inactive)
REMARK    1  A    between atoms: C1_2  and  C2_3 
ROOT
ATOM      1  C2  UNL d   1       0.436  -0.495  -0.413  0.00  0.00    -0.081 A 
ATOM      2  C3  UNL d   1       0.437  -0.560   0.986  0.00  0.00     0.006 A 
ATOM      3  C4  UNL d   1       0.011   0.532   1.746  0.00  0.00     0.002 A 
ATOM      4  C5  UNL d   1      -0.430   1.703   1.120  0.00  0.00    -0.080 A 
ATOM      5  C6  UNL d   1      -0.918   2.872   1.924  0.00  0.00     0.076 C 
ATOM      6  C7  UNL d   1      -0.414   1.775  -0.277  0.00  0.00     0.002 A 
ATOM      7  C8  UNL d   1       0.012   0.683  -1.037  0.00  0.00     0.006 A 
ENDROOT
BRANCH   1   8
ATOM      8  C1  UNL d   1       0.833  -1.694  -1.236  0.00  0.00     0.054 C 
ATOM      9  C   UNL d   1      -0.286  -2.724  -1.290  0.00  0.00     0.018 C 
ENDBRANCH   1   8
TORSDOF 1
ENDMDL
