MODEL 1
REMARK minimizedAffinity 5.70879126
REMARK minimizedRMSD -1
REMARK  1 active torsions:
REMARK  status: ('A' for Active; 'I' for Inactive)
REMARK    1  A    between atoms: C1_2  and  C2_3 
ROOT
ATOM      1  C2  UNL d   1       1.121  -0.433   4.098  0.00  0.00    -0.081 A 
ATOM      2  C3  UNL d   1       0.370   0.586   3.499  0.00  0.00     0.006 A 
ATOM      3  C4  UNL d   1       0.373   0.745   2.111  0.00  0.00     0.002 A 
ATOM      4  C5  UNL d   1       1.120  -0.115   1.299  0.00  0.00    -0.080 A 
ATOM      5  C6  UNL d   1       1.107   0.027  -0.194  0.00  0.00     0.076 C 
ATOM      6  C7  UNL d   1       1.884  -1.122   1.898  0.00  0.00     0.002 A 
ATOM      7  C8  UNL d   1       1.882  -1.281   3.286  0.00  0.00     0.006 A 
ENDROOT
BRANCH   1   8
ATOM      8  C1  UNL d   1       1.069  -0.648   5.589  0.00  0.00     0.054 C 
ATOM      9  C   UNL d   1       1.879  -1.869   6.000  0.00  0.00     0.018 C 
ENDBRANCH   1   8
TORSDOF 1
ENDMDL
