MODEL 1
REMARK minimizedAffinity 1.37527978
REMARK minimizedRMSD -1
REMARK  0 active torsions:
REMARK  status: ('A' for Active; 'I' for Inactive)
ROOT
ATOM      1  C   UNL d   1      -5.662  -3.925  -1.894  0.00  0.00     0.078 C 
ATOM      2  C1  UNL d   1      -5.498  -4.349  -3.323  0.00  0.00    -0.077 A 
ATOM      3  C2  UNL d   1      -4.883  -3.508  -4.259  0.00  0.00    -0.001 A 
ATOM      4  C3  UNL d   1      -4.746  -3.912  -5.588  0.00  0.00     0.003 A 
ATOM      5  C4  UNL d   1      -5.222  -5.157  -5.993  0.00  0.00    -0.005 A 
ATOM      6  C5  UNL d   1      -5.836  -6.000  -5.070  0.00  0.00     0.003 A 
ATOM      7  C6  UNL d   1      -5.975  -5.598  -3.741  0.00  0.00    -0.001 A 
ENDROOT
TORSDOF 0
ENDMDL
