MODEL 1
REMARK minimizedAffinity -1.41338503
REMARK minimizedRMSD -1
REMARK  0 active torsions:
REMARK  status: ('A' for Active; 'I' for Inactive)
ROOT
ATOM      1  C   UNL d   1       3.481  -2.635   5.545  0.00  0.00     0.078 C 
ATOM      2  C1  UNL d   1       3.091  -2.132   4.187  0.00  0.00    -0.077 A 
ATOM      3  C2  UNL d   1       4.028  -1.517   3.348  0.00  0.00    -0.001 A 
ATOM      4  C3  UNL d   1       3.648  -1.046   2.091  0.00  0.00     0.003 A 
ATOM      5  C4  UNL d   1       2.330  -1.183   1.661  0.00  0.00    -0.005 A 
ATOM      6  C5  UNL d   1       1.389  -1.792   2.489  0.00  0.00     0.003 A 
ATOM      7  C6  UNL d   1       1.767  -2.264   3.747  0.00  0.00    -0.001 A 
ENDROOT
TORSDOF 0
ENDMDL
