MODEL 1
REMARK minimizedAffinity -2.65488863
REMARK minimizedRMSD -1
REMARK  0 active torsions:
REMARK  status: ('A' for Active; 'I' for Inactive)
ROOT
ATOM      1  C   UNL d   1      -5.966  -3.758  -1.954  0.00  0.00     0.078 C 
ATOM      2  C1  UNL d   1      -5.740  -4.256  -3.350  0.00  0.00    -0.077 A 
ATOM      3  C2  UNL d   1      -5.263  -5.552  -3.586  0.00  0.00    -0.001 A 
ATOM      4  C3  UNL d   1      -5.049  -5.999  -4.890  0.00  0.00     0.003 A 
ATOM      5  C4  UNL d   1      -5.308  -5.157  -5.970  0.00  0.00    -0.005 A 
ATOM      6  C5  UNL d   1      -5.781  -3.866  -5.746  0.00  0.00     0.003 A 
ATOM      7  C6  UNL d   1      -5.996  -3.417  -4.442  0.00  0.00    -0.001 A 
ENDROOT
TORSDOF 0
ENDMDL
