MODEL 1
REMARK minimizedAffinity -0.878853083
REMARK minimizedRMSD -1
REMARK  0 active torsions:
REMARK  status: ('A' for Active; 'I' for Inactive)
ROOT
ATOM      1  C   UNL d   1      -4.504  -4.867  -1.818  0.00  0.00     0.078 C 
ATOM      2  C1  UNL d   1      -4.868  -4.885  -3.273  0.00  0.00    -0.077 A 
ATOM      3  C2  UNL d   1      -5.508  -5.992  -3.843  0.00  0.00    -0.001 A 
ATOM      4  C3  UNL d   1      -5.831  -5.999  -5.200  0.00  0.00     0.003 A 
ATOM      5  C4  UNL d   1      -5.518  -4.902  -6.000  0.00  0.00    -0.005 A 
ATOM      6  C5  UNL d   1      -4.879  -3.796  -5.442  0.00  0.00     0.003 A 
ATOM      7  C6  UNL d   1      -4.555  -3.787  -4.085  0.00  0.00    -0.001 A 
ENDROOT
TORSDOF 0
ENDMDL
