MODEL 1
REMARK minimizedAffinity 1.44618118
REMARK minimizedRMSD -1
REMARK  0 active torsions:
REMARK  status: ('A' for Active; 'I' for Inactive)
ROOT
ATOM      1  C   UNL d   1      -4.908  -4.385  -1.670  0.00  0.00     0.078 C 
ATOM      2  C1  UNL d   1      -5.067  -4.489  -3.158  0.00  0.00    -0.077 A 
ATOM      3  C2  UNL d   1      -4.430  -5.504  -3.882  0.00  0.00    -0.001 A 
ATOM      4  C3  UNL d   1      -4.579  -5.583  -5.268  0.00  0.00     0.003 A 
ATOM      5  C4  UNL d   1      -5.364  -4.648  -5.941  0.00  0.00    -0.005 A 
ATOM      6  C5  UNL d   1      -5.999  -3.633  -5.229  0.00  0.00     0.003 A 
ATOM      7  C6  UNL d   1      -5.851  -3.553  -3.844  0.00  0.00    -0.001 A 
ENDROOT
TORSDOF 0
ENDMDL
