MODEL 1
REMARK minimizedAffinity -3.07860136
REMARK minimizedRMSD -1
REMARK  0 active torsions:
REMARK  status: ('A' for Active; 'I' for Inactive)
ROOT
ATOM      1  C   UNL d   1      -5.192  -5.233  -6.000  0.00  0.00     0.078 C 
ATOM      2  C1  UNL d   1      -5.238  -5.100  -4.507  0.00  0.00    -0.077 A 
ATOM      3  C2  UNL d   1      -5.974  -4.077  -3.896  0.00  0.00    -0.001 A 
ATOM      4  C3  UNL d   1      -6.000  -3.959  -2.506  0.00  0.00     0.003 A 
ATOM      5  C4  UNL d   1      -5.291  -4.861  -1.714  0.00  0.00    -0.005 A 
ATOM      6  C5  UNL d   1      -4.554  -5.881  -2.313  0.00  0.00     0.003 A 
ATOM      7  C6  UNL d   1      -4.527  -6.000  -3.703  0.00  0.00    -0.001 A 
ENDROOT
TORSDOF 0
ENDMDL
