MODEL 1
REMARK minimizedAffinity -3.3858211
REMARK minimizedRMSD -1
REMARK  0 active torsions:
REMARK  status: ('A' for Active; 'I' for Inactive)
ROOT
ATOM      1  C   UNL d   1       3.075  -0.600  -3.719  0.00  0.00     0.078 C 
ATOM      2  C1  UNL d   1       3.918   0.347  -4.520  0.00  0.00    -0.077 A 
ATOM      3  C2  UNL d   1       5.223   0.008  -4.897  0.00  0.00    -0.001 A 
ATOM      4  C3  UNL d   1       6.000   0.903  -5.635  0.00  0.00     0.003 A 
ATOM      5  C4  UNL d   1       5.480   2.144  -5.999  0.00  0.00    -0.005 A 
ATOM      6  C5  UNL d   1       4.184   2.491  -5.626  0.00  0.00     0.003 A 
ATOM      7  C6  UNL d   1       3.406   1.597  -4.889  0.00  0.00    -0.001 A 
ENDROOT
TORSDOF 0
ENDMDL
