MODEL 1
REMARK minimizedAffinity -3.60389256
REMARK minimizedRMSD -1
REMARK  0 active torsions:
REMARK  status: ('A' for Active; 'I' for Inactive)
ROOT
ATOM      1  C   UNL d   1      -5.998  -4.978  -1.751  0.00  0.00     0.078 C 
ATOM      2  C1  UNL d   1      -5.712  -4.886  -3.220  0.00  0.00    -0.077 A 
ATOM      3  C2  UNL d   1      -5.992  -3.717  -3.938  0.00  0.00    -0.001 A 
ATOM      4  C3  UNL d   1      -5.730  -3.649  -5.307  0.00  0.00     0.003 A 
ATOM      5  C4  UNL d   1      -5.188  -4.748  -5.971  0.00  0.00    -0.005 A 
ATOM      6  C5  UNL d   1      -4.909  -5.917  -5.266  0.00  0.00     0.003 A 
ATOM      7  C6  UNL d   1      -5.170  -5.986  -3.897  0.00  0.00    -0.001 A 
ENDROOT
TORSDOF 0
ENDMDL
