MODEL 1
REMARK minimizedAffinity 3.48993111
REMARK minimizedRMSD -1
REMARK  1 active torsions:
REMARK  status: ('A' for Active; 'I' for Inactive)
REMARK    1  A    between atoms: C1_2  and  C2_3 
ROOT
ATOM      1  C2  UNL d   1       3.806  -2.382   4.869  0.00  0.00    -0.081 A 
ATOM      2  C3  UNL d   1       4.213  -1.419   3.937  0.00  0.00     0.006 A 
ATOM      3  C4  UNL d   1       3.333  -0.978   2.945  0.00  0.00     0.002 A 
ATOM      4  C5  UNL d   1       2.032  -1.486   2.874  0.00  0.00    -0.080 A 
ATOM      5  C6  UNL d   1       1.068  -0.999   1.833  0.00  0.00     0.076 C 
ATOM      6  C7  UNL d   1       1.631  -2.461   3.794  0.00  0.00     0.002 A 
ATOM      7  C8  UNL d   1       2.510  -2.902   4.786  0.00  0.00     0.006 A 
ENDROOT
BRANCH   1   8
ATOM      8  C1  UNL d   1       4.730  -2.812   5.980  0.00  0.00     0.054 C 
ATOM      9  C   UNL d   1       6.000  -1.973   5.999  0.00  0.00     0.018 C 
ENDBRANCH   1   8
TORSDOF 1
ENDMDL
