MODEL 1
REMARK minimizedAffinity 10.1176052
REMARK minimizedRMSD -1
REMARK  1 active torsions:
REMARK  status: ('A' for Active; 'I' for Inactive)
REMARK    1  A    between atoms: C1_2  and  C2_3 
ROOT
ATOM      1  C2  UNL d   1       3.824  -2.216   4.784  0.00  0.00    -0.081 A 
ATOM      2  C3  UNL d   1       4.436  -1.590   3.691  0.00  0.00     0.006 A 
ATOM      3  C4  UNL d   1       3.665  -1.085   2.641  0.00  0.00     0.002 A 
ATOM      4  C5  UNL d   1       2.271  -1.190   2.670  0.00  0.00    -0.080 A 
ATOM      5  C6  UNL d   1       1.430  -0.625   1.564  0.00  0.00     0.076 C 
ATOM      6  C7  UNL d   1       1.660  -1.831   3.753  0.00  0.00     0.002 A 
ATOM      7  C8  UNL d   1       2.430  -2.337   4.803  0.00  0.00     0.006 A 
ENDROOT
BRANCH   1   8
ATOM      8  C1  UNL d   1       4.648  -2.704   5.948  0.00  0.00     0.054 C 
ATOM      9  C   UNL d   1       6.000  -2.007   6.000  0.00  0.00     0.018 C 
ENDBRANCH   1   8
TORSDOF 1
ENDMDL
