MODEL 1
REMARK minimizedAffinity 8.56956005
REMARK minimizedRMSD -1
REMARK  0 active torsions:
REMARK  status: ('A' for Active; 'I' for Inactive)
ROOT
ATOM      1  C1  DEN d   1       2.338  -0.381   2.533  0.00  0.00     0.130 A 
ATOM      2  C2  DEN d   1       1.429  -1.473   2.870  0.00  0.00    -0.031 A 
ATOM      3  C3  DEN d   1       0.808  -1.953   1.619  0.00  0.00     0.027 A 
ATOM      4  C4  DEN d   1       1.167  -1.118  -0.795  0.00  0.00     0.027 A 
ATOM      5  C5  DEN d   1       1.835  -0.203  -1.579  0.00  0.00    -0.003 A 
ATOM      6  C6  DEN d   1       2.684   0.731  -1.048  0.00  0.00     0.001 A 
ATOM      7  C7  DEN d   1       2.923   0.743   0.301  0.00  0.00     0.017 A 
ATOM      8  C8  DEN d   1       2.248  -0.172   1.099  0.00  0.00    -0.094 A 
ATOM      9  C9  DEN d   1       1.403  -1.117   0.541  0.00  0.00    -0.072 A 
ENDROOT
TORSDOF 0
ENDMDL
