MODEL 1
REMARK minimizedAffinity 2.52570391
REMARK minimizedRMSD -1
REMARK  0 active torsions:
REMARK  status: ('A' for Active; 'I' for Inactive)
ROOT
ATOM      1  C1  DEN d   1       0.129   0.080   2.650  0.00  0.00     0.130 A 
ATOM      2  C2  DEN d   1      -0.689  -0.642   3.621  0.00  0.00    -0.031 A 
ATOM      3  C3  DEN d   1      -0.294  -2.065   3.582  0.00  0.00     0.027 A 
ATOM      4  C4  DEN d   1       1.497  -3.213   2.123  0.00  0.00     0.027 A 
ATOM      5  C5  DEN d   1       2.440  -3.013   1.140  0.00  0.00    -0.003 A 
ATOM      6  C6  DEN d   1       2.654  -1.785   0.572  0.00  0.00     0.001 A 
ATOM      7  C7  DEN d   1       1.946  -0.700   1.014  0.00  0.00     0.017 A 
ATOM      8  C8  DEN d   1       0.987  -0.894   2.000  0.00  0.00    -0.094 A 
ATOM      9  C9  DEN d   1       0.794  -2.141   2.571  0.00  0.00    -0.072 A 
ENDROOT
TORSDOF 0
ENDMDL
