MODEL 1
REMARK minimizedAffinity 7.43438244
REMARK minimizedRMSD -1
REMARK  0 active torsions:
REMARK  status: ('A' for Active; 'I' for Inactive)
ROOT
ATOM      1  C1  DEN d   1      -0.929   0.911   3.676  0.00  0.00     0.130 A 
ATOM      2  C2  DEN d   1      -2.282   0.767   3.146  0.00  0.00    -0.031 A 
ATOM      3  C3  DEN d   1      -2.260  -0.297   2.122  0.00  0.00     0.027 A 
ATOM      4  C4  DEN d   1      -0.274  -1.731   1.314  0.00  0.00     0.027 A 
ATOM      5  C5  DEN d   1       1.075  -1.965   1.462  0.00  0.00    -0.003 A 
ATOM      6  C6  DEN d   1       1.852  -1.240   2.327  0.00  0.00     0.001 A 
ATOM      7  C7  DEN d   1       1.275  -0.275   3.110  0.00  0.00     0.017 A 
ATOM      8  C8  DEN d   1      -0.083  -0.028   2.961  0.00  0.00    -0.094 A 
ATOM      9  C9  DEN d   1      -0.853  -0.781   2.090  0.00  0.00    -0.072 A 
ENDROOT
TORSDOF 0
ENDMDL
