MODEL 1
REMARK minimizedAffinity 4.49356937
REMARK minimizedRMSD -1
REMARK  0 active torsions:
REMARK  status: ('A' for Active; 'I' for Inactive)
ROOT
ATOM      1  C1  DEN d   1       0.479  -1.217  -0.350  0.00  0.00     0.130 A 
ATOM      2  C2  DEN d   1       1.832  -1.295  -0.895  0.00  0.00    -0.031 A 
ATOM      3  C3  DEN d   1       2.783  -1.199   0.231  0.00  0.00     0.027 A 
ATOM      4  C4  DEN d   1       2.295  -0.941   2.750  0.00  0.00     0.027 A 
ATOM      5  C5  DEN d   1       1.299  -0.818   3.694  0.00  0.00    -0.003 A 
ATOM      6  C6  DEN d   1      -0.028  -0.785   3.355  0.00  0.00     0.001 A 
ATOM      7  C7  DEN d   1      -0.397  -0.923   2.043  0.00  0.00     0.017 A 
ATOM      8  C8  DEN d   1       0.602  -1.040   1.085  0.00  0.00    -0.094 A 
ATOM      9  C9  DEN d   1       1.937  -1.083   1.449  0.00  0.00    -0.072 A 
ENDROOT
TORSDOF 0
ENDMDL
