MODEL 1
REMARK minimizedAffinity 0.600209236
REMARK minimizedRMSD -1
REMARK  0 active torsions:
REMARK  status: ('A' for Active; 'I' for Inactive)
ROOT
ATOM      1  C1  DEN d   1       0.243  -0.960  -1.356  0.00  0.00     0.130 A 
ATOM      2  C2  DEN d   1       1.499  -0.887  -2.097  0.00  0.00    -0.031 A 
ATOM      3  C3  DEN d   1       2.595  -1.247  -1.176  0.00  0.00     0.027 A 
ATOM      4  C4  DEN d   1       2.470  -1.912   1.313  0.00  0.00     0.027 A 
ATOM      5  C5  DEN d   1       1.623  -2.104   2.382  0.00  0.00    -0.003 A 
ATOM      6  C6  DEN d   1       0.272  -1.897   2.291  0.00  0.00     0.001 A 
ATOM      7  C7  DEN d   1      -0.278  -1.529   1.091  0.00  0.00     0.017 A 
ATOM      8  C8  DEN d   1       0.570  -1.326   0.011  0.00  0.00    -0.094 A 
ATOM      9  C9  DEN d   1       1.931  -1.553   0.120  0.00  0.00    -0.072 A 
ENDROOT
TORSDOF 0
ENDMDL
