MODEL 1
REMARK minimizedAffinity 7.48975372
REMARK minimizedRMSD -1
REMARK  0 active torsions:
REMARK  status: ('A' for Active; 'I' for Inactive)
ROOT
ATOM      1  C1  DEN d   1      -0.846   0.906   4.207  0.00  0.00     0.130 A 
ATOM      2  C2  DEN d   1      -1.990   1.083   3.316  0.00  0.00    -0.031 A 
ATOM      3  C3  DEN d   1      -1.819   0.172   2.167  0.00  0.00     0.027 A 
ATOM      4  C4  DEN d   1       0.092  -1.492   1.685  0.00  0.00     0.027 A 
ATOM      5  C5  DEN d   1       1.291  -1.988   2.146  0.00  0.00    -0.003 A 
ATOM      6  C6  DEN d   1       1.874  -1.534   3.299  0.00  0.00     0.001 A 
ATOM      7  C7  DEN d   1       1.236  -0.586   4.055  0.00  0.00     0.017 A 
ATOM      8  C8  DEN d   1       0.030  -0.076   3.593  0.00  0.00    -0.094 A 
ATOM      9  C9  DEN d   1      -0.549  -0.556   2.431  0.00  0.00    -0.072 A 
ENDROOT
TORSDOF 0
ENDMDL
