MODEL 1
REMARK minimizedAffinity 6.54283237
REMARK minimizedRMSD -1
REMARK  0 active torsions:
REMARK  status: ('A' for Active; 'I' for Inactive)
ROOT
ATOM      1  C1  DEN d   1       2.365  -1.138   1.601  0.00  0.00     0.130 A 
ATOM      2  C2  DEN d   1       1.814  -1.186   2.952  0.00  0.00    -0.031 A 
ATOM      3  C3  DEN d   1       0.350  -1.020   2.854  0.00  0.00     0.027 A 
ATOM      4  C4  DEN d   1      -1.109  -0.698   0.751  0.00  0.00     0.027 A 
ATOM      5  C5  DEN d   1      -1.090  -0.580  -0.621  0.00  0.00    -0.003 A 
ATOM      6  C6  DEN d   1       0.076  -0.604  -1.340  0.00  0.00     0.001 A 
ATOM      7  C7  DEN d   1       1.268  -0.797  -0.693  0.00  0.00     0.017 A 
ATOM      8  C8  DEN d   1       1.257  -0.910   0.691  0.00  0.00    -0.094 A 
ATOM      9  C9  DEN d   1       0.067  -0.895   1.398  0.00  0.00    -0.072 A 
ENDROOT
TORSDOF 0
ENDMDL
