MODEL 1
REMARK minimizedAffinity 2.45744395
REMARK minimizedRMSD -1
REMARK  0 active torsions:
REMARK  status: ('A' for Active; 'I' for Inactive)
ROOT
ATOM      1  C1  DEN d   1       0.157  -0.727   2.117  0.00  0.00     0.130 A 
ATOM      2  C2  DEN d   1       0.651  -1.304   3.364  0.00  0.00    -0.031 A 
ATOM      3  C3  DEN d   1       1.910  -2.017   3.070  0.00  0.00     0.027 A 
ATOM      4  C4  DEN d   1       3.138  -2.279   0.817  0.00  0.00     0.027 A 
ATOM      5  C5  DEN d   1       3.097  -1.974  -0.526  0.00  0.00    -0.003 A 
ATOM      6  C6  DEN d   1       2.065  -1.267  -1.083  0.00  0.00     0.001 A 
ATOM      7  C7  DEN d   1       1.053  -0.802  -0.286  0.00  0.00     0.017 A 
ATOM      8  C8  DEN d   1       1.083  -1.112   1.068  0.00  0.00    -0.094 A 
ATOM      9  C9  DEN d   1       2.142  -1.817   1.614  0.00  0.00    -0.072 A 
ENDROOT
TORSDOF 0
ENDMDL
