MODEL 1
REMARK minimizedAffinity 11.0876503
REMARK minimizedRMSD -1
REMARK  0 active torsions:
REMARK  status: ('A' for Active; 'I' for Inactive)
ROOT
ATOM      1  C1  DEN d   1       0.444  -0.822  -0.218  0.00  0.00     0.130 A 
ATOM      2  C2  DEN d   1       1.704  -1.361  -0.720  0.00  0.00    -0.031 A 
ATOM      3  C3  DEN d   1       2.593  -1.597   0.436  0.00  0.00     0.027 A 
ATOM      4  C4  DEN d   1       2.139  -1.185   2.941  0.00  0.00     0.027 A 
ATOM      5  C5  DEN d   1       1.215  -0.726   3.854  0.00  0.00    -0.003 A 
ATOM      6  C6  DEN d   1      -0.007  -0.238   3.474  0.00  0.00     0.001 A 
ATOM      7  C7  DEN d   1      -0.357  -0.241   2.149  0.00  0.00     0.017 A 
ATOM      8  C8  DEN d   1       0.572  -0.696   1.222  0.00  0.00    -0.094 A 
ATOM      9  C9  DEN d   1       1.798  -1.196   1.628  0.00  0.00    -0.072 A 
ENDROOT
TORSDOF 0
ENDMDL
