MODEL 1
REMARK minimizedAffinity 12.9262743
REMARK minimizedRMSD -1
REMARK  0 active torsions:
REMARK  status: ('A' for Active; 'I' for Inactive)
ROOT
ATOM      1  C1  DEN d   1       1.212  -2.292   2.522  0.00  0.00     0.130 A 
ATOM      2  C2  DEN d   1      -0.011  -1.750   3.109  0.00  0.00    -0.031 A 
ATOM      3  C3  DEN d   1      -0.725  -0.995   2.061  0.00  0.00     0.027 A 
ATOM      4  C4  DEN d   1      -0.063  -0.617  -0.403  0.00  0.00     0.027 A 
ATOM      5  C5  DEN d   1       0.895  -0.871  -1.360  0.00  0.00    -0.003 A 
ATOM      6  C6  DEN d   1       2.033  -1.582  -1.083  0.00  0.00     0.001 A 
ATOM      7  C7  DEN d   1       2.220  -2.103   0.170  0.00  0.00     0.017 A 
ATOM      8  C8  DEN d   1       1.262  -1.844   1.142  0.00  0.00    -0.094 A 
ATOM      9  C9  DEN d   1       0.113  -1.134   0.839  0.00  0.00    -0.072 A 
ENDROOT
TORSDOF 0
ENDMDL
