MODEL 1
REMARK minimizedAffinity 0.79739511
REMARK minimizedRMSD -1
REMARK  0 active torsions:
REMARK  status: ('A' for Active; 'I' for Inactive)
ROOT
ATOM      1  C1  DEN d   1       1.080  -1.480   2.857  0.00  0.00     0.130 A 
ATOM      2  C2  DEN d   1      -0.171  -0.737   2.986  0.00  0.00    -0.031 A 
ATOM      3  C3  DEN d   1      -0.608  -0.340   1.633  0.00  0.00     0.027 A 
ATOM      4  C4  DEN d   1       0.520  -0.807  -0.639  0.00  0.00     0.027 A 
ATOM      5  C5  DEN d   1       1.606  -1.390  -1.254  0.00  0.00    -0.003 A 
ATOM      6  C6  DEN d   1       2.601  -2.009  -0.546  0.00  0.00     0.001 A 
ATOM      7  C7  DEN d   1       2.509  -2.099   0.818  0.00  0.00     0.017 A 
ATOM      8  C8  DEN d   1       1.421  -1.507   1.446  0.00  0.00    -0.094 A 
ATOM      9  C9  DEN d   1       0.419  -0.896   0.711  0.00  0.00    -0.072 A 
ENDROOT
TORSDOF 0
ENDMDL
