MODEL 1
REMARK minimizedAffinity -4.22395992
REMARK minimizedRMSD -1
REMARK  0 active torsions:
REMARK  status: ('A' for Active; 'I' for Inactive)
ROOT
ATOM      1  N1  IND d   1      -2.318   2.066   0.348  0.00  0.00    -0.196 N 
ATOM      2  C2  IND d   1      -3.466   2.027   1.089  0.00  0.00     0.054 A 
ATOM      3  C3  IND d   1      -3.527   0.882   1.803  0.00  0.00    -0.031 A 
ATOM      4  C4  IND d   1      -1.806  -1.024   1.988  0.00  0.00     0.051 A 
ATOM      5  C5  IND d   1      -0.617  -1.456   1.470  0.00  0.00    -0.031 A 
ATOM      6  C6  IND d   1       0.081  -0.720   0.534  0.00  0.00     0.015 A 
ATOM      7  C7  IND d   1      -0.380   0.486   0.089  0.00  0.00    -0.016 A 
ATOM      8  C8  IND d   1      -1.591   0.925   0.607  0.00  0.00    -0.047 A 
ATOM      9  C9  IND d   1      -2.324   0.162   1.525  0.00  0.00    -0.096 A 
ATOM     10  HN1 IND d   1      -2.088   2.696  -0.190  0.00  0.00     0.298 HD
ENDROOT
TORSDOF 0
ENDMDL
