MODEL 1
REMARK minimizedAffinity -0.759737253
REMARK minimizedRMSD -1
REMARK  0 active torsions:
REMARK  status: ('A' for Active; 'I' for Inactive)
ROOT
ATOM      1  N1  IND d   1      -0.287   0.766  -0.583  0.00  0.00    -0.196 N 
ATOM      2  C2  IND d   1      -0.196  -0.478  -0.025  0.00  0.00     0.054 A 
ATOM      3  C3  IND d   1       0.825  -0.523   0.860  0.00  0.00    -0.031 A 
ATOM      4  C4  IND d   1       2.412   1.355   1.622  0.00  0.00     0.051 A 
ATOM      5  C5  IND d   1       2.741   2.657   1.367  0.00  0.00    -0.031 A 
ATOM      6  C6  IND d   1       2.061   3.411   0.433  0.00  0.00     0.015 A 
ATOM      7  C7  IND d   1       1.016   2.893  -0.277  0.00  0.00    -0.016 A 
ATOM      8  C8  IND d   1       0.684   1.569  -0.027  0.00  0.00    -0.047 A 
ATOM      9  C9  IND d   1       1.397   0.786   0.890  0.00  0.00    -0.096 A 
ATOM     10  HN1 IND d   1      -0.856   1.007  -1.182  0.00  0.00     0.298 HD
ENDROOT
TORSDOF 0
ENDMDL
