MODEL 1
REMARK minimizedAffinity -5.12203026
REMARK minimizedRMSD -1
REMARK  0 active torsions:
REMARK  status: ('A' for Active; 'I' for Inactive)
ROOT
ATOM      1  N1  IND d   1      -3.099   2.017  -0.201  0.00  0.00    -0.196 N 
ATOM      2  C2  IND d   1      -4.236   1.914   0.550  0.00  0.00     0.054 A 
ATOM      3  C3  IND d   1      -4.116   0.912   1.449  0.00  0.00    -0.031 A 
ATOM      4  C4  IND d   1      -2.105  -0.621   1.931  0.00  0.00     0.051 A 
ATOM      5  C5  IND d   1      -0.853  -0.930   1.479  0.00  0.00    -0.031 A 
ATOM      6  C6  IND d   1      -0.273  -0.257   0.423  0.00  0.00     0.015 A 
ATOM      7  C7  IND d   1      -0.922   0.763  -0.214  0.00  0.00    -0.016 A 
ATOM      8  C8  IND d   1      -2.196   1.074   0.238  0.00  0.00    -0.047 A 
ATOM      9  C9  IND d   1      -2.807   0.366   1.281  0.00  0.00    -0.096 A 
ATOM     10  HN1 IND d   1      -2.969   2.577  -0.841  0.00  0.00     0.298 HD
ENDROOT
TORSDOF 0
ENDMDL
