MODEL 1
REMARK minimizedAffinity -1.16365445
REMARK minimizedRMSD -1
REMARK  0 active torsions:
REMARK  status: ('A' for Active; 'I' for Inactive)
ROOT
ATOM      1  N1  IND d   1       0.474  -1.352  -1.647  0.00  0.00    -0.196 N 
ATOM      2  C2  IND d   1       0.850  -0.048  -1.480  0.00  0.00     0.054 A 
ATOM      3  C3  IND d   1       0.358   0.439  -0.319  0.00  0.00    -0.031 A 
ATOM      4  C4  IND d   1      -1.003  -0.757   1.510  0.00  0.00     0.051 A 
ATOM      5  C5  IND d   1      -1.620  -1.943   1.791  0.00  0.00    -0.031 A 
ATOM      6  C6  IND d   1      -1.568  -3.016   0.924  0.00  0.00     0.015 A 
ATOM      7  C7  IND d   1      -0.883  -2.945  -0.256  0.00  0.00    -0.016 A 
ATOM      8  C8  IND d   1      -0.261  -1.740  -0.548  0.00  0.00    -0.047 A 
ATOM      9  C9  IND d   1      -0.346  -0.634   0.308  0.00  0.00    -0.096 A 
ATOM     10  HN1 IND d   1       0.665  -1.846  -2.323  0.00  0.00     0.298 HD
ENDROOT
TORSDOF 0
ENDMDL
