MODEL 1
REMARK minimizedAffinity -4.1438508
REMARK minimizedRMSD -1
REMARK  0 active torsions:
REMARK  status: ('A' for Active; 'I' for Inactive)
ROOT
ATOM      1  N1  IND d   1      -0.411   0.635   0.718  0.00  0.00    -0.196 N 
ATOM      2  C2  IND d   1       0.294   1.098  -0.357  0.00  0.00     0.054 A 
ATOM      3  C3  IND d   1       0.810   0.065  -1.061  0.00  0.00    -0.031 A 
ATOM      4  C4  IND d   1       0.537  -2.467  -0.688  0.00  0.00     0.051 A 
ATOM      5  C5  IND d   1       0.012  -3.377   0.187  0.00  0.00    -0.031 A 
ATOM      6  C6  IND d   1      -0.699  -2.988   1.304  0.00  0.00     0.015 A 
ATOM      7  C7  IND d   1      -0.920  -1.669   1.584  0.00  0.00    -0.016 A 
ATOM      8  C8  IND d   1      -0.382  -0.743   0.702  0.00  0.00    -0.047 A 
ATOM      9  C9  IND d   1       0.376  -1.130  -0.410  0.00  0.00    -0.096 A 
ATOM     10  HN1 IND d   1      -0.807   1.122   1.306  0.00  0.00     0.298 HD
ENDROOT
TORSDOF 0
ENDMDL
