MODEL 1
REMARK minimizedAffinity -3.58903408
REMARK minimizedRMSD -1
REMARK  0 active torsions:
REMARK  status: ('A' for Active; 'I' for Inactive)
ROOT
ATOM      1  N1  IND d   1       0.581   0.499   1.718  0.00  0.00    -0.196 N 
ATOM      2  C2  IND d   1       0.110   1.163   0.620  0.00  0.00     0.054 A 
ATOM      3  C3  IND d   1      -0.613   0.328  -0.160  0.00  0.00    -0.031 A 
ATOM      4  C4  IND d   1      -1.236  -2.140   0.223  0.00  0.00     0.051 A 
ATOM      5  C5  IND d   1      -1.007  -3.190   1.067  0.00  0.00    -0.031 A 
ATOM      6  C6  IND d   1      -0.223  -3.061   2.196  0.00  0.00     0.015 A 
ATOM      7  C7  IND d   1       0.354  -1.869   2.530  0.00  0.00    -0.016 A 
ATOM      8  C8  IND d   1       0.129  -0.802   1.671  0.00  0.00    -0.047 A 
ATOM      9  C9  IND d   1      -0.630  -0.938   0.502  0.00  0.00    -0.096 A 
ATOM     10  HN1 IND d   1       1.076   0.836   2.335  0.00  0.00     0.298 HD
ENDROOT
TORSDOF 0
ENDMDL
