MODEL 1
REMARK minimizedAffinity -2.95086336
REMARK minimizedRMSD -1
REMARK  0 active torsions:
REMARK  status: ('A' for Active; 'I' for Inactive)
ROOT
ATOM      1  N1  IND d   1      -0.672  -0.376  -1.284  0.00  0.00    -0.196 N 
ATOM      2  C2  IND d   1       0.584  -0.172  -1.785  0.00  0.00     0.054 A 
ATOM      3  C3  IND d   1       1.503  -0.806  -1.023  0.00  0.00    -0.031 A 
ATOM      4  C4  IND d   1       1.161  -2.320   1.031  0.00  0.00     0.051 A 
ATOM      5  C5  IND d   1       0.196  -2.776   1.885  0.00  0.00    -0.031 A 
ATOM      6  C6  IND d   1      -1.135  -2.451   1.720  0.00  0.00     0.015 A 
ATOM      7  C7  IND d   1      -1.554  -1.664   0.685  0.00  0.00    -0.016 A 
ATOM      8  C8  IND d   1      -0.576  -1.193  -0.179  0.00  0.00    -0.047 A 
ATOM      9  C9  IND d   1       0.782  -1.485   0.007  0.00  0.00    -0.096 A 
ATOM     10  HN1 IND d   1      -1.399  -0.050  -1.606  0.00  0.00     0.298 HD
ENDROOT
TORSDOF 0
ENDMDL
