MODEL 1
REMARK minimizedAffinity -4.37643814
REMARK minimizedRMSD -1
REMARK  0 active torsions:
REMARK  status: ('A' for Active; 'I' for Inactive)
ROOT
ATOM      1  N1  IND d   1      -0.496   0.599   0.109  0.00  0.00    -0.196 N 
ATOM      2  C2  IND d   1       0.463   0.710  -0.859  0.00  0.00     0.054 A 
ATOM      3  C3  IND d   1       1.031  -0.493  -1.099  0.00  0.00    -0.031 A 
ATOM      4  C4  IND d   1       0.471  -2.796  -0.092  0.00  0.00     0.051 A 
ATOM      5  C5  IND d   1      -0.306  -3.395   0.858  0.00  0.00    -0.031 A 
ATOM      6  C6  IND d   1      -1.207  -2.681   1.620  0.00  0.00     0.015 A 
ATOM      7  C7  IND d   1      -1.373  -1.335   1.452  0.00  0.00    -0.016 A 
ATOM      8  C8  IND d   1      -0.579  -0.721   0.493  0.00  0.00    -0.047 A 
ATOM      9  C9  IND d   1       0.367  -1.434  -0.254  0.00  0.00    -0.096 A 
ATOM     10  HN1 IND d   1      -0.967   1.245   0.424  0.00  0.00     0.298 HD
ENDROOT
TORSDOF 0
ENDMDL
