MODEL 1
REMARK minimizedAffinity -0.739947975
REMARK minimizedRMSD -1
REMARK  0 active torsions:
REMARK  status: ('A' for Active; 'I' for Inactive)
ROOT
ATOM      1  N1  IND d   1       1.086   2.152   1.513  0.00  0.00    -0.196 N 
ATOM      2  C2  IND d   1       1.760   2.584   0.405  0.00  0.00     0.054 A 
ATOM      3  C3  IND d   1       1.666   1.672  -0.588  0.00  0.00    -0.031 A 
ATOM      4  C4  IND d   1       0.373  -0.553  -0.649  0.00  0.00     0.051 A 
ATOM      5  C5  IND d   1      -0.364  -1.392   0.138  0.00  0.00    -0.031 A 
ATOM      6  C6  IND d   1      -0.664  -1.086   1.450  0.00  0.00     0.015 A 
ATOM      7  C7  IND d   1      -0.245   0.082   2.022  0.00  0.00    -0.016 A 
ATOM      8  C8  IND d   1       0.510   0.934   1.228  0.00  0.00    -0.047 A 
ATOM      9  C9  IND d   1       0.853   0.608  -0.091  0.00  0.00    -0.096 A 
ATOM     10  HN1 IND d   1       1.032   2.570   2.263  0.00  0.00     0.298 HD
ENDROOT
TORSDOF 0
ENDMDL
