MODEL 1
REMARK minimizedAffinity -3.39965701
REMARK minimizedRMSD -1
REMARK  0 active torsions:
REMARK  status: ('A' for Active; 'I' for Inactive)
ROOT
ATOM      1  N1  IND d   1       0.166   0.347  -0.707  0.00  0.00    -0.196 N 
ATOM      2  C2  IND d   1       0.647  -0.365  -1.770  0.00  0.00     0.054 A 
ATOM      3  C3  IND d   1       0.388  -1.682  -1.611  0.00  0.00    -0.031 A 
ATOM      4  C4  IND d   1      -0.902  -2.879   0.268  0.00  0.00     0.051 A 
ATOM      5  C5  IND d   1      -1.500  -2.655   1.477  0.00  0.00    -0.031 A 
ATOM      6  C6  IND d   1      -1.577  -1.393   2.029  0.00  0.00     0.015 A 
ATOM      7  C7  IND d   1      -1.067  -0.301   1.385  0.00  0.00    -0.016 A 
ATOM      8  C8  IND d   1      -0.453  -0.526   0.161  0.00  0.00    -0.047 A 
ATOM      9  C9  IND d   1      -0.334  -1.811  -0.384  0.00  0.00    -0.096 A 
ATOM     10  HN1 IND d   1       0.238   1.196  -0.598  0.00  0.00     0.298 HD
ENDROOT
TORSDOF 0
ENDMDL
