MODEL 1
REMARK minimizedAffinity -3.6861496
REMARK minimizedRMSD -1
REMARK  0 active torsions:
REMARK  status: ('A' for Active; 'I' for Inactive)
ROOT
ATOM      1  N1  IND d   1       1.371  -0.109   0.557  0.00  0.00    -0.196 N 
ATOM      2  C2  IND d   1       0.671   1.062   0.644  0.00  0.00     0.054 A 
ATOM      3  C3  IND d   1      -0.655   0.811   0.739  0.00  0.00    -0.031 A 
ATOM      4  C4  IND d   1      -1.887  -1.445   0.872  0.00  0.00     0.051 A 
ATOM      5  C5  IND d   1      -1.677  -2.793   0.795  0.00  0.00    -0.031 A 
ATOM      6  C6  IND d   1      -0.415  -3.326   0.635  0.00  0.00     0.015 A 
ATOM      7  C7  IND d   1       0.691  -2.528   0.556  0.00  0.00    -0.016 A 
ATOM      8  C8  IND d   1       0.481  -1.158   0.626  0.00  0.00    -0.047 A 
ATOM      9  C9  IND d   1      -0.802  -0.609   0.746  0.00  0.00    -0.096 A 
ATOM     10  HN1 IND d   1       2.224  -0.178   0.473  0.00  0.00     0.298 HD
ENDROOT
TORSDOF 0
ENDMDL
