MODEL 1
REMARK minimizedAffinity -3.90643334
REMARK minimizedRMSD -1
REMARK  0 active torsions:
REMARK  status: ('A' for Active; 'I' for Inactive)
ROOT
ATOM      1  N1  IND d   1      -0.283  -1.829   1.799  0.00  0.00    -0.196 N 
ATOM      2  C2  IND d   1       0.044  -3.087   1.376  0.00  0.00     0.054 A 
ATOM      3  C3  IND d   1       0.329  -3.080   0.054  0.00  0.00    -0.031 A 
ATOM      4  C4  IND d   1       0.420  -1.099  -1.589  0.00  0.00     0.051 A 
ATOM      5  C5  IND d   1       0.165   0.241  -1.676  0.00  0.00    -0.031 A 
ATOM      6  C6  IND d   1      -0.258   0.974  -0.586  0.00  0.00     0.015 A 
ATOM      7  C7  IND d   1      -0.432   0.395   0.639  0.00  0.00    -0.016 A 
ATOM      8  C8  IND d   1      -0.181  -0.966   0.729  0.00  0.00    -0.047 A 
ATOM      9  C9  IND d   1       0.208  -1.725  -0.383  0.00  0.00    -0.096 A 
ATOM     10  HN1 IND d   1      -0.513  -1.613   2.598  0.00  0.00     0.298 HD
ENDROOT
TORSDOF 0
ENDMDL
