MODEL 1
REMARK minimizedAffinity 6.97816229
REMARK minimizedRMSD -1
REMARK  0 active torsions:
REMARK  status: ('A' for Active; 'I' for Inactive)
ROOT
ATOM      1  N1  IND d   1       3.580   4.602   1.091  0.00  0.00    -0.196 N 
ATOM      2  C2  IND d   1       2.332   4.463   1.633  0.00  0.00     0.054 A 
ATOM      3  C3  IND d   1       1.523   3.791   0.784  0.00  0.00    -0.031 A 
ATOM      4  C4  IND d   1       2.063   2.737  -1.502  0.00  0.00     0.051 A 
ATOM      5  C5  IND d   1       3.059   2.633  -2.431  0.00  0.00    -0.031 A 
ATOM      6  C6  IND d   1       4.306   3.188  -2.229  0.00  0.00     0.015 A 
ATOM      7  C7  IND d   1       4.608   3.862  -1.080  0.00  0.00    -0.016 A 
ATOM      8  C8  IND d   1       3.596   3.976  -0.136  0.00  0.00    -0.047 A 
ATOM      9  C9  IND d   1       2.316   3.451  -0.354  0.00  0.00    -0.096 A 
ATOM     10  HN1 IND d   1       4.242   5.011   1.455  0.00  0.00     0.298 HD
ENDROOT
TORSDOF 0
ENDMDL
