MODEL 1
REMARK minimizedAffinity -4.7362504
REMARK minimizedRMSD -1
REMARK  1 active torsions:
REMARK  status: ('A' for Active; 'I' for Inactive)
REMARK    1  A    between atoms: C1_2  and  C2_3 
ROOT
ATOM      1  C2  UNL d   1      -0.415  -0.343  -0.265  0.00  0.00    -0.073 A 
ATOM      2  C3  UNL d   1      -0.723  -0.897   0.982  0.00  0.00    -0.002 A 
ATOM      3  C4  UNL d   1      -0.618  -0.126   2.141  0.00  0.00     0.004 A 
ATOM      4  C5  UNL d   1      -0.211   1.206   2.064  0.00  0.00    -0.004 A 
ATOM      5  C6  UNL d   1       0.090   1.781   0.825  0.00  0.00    -0.075 A 
ATOM      6  C7  UNL d   1       0.531   3.211   0.724  0.00  0.00     0.076 C 
ATOM      7  C8  UNL d   1      -0.015   0.999  -0.334  0.00  0.00     0.001 A 
ENDROOT
BRANCH   1   8
ATOM      8  C1  UNL d   1      -0.533  -1.170  -1.520  0.00  0.00     0.053 C 
ATOM      9  C   UNL d   1      -1.873  -1.881  -1.610  0.00  0.00     0.018 C 
ENDBRANCH   1   8
TORSDOF 1
ENDMDL
