MODEL 1
REMARK minimizedAffinity -4.62868166
REMARK minimizedRMSD -1
REMARK  1 active torsions:
REMARK  status: ('A' for Active; 'I' for Inactive)
REMARK    1  A    between atoms: C1_2  and  C2_3 
ROOT
ATOM      1  C2  UNL d   1      -0.416  -1.211  -0.711  0.00  0.00    -0.073 A 
ATOM      2  C3  UNL d   1       0.808  -1.858  -0.915  0.00  0.00    -0.002 A 
ATOM      3  C4  UNL d   1       2.006  -1.207  -0.617  0.00  0.00     0.004 A 
ATOM      4  C5  UNL d   1       1.993   0.091  -0.108  0.00  0.00    -0.004 A 
ATOM      5  C6  UNL d   1       0.779   0.750   0.113  0.00  0.00    -0.075 A 
ATOM      6  C7  UNL d   1       0.748   2.147   0.658  0.00  0.00     0.076 C 
ATOM      7  C8  UNL d   1      -0.420   0.091  -0.190  0.00  0.00     0.001 A 
ENDROOT
BRANCH   1   8
ATOM      8  C1  UNL d   1      -1.713  -1.911  -1.025  0.00  0.00     0.053 C 
ATOM      9  C   UNL d   1      -1.891  -2.140  -2.517  0.00  0.00     0.018 C 
ENDBRANCH   1   8
TORSDOF 1
ENDMDL
