MODEL 1
REMARK minimizedAffinity -1.48378873
REMARK minimizedRMSD -1
REMARK  1 active torsions:
REMARK  status: ('A' for Active; 'I' for Inactive)
REMARK    1  A    between atoms: C1_2  and  C2_3 
ROOT
ATOM      1  C2  UNL d   1      -0.418  -1.064  -0.682  0.00  0.00    -0.073 A 
ATOM      2  C3  UNL d   1       0.861  -1.172  -1.241  0.00  0.00    -0.002 A 
ATOM      3  C4  UNL d   1       1.886  -0.321  -0.827  0.00  0.00     0.004 A 
ATOM      4  C5  UNL d   1       1.646   0.641   0.154  0.00  0.00    -0.004 A 
ATOM      5  C6  UNL d   1       0.378   0.757   0.733  0.00  0.00    -0.075 A 
ATOM      6  C7  UNL d   1       0.103   1.788   1.788  0.00  0.00     0.076 C 
ATOM      7  C8  UNL d   1      -0.647  -0.099   0.310  0.00  0.00     0.001 A 
ENDROOT
BRANCH   1   8
ATOM      8  C1  UNL d   1      -1.526  -1.985  -1.122  0.00  0.00     0.053 C 
ATOM      9  C   UNL d   1      -1.924  -1.747  -2.571  0.00  0.00     0.018 C 
ENDBRANCH   1   8
TORSDOF 1
ENDMDL
