MODEL 1
REMARK minimizedAffinity -4.25453758
REMARK minimizedRMSD -1
REMARK  1 active torsions:
REMARK  status: ('A' for Active; 'I' for Inactive)
REMARK    1  A    between atoms: C1_2  and  C2_3 
ROOT
ATOM      1  C2  UNL d   1      -2.893  -2.811  -1.509  0.00  0.00    -0.073 A 
ATOM      2  C3  UNL d   1      -3.088  -2.590  -2.877  0.00  0.00    -0.002 A 
ATOM      3  C4  UNL d   1      -2.222  -1.757  -3.588  0.00  0.00     0.004 A 
ATOM      4  C5  UNL d   1      -1.150  -1.144  -2.940  0.00  0.00    -0.004 A 
ATOM      5  C6  UNL d   1      -0.931  -1.362  -1.576  0.00  0.00    -0.075 A 
ATOM      6  C7  UNL d   1       0.216  -0.707  -0.865  0.00  0.00     0.076 C 
ATOM      7  C8  UNL d   1      -1.806  -2.197  -0.869  0.00  0.00     0.001 A 
ENDROOT
BRANCH   1   8
ATOM      8  C1  UNL d   1      -3.821  -3.714  -0.740  0.00  0.00     0.053 C 
ATOM      9  C   UNL d   1      -5.278  -3.482  -1.108  0.00  0.00     0.018 C 
ENDBRANCH   1   8
TORSDOF 1
ENDMDL
