MODEL 1
REMARK minimizedAffinity -6.03510332
REMARK minimizedRMSD -1
REMARK  1 active torsions:
REMARK  status: ('A' for Active; 'I' for Inactive)
REMARK    1  A    between atoms: C1_2  and  C2_3 
ROOT
ATOM      1  C2  UNL d   1       0.988   1.642   0.826  0.00  0.00    -0.073 A 
ATOM      2  C3  UNL d   1       0.195   2.038   1.909  0.00  0.00    -0.002 A 
ATOM      3  C4  UNL d   1      -0.991   1.361   2.198  0.00  0.00     0.004 A 
ATOM      4  C5  UNL d   1      -1.391   0.279   1.414  0.00  0.00    -0.004 A 
ATOM      5  C6  UNL d   1      -0.606  -0.139   0.335  0.00  0.00    -0.075 A 
ATOM      6  C7  UNL d   1      -1.023  -1.299  -0.520  0.00  0.00     0.076 C 
ATOM      7  C8  UNL d   1       0.582   0.548   0.049  0.00  0.00     0.001 A 
ENDROOT
BRANCH   1   8
ATOM      8  C1  UNL d   1       2.273   2.366   0.513  0.00  0.00     0.053 C 
ATOM      9  C   UNL d   1       3.320   1.437  -0.080  0.00  0.00     0.018 C 
ENDBRANCH   1   8
TORSDOF 1
ENDMDL
