MODEL 1
REMARK minimizedAffinity -4.36218357
REMARK minimizedRMSD -1
REMARK  1 active torsions:
REMARK  status: ('A' for Active; 'I' for Inactive)
REMARK    1  A    between atoms: C1_2  and  C2_3 
ROOT
ATOM      1  C2  UNL d   1      -0.262  -1.274  -0.239  0.00  0.00    -0.073 A 
ATOM      2  C3  UNL d   1       0.927  -1.701  -0.841  0.00  0.00    -0.002 A 
ATOM      3  C4  UNL d   1       2.063  -0.892  -0.812  0.00  0.00     0.004 A 
ATOM      4  C5  UNL d   1       2.025   0.349  -0.176  0.00  0.00    -0.004 A 
ATOM      5  C6  UNL d   1       0.850   0.789   0.442  0.00  0.00    -0.075 A 
ATOM      6  C7  UNL d   1       0.792   2.122   1.129  0.00  0.00     0.076 C 
ATOM      7  C8  UNL d   1      -0.288  -0.029   0.407  0.00  0.00     0.001 A 
ENDROOT
BRANCH   1   8
ATOM      8  C1  UNL d   1      -1.489  -2.147  -0.262  0.00  0.00     0.053 C 
ATOM      9  C   UNL d   1      -2.086  -2.254  -1.656  0.00  0.00     0.018 C 
ENDBRANCH   1   8
TORSDOF 1
ENDMDL
