MODEL 1
REMARK minimizedAffinity -5.56953335
REMARK minimizedRMSD -1
REMARK  1 active torsions:
REMARK  status: ('A' for Active; 'I' for Inactive)
REMARK    1  A    between atoms: C1_2  and  C2_3 
ROOT
ATOM      1  C2  UNL d   1       0.009  -0.208   0.296  0.00  0.00    -0.073 A 
ATOM      2  C3  UNL d   1      -0.504   0.733   1.196  0.00  0.00    -0.002 A 
ATOM      3  C4  UNL d   1       0.301   1.773   1.663  0.00  0.00     0.004 A 
ATOM      4  C5  UNL d   1       1.622   1.887   1.230  0.00  0.00    -0.004 A 
ATOM      5  C6  UNL d   1       2.149   0.963   0.322  0.00  0.00    -0.075 A 
ATOM      6  C7  UNL d   1       3.569   1.070  -0.151  0.00  0.00     0.076 C 
ATOM      7  C8  UNL d   1       1.335  -0.080  -0.140  0.00  0.00     0.001 A 
ENDROOT
BRANCH   1   8
ATOM      8  C1  UNL d   1      -0.859  -1.329  -0.216  0.00  0.00     0.053 C 
ATOM      9  C   UNL d   1      -1.299  -1.099  -1.653  0.00  0.00     0.018 C 
ENDBRANCH   1   8
TORSDOF 1
ENDMDL
