MODEL 1
REMARK minimizedAffinity -3.40871
REMARK minimizedRMSD -1
REMARK  1 active torsions:
REMARK  status: ('A' for Active; 'I' for Inactive)
REMARK    1  A    between atoms: C1_2  and  C2_3 
ROOT
ATOM      1  C2  UNL d   1      -0.218  -0.377  -0.455  0.00  0.00    -0.073 A 
ATOM      2  C3  UNL d   1      -1.063  -0.580   0.642  0.00  0.00    -0.002 A 
ATOM      3  C4  UNL d   1      -1.069   0.324   1.705  0.00  0.00     0.004 A 
ATOM      4  C5  UNL d   1      -0.237   1.444   1.678  0.00  0.00    -0.004 A 
ATOM      5  C6  UNL d   1       0.606   1.670   0.585  0.00  0.00    -0.075 A 
ATOM      6  C7  UNL d   1       1.509   2.868   0.543  0.00  0.00     0.076 C 
ATOM      7  C8  UNL d   1       0.608   0.756  -0.476  0.00  0.00     0.001 A 
ENDROOT
BRANCH   1   8
ATOM      8  C1  UNL d   1      -0.212  -1.348  -1.607  0.00  0.00     0.053 C 
ATOM      9  C   UNL d   1      -1.611  -1.598  -2.148  0.00  0.00     0.018 C 
ENDBRANCH   1   8
TORSDOF 1
ENDMDL
