MODEL 1
REMARK minimizedAffinity -3.09181881
REMARK minimizedRMSD -1
REMARK  1 active torsions:
REMARK  status: ('A' for Active; 'I' for Inactive)
REMARK    1  A    between atoms: C1_2  and  C2_3 
ROOT
ATOM      1  C2  UNL d   1      -0.507   0.776   0.912  0.00  0.00    -0.073 A 
ATOM      2  C3  UNL d   1      -0.344   2.045   1.480  0.00  0.00    -0.002 A 
ATOM      3  C4  UNL d   1       0.795   2.801   1.201  0.00  0.00     0.004 A 
ATOM      4  C5  UNL d   1       1.778   2.300   0.347  0.00  0.00    -0.004 A 
ATOM      5  C6  UNL d   1       1.627   1.039  -0.239  0.00  0.00    -0.075 A 
ATOM      6  C7  UNL d   1       2.676   0.485  -1.158  0.00  0.00     0.076 C 
ATOM      7  C8  UNL d   1       0.482   0.285   0.048  0.00  0.00     0.001 A 
ENDROOT
BRANCH   1   8
ATOM      8  C1  UNL d   1      -1.739  -0.041   1.206  0.00  0.00     0.053 C 
ATOM      9  C   UNL d   1      -2.341   0.302   2.559  0.00  0.00     0.018 C 
ENDBRANCH   1   8
TORSDOF 1
ENDMDL
