MODEL 1
REMARK minimizedAffinity -4.96219778
REMARK minimizedRMSD -1
REMARK  0 active torsions:
REMARK  status: ('A' for Active; 'I' for Inactive)
ROOT
ATOM      1  C   UNL d   1      -0.188  -3.624   0.233  0.00  0.00    -0.002 A 
ATOM      2  C1  UNL d   1       0.107  -3.547  -1.121  0.00  0.00     0.010 A 
ATOM      3  C2  UNL d   1       0.195  -2.308  -1.759  0.00  0.00     0.041 A 
ATOM      4  C3  UNL d   1      -0.020  -1.137  -1.006  0.00  0.00    -0.075 A 
ATOM      5  S   UNL d   1       0.037   0.490  -1.575  0.00  0.00     0.015 SA
ATOM      6  C4  UNL d   1      -0.329   1.120  -0.034  0.00  0.00     0.022 A 
ATOM      7  C5  UNL d   1      -0.494   0.128   0.903  0.00  0.00     0.026 A 
ATOM      8  C6  UNL d   1      -0.318  -1.189   0.359  0.00  0.00    -0.082 A 
ATOM      9  C7  UNL d   1      -0.401  -2.460   0.977  0.00  0.00     0.045 A 
ENDROOT
TORSDOF 0
ENDMDL
