MODEL 1
REMARK minimizedAffinity 0.286483288
REMARK minimizedRMSD -1
REMARK  0 active torsions:
REMARK  status: ('A' for Active; 'I' for Inactive)
ROOT
ATOM      1  C   UNL d   1      -0.624  -2.508   0.703  0.00  0.00    -0.002 A 
ATOM      2  C1  UNL d   1      -1.080  -1.652   1.696  0.00  0.00     0.010 A 
ATOM      3  C2  UNL d   1      -1.000  -0.268   1.532  0.00  0.00     0.041 A 
ATOM      4  C3  UNL d   1      -0.451   0.247   0.341  0.00  0.00    -0.075 A 
ATOM      5  S   UNL d   1      -0.253   1.907  -0.080  0.00  0.00     0.015 SA
ATOM      6  C4  UNL d   1       0.440   1.519  -1.588  0.00  0.00     0.022 A 
ATOM      7  C5  UNL d   1       0.526   0.161  -1.782  0.00  0.00     0.026 A 
ATOM      8  C6  UNL d   1       0.014  -0.595  -0.673  0.00  0.00    -0.082 A 
ATOM      9  C7  UNL d   1      -0.080  -1.994  -0.477  0.00  0.00     0.045 A 
ENDROOT
TORSDOF 0
ENDMDL
