MODEL 1
REMARK minimizedAffinity -2.34667206
REMARK minimizedRMSD -1
REMARK  0 active torsions:
REMARK  status: ('A' for Active; 'I' for Inactive)
ROOT
ATOM      1  C   UNL d   1      -0.013  -3.018   0.661  0.00  0.00    -0.002 A 
ATOM      2  C1  UNL d   1       1.007  -2.943  -0.278  0.00  0.00     0.010 A 
ATOM      3  C2  UNL d   1       1.333  -1.724  -0.875  0.00  0.00     0.041 A 
ATOM      4  C3  UNL d   1       0.611  -0.571  -0.509  0.00  0.00    -0.075 A 
ATOM      5  S   UNL d   1       0.835   1.030  -1.109  0.00  0.00     0.015 SA
ATOM      6  C4  UNL d   1      -0.416   1.651  -0.133  0.00  0.00     0.022 A 
ATOM      7  C5  UNL d   1      -1.002   0.675   0.637  0.00  0.00     0.026 A 
ATOM      8  C6  UNL d   1      -0.419  -0.621   0.434  0.00  0.00    -0.082 A 
ATOM      9  C7  UNL d   1      -0.726  -1.872   1.021  0.00  0.00     0.045 A 
ENDROOT
TORSDOF 0
ENDMDL
