MODEL 1
REMARK minimizedAffinity -3.86862063
REMARK minimizedRMSD -1
REMARK  0 active torsions:
REMARK  status: ('A' for Active; 'I' for Inactive)
ROOT
ATOM      1  C   UNL d   1       1.059   0.088  -2.973  0.00  0.00    -0.002 A 
ATOM      2  C1  UNL d   1       0.594   1.111  -2.159  0.00  0.00     0.010 A 
ATOM      3  C2  UNL d   1       0.218   0.853  -0.839  0.00  0.00     0.041 A 
ATOM      4  C3  UNL d   1       0.320  -0.463  -0.346  0.00  0.00    -0.075 A 
ATOM      5  S   UNL d   1      -0.082  -1.014   1.237  0.00  0.00     0.015 SA
ATOM      6  C4  UNL d   1       0.354  -2.620   0.870  0.00  0.00     0.022 A 
ATOM      7  C5  UNL d   1       0.797  -2.751  -0.425  0.00  0.00     0.026 A 
ATOM      8  C6  UNL d   1       0.786  -1.509  -1.147  0.00  0.00    -0.082 A 
ATOM      9  C7  UNL d   1       1.158  -1.216  -2.481  0.00  0.00     0.045 A 
ENDROOT
TORSDOF 0
ENDMDL
