MODEL 1
REMARK minimizedAffinity -3.56801558
REMARK minimizedRMSD -1
REMARK  0 active torsions:
REMARK  status: ('A' for Active; 'I' for Inactive)
ROOT
ATOM      1  C   UNL d   1      -0.485  -2.881   1.038  0.00  0.00    -0.002 A 
ATOM      2  C1  UNL d   1      -0.214  -3.137  -0.299  0.00  0.00     0.010 A 
ATOM      3  C2  UNL d   1       0.140  -2.100  -1.164  0.00  0.00     0.041 A 
ATOM      4  C3  UNL d   1       0.220  -0.788  -0.657  0.00  0.00    -0.075 A 
ATOM      5  S   UNL d   1       0.636   0.640  -1.530  0.00  0.00     0.015 SA
ATOM      6  C4  UNL d   1       0.465   1.624  -0.148  0.00  0.00     0.022 A 
ATOM      7  C5  UNL d   1       0.100   0.897   0.960  0.00  0.00     0.026 A 
ATOM      8  C6  UNL d   1      -0.046  -0.505   0.686  0.00  0.00    -0.082 A 
ATOM      9  C7  UNL d   1      -0.404  -1.578   1.537  0.00  0.00     0.045 A 
ENDROOT
TORSDOF 0
ENDMDL
