MODEL 1
REMARK minimizedAffinity -0.0765915215
REMARK minimizedRMSD -1
REMARK  0 active torsions:
REMARK  status: ('A' for Active; 'I' for Inactive)
ROOT
ATOM      1  C   UNL d   1      -0.973  -0.516   0.268  0.00  0.00    -0.002 A 
ATOM      2  C1  UNL d   1       0.319  -1.001   0.122  0.00  0.00     0.010 A 
ATOM      3  C2  UNL d   1       1.404  -0.125   0.060  0.00  0.00     0.041 A 
ATOM      4  C3  UNL d   1       1.167   1.261   0.150  0.00  0.00    -0.075 A 
ATOM      5  S   UNL d   1       2.342   2.522   0.099  0.00  0.00     0.015 SA
ATOM      6  C4  UNL d   1       1.156   3.735   0.270  0.00  0.00     0.022 A 
ATOM      7  C5  UNL d   1      -0.110   3.208   0.365  0.00  0.00     0.026 A 
ATOM      8  C6  UNL d   1      -0.125   1.774   0.298  0.00  0.00    -0.082 A 
ATOM      9  C7  UNL d   1      -1.204   0.860   0.356  0.00  0.00     0.045 A 
ENDROOT
TORSDOF 0
ENDMDL
