MODEL 1
REMARK minimizedAffinity -5.3719492
REMARK minimizedRMSD -1
REMARK  0 active torsions:
REMARK  status: ('A' for Active; 'I' for Inactive)
ROOT
ATOM      1  C   UNL d   1      -0.047  -3.793  -0.348  0.00  0.00    -0.002 A 
ATOM      2  C1  UNL d   1       0.115  -3.561  -1.707  0.00  0.00     0.010 A 
ATOM      3  C2  UNL d   1       0.113  -2.258  -2.209  0.00  0.00     0.041 A 
ATOM      4  C3  UNL d   1      -0.056  -1.183  -1.315  0.00  0.00    -0.075 A 
ATOM      5  S   UNL d   1      -0.091   0.497  -1.704  0.00  0.00     0.015 SA
ATOM      6  C4  UNL d   1      -0.322   0.945  -0.075  0.00  0.00     0.022 A 
ATOM      7  C5  UNL d   1      -0.373  -0.147   0.758  0.00  0.00     0.026 A 
ATOM      8  C6  UNL d   1      -0.220  -1.392   0.057  0.00  0.00    -0.082 A 
ATOM      9  C7  UNL d   1      -0.214  -2.724   0.536  0.00  0.00     0.045 A 
ENDROOT
TORSDOF 0
ENDMDL
