MODEL 1
REMARK minimizedAffinity -0.576810837
REMARK minimizedRMSD -1
REMARK  0 active torsions:
REMARK  status: ('A' for Active; 'I' for Inactive)
ROOT
ATOM      1  C   UNL d   1      -0.280  -3.049   0.643  0.00  0.00    -0.002 A 
ATOM      2  C1  UNL d   1       0.684  -3.046  -0.354  0.00  0.00     0.010 A 
ATOM      3  C2  UNL d   1       0.988  -1.871  -1.045  0.00  0.00     0.041 A 
ATOM      4  C3  UNL d   1       0.302  -0.687  -0.711  0.00  0.00    -0.075 A 
ATOM      5  S   UNL d   1       0.509   0.870  -1.421  0.00  0.00     0.015 SA
ATOM      6  C4  UNL d   1      -0.677   1.569  -0.416  0.00  0.00     0.022 A 
ATOM      7  C5  UNL d   1      -1.228   0.651   0.446  0.00  0.00     0.026 A 
ATOM      8  C6  UNL d   1      -0.673  -0.664   0.291  0.00  0.00    -0.082 A 
ATOM      9  C7  UNL d   1      -0.959  -1.872   0.972  0.00  0.00     0.045 A 
ENDROOT
TORSDOF 0
ENDMDL
