MODEL 1
REMARK minimizedAffinity -5.13908434
REMARK minimizedRMSD -1
REMARK  0 active torsions:
REMARK  status: ('A' for Active; 'I' for Inactive)
ROOT
ATOM      1  C   UNL d   1      -0.424  -2.985   0.862  0.00  0.00    -0.002 A 
ATOM      2  C1  UNL d   1       0.255  -3.122  -0.341  0.00  0.00     0.010 A 
ATOM      3  C2  UNL d   1       0.527  -2.005  -1.133  0.00  0.00     0.041 A 
ATOM      4  C3  UNL d   1       0.104  -0.736  -0.691  0.00  0.00    -0.075 A 
ATOM      5  S   UNL d   1       0.328   0.773  -1.495  0.00  0.00     0.015 SA
ATOM      6  C4  UNL d   1      -0.471   1.634  -0.261  0.00  0.00     0.022 A 
ATOM      7  C5  UNL d   1      -0.905   0.807   0.748  0.00  0.00     0.026 A 
ATOM      8  C6  UNL d   1      -0.580  -0.573   0.517  0.00  0.00    -0.082 A 
ATOM      9  C7  UNL d   1      -0.842  -1.725   1.297  0.00  0.00     0.045 A 
ENDROOT
TORSDOF 0
ENDMDL
