MODEL 1
REMARK minimizedAffinity -4.11318874
REMARK minimizedRMSD -1
REMARK  0 active torsions:
REMARK  status: ('A' for Active; 'I' for Inactive)
ROOT
ATOM      1  C   UNL d   1       0.989  -3.088  -0.335  0.00  0.00    -0.002 A 
ATOM      2  C1  UNL d   1      -0.014  -3.363   0.583  0.00  0.00     0.010 A 
ATOM      3  C2  UNL d   1      -0.832  -2.341   1.070  0.00  0.00     0.041 A 
ATOM      4  C3  UNL d   1      -0.623  -1.026   0.612  0.00  0.00    -0.075 A 
ATOM      5  S   UNL d   1      -1.503   0.385   1.069  0.00  0.00     0.015 SA
ATOM      6  C4  UNL d   1      -0.569   1.387   0.054  0.00  0.00     0.022 A 
ATOM      7  C5  UNL d   1       0.396   0.679  -0.623  0.00  0.00     0.026 A 
ATOM      8  C6  UNL d   1       0.379  -0.723  -0.313  0.00  0.00    -0.082 A 
ATOM      9  C7  UNL d   1       1.192  -1.781  -0.787  0.00  0.00     0.045 A 
ENDROOT
TORSDOF 0
ENDMDL
