MODEL 1
REMARK minimizedAffinity -3.38860869
REMARK minimizedRMSD -1
REMARK  1 active torsions:
REMARK  status: ('A' for Active; 'I' for Inactive)
REMARK    1  A    between atoms: N_2  and  C1_3 
ROOT
ATOM      1  C1  UNL d   1       0.984   0.649  -2.172  0.00  0.00     0.143 A 
ATOM      2  C2  UNL d   1       1.134   0.641  -3.563  0.00  0.00    -0.057 A 
ATOM      3  C3  UNL d   1       1.488  -0.527  -4.249  0.00  0.00     0.033 A 
ATOM      4  C4  UNL d   1       1.728  -1.705  -3.550  0.00  0.00    -0.042 A 
ATOM      5  C5  UNL d   1       1.610  -1.715  -2.165  0.00  0.00     0.033 A 
ATOM      6  C6  UNL d   1       1.249  -0.547  -1.486  0.00  0.00    -0.057 A 
ENDROOT
BRANCH   1   7
ATOM      7  N   UNL d   1       0.730   1.800  -1.423  0.00  0.00    -0.732 N 
ATOM      8  C   UNL d   1      -0.478   1.915  -0.634  0.00  0.00     0.284 C 
ATOM      9  H3  UNL d   1       1.564   2.155  -0.961  0.00  0.00     0.395 HD
ENDBRANCH   1   7
TORSDOF 1
ENDMDL
