MODEL 1
REMARK minimizedAffinity 7.8444705
REMARK minimizedRMSD -1
REMARK  1 active torsions:
REMARK  status: ('A' for Active; 'I' for Inactive)
REMARK    1  A    between atoms: N_2  and  C1_3 
ROOT
ATOM      1  C1  UNL d   1       0.509  -0.286  -0.984  0.00  0.00     0.143 A 
ATOM      2  C2  UNL d   1      -0.552  -0.874  -0.286  0.00  0.00    -0.057 A 
ATOM      3  C3  UNL d   1      -0.500  -2.213   0.121  0.00  0.00     0.033 A 
ATOM      4  C4  UNL d   1       0.605  -2.998  -0.190  0.00  0.00    -0.042 A 
ATOM      5  C5  UNL d   1       1.660  -2.442  -0.905  0.00  0.00     0.033 A 
ATOM      6  C6  UNL d   1       1.605  -1.103  -1.303  0.00  0.00    -0.057 A 
ENDROOT
BRANCH   1   7
ATOM      7  N   UNL d   1       0.475   1.011  -1.501  0.00  0.00    -0.732 N 
ATOM      8  C   UNL d   1       0.327   2.151  -0.622  0.00  0.00     0.284 C 
ATOM      9  H3  UNL d   1       1.151   1.148  -2.250  0.00  0.00     0.395 HD
ENDBRANCH   1   7
TORSDOF 1
ENDMDL
