MODEL 1
REMARK minimizedAffinity 1.39704597
REMARK minimizedRMSD -1
REMARK  1 active torsions:
REMARK  status: ('A' for Active; 'I' for Inactive)
REMARK    1  A    between atoms: N_2  and  C1_3 
ROOT
ATOM      1  C1  UNL d   1       5.607   2.675   4.848  0.00  0.00     0.143 A 
ATOM      2  C2  UNL d   1       5.922   1.947   6.000  0.00  0.00    -0.057 A 
ATOM      3  C3  UNL d   1       6.000   0.549   5.976  0.00  0.00     0.033 A 
ATOM      4  C4  UNL d   1       5.734  -0.149   4.803  0.00  0.00    -0.042 A 
ATOM      5  C5  UNL d   1       5.395   0.553   3.652  0.00  0.00     0.033 A 
ATOM      6  C6  UNL d   1       5.325   1.949   3.680  0.00  0.00    -0.057 A 
ENDROOT
BRANCH   1   7
ATOM      7  N   UNL d   1       5.417   4.059   4.830  0.00  0.00    -0.732 N 
ATOM      8  C   UNL d   1       5.867   4.879   5.934  0.00  0.00     0.284 C 
ATOM      9  H3  UNL d   1       5.594   4.464   3.913  0.00  0.00     0.395 HD
ENDBRANCH   1   7
TORSDOF 1
ENDMDL
