MODEL 1
REMARK minimizedAffinity -2.10008359
REMARK minimizedRMSD -1
REMARK  1 active torsions:
REMARK  status: ('A' for Active; 'I' for Inactive)
REMARK    1  A    between atoms: N_2  and  C1_3 
ROOT
ATOM      1  C1  UNL d   1       5.649   0.475   4.877  0.00  0.00     0.143 A 
ATOM      2  C2  UNL d   1       6.000  -0.316   3.778  0.00  0.00    -0.057 A 
ATOM      3  C3  UNL d   1       5.770  -1.697   3.774  0.00  0.00     0.033 A 
ATOM      4  C4  UNL d   1       5.210  -2.318   4.886  0.00  0.00    -0.042 A 
ATOM      5  C5  UNL d   1       4.877  -1.555   6.000  0.00  0.00     0.033 A 
ATOM      6  C6  UNL d   1       5.103  -0.176   5.995  0.00  0.00    -0.057 A 
ENDROOT
BRANCH   1   7
ATOM      7  N   UNL d   1       5.943   1.837   4.981  0.00  0.00    -0.732 N 
ATOM      8  C   UNL d   1       4.901   2.829   4.824  0.00  0.00     0.284 C 
ATOM      9  H3  UNL d   1       6.598   2.037   5.733  0.00  0.00     0.395 HD
ENDBRANCH   1   7
TORSDOF 1
ENDMDL
