MODEL 1
REMARK minimizedAffinity 0.759821296
REMARK minimizedRMSD -1
REMARK  1 active torsions:
REMARK  status: ('A' for Active; 'I' for Inactive)
REMARK    1  A    between atoms: N_2  and  C1_3 
ROOT
ATOM      1  C1  UNL d   1       3.670   1.345   5.276  0.00  0.00     0.143 A 
ATOM      2  C2  UNL d   1       3.661  -0.048   5.148  0.00  0.00    -0.057 A 
ATOM      3  C3  UNL d   1       4.790  -0.813   5.465  0.00  0.00     0.033 A 
ATOM      4  C4  UNL d   1       5.961  -0.193   5.890  0.00  0.00    -0.042 A 
ATOM      5  C5  UNL d   1       6.000   1.192   6.000  0.00  0.00     0.033 A 
ATOM      6  C6  UNL d   1       4.867   1.950   5.688  0.00  0.00    -0.057 A 
ENDROOT
BRANCH   1   7
ATOM      7  N   UNL d   1       2.612   2.169   4.882  0.00  0.00    -0.732 N 
ATOM      8  C   UNL d   1       2.864   3.404   4.171  0.00  0.00     0.284 C 
ATOM      9  H3  UNL d   1       1.819   1.639   4.527  0.00  0.00     0.395 HD
ENDBRANCH   1   7
TORSDOF 1
ENDMDL
