MODEL 1
REMARK minimizedAffinity 5.19251394
REMARK minimizedRMSD -1
REMARK  1 active torsions:
REMARK  status: ('A' for Active; 'I' for Inactive)
REMARK    1  A    between atoms: N_2  and  C1_3 
ROOT
ATOM      1  C1  UNL d   1       0.317  -0.200  -0.998  0.00  0.00     0.143 A 
ATOM      2  C2  UNL d   1      -0.681  -0.652  -0.127  0.00  0.00    -0.057 A 
ATOM      3  C3  UNL d   1      -0.703  -1.977   0.326  0.00  0.00     0.033 A 
ATOM      4  C4  UNL d   1       0.258  -2.883  -0.108  0.00  0.00    -0.042 A 
ATOM      5  C5  UNL d   1       1.244  -2.463  -0.994  0.00  0.00     0.033 A 
ATOM      6  C6  UNL d   1       1.265  -1.137  -1.438  0.00  0.00    -0.057 A 
ENDROOT
BRANCH   1   7
ATOM      7  N   UNL d   1       0.337   1.078  -1.562  0.00  0.00    -0.732 N 
ATOM      8  C   UNL d   1       0.540   2.246  -0.732  0.00  0.00     0.284 C 
ATOM      9  H3  UNL d   1       0.837   1.104  -2.447  0.00  0.00     0.395 HD
ENDBRANCH   1   7
TORSDOF 1
ENDMDL
