MODEL 1
REMARK minimizedAffinity 1.92944813
REMARK minimizedRMSD -1
REMARK  1 active torsions:
REMARK  status: ('A' for Active; 'I' for Inactive)
REMARK    1  A    between atoms: N_2  and  C1_3 
ROOT
ATOM      1  C1  UNL d   1       1.448  -0.253  -3.503  0.00  0.00     0.143 A 
ATOM      2  C2  UNL d   1       1.907  -0.634  -2.237  0.00  0.00    -0.057 A 
ATOM      3  C3  UNL d   1       1.830  -1.965  -1.808  0.00  0.00     0.033 A 
ATOM      4  C4  UNL d   1       1.265  -2.935  -2.629  0.00  0.00    -0.042 A 
ATOM      5  C5  UNL d   1       0.780  -2.574  -3.881  0.00  0.00     0.033 A 
ATOM      6  C6  UNL d   1       0.866  -1.245  -4.306  0.00  0.00    -0.057 A 
ENDROOT
BRANCH   1   7
ATOM      7  N   UNL d   1       1.407   1.070  -3.949  0.00  0.00    -0.732 N 
ATOM      8  C   UNL d   1       2.174   1.483  -5.104  0.00  0.00     0.284 C 
ATOM      9  H3  UNL d   1       0.470   1.464  -3.910  0.00  0.00     0.395 HD
ENDBRANCH   1   7
TORSDOF 1
ENDMDL
