MODEL 1
REMARK minimizedAffinity -1.63433003
REMARK minimizedRMSD -1
REMARK  1 active torsions:
REMARK  status: ('A' for Active; 'I' for Inactive)
REMARK    1  A    between atoms: N_2  and  C1_3 
ROOT
ATOM      1  C1  UNL d   1       5.532   1.384   4.886  0.00  0.00     0.143 A 
ATOM      2  C2  UNL d   1       5.978   2.103   6.000  0.00  0.00    -0.057 A 
ATOM      3  C3  UNL d   1       6.000   3.503   6.000  0.00  0.00     0.033 A 
ATOM      4  C4  UNL d   1       5.602   4.210   4.870  0.00  0.00    -0.042 A 
ATOM      5  C5  UNL d   1       5.180   3.516   3.742  0.00  0.00     0.033 A 
ATOM      6  C6  UNL d   1       5.154   2.118   3.751  0.00  0.00    -0.057 A 
ENDROOT
BRANCH   1   7
ATOM      7  N   UNL d   1       5.579  -0.009   4.789  0.00  0.00    -0.732 N 
ATOM      8  C   UNL d   1       5.693  -0.827   5.977  0.00  0.00     0.284 C 
ATOM      9  H3  UNL d   1       4.930  -0.372   4.094  0.00  0.00     0.395 HD
ENDBRANCH   1   7
TORSDOF 1
ENDMDL
