MODEL 1
REMARK minimizedAffinity 2.36378121
REMARK minimizedRMSD -1
REMARK  1 active torsions:
REMARK  status: ('A' for Active; 'I' for Inactive)
REMARK    1  A    between atoms: N_2  and  C1_3 
ROOT
ATOM      1  C1  UNL d   1       0.576   1.136  -0.164  0.00  0.00     0.143 A 
ATOM      2  C2  UNL d   1      -0.428   1.906   0.433  0.00  0.00    -0.057 A 
ATOM      3  C3  UNL d   1      -0.173   3.205   0.889  0.00  0.00     0.033 A 
ATOM      4  C4  UNL d   1       1.104   3.747   0.782  0.00  0.00    -0.042 A 
ATOM      5  C5  UNL d   1       2.123   2.991   0.215  0.00  0.00     0.033 A 
ATOM      6  C6  UNL d   1       1.860   1.697  -0.245  0.00  0.00    -0.057 A 
ENDROOT
BRANCH   1   7
ATOM      7  N   UNL d   1       0.410  -0.197  -0.548  0.00  0.00    -0.732 N 
ATOM      8  C   UNL d   1      -0.366  -1.107   0.267  0.00  0.00     0.284 C 
ATOM      9  H3  UNL d   1       0.251  -0.296  -1.548  0.00  0.00     0.395 HD
ENDBRANCH   1   7
TORSDOF 1
ENDMDL
