MODEL 1
REMARK minimizedAffinity 1.01800382
REMARK minimizedRMSD -1
REMARK  1 active torsions:
REMARK  status: ('A' for Active; 'I' for Inactive)
REMARK    1  A    between atoms: N_2  and  C1_3 
ROOT
ATOM      1  C1  UNL d   1       0.475  -0.070  -0.450  0.00  0.00     0.143 A 
ATOM      2  C2  UNL d   1      -0.319  -0.921   0.326  0.00  0.00    -0.057 A 
ATOM      3  C3  UNL d   1      -0.117  -2.306   0.323  0.00  0.00     0.033 A 
ATOM      4  C4  UNL d   1       0.868  -2.869  -0.482  0.00  0.00    -0.042 A 
ATOM      5  C5  UNL d   1       1.653  -2.045  -1.281  0.00  0.00     0.033 A 
ATOM      6  C6  UNL d   1       1.450  -0.661  -1.268  0.00  0.00    -0.057 A 
ENDROOT
BRANCH   1   7
ATOM      7  N   UNL d   1       0.259   1.306  -0.564  0.00  0.00    -0.732 N 
ATOM      8  C   UNL d   1       0.832   2.225   0.395  0.00  0.00     0.284 C 
ATOM      9  H3  UNL d   1       0.307   1.628  -1.528  0.00  0.00     0.395 HD
ENDBRANCH   1   7
TORSDOF 1
ENDMDL
