MODEL 1
REMARK minimizedAffinity 1.99750376
REMARK minimizedRMSD -1
REMARK  1 active torsions:
REMARK  status: ('A' for Active; 'I' for Inactive)
REMARK    1  A    between atoms: N_2  and  C1_3 
ROOT
ATOM      1  C1  UNL d   1       1.523  -1.967  -2.127  0.00  0.00     0.143 A 
ATOM      2  C2  UNL d   1       1.179  -2.891  -3.120  0.00  0.00    -0.057 A 
ATOM      3  C3  UNL d   1       1.071  -2.508  -4.462  0.00  0.00     0.033 A 
ATOM      4  C4  UNL d   1       1.277  -1.183  -4.832  0.00  0.00    -0.042 A 
ATOM      5  C5  UNL d   1       1.595  -0.242  -3.859  0.00  0.00     0.033 A 
ATOM      6  C6  UNL d   1       1.708  -0.633  -2.521  0.00  0.00    -0.057 A 
ENDROOT
BRANCH   1   7
ATOM      7  N   UNL d   1       1.550  -2.266  -0.762  0.00  0.00    -0.732 N 
ATOM      8  C   UNL d   1       0.324  -2.311   0.006  0.00  0.00     0.284 C 
ATOM      9  H3  UNL d   1       2.208  -3.009  -0.540  0.00  0.00     0.395 HD
ENDBRANCH   1   7
TORSDOF 1
ENDMDL
