MODEL 1
REMARK minimizedAffinity -1.05795133
REMARK minimizedRMSD -1
REMARK  1 active torsions:
REMARK  status: ('A' for Active; 'I' for Inactive)
REMARK    1  A    between atoms: C3_4  and  O_7 
ROOT
ATOM      1  C   UNL d   1       0.635  -0.833  -0.661  0.00  0.00    -0.033 A 
ATOM      2  C1  UNL d   1      -0.484  -1.428  -0.073  0.00  0.00     0.039 A 
ATOM      3  C2  UNL d   1      -0.362  -2.655   0.580  0.00  0.00    -0.080 A 
ATOM      4  C3  UNL d   1       0.882  -3.277   0.640  0.00  0.00     0.150 A 
ATOM      5  C4  UNL d   1       2.002  -2.689   0.061  0.00  0.00    -0.007 A 
ATOM      6  C5  UNL d   1       1.878  -1.463  -0.592  0.00  0.00     0.039 A 
ENDROOT
BRANCH   4   7
ATOM      7  O   UNL d   1       1.049  -4.478   1.263  0.00  0.00    -0.526 OA
ATOM      8  H5  UNL d   1       0.185  -4.778   1.591  0.00  0.00     0.418 HD
ENDBRANCH   4   7
TORSDOF 1
ENDMDL
