MODEL 1
REMARK minimizedAffinity 4.7701478
REMARK minimizedRMSD -1
REMARK  1 active torsions:
REMARK  status: ('A' for Active; 'I' for Inactive)
REMARK    1  A    between atoms: C3_4  and  O_7 
ROOT
ATOM      1  C   UNL d   1       0.679  -0.787  -1.722  0.00  0.00    -0.033 A 
ATOM      2  C1  UNL d   1      -0.112  -1.768  -1.120  0.00  0.00     0.039 A 
ATOM      3  C2  UNL d   1       0.373  -2.482  -0.023  0.00  0.00    -0.080 A 
ATOM      4  C3  UNL d   1       1.649  -2.207   0.462  0.00  0.00     0.150 A 
ATOM      5  C4  UNL d   1       2.440  -1.228  -0.130  0.00  0.00    -0.007 A 
ATOM      6  C5  UNL d   1       1.955  -0.516  -1.226  0.00  0.00     0.039 A 
ENDROOT
BRANCH   4   7
ATOM      7  O   UNL d   1       2.167  -2.881   1.527  0.00  0.00    -0.526 OA
ATOM      8  H5  UNL d   1       1.519  -3.546   1.815  0.00  0.00     0.418 HD
ENDBRANCH   4   7
TORSDOF 1
ENDMDL
