MODEL 1
REMARK minimizedAffinity 2.32125044
REMARK minimizedRMSD -1
REMARK  1 active torsions:
REMARK  status: ('A' for Active; 'I' for Inactive)
REMARK    1  A    between atoms: C3_4  and  O_7 
ROOT
ATOM      1  C   UNL d   1       0.793  -0.811  -0.306  0.00  0.00    -0.033 A 
ATOM      2  C1  UNL d   1      -0.497  -1.226  -0.644  0.00  0.00     0.039 A 
ATOM      3  C2  UNL d   1      -0.806  -1.543  -1.968  0.00  0.00    -0.080 A 
ATOM      4  C3  UNL d   1       0.183  -1.442  -2.943  0.00  0.00     0.150 A 
ATOM      5  C4  UNL d   1       1.471  -1.034  -2.612  0.00  0.00    -0.007 A 
ATOM      6  C5  UNL d   1       1.777  -0.717  -1.290  0.00  0.00     0.039 A 
ENDROOT
BRANCH   4   7
ATOM      7  O   UNL d   1      -0.072  -1.736  -4.249  0.00  0.00    -0.526 OA
ATOM      8  H5  UNL d   1      -1.010  -1.976  -4.333  0.00  0.00     0.418 HD
ENDBRANCH   4   7
TORSDOF 1
ENDMDL
