MODEL 1
REMARK minimizedAffinity -2.28765488
REMARK minimizedRMSD -1
REMARK  1 active torsions:
REMARK  status: ('A' for Active; 'I' for Inactive)
REMARK    1  A    between atoms: C3_4  and  O_7 
ROOT
ATOM      1  C   UNL d   1       0.751  -0.351  -0.821  0.00  0.00    -0.033 A 
ATOM      2  C1  UNL d   1       1.956  -0.511  -0.134  0.00  0.00     0.039 A 
ATOM      3  C2  UNL d   1       2.244  -1.721   0.501  0.00  0.00    -0.080 A 
ATOM      4  C3  UNL d   1       1.321  -2.761   0.441  0.00  0.00     0.150 A 
ATOM      5  C4  UNL d   1       0.120  -2.609  -0.244  0.00  0.00    -0.007 A 
ATOM      6  C5  UNL d   1      -0.167  -1.401  -0.877  0.00  0.00     0.039 A 
ENDROOT
BRANCH   4   7
ATOM      7  O   UNL d   1       1.556  -3.958   1.050  0.00  0.00    -0.526 OA
ATOM      8  H5  UNL d   1       2.411  -3.907   1.508  0.00  0.00     0.418 HD
ENDBRANCH   4   7
TORSDOF 1
ENDMDL
