MODEL 1
REMARK minimizedAffinity 3.41470122
REMARK minimizedRMSD -1
REMARK  1 active torsions:
REMARK  status: ('A' for Active; 'I' for Inactive)
REMARK    1  A    between atoms: C3_4  and  O_7 
ROOT
ATOM      1  C   UNL d   1      -3.832  -1.303   2.778  0.00  0.00    -0.033 A 
ATOM      2  C1  UNL d   1      -2.618  -1.149   3.451  0.00  0.00     0.039 A 
ATOM      3  C2  UNL d   1      -2.317   0.059   4.084  0.00  0.00    -0.080 A 
ATOM      4  C3  UNL d   1      -3.237   1.103   4.037  0.00  0.00     0.150 A 
ATOM      5  C4  UNL d   1      -4.450   0.955   3.371  0.00  0.00    -0.007 A 
ATOM      6  C5  UNL d   1      -4.748  -0.251   2.739  0.00  0.00     0.039 A 
ENDROOT
BRANCH   4   7
ATOM      7  O   UNL d   1      -2.986   2.302   4.635  0.00  0.00    -0.526 OA
ATOM      8  H5  UNL d   1      -2.099   2.268   5.031  0.00  0.00     0.418 HD
ENDBRANCH   4   7
TORSDOF 1
ENDMDL
