MODEL 1
REMARK minimizedAffinity 3.29872513
REMARK minimizedRMSD -1
REMARK  1 active torsions:
REMARK  status: ('A' for Active; 'I' for Inactive)
REMARK    1  A    between atoms: C3_4  and  O_7 
ROOT
ATOM      1  C   UNL d   1       2.375  -0.643  -0.759  0.00  0.00    -0.033 A 
ATOM      2  C1  UNL d   1       1.375  -1.370  -1.408  0.00  0.00     0.039 A 
ATOM      3  C2  UNL d   1       0.866  -2.533  -0.826  0.00  0.00    -0.080 A 
ATOM      4  C3  UNL d   1       1.363  -2.955   0.404  0.00  0.00     0.150 A 
ATOM      5  C4  UNL d   1       2.356  -2.233   1.057  0.00  0.00    -0.007 A 
ATOM      6  C5  UNL d   1       2.865  -1.074   0.474  0.00  0.00     0.039 A 
ENDROOT
BRANCH   4   7
ATOM      7  O   UNL d   1       0.901  -4.086   1.009  0.00  0.00    -0.526 OA
ATOM      8  H5  UNL d   1       0.238  -4.496   0.429  0.00  0.00     0.418 HD
ENDBRANCH   4   7
TORSDOF 1
ENDMDL
