MODEL 1
REMARK minimizedAffinity -2.82019091
REMARK minimizedRMSD -1
REMARK  1 active torsions:
REMARK  status: ('A' for Active; 'I' for Inactive)
REMARK    1  A    between atoms: C3_4  and  O_7 
ROOT
ATOM      1  C   UNL d   1       1.332  -0.847  -1.061  0.00  0.00    -0.033 A 
ATOM      2  C1  UNL d   1       2.024  -1.659  -0.160  0.00  0.00     0.039 A 
ATOM      3  C2  UNL d   1       1.341  -2.628   0.577  0.00  0.00    -0.080 A 
ATOM      4  C3  UNL d   1      -0.032  -2.777   0.403  0.00  0.00     0.150 A 
ATOM      5  C4  UNL d   1      -0.728  -1.975  -0.496  0.00  0.00    -0.007 A 
ATOM      6  C5  UNL d   1      -0.044  -1.007  -1.230  0.00  0.00     0.039 A 
ENDROOT
BRANCH   4   7
ATOM      7  O   UNL d   1      -0.742  -3.707   1.102  0.00  0.00    -0.526 OA
ATOM      8  H5  UNL d   1      -0.136  -4.168   1.706  0.00  0.00     0.418 HD
ENDBRANCH   4   7
TORSDOF 1
ENDMDL
