MODEL 1
REMARK minimizedAffinity -2.95901513
REMARK minimizedRMSD -1
REMARK  1 active torsions:
REMARK  status: ('A' for Active; 'I' for Inactive)
REMARK    1  A    between atoms: C3_4  and  O_7 
ROOT
ATOM      1  C   UNL d   1       1.112  -0.836  -1.366  0.00  0.00    -0.033 A 
ATOM      2  C1  UNL d   1      -0.261  -1.081  -1.443  0.00  0.00     0.039 A 
ATOM      3  C2  UNL d   1      -0.841  -2.070  -0.647  0.00  0.00    -0.080 A 
ATOM      4  C3  UNL d   1      -0.039  -2.806   0.221  0.00  0.00     0.150 A 
ATOM      5  C4  UNL d   1       1.328  -2.565   0.306  0.00  0.00    -0.007 A 
ATOM      6  C5  UNL d   1       1.906  -1.577  -0.490  0.00  0.00     0.039 A 
ENDROOT
BRANCH   4   7
ATOM      7  O   UNL d   1      -0.559  -3.785   1.014  0.00  0.00    -0.526 OA
ATOM      8  H5  UNL d   1      -1.510  -3.860   0.827  0.00  0.00     0.418 HD
ENDBRANCH   4   7
TORSDOF 1
ENDMDL
