MODEL 1
REMARK minimizedAffinity -0.282578886
REMARK minimizedRMSD -1
REMARK  1 active torsions:
REMARK  status: ('A' for Active; 'I' for Inactive)
REMARK    1  A    between atoms: C3_4  and  O_7 
ROOT
ATOM      1  C   UNL d   1      -0.217  -0.316  -1.037  0.00  0.00    -0.033 A 
ATOM      2  C1  UNL d   1      -0.750  -1.567  -0.720  0.00  0.00     0.039 A 
ATOM      3  C2  UNL d   1       0.073  -2.567  -0.198  0.00  0.00    -0.080 A 
ATOM      4  C3  UNL d   1       1.426  -2.303   0.002  0.00  0.00     0.150 A 
ATOM      5  C4  UNL d   1       1.963  -1.058  -0.308  0.00  0.00    -0.007 A 
ATOM      6  C5  UNL d   1       1.139  -0.061  -0.830  0.00  0.00     0.039 A 
ENDROOT
BRANCH   4   7
ATOM      7  O   UNL d   1       2.269  -3.249   0.504  0.00  0.00    -0.526 OA
ATOM      8  H5  UNL d   1       1.765  -4.068   0.644  0.00  0.00     0.418 HD
ENDBRANCH   4   7
TORSDOF 1
ENDMDL
