MODEL 1
REMARK minimizedAffinity -2.19992447
REMARK minimizedRMSD -1
REMARK  1 active torsions:
REMARK  status: ('A' for Active; 'I' for Inactive)
REMARK    1  A    between atoms: C3_4  and  O_7 
ROOT
ATOM      1  C   UNL d   1       0.384  -1.389  -0.023  0.00  0.00    -0.033 A 
ATOM      2  C1  UNL d   1       1.574  -1.714   0.631  0.00  0.00     0.039 A 
ATOM      3  C2  UNL d   1       1.792  -3.018   1.080  0.00  0.00    -0.080 A 
ATOM      4  C3  UNL d   1       0.814  -3.986   0.867  0.00  0.00     0.150 A 
ATOM      5  C4  UNL d   1      -0.371  -3.670   0.212  0.00  0.00    -0.007 A 
ATOM      6  C5  UNL d   1      -0.588  -2.367  -0.234  0.00  0.00     0.039 A 
ENDROOT
BRANCH   4   7
ATOM      7  O   UNL d   1       0.980  -5.271   1.291  0.00  0.00    -0.526 OA
ATOM      8  H5  UNL d   1       1.833  -5.336   1.752  0.00  0.00     0.418 HD
ENDBRANCH   4   7
TORSDOF 1
ENDMDL
