MODEL 1
REMARK minimizedAffinity -0.771798134
REMARK minimizedRMSD -1
REMARK  1 active torsions:
REMARK  status: ('A' for Active; 'I' for Inactive)
REMARK    1  A    between atoms: C3_4  and  O_7 
ROOT
ATOM      1  C   UNL d   1       0.664   2.430  -3.127  0.00  0.00    -0.033 A 
ATOM      2  C1  UNL d   1       0.313   2.061  -1.827  0.00  0.00     0.039 A 
ATOM      3  C2  UNL d   1       0.652   0.796  -1.343  0.00  0.00    -0.080 A 
ATOM      4  C3  UNL d   1       1.342  -0.089  -2.167  0.00  0.00     0.150 A 
ATOM      5  C4  UNL d   1       1.698   0.274  -3.462  0.00  0.00    -0.007 A 
ATOM      6  C5  UNL d   1       1.357   1.537  -3.944  0.00  0.00     0.039 A 
ENDROOT
BRANCH   4   7
ATOM      7  O   UNL d   1       1.690  -1.336  -1.740  0.00  0.00    -0.526 OA
ATOM      8  H5  UNL d   1       1.354  -1.457  -0.837  0.00  0.00     0.418 HD
ENDBRANCH   4   7
TORSDOF 1
ENDMDL
