MODEL 1
REMARK minimizedAffinity -1.18356097
REMARK minimizedRMSD -1
REMARK  1 active torsions:
REMARK  status: ('A' for Active; 'I' for Inactive)
REMARK    1  A    between atoms: C3_4  and  O_7 
ROOT
ATOM      1  C   UNL d   1       0.907  -1.615  -1.088  0.00  0.00    -0.033 A 
ATOM      2  C1  UNL d   1       0.894  -0.301  -0.617  0.00  0.00     0.039 A 
ATOM      3  C2  UNL d   1       0.888   0.766  -1.519  0.00  0.00    -0.080 A 
ATOM      4  C3  UNL d   1       0.894   0.504  -2.886  0.00  0.00     0.150 A 
ATOM      5  C4  UNL d   1       0.903  -0.803  -3.362  0.00  0.00    -0.007 A 
ATOM      6  C5  UNL d   1       0.911  -1.866  -2.461  0.00  0.00     0.039 A 
ENDROOT
BRANCH   4   7
ATOM      7  O   UNL d   1       0.893   1.512  -3.804  0.00  0.00    -0.526 OA
ATOM      8  H5  UNL d   1       0.915   2.360  -3.330  0.00  0.00     0.418 HD
ENDBRANCH   4   7
TORSDOF 1
ENDMDL
