MODEL 1
REMARK minimizedAffinity -2.74247432
REMARK minimizedRMSD -1
REMARK  1 active torsions:
REMARK  status: ('A' for Active; 'I' for Inactive)
REMARK    1  A    between atoms: C3_4  and  O_7 
ROOT
ATOM      1  C   UNL d   1      -4.399   5.320   4.011  0.00  0.00    -0.033 A 
ATOM      2  C1  UNL d   1      -4.874   5.225   5.320  0.00  0.00     0.039 A 
ATOM      3  C2  UNL d   1      -4.814   4.007   6.000  0.00  0.00    -0.080 A 
ATOM      4  C3  UNL d   1      -4.278   2.893   5.360  0.00  0.00     0.150 A 
ATOM      5  C4  UNL d   1      -3.799   2.981   4.057  0.00  0.00    -0.007 A 
ATOM      6  C5  UNL d   1      -3.860   4.198   3.380  0.00  0.00     0.039 A 
ENDROOT
BRANCH   4   7
ATOM      7  O   UNL d   1      -4.203   1.682   5.981  0.00  0.00    -0.526 OA
ATOM      8  H5  UNL d   1      -4.597   1.764   6.865  0.00  0.00     0.418 HD
ENDBRANCH   4   7
TORSDOF 1
ENDMDL
