MODEL 1
REMARK minimizedAffinity -3.44261599
REMARK minimizedRMSD -1
REMARK  1 active torsions:
REMARK  status: ('A' for Active; 'I' for Inactive)
REMARK    1  A    between atoms: C3_4  and  O_7 
ROOT
ATOM      1  C   UNL d   1      -4.704   6.000   4.530  0.00  0.00    -0.033 A 
ATOM      2  C1  UNL d   1      -3.757   5.293   3.786  0.00  0.00     0.039 A 
ATOM      3  C2  UNL d   1      -3.415   3.988   4.148  0.00  0.00    -0.080 A 
ATOM      4  C3  UNL d   1      -4.027   3.403   5.254  0.00  0.00     0.150 A 
ATOM      5  C4  UNL d   1      -4.974   4.101   5.996  0.00  0.00    -0.007 A 
ATOM      6  C5  UNL d   1      -5.313   5.403   5.634  0.00  0.00     0.039 A 
ENDROOT
BRANCH   4   7
ATOM      7  O   UNL d   1      -3.722   2.134   5.648  0.00  0.00    -0.526 OA
ATOM      8  H5  UNL d   1      -3.032   1.786   5.060  0.00  0.00     0.418 HD
ENDBRANCH   4   7
TORSDOF 1
ENDMDL
