MODEL 1
REMARK minimizedAffinity -0.82838583
REMARK minimizedRMSD -1
REMARK  1 active torsions:
REMARK  status: ('A' for Active; 'I' for Inactive)
REMARK    1  A    between atoms: C3_4  and  O_7 
ROOT
ATOM      1  C   UNL d   1       5.701   1.310  -5.452  0.00  0.00    -0.033 A 
ATOM      2  C1  UNL d   1       4.440   1.065  -5.999  0.00  0.00     0.039 A 
ATOM      3  C2  UNL d   1       3.468   2.068  -5.993  0.00  0.00    -0.080 A 
ATOM      4  C3  UNL d   1       3.770   3.309  -5.439  0.00  0.00     0.150 A 
ATOM      5  C4  UNL d   1       5.026   3.560  -4.896  0.00  0.00    -0.007 A 
ATOM      6  C5  UNL d   1       5.994   2.558  -4.901  0.00  0.00     0.039 A 
ENDROOT
BRANCH   4   7
ATOM      7  O   UNL d   1       2.853   4.317  -5.406  0.00  0.00    -0.526 OA
ATOM      8  H5  UNL d   1       2.023   3.990  -5.790  0.00  0.00     0.418 HD
ENDBRANCH   4   7
TORSDOF 1
ENDMDL
