MODEL 1
REMARK minimizedAffinity -2.68483877
REMARK minimizedRMSD -1
REMARK  0 active torsions:
REMARK  status: ('A' for Active; 'I' for Inactive)
ROOT
ATOM      1  C2' OXE d   1       2.397  -1.306   0.996  0.00  0.00     0.078 C 
ATOM      2  C1' OXE d   1       2.088   1.409   1.638  0.00  0.00     0.078 C 
ATOM      3  C1  OXE d   1       0.985   0.741   0.855  0.00  0.00    -0.078 A 
ATOM      4  C2  OXE d   1       1.166  -0.575   0.505  0.00  0.00    -0.078 A 
ATOM      5  C3  OXE d   1       0.156  -1.255  -0.170  0.00  0.00     0.003 A 
ATOM      6  C4  OXE d   1      -0.975  -0.569  -0.629  0.00  0.00    -0.002 A 
ATOM      7  C5  OXE d   1      -1.161   0.782  -0.317  0.00  0.00    -0.002 A 
ATOM      8  C6  OXE d   1      -0.212   1.440   0.458  0.00  0.00     0.003 A 
ENDROOT
TORSDOF 0
ENDMDL
