MODEL 1
REMARK minimizedAffinity -4.84740067
REMARK minimizedRMSD -1
REMARK  0 active torsions:
REMARK  status: ('A' for Active; 'I' for Inactive)
ROOT
ATOM      1  C2' OXE d   1      -0.236  -1.391  -1.883  0.00  0.00     0.078 C 
ATOM      2  C1' OXE d   1      -0.374   1.170  -0.741  0.00  0.00     0.078 C 
ATOM      3  C1  OXE d   1       0.555   0.166  -0.106  0.00  0.00    -0.078 A 
ATOM      4  C2  OXE d   1       0.581  -1.099  -0.643  0.00  0.00    -0.078 A 
ATOM      5  C3  OXE d   1       1.461  -2.048  -0.131  0.00  0.00     0.003 A 
ATOM      6  C4  OXE d   1       2.207  -1.773   1.022  0.00  0.00    -0.002 A 
ATOM      7  C5  OXE d   1       2.165  -0.504   1.609  0.00  0.00    -0.002 A 
ATOM      8  C6  OXE d   1       1.378   0.488   1.033  0.00  0.00     0.003 A 
ENDROOT
TORSDOF 0
ENDMDL
