MODEL 1
REMARK minimizedAffinity -2.86364865
REMARK minimizedRMSD -1
REMARK  0 active torsions:
REMARK  status: ('A' for Active; 'I' for Inactive)
ROOT
ATOM      1  C2' OXE d   1      -0.690  -1.511  -1.793  0.00  0.00     0.078 C 
ATOM      2  C1' OXE d   1      -1.236  -0.287   0.673  0.00  0.00     0.078 C 
ATOM      3  C1  OXE d   1       0.145  -0.856   0.461  0.00  0.00    -0.078 A 
ATOM      4  C2  OXE d   1       0.388  -1.495  -0.731  0.00  0.00    -0.078 A 
ATOM      5  C3  OXE d   1       1.661  -1.990  -1.001  0.00  0.00     0.003 A 
ATOM      6  C4  OXE d   1       2.650  -1.979  -0.010  0.00  0.00    -0.002 A 
ATOM      7  C5  OXE d   1       2.410  -1.369   1.226  0.00  0.00    -0.002 A 
ATOM      8  C6  OXE d   1       1.179  -0.766   1.461  0.00  0.00     0.003 A 
ENDROOT
TORSDOF 0
ENDMDL
