MODEL 1
REMARK minimizedAffinity -4.64244366
REMARK minimizedRMSD -1
REMARK  0 active torsions:
REMARK  status: ('A' for Active; 'I' for Inactive)
ROOT
ATOM      1  C2' OXE d   1      -0.725  -1.420  -2.028  0.00  0.00     0.078 C 
ATOM      2  C1' OXE d   1      -1.554   0.525  -0.181  0.00  0.00     0.078 C 
ATOM      3  C1  OXE d   1      -0.195  -0.098   0.016  0.00  0.00    -0.078 A 
ATOM      4  C2  OXE d   1       0.184  -1.083  -0.865  0.00  0.00    -0.078 A 
ATOM      5  C3  OXE d   1       1.450  -1.652  -0.761  0.00  0.00     0.003 A 
ATOM      6  C4  OXE d   1       2.279  -1.341   0.323  0.00  0.00    -0.002 A 
ATOM      7  C5  OXE d   1       1.897  -0.370   1.255  0.00  0.00    -0.002 A 
ATOM      8  C6  OXE d   1       0.684   0.290   1.092  0.00  0.00     0.003 A 
ENDROOT
TORSDOF 0
ENDMDL
