MODEL 1
REMARK minimizedAffinity -3.8616035
REMARK minimizedRMSD -1
REMARK  0 active torsions:
REMARK  status: ('A' for Active; 'I' for Inactive)
ROOT
ATOM      1  C2' OXE d   1      -0.667  -1.653  -1.550  0.00  0.00     0.078 C 
ATOM      2  C1' OXE d   1      -1.237   0.442   0.229  0.00  0.00     0.078 C 
ATOM      3  C1  OXE d   1       0.100  -0.244   0.356  0.00  0.00    -0.078 A 
ATOM      4  C2  OXE d   1       0.351  -1.299  -0.488  0.00  0.00    -0.078 A 
ATOM      5  C3  OXE d   1       1.591  -1.932  -0.450  0.00  0.00     0.003 A 
ATOM      6  C4  OXE d   1       2.523  -1.605   0.542  0.00  0.00    -0.002 A 
ATOM      7  C5  OXE d   1       2.271  -0.560   1.437  0.00  0.00    -0.002 A 
ATOM      8  C6  OXE d   1       1.084   0.157   1.330  0.00  0.00     0.003 A 
ENDROOT
TORSDOF 0
ENDMDL
