MODEL 1
REMARK minimizedAffinity -4.72604513
REMARK minimizedRMSD -1
REMARK  0 active torsions:
REMARK  status: ('A' for Active; 'I' for Inactive)
ROOT
ATOM      1  C2' OXE d   1      -0.322  -1.541  -1.993  0.00  0.00     0.078 C 
ATOM      2  C1' OXE d   1      -0.948   0.487  -0.156  0.00  0.00     0.078 C 
ATOM      3  C1  OXE d   1       0.366  -0.233   0.012  0.00  0.00    -0.078 A 
ATOM      4  C2  OXE d   1       0.644  -1.255  -0.864  0.00  0.00    -0.078 A 
ATOM      5  C3  OXE d   1       1.867  -1.916  -0.787  0.00  0.00     0.003 A 
ATOM      6  C4  OXE d   1       2.750  -1.652   0.267  0.00  0.00    -0.002 A 
ATOM      7  C5  OXE d   1       2.469  -0.642   1.193  0.00  0.00    -0.002 A 
ATOM      8  C6  OXE d   1       1.304   0.105   1.054  0.00  0.00     0.003 A 
ENDROOT
TORSDOF 0
ENDMDL
