MODEL 1
REMARK minimizedAffinity -5.36696434
REMARK minimizedRMSD -1
REMARK  0 active torsions:
REMARK  status: ('A' for Active; 'I' for Inactive)
ROOT
ATOM      1  C2' OXE d   1      -0.379  -2.252  -0.581  0.00  0.00     0.078 C 
ATOM      2  C1' OXE d   1      -1.181   0.439  -0.568  0.00  0.00     0.078 C 
ATOM      3  C1  OXE d   1       0.156   0.100   0.043  0.00  0.00    -0.078 A 
ATOM      4  C2  OXE d   1       0.519  -1.225   0.074  0.00  0.00    -0.078 A 
ATOM      5  C3  OXE d   1       1.766  -1.586   0.577  0.00  0.00     0.003 A 
ATOM      6  C4  OXE d   1       2.586  -0.632   1.191  0.00  0.00    -0.002 A 
ATOM      7  C5  OXE d   1       2.218   0.717   1.205  0.00  0.00    -0.002 A 
ATOM      8  C6  OXE d   1       1.028   1.105   0.599  0.00  0.00     0.003 A 
ENDROOT
TORSDOF 0
ENDMDL
