MODEL 1
REMARK minimizedAffinity -3.62993741
REMARK minimizedRMSD -1
REMARK  0 active torsions:
REMARK  status: ('A' for Active; 'I' for Inactive)
ROOT
ATOM      1  C2' OXE d   1       1.759   1.244   1.469  0.00  0.00     0.078 C 
ATOM      2  C1' OXE d   1       2.320  -1.495   1.216  0.00  0.00     0.078 C 
ATOM      3  C1  OXE d   1       1.089  -0.963   0.526  0.00  0.00    -0.078 A 
ATOM      4  C2  OXE d   1       0.797   0.369   0.694  0.00  0.00    -0.078 A 
ATOM      5  C3  OXE d   1      -0.297   0.923   0.035  0.00  0.00     0.003 A 
ATOM      6  C4  OXE d   1      -1.187   0.106  -0.672  0.00  0.00    -0.002 A 
ATOM      7  C5  OXE d   1      -0.929  -1.261  -0.822  0.00  0.00    -0.002 A 
ATOM      8  C6  OXE d   1       0.225  -1.802  -0.266  0.00  0.00     0.003 A 
ENDROOT
TORSDOF 0
ENDMDL
