MODEL 1
REMARK minimizedAffinity -5.27487755
REMARK minimizedRMSD -1
REMARK  0 active torsions:
REMARK  status: ('A' for Active; 'I' for Inactive)
ROOT
ATOM      1  C2' OXE d   1      -1.143   0.761  -0.374  0.00  0.00     0.078 C 
ATOM      2  C1' OXE d   1       0.777   2.718   0.231  0.00  0.00     0.078 C 
ATOM      3  C1  OXE d   1       1.211   1.273   0.258  0.00  0.00    -0.078 A 
ATOM      4  C2  OXE d   1       0.254   0.320   0.006  0.00  0.00    -0.078 A 
ATOM      5  C3  OXE d   1       0.613  -1.024  -0.035  0.00  0.00     0.003 A 
ATOM      6  C4  OXE d   1       1.905  -1.423   0.328  0.00  0.00    -0.002 A 
ATOM      7  C5  OXE d   1       2.885  -0.471   0.626  0.00  0.00    -0.002 A 
ATOM      8  C6  OXE d   1       2.567   0.880   0.555  0.00  0.00     0.003 A 
ENDROOT
TORSDOF 0
ENDMDL
