MODEL 1
REMARK minimizedAffinity -4.82549047
REMARK minimizedRMSD -1
REMARK  0 active torsions:
REMARK  status: ('A' for Active; 'I' for Inactive)
ROOT
ATOM      1  C2' OXE d   1       2.989  -1.369   0.824  0.00  0.00     0.078 C 
ATOM      2  C1' OXE d   1       2.015   1.253   0.590  0.00  0.00     0.078 C 
ATOM      3  C1  OXE d   1       1.233   0.150  -0.079  0.00  0.00    -0.078 A 
ATOM      4  C2  OXE d   1       1.742  -1.124   0.001  0.00  0.00    -0.078 A 
ATOM      5  C3  OXE d   1       1.033  -2.186  -0.553  0.00  0.00     0.003 A 
ATOM      6  C4  OXE d   1      -0.114  -1.948  -1.320  0.00  0.00    -0.002 A 
ATOM      7  C5  OXE d   1      -0.628  -0.654  -1.448  0.00  0.00    -0.002 A 
ATOM      8  C6  OXE d   1       0.009   0.399  -0.799  0.00  0.00     0.003 A 
ENDROOT
TORSDOF 0
ENDMDL
