MODEL 1
REMARK minimizedAffinity -4.16294241
REMARK minimizedRMSD -1
REMARK  0 active torsions:
REMARK  status: ('A' for Active; 'I' for Inactive)
ROOT
ATOM      1  C2' OXE d   1      -1.293   0.451  -0.851  0.00  0.00     0.078 C 
ATOM      2  C1' OXE d   1       0.649   2.171   0.220  0.00  0.00     0.078 C 
ATOM      3  C1  OXE d   1       0.957   0.695   0.189  0.00  0.00    -0.078 A 
ATOM      4  C2  OXE d   1      -0.018  -0.144  -0.294  0.00  0.00    -0.078 A 
ATOM      5  C3  OXE d   1       0.235  -1.509  -0.395  0.00  0.00     0.003 A 
ATOM      6  C4  OXE d   1       1.413  -2.053   0.132  0.00  0.00    -0.002 A 
ATOM      7  C5  OXE d   1       2.403  -1.220   0.665  0.00  0.00    -0.002 A 
ATOM      8  C6  OXE d   1       2.209   0.157   0.662  0.00  0.00     0.003 A 
ENDROOT
TORSDOF 0
ENDMDL
