MODEL 1
REMARK minimizedAffinity 3.85298705
REMARK minimizedRMSD -1
REMARK  0 active torsions:
REMARK  status: ('A' for Active; 'I' for Inactive)
ROOT
ATOM      1  C   UNL d   1       5.732   4.195  -4.818  0.00  0.00    -0.002 A 
ATOM      2  C1  UNL d   1       5.771   5.376  -5.545  0.00  0.00     0.010 A 
ATOM      3  C2  UNL d   1       4.590   5.999  -5.952  0.00  0.00     0.041 A 
ATOM      4  C3  UNL d   1       3.356   5.411  -5.610  0.00  0.00    -0.075 A 
ATOM      5  S   UNL d   1       1.782   5.997  -6.000  0.00  0.00     0.015 SA
ATOM      6  C4  UNL d   1       1.020   4.694  -5.209  0.00  0.00     0.022 A 
ATOM      7  C5  UNL d   1       1.929   3.823  -4.656  0.00  0.00     0.026 A 
ATOM      8  C6  UNL d   1       3.291   4.223  -4.878  0.00  0.00    -0.082 A 
ATOM      9  C7  UNL d   1       4.506   3.614  -4.481  0.00  0.00     0.045 A 
ENDROOT
TORSDOF 0
ENDMDL
