MODEL 1
REMARK minimizedAffinity 5.51038361
REMARK minimizedRMSD -1
REMARK  0 active torsions:
REMARK  status: ('A' for Active; 'I' for Inactive)
ROOT
ATOM      1  C   UNL d   1       3.479   1.991  -3.949  0.00  0.00    -0.002 A 
ATOM      2  C1  UNL d   1       2.243   2.509  -4.309  0.00  0.00     0.010 A 
ATOM      3  C2  UNL d   1       2.151   3.748  -4.948  0.00  0.00     0.041 A 
ATOM      4  C3  UNL d   1       3.334   4.462  -5.223  0.00  0.00    -0.075 A 
ATOM      5  S   UNL d   1       3.465   5.997  -5.997  0.00  0.00     0.015 SA
ATOM      6  C4  UNL d   1       5.164   6.000  -5.869  0.00  0.00     0.022 A 
ATOM      7  C5  UNL d   1       5.637   4.866  -5.254  0.00  0.00     0.026 A 
ATOM      8  C6  UNL d   1       4.590   3.960  -4.871  0.00  0.00    -0.082 A 
ATOM      9  C7  UNL d   1       4.650   2.702  -4.224  0.00  0.00     0.045 A 
ENDROOT
TORSDOF 0
ENDMDL
