MODEL 1
REMARK minimizedAffinity 6.59404135
REMARK minimizedRMSD -1
REMARK  0 active torsions:
REMARK  status: ('A' for Active; 'I' for Inactive)
ROOT
ATOM      1  C   UNL d   1       4.445   1.473  -4.142  0.00  0.00    -0.002 A 
ATOM      2  C1  UNL d   1       4.329   1.967  -2.851  0.00  0.00     0.010 A 
ATOM      3  C2  UNL d   1       4.101   3.327  -2.629  0.00  0.00     0.041 A 
ATOM      4  C3  UNL d   1       3.988   4.189  -3.737  0.00  0.00    -0.075 A 
ATOM      5  S   UNL d   1       3.708   5.890  -3.707  0.00  0.00     0.015 SA
ATOM      6  C4  UNL d   1       3.736   6.000  -5.407  0.00  0.00     0.022 A 
ATOM      7  C5  UNL d   1       3.952   4.778  -6.000  0.00  0.00     0.026 A 
ATOM      8  C6  UNL d   1       4.101   3.714  -5.047  0.00  0.00    -0.082 A 
ATOM      9  C7  UNL d   1       4.333   2.331  -5.239  0.00  0.00     0.045 A 
ENDROOT
TORSDOF 0
ENDMDL
