MODEL 1
REMARK minimizedAffinity 3.94039273
REMARK minimizedRMSD -1
REMARK  0 active torsions:
REMARK  status: ('A' for Active; 'I' for Inactive)
ROOT
ATOM      1  C   UNL d   1       1.258   4.937  -5.575  0.00  0.00    -0.002 A 
ATOM      2  C1  UNL d   1       1.486   3.781  -4.842  0.00  0.00     0.010 A 
ATOM      3  C2  UNL d   1       2.787   3.391  -4.517  0.00  0.00     0.041 A 
ATOM      4  C3  UNL d   1       3.865   4.192  -4.944  0.00  0.00    -0.075 A 
ATOM      5  S   UNL d   1       5.543   3.912  -4.662  0.00  0.00     0.015 SA
ATOM      6  C4  UNL d   1       5.996   5.321  -5.508  0.00  0.00     0.022 A 
ATOM      7  C5  UNL d   1       4.906   6.000  -6.000  0.00  0.00     0.026 A 
ATOM      8  C6  UNL d   1       3.660   5.361  -5.683  0.00  0.00    -0.082 A 
ATOM      9  C7  UNL d   1       2.330   5.728  -5.997  0.00  0.00     0.045 A 
ENDROOT
TORSDOF 0
ENDMDL
