MODEL 1
REMARK minimizedAffinity 12.9389105
REMARK minimizedRMSD -1
REMARK  0 active torsions:
REMARK  status: ('A' for Active; 'I' for Inactive)
ROOT
ATOM      1  C   UNL d   1       2.523   6.000  -4.987  0.00  0.00    -0.002 A 
ATOM      2  C1  UNL d   1       3.265   5.391  -5.989  0.00  0.00     0.010 A 
ATOM      3  C2  UNL d   1       3.870   4.151  -5.771  0.00  0.00     0.041 A 
ATOM      4  C3  UNL d   1       3.712   3.527  -4.518  0.00  0.00    -0.075 A 
ATOM      5  S   UNL d   1       4.361   2.007  -4.025  0.00  0.00     0.015 SA
ATOM      6  C4  UNL d   1       3.667   2.130  -2.473  0.00  0.00     0.022 A 
ATOM      7  C5  UNL d   1       2.955   3.296  -2.318  0.00  0.00     0.026 A 
ATOM      8  C6  UNL d   1       2.969   4.120  -3.494  0.00  0.00    -0.082 A 
ATOM      9  C7  UNL d   1       2.369   5.377  -3.746  0.00  0.00     0.045 A 
ENDROOT
TORSDOF 0
ENDMDL
