MODEL 1
REMARK minimizedAffinity 9.15951538
REMARK minimizedRMSD -1
REMARK  0 active torsions:
REMARK  status: ('A' for Active; 'I' for Inactive)
ROOT
ATOM      1  C   UNL d   1      -2.256   0.651   2.634  0.00  0.00    -0.002 A 
ATOM      2  C1  UNL d   1      -1.717   1.916   2.819  0.00  0.00     0.010 A 
ATOM      3  C2  UNL d   1      -2.276   2.798   3.747  0.00  0.00     0.041 A 
ATOM      4  C3  UNL d   1      -3.395   2.381   4.494  0.00  0.00    -0.075 A 
ATOM      5  S   UNL d   1      -4.246   3.290   5.687  0.00  0.00     0.015 SA
ATOM      6  C4  UNL d   1      -5.344   2.020   5.980  0.00  0.00     0.022 A 
ATOM      7  C5  UNL d   1      -5.083   0.922   5.195  0.00  0.00     0.026 A 
ATOM      8  C6  UNL d   1      -3.955   1.111   4.326  0.00  0.00    -0.082 A 
ATOM      9  C7  UNL d   1      -3.366   0.241   3.377  0.00  0.00     0.045 A 
ENDROOT
TORSDOF 0
ENDMDL
