MODEL 1
REMARK minimizedAffinity 17.2830696
REMARK minimizedRMSD -1
REMARK  0 active torsions:
REMARK  status: ('A' for Active; 'I' for Inactive)
ROOT
ATOM      1  C   UNL d   1       3.703   1.683  -4.171  0.00  0.00    -0.002 A 
ATOM      2  C1  UNL d   1       2.505   2.244  -3.753  0.00  0.00     0.010 A 
ATOM      3  C2  UNL d   1       2.207   3.578  -4.038  0.00  0.00     0.041 A 
ATOM      4  C3  UNL d   1       3.143   4.346  -4.759  0.00  0.00    -0.075 A 
ATOM      5  S   UNL d   1       2.993   6.000  -5.223  0.00  0.00     0.015 SA
ATOM      6  C4  UNL d   1       4.516   6.000  -5.989  0.00  0.00     0.022 A 
ATOM      7  C5  UNL d   1       5.137   4.777  -5.901  0.00  0.00     0.026 A 
ATOM      8  C6  UNL d   1       4.356   3.803  -5.191  0.00  0.00    -0.082 A 
ATOM      9  C7  UNL d   1       4.629   2.448  -4.886  0.00  0.00     0.045 A 
ENDROOT
TORSDOF 0
ENDMDL
