MODEL 1
REMARK minimizedAffinity 8.60694504
REMARK minimizedRMSD -1
REMARK  0 active torsions:
REMARK  status: ('A' for Active; 'I' for Inactive)
ROOT
ATOM      1  C   UNL d   1      -4.152   1.111   3.644  0.00  0.00    -0.002 A 
ATOM      2  C1  UNL d   1      -3.597  -0.159   3.723  0.00  0.00     0.010 A 
ATOM      3  C2  UNL d   1      -2.279  -0.384   3.320  0.00  0.00     0.041 A 
ATOM      4  C3  UNL d   1      -1.520   0.700   2.835  0.00  0.00    -0.075 A 
ATOM      5  S   UNL d   1       0.114   0.661   2.287  0.00  0.00     0.015 SA
ATOM      6  C4  UNL d   1       0.115   2.329   1.937  0.00  0.00     0.022 A 
ATOM      7  C5  UNL d   1      -1.095   2.917   2.225  0.00  0.00     0.026 A 
ATOM      8  C6  UNL d   1      -2.056   1.987   2.748  0.00  0.00    -0.082 A 
ATOM      9  C7  UNL d   1      -3.396   2.183   3.162  0.00  0.00     0.045 A 
ENDROOT
TORSDOF 0
ENDMDL
