MODEL 1
REMARK minimizedAffinity -2.31106424
REMARK minimizedRMSD -1
REMARK  0 active torsions:
REMARK  status: ('A' for Active; 'I' for Inactive)
ROOT
ATOM      1  C   UNL d   1      -3.480   0.463   3.046  0.00  0.00    -0.002 A 
ATOM      2  C1  UNL d   1      -3.061  -0.736   2.486  0.00  0.00     0.010 A 
ATOM      3  C2  UNL d   1      -1.810  -0.835   1.873  0.00  0.00     0.041 A 
ATOM      4  C3  UNL d   1      -0.979   0.302   1.834  0.00  0.00    -0.075 A 
ATOM      5  S   UNL d   1       0.594   0.415   1.137  0.00  0.00     0.015 SA
ATOM      6  C4  UNL d   1       0.748   2.057   1.567  0.00  0.00     0.022 A 
ATOM      7  C5  UNL d   1      -0.365   2.524   2.226  0.00  0.00     0.026 A 
ATOM      8  C6  UNL d   1      -1.378   1.520   2.392  0.00  0.00    -0.082 A 
ATOM      9  C7  UNL d   1      -2.652   1.588   3.005  0.00  0.00     0.045 A 
ENDROOT
TORSDOF 0
ENDMDL
