MODEL 1
REMARK minimizedAffinity 8.40713406
REMARK minimizedRMSD -1
REMARK  0 active torsions:
REMARK  status: ('A' for Active; 'I' for Inactive)
ROOT
ATOM      1  C   UNL d   1      -1.257   2.341   2.340  0.00  0.00    -0.002 A 
ATOM      2  C1  UNL d   1      -2.560   2.366   2.816  0.00  0.00     0.010 A 
ATOM      3  C2  UNL d   1      -3.221   1.179   3.139  0.00  0.00     0.041 A 
ATOM      4  C3  UNL d   1      -2.542  -0.045   2.976  0.00  0.00    -0.075 A 
ATOM      5  S   UNL d   1      -3.151  -1.623   3.308  0.00  0.00     0.015 SA
ATOM      6  C4  UNL d   1      -1.694  -2.367   2.827  0.00  0.00     0.022 A 
ATOM      7  C5  UNL d   1      -0.756  -1.449   2.420  0.00  0.00     0.026 A 
ATOM      8  C6  UNL d   1      -1.229  -0.095   2.499  0.00  0.00    -0.082 A 
ATOM      9  C7  UNL d   1      -0.587   1.125   2.180  0.00  0.00     0.045 A 
ENDROOT
TORSDOF 0
ENDMDL
