MODEL 1
REMARK minimizedAffinity 8.98533249
REMARK minimizedRMSD -1
REMARK  0 active torsions:
REMARK  status: ('A' for Active; 'I' for Inactive)
ROOT
ATOM      1  C   UNL d   1      -0.692   2.457   1.841  0.00  0.00    -0.002 A 
ATOM      2  C1  UNL d   1      -1.380   3.468   1.186  0.00  0.00     0.010 A 
ATOM      3  C2  UNL d   1      -2.675   3.815   1.578  0.00  0.00     0.041 A 
ATOM      4  C3  UNL d   1      -3.271   3.122   2.650  0.00  0.00    -0.075 A 
ATOM      5  S   UNL d   1      -4.846   3.376   3.304  0.00  0.00     0.015 SA
ATOM      6  C4  UNL d   1      -4.641   2.149   4.469  0.00  0.00     0.022 A 
ATOM      7  C5  UNL d   1      -3.407   1.549   4.375  0.00  0.00     0.026 A 
ATOM      8  C6  UNL d   1      -2.597   2.101   3.326  0.00  0.00    -0.082 A 
ATOM      9  C7  UNL d   1      -1.286   1.773   2.904  0.00  0.00     0.045 A 
ENDROOT
TORSDOF 0
ENDMDL
