MODEL 1
REMARK minimizedAffinity 5.20872259
REMARK minimizedRMSD -1
REMARK  0 active torsions:
REMARK  status: ('A' for Active; 'I' for Inactive)
ROOT
ATOM      1  C   UNL d   1      -2.975   1.337   2.891  0.00  0.00    -0.002 A 
ATOM      2  C1  UNL d   1      -2.578   0.045   3.205  0.00  0.00     0.010 A 
ATOM      3  C2  UNL d   1      -1.254  -0.357   3.018  0.00  0.00     0.041 A 
ATOM      4  C3  UNL d   1      -0.326   0.571   2.507  0.00  0.00    -0.075 A 
ATOM      5  S   UNL d   1       1.348   0.302   2.195  0.00  0.00     0.015 SA
ATOM      6  C4  UNL d   1       1.577   1.897   1.639  0.00  0.00     0.022 A 
ATOM      7  C5  UNL d   1       0.415   2.630   1.682  0.00  0.00     0.026 A 
ATOM      8  C6  UNL d   1      -0.701   1.878   2.184  0.00  0.00    -0.082 A 
ATOM      9  C7  UNL d   1      -2.051   2.255   2.384  0.00  0.00     0.045 A 
ENDROOT
TORSDOF 0
ENDMDL
