MODEL 1
REMARK minimizedAffinity 10.4194212
REMARK minimizedRMSD -1
REMARK  0 active torsions:
REMARK  status: ('A' for Active; 'I' for Inactive)
ROOT
ATOM      1  C   UNL d   1      -1.314   2.722   2.233  0.00  0.00    -0.002 A 
ATOM      2  C1  UNL d   1      -1.312   1.344   2.069  0.00  0.00     0.010 A 
ATOM      3  C2  UNL d   1      -2.302   0.557   2.661  0.00  0.00     0.041 A 
ATOM      4  C3  UNL d   1      -3.305   1.184   3.426  0.00  0.00    -0.075 A 
ATOM      5  S   UNL d   1      -4.618   0.422   4.243  0.00  0.00     0.015 SA
ATOM      6  C4  UNL d   1      -5.214   1.908   4.827  0.00  0.00     0.022 A 
ATOM      7  C5  UNL d   1      -4.442   2.970   4.419  0.00  0.00     0.026 A 
ATOM      8  C6  UNL d   1      -3.329   2.570   3.604  0.00  0.00    -0.082 A 
ATOM      9  C7  UNL d   1      -2.311   3.341   2.992  0.00  0.00     0.045 A 
ENDROOT
TORSDOF 0
ENDMDL
