MODEL 1
REMARK minimizedAffinity 7.22812557
REMARK minimizedRMSD -1
REMARK  1 active torsions:
REMARK  status: ('A' for Active; 'I' for Inactive)
REMARK    1  A    between atoms: C1_2  and  C2_3 
ROOT
ATOM      1  C2  UNL d   1       1.406  -4.424   2.644  0.00  0.00    -0.077 A 
ATOM      2  C3  UNL d   1       1.195  -3.044   2.512  0.00  0.00     0.002 A 
ATOM      3  C4  UNL d   1       0.650  -2.309   3.566  0.00  0.00     0.002 A 
ATOM      4  C5  UNL d   1       0.316  -2.943   4.761  0.00  0.00    -0.004 A 
ATOM      5  C6  UNL d   1       0.520  -4.316   4.901  0.00  0.00     0.002 A 
ATOM      6  C7  UNL d   1       1.063  -5.052   3.848  0.00  0.00     0.002 A 
ENDROOT
BRANCH   1   7
ATOM      7  C1  UNL d   1       2.039  -5.210   1.525  0.00  0.00     0.055 C 
ATOM      8  C   UNL d   1       1.012  -5.598   0.471  0.00  0.00     0.019 C 
ENDBRANCH   1   7
TORSDOF 1
ENDMDL
