MODEL 1
REMARK minimizedAffinity 14.5180521
REMARK minimizedRMSD -1
REMARK  1 active torsions:
REMARK  status: ('A' for Active; 'I' for Inactive)
REMARK    1  A    between atoms: C1_2  and  C2_3 
ROOT
ATOM      1  C2  UNL d   1       2.164   3.650  -0.797  0.00  0.00    -0.077 A 
ATOM      2  C3  UNL d   1       3.063   4.329  -1.632  0.00  0.00     0.002 A 
ATOM      3  C4  UNL d   1       2.663   5.482  -2.310  0.00  0.00     0.002 A 
ATOM      4  C5  UNL d   1       1.366   5.967  -2.158  0.00  0.00    -0.004 A 
ATOM      5  C6  UNL d   1       0.464   5.298  -1.332  0.00  0.00     0.002 A 
ATOM      6  C7  UNL d   1       0.862   4.145  -0.654  0.00  0.00     0.002 A 
ENDROOT
BRANCH   1   7
ATOM      7  C1  UNL d   1       2.608   2.434  -0.026  0.00  0.00     0.055 C 
ATOM      8  C   UNL d   1       1.906   2.347   1.321  0.00  0.00     0.019 C 
ENDBRANCH   1   7
TORSDOF 1
ENDMDL
