MODEL 1
REMARK minimizedAffinity 7.55450392
REMARK minimizedRMSD -1
REMARK  1 active torsions:
REMARK  status: ('A' for Active; 'I' for Inactive)
REMARK    1  A    between atoms: C1_2  and  C2_3 
ROOT
ATOM      1  C2  UNL d   1       3.070   1.664  -0.113  0.00  0.00    -0.077 A 
ATOM      2  C3  UNL d   1       3.746   0.470  -0.403  0.00  0.00     0.002 A 
ATOM      3  C4  UNL d   1       3.569  -0.655   0.405  0.00  0.00     0.002 A 
ATOM      4  C5  UNL d   1       2.715  -0.598   1.504  0.00  0.00    -0.004 A 
ATOM      5  C6  UNL d   1       2.040   0.585   1.802  0.00  0.00     0.002 A 
ATOM      6  C7  UNL d   1       2.216   1.711   0.996  0.00  0.00     0.002 A 
ENDROOT
BRANCH   1   7
ATOM      7  C1  UNL d   1       3.221   2.864  -1.012  0.00  0.00     0.055 C 
ATOM      8  C   UNL d   1       1.919   3.645  -1.116  0.00  0.00     0.019 C 
ENDBRANCH   1   7
TORSDOF 1
ENDMDL
