MODEL 1
REMARK minimizedAffinity -3.84612703
REMARK minimizedRMSD -1
REMARK  1 active torsions:
REMARK  status: ('A' for Active; 'I' for Inactive)
REMARK    1  A    between atoms: C1_2  and  C2_3 
ROOT
ATOM      1  C2  UNL d   1      -3.703   0.344  -0.213  0.00  0.00    -0.076 A 
ATOM      2  C3  UNL d   1      -3.886   0.102  -1.586  0.00  0.00     0.004 A 
ATOM      3  C4  UNL d   1      -5.007  -0.585  -2.050  0.00  0.00    -0.003 A 
ATOM      4  C5  UNL d   1      -5.963  -1.040  -1.149  0.00  0.00     0.000 A 
ATOM      5  C6  UNL d   1      -5.806  -0.793   0.215  0.00  0.00     0.000 A 
ATOM      6  C7  UNL d   1      -4.690  -0.088   0.698  0.00  0.00    -0.073 A 
ATOM      7  C8  UNL d   1      -4.569   0.145   2.179  0.00  0.00     0.078 C 
ENDROOT
BRANCH   1   8
ATOM      8  C1  UNL d   1      -2.454   1.070   0.234  0.00  0.00     0.053 C 
ATOM      9  C   UNL d   1      -1.181   0.362  -0.202  0.00  0.00     0.018 C 
ENDBRANCH   1   8
TORSDOF 1
ENDMDL
