MODEL 1
REMARK minimizedAffinity -4.8643527
REMARK minimizedRMSD -1
REMARK  1 active torsions:
REMARK  status: ('A' for Active; 'I' for Inactive)
REMARK    1  A    between atoms: C1_2  and  C2_3 
ROOT
ATOM      1  C2  UNL d   1       0.990   0.482   0.299  0.00  0.00    -0.076 A 
ATOM      2  C3  UNL d   1       0.770  -0.906   0.241  0.00  0.00     0.004 A 
ATOM      3  C4  UNL d   1       1.797  -1.807   0.515  0.00  0.00    -0.003 A 
ATOM      4  C5  UNL d   1       3.061  -1.336   0.851  0.00  0.00     0.000 A 
ATOM      5  C6  UNL d   1       3.293   0.037   0.930  0.00  0.00     0.000 A 
ATOM      6  C7  UNL d   1       2.265   0.959   0.673  0.00  0.00    -0.073 A 
ATOM      7  C8  UNL d   1       2.572   2.428   0.767  0.00  0.00     0.078 C 
ENDROOT
BRANCH   1   8
ATOM      8  C1  UNL d   1      -0.154   1.411  -0.035  0.00  0.00     0.053 C 
ATOM      9  C   UNL d   1      -1.510   0.732   0.081  0.00  0.00     0.018 C 
ENDBRANCH   1   8
TORSDOF 1
ENDMDL
