MODEL 1
REMARK minimizedAffinity -2.64593816
REMARK minimizedRMSD -1
REMARK  1 active torsions:
REMARK  status: ('A' for Active; 'I' for Inactive)
REMARK    1  A    between atoms: C1_2  and  C2_3 
ROOT
ATOM      1  C2  UNL d   1       0.900   0.106  -0.124  0.00  0.00    -0.076 A 
ATOM      2  C3  UNL d   1       1.270   1.462  -0.136  0.00  0.00     0.004 A 
ATOM      3  C4  UNL d   1       2.610   1.840  -0.205  0.00  0.00    -0.003 A 
ATOM      4  C5  UNL d   1       3.602   0.868  -0.264  0.00  0.00     0.000 A 
ATOM      5  C6  UNL d   1       3.253  -0.482  -0.270  0.00  0.00     0.000 A 
ATOM      6  C7  UNL d   1       1.906  -0.880  -0.217  0.00  0.00    -0.073 A 
ATOM      7  C8  UNL d   1       1.587  -2.350  -0.221  0.00  0.00     0.078 C 
ENDROOT
BRANCH   1   8
ATOM      8  C1  UNL d   1      -0.567  -0.244  -0.020  0.00  0.00     0.053 C 
ATOM      9  C   UNL d   1      -1.403   0.904   0.523  0.00  0.00     0.018 C 
ENDBRANCH   1   8
TORSDOF 1
ENDMDL
