MODEL 1
REMARK minimizedAffinity -3.93698621
REMARK minimizedRMSD -1
REMARK  1 active torsions:
REMARK  status: ('A' for Active; 'I' for Inactive)
REMARK    1  A    between atoms: C1_2  and  C2_3 
ROOT
ATOM      1  C2  UNL d   1      -2.592   0.808   0.240  0.00  0.00    -0.076 A 
ATOM      2  C3  UNL d   1      -3.189   0.024  -0.763  0.00  0.00     0.004 A 
ATOM      3  C4  UNL d   1      -4.516  -0.389  -0.656  0.00  0.00    -0.003 A 
ATOM      4  C5  UNL d   1      -5.267  -0.025   0.456  0.00  0.00     0.000 A 
ATOM      5  C6  UNL d   1      -4.696   0.767   1.452  0.00  0.00     0.000 A 
ATOM      6  C7  UNL d   1      -3.365   1.206   1.351  0.00  0.00    -0.073 A 
ATOM      7  C8  UNL d   1      -2.798   2.052   2.458  0.00  0.00     0.078 C 
ENDROOT
BRANCH   1   8
ATOM      8  C1  UNL d   1      -1.141   1.203   0.082  0.00  0.00     0.053 C 
ATOM      9  C   UNL d   1      -0.232   0.006  -0.150  0.00  0.00     0.018 C 
ENDBRANCH   1   8
TORSDOF 1
ENDMDL
