MODEL 1
REMARK minimizedAffinity -4.94588137
REMARK minimizedRMSD -1
REMARK  1 active torsions:
REMARK  status: ('A' for Active; 'I' for Inactive)
REMARK    1  A    between atoms: C1_2  and  C2_3 
ROOT
ATOM      1  C2  UNL d   1       1.210   0.221   0.351  0.00  0.00    -0.076 A 
ATOM      2  C3  UNL d   1       1.089  -1.180   0.375  0.00  0.00     0.004 A 
ATOM      3  C4  UNL d   1       2.218  -1.997   0.393  0.00  0.00    -0.003 A 
ATOM      4  C5  UNL d   1       3.487  -1.427   0.388  0.00  0.00     0.000 A 
ATOM      5  C6  UNL d   1       3.625  -0.040   0.383  0.00  0.00     0.000 A 
ATOM      6  C7  UNL d   1       2.497   0.799   0.381  0.00  0.00    -0.073 A 
ATOM      7  C8  UNL d   1       2.705   2.288   0.369  0.00  0.00     0.078 C 
ENDROOT
BRANCH   1   8
ATOM      8  C1  UNL d   1      -0.049   1.056   0.305  0.00  0.00     0.053 C 
ATOM      9  C   UNL d   1      -1.277   0.238  -0.065  0.00  0.00     0.018 C 
ENDBRANCH   1   8
TORSDOF 1
ENDMDL
