MODEL 1
REMARK minimizedAffinity -5.06244755
REMARK minimizedRMSD -1
REMARK  1 active torsions:
REMARK  status: ('A' for Active; 'I' for Inactive)
REMARK    1  A    between atoms: C1_2  and  C2_3 
ROOT
ATOM      1  C2  UNL d   1       1.322   0.234  -0.440  0.00  0.00    -0.076 A 
ATOM      2  C3  UNL d   1       2.046   1.437  -0.372  0.00  0.00     0.004 A 
ATOM      3  C4  UNL d   1       3.296   1.488   0.242  0.00  0.00    -0.003 A 
ATOM      4  C5  UNL d   1       3.843   0.336   0.797  0.00  0.00     0.000 A 
ATOM      5  C6  UNL d   1       3.146  -0.870   0.724  0.00  0.00     0.000 A 
ATOM      6  C7  UNL d   1       1.892  -0.942   0.094  0.00  0.00    -0.073 A 
ATOM      7  C8  UNL d   1       1.182  -2.267   0.048  0.00  0.00     0.078 C 
ENDROOT
BRANCH   1   8
ATOM      8  C1  UNL d   1      -0.041   0.245  -1.095  0.00  0.00     0.053 C 
ATOM      9  C   UNL d   1      -1.134   0.736  -0.157  0.00  0.00     0.018 C 
ENDBRANCH   1   8
TORSDOF 1
ENDMDL
