MODEL 1
REMARK minimizedAffinity -5.05724525
REMARK minimizedRMSD -1
REMARK  1 active torsions:
REMARK  status: ('A' for Active; 'I' for Inactive)
REMARK    1  A    between atoms: C1_2  and  C2_3 
ROOT
ATOM      1  C2  UNL d   1       0.440   0.111  -0.382  0.00  0.00    -0.076 A 
ATOM      2  C3  UNL d   1       0.587  -1.285  -0.311  0.00  0.00     0.004 A 
ATOM      3  C4  UNL d   1       1.673  -1.860   0.347  0.00  0.00    -0.003 A 
ATOM      4  C5  UNL d   1       2.630  -1.047   0.945  0.00  0.00     0.000 A 
ATOM      5  C6  UNL d   1       2.491   0.340   0.899  0.00  0.00     0.000 A 
ATOM      6  C7  UNL d   1       1.394   0.935   0.253  0.00  0.00    -0.073 A 
ATOM      7  C8  UNL d   1       1.298   2.435   0.229  0.00  0.00     0.078 C 
ENDROOT
BRANCH   1   8
ATOM      8  C1  UNL d   1      -0.744   0.677  -1.133  0.00  0.00     0.053 C 
ATOM      9  C   UNL d   1      -2.070   0.343  -0.467  0.00  0.00     0.018 C 
ENDBRANCH   1   8
TORSDOF 1
ENDMDL
