MODEL 1
REMARK minimizedAffinity -5.58422613
REMARK minimizedRMSD -1
REMARK  1 active torsions:
REMARK  status: ('A' for Active; 'I' for Inactive)
REMARK    1  A    between atoms: C1_2  and  C2_3 
ROOT
ATOM      1  C2  UNL d   1       0.740  -0.119   1.020  0.00  0.00    -0.076 A 
ATOM      2  C3  UNL d   1       0.721  -1.496   1.302  0.00  0.00     0.004 A 
ATOM      3  C4  UNL d   1       1.864  -2.277   1.142  0.00  0.00    -0.003 A 
ATOM      4  C5  UNL d   1       3.046  -1.693   0.697  0.00  0.00     0.000 A 
ATOM      5  C6  UNL d   1       3.087  -0.325   0.430  0.00  0.00     0.000 A 
ATOM      6  C7  UNL d   1       1.947   0.479   0.602  0.00  0.00    -0.073 A 
ATOM      7  C8  UNL d   1       2.047   1.948   0.292  0.00  0.00     0.078 C 
ENDROOT
BRANCH   1   8
ATOM      8  C1  UNL d   1      -0.538   0.672   1.186  0.00  0.00     0.053 C 
ATOM      9  C   UNL d   1      -1.451   0.565  -0.026  0.00  0.00     0.018 C 
ENDBRANCH   1   8
TORSDOF 1
ENDMDL
