MODEL 1
REMARK minimizedAffinity -4.50427628
REMARK minimizedRMSD -1
REMARK  0 active torsions:
REMARK  status: ('A' for Active; 'I' for Inactive)
ROOT
ATOM      1  C1  DEN d   1      -1.137   1.255  -0.769  0.00  0.00     0.130 A 
ATOM      2  C2  DEN d   1      -1.785  -0.006  -0.420  0.00  0.00    -0.031 A 
ATOM      3  C3  DEN d   1      -0.780  -0.872   0.228  0.00  0.00     0.027 A 
ATOM      4  C4  DEN d   1       1.703  -0.383   0.727  0.00  0.00     0.027 A 
ATOM      5  C5  DEN d   1       2.710   0.549   0.605  0.00  0.00    -0.003 A 
ATOM      6  C6  DEN d   1       2.516   1.758  -0.008  0.00  0.00     0.001 A 
ATOM      7  C7  DEN d   1       1.274   2.086  -0.484  0.00  0.00     0.017 A 
ATOM      8  C8  DEN d   1       0.255   1.149  -0.371  0.00  0.00    -0.094 A 
ATOM      9  C9  DEN d   1       0.468  -0.063   0.263  0.00  0.00    -0.072 A 
ENDROOT
TORSDOF 0
ENDMDL
