MODEL 1
REMARK minimizedAffinity -5.69745207
REMARK minimizedRMSD -1
REMARK  0 active torsions:
REMARK  status: ('A' for Active; 'I' for Inactive)
ROOT
ATOM      1  C1  DEN d   1      -0.937  -0.826   0.590  0.00  0.00     0.130 A 
ATOM      2  C2  DEN d   1      -0.864   0.449  -0.118  0.00  0.00    -0.031 A 
ATOM      3  C3  DEN d   1       0.478   1.022   0.111  0.00  0.00     0.027 A 
ATOM      4  C4  DEN d   1       2.440   0.062   1.483  0.00  0.00     0.027 A 
ATOM      5  C5  DEN d   1       2.847  -0.988   2.276  0.00  0.00    -0.003 A 
ATOM      6  C6  DEN d   1       2.018  -2.033   2.587  0.00  0.00     0.001 A 
ATOM      7  C7  DEN d   1       0.752  -2.072   2.066  0.00  0.00     0.017 A 
ATOM      8  C8  DEN d   1       0.331  -1.013   1.272  0.00  0.00    -0.094 A 
ATOM      9  C9  DEN d   1       1.188   0.027   0.959  0.00  0.00    -0.072 A 
ENDROOT
TORSDOF 0
ENDMDL
