MODEL 1
REMARK minimizedAffinity -3.86783004
REMARK minimizedRMSD -1
REMARK  0 active torsions:
REMARK  status: ('A' for Active; 'I' for Inactive)
ROOT
ATOM      1  C1  DEN d   1      -0.644  -1.038   0.408  0.00  0.00     0.130 A 
ATOM      2  C2  DEN d   1      -0.838   0.026  -0.573  0.00  0.00    -0.031 A 
ATOM      3  C3  DEN d   1       0.347   0.907  -0.530  0.00  0.00     0.027 A 
ATOM      4  C4  DEN d   1       2.451   0.725   0.950  0.00  0.00     0.027 A 
ATOM      5  C5  DEN d   1       3.065  -0.004   1.945  0.00  0.00    -0.003 A 
ATOM      6  C6  DEN d   1       2.475  -1.100   2.516  0.00  0.00     0.001 A 
ATOM      7  C7  DEN d   1       1.253  -1.526   2.065  0.00  0.00     0.017 A 
ATOM      8  C8  DEN d   1       0.625  -0.791   1.068  0.00  0.00    -0.094 A 
ATOM      9  C9  DEN d   1       1.243   0.307   0.495  0.00  0.00    -0.072 A 
ENDROOT
TORSDOF 0
ENDMDL
