MODEL 1
REMARK minimizedAffinity -4.19252157
REMARK minimizedRMSD -1
REMARK  0 active torsions:
REMARK  status: ('A' for Active; 'I' for Inactive)
ROOT
ATOM      1  C1  DEN d   1      -0.612  -0.676  -0.089  0.00  0.00     0.130 A 
ATOM      2  C2  DEN d   1      -0.225   0.566  -0.753  0.00  0.00    -0.031 A 
ATOM      3  C3  DEN d   1       1.015   1.056  -0.118  0.00  0.00     0.027 A 
ATOM      4  C4  DEN d   1       2.369   0.014   1.814  0.00  0.00     0.027 A 
ATOM      5  C5  DEN d   1       2.427  -1.033   2.707  0.00  0.00    -0.003 A 
ATOM      6  C6  DEN d   1       1.466  -2.008   2.753  0.00  0.00     0.001 A 
ATOM      7  C7  DEN d   1       0.428  -1.980   1.859  0.00  0.00     0.017 A 
ATOM      8  C8  DEN d   1       0.359  -0.924   0.961  0.00  0.00    -0.094 A 
ATOM      9  C9  DEN d   1       1.347   0.045   0.922  0.00  0.00    -0.072 A 
ENDROOT
TORSDOF 0
ENDMDL
