MODEL 1
REMARK minimizedAffinity -3.00295639
REMARK minimizedRMSD -1
REMARK  0 active torsions:
REMARK  status: ('A' for Active; 'I' for Inactive)
ROOT
ATOM      1  C1  DEN d   1       1.668   1.318   0.226  0.00  0.00     0.130 A 
ATOM      2  C2  DEN d   1       2.863   0.869   0.936  0.00  0.00    -0.031 A 
ATOM      3  C3  DEN d   1       2.528  -0.381   1.648  0.00  0.00     0.027 A 
ATOM      4  C4  DEN d   1       0.290  -1.660   1.716  0.00  0.00     0.027 A 
ATOM      5  C5  DEN d   1      -1.017  -1.660   1.280  0.00  0.00    -0.003 A 
ATOM      6  C6  DEN d   1      -1.525  -0.659   0.496  0.00  0.00     0.001 A 
ATOM      7  C7  DEN d   1      -0.709   0.363   0.086  0.00  0.00     0.017 A 
ATOM      8  C8  DEN d   1       0.607   0.374   0.529  0.00  0.00    -0.094 A 
ATOM      9  C9  DEN d   1       1.105  -0.654   1.311  0.00  0.00    -0.072 A 
ENDROOT
TORSDOF 0
ENDMDL
