MODEL 1
REMARK minimizedAffinity -3.85908842
REMARK minimizedRMSD -1
REMARK  0 active torsions:
REMARK  status: ('A' for Active; 'I' for Inactive)
ROOT
ATOM      1  C1  DEN d   1       2.347  -0.277   0.766  0.00  0.00     0.130 A 
ATOM      2  C2  DEN d   1       2.685   0.979   0.102  0.00  0.00    -0.031 A 
ATOM      3  C3  DEN d   1       1.431   1.593  -0.379  0.00  0.00     0.027 A 
ATOM      4  C4  DEN d   1      -0.989   0.729  -0.155  0.00  0.00     0.027 A 
ATOM      5  C5  DEN d   1      -1.775  -0.298   0.320  0.00  0.00    -0.003 A 
ATOM      6  C6  DEN d   1      -1.244  -1.397   0.942  0.00  0.00     0.001 A 
ATOM      7  C7  DEN d   1       0.109  -1.473   1.145  0.00  0.00     0.017 A 
ATOM      8  C8  DEN d   1       0.908  -0.446   0.663  0.00  0.00    -0.094 A 
ATOM      9  C9  DEN d   1       0.351   0.663   0.048  0.00  0.00    -0.072 A 
ENDROOT
TORSDOF 0
ENDMDL
