MODEL 1
REMARK minimizedAffinity -4.89496708
REMARK minimizedRMSD -1
REMARK  0 active torsions:
REMARK  status: ('A' for Active; 'I' for Inactive)
ROOT
ATOM      1  C1  DEN d   1      -1.303  -0.869   1.044  0.00  0.00     0.130 A 
ATOM      2  C2  DEN d   1      -0.638  -2.084   1.506  0.00  0.00    -0.031 A 
ATOM      3  C3  DEN d   1       0.821  -1.867   1.421  0.00  0.00     0.027 A 
ATOM      4  C4  DEN d   1       2.106   0.224   0.630  0.00  0.00     0.027 A 
ATOM      5  C5  DEN d   1       1.974   1.502   0.132  0.00  0.00    -0.003 A 
ATOM      6  C6  DEN d   1       0.751   2.062  -0.126  0.00  0.00     0.001 A 
ATOM      7  C7  DEN d   1      -0.391   1.358   0.155  0.00  0.00     0.017 A 
ATOM      8  C8  DEN d   1      -0.265   0.067   0.650  0.00  0.00    -0.094 A 
ATOM      9  C9  DEN d   1       0.980  -0.477   0.916  0.00  0.00    -0.072 A 
ENDROOT
TORSDOF 0
ENDMDL
