MODEL 1
REMARK minimizedAffinity -4.16700029
REMARK minimizedRMSD -1
REMARK  0 active torsions:
REMARK  status: ('A' for Active; 'I' for Inactive)
ROOT
ATOM      1  C1  DEN d   1      -1.135  -1.012   1.001  0.00  0.00     0.130 A 
ATOM      2  C2  DEN d   1      -1.344   0.049   0.020  0.00  0.00    -0.031 A 
ATOM      3  C3  DEN d   1      -0.028   0.632  -0.310  0.00  0.00     0.027 A 
ATOM      4  C4  DEN d   1       2.302  -0.006   0.594  0.00  0.00     0.027 A 
ATOM      5  C5  DEN d   1       2.982  -0.838   1.455  0.00  0.00    -0.003 A 
ATOM      6  C6  DEN d   1       2.341  -1.756   2.243  0.00  0.00     0.001 A 
ATOM      7  C7  DEN d   1       0.981  -1.895   2.153  0.00  0.00     0.017 A 
ATOM      8  C8  DEN d   1       0.287  -1.054   1.294  0.00  0.00    -0.094 A 
ATOM      9  C9  DEN d   1       0.955  -0.141   0.496  0.00  0.00    -0.072 A 
ENDROOT
TORSDOF 0
ENDMDL
