MODEL 1
REMARK minimizedAffinity -1.85009623
REMARK minimizedRMSD -1
REMARK  0 active torsions:
REMARK  status: ('A' for Active; 'I' for Inactive)
ROOT
ATOM      1  C1  DEN d   1      -0.800   1.097  -0.513  0.00  0.00     0.130 A 
ATOM      2  C2  DEN d   1      -1.856   0.091  -0.439  0.00  0.00    -0.031 A 
ATOM      3  C3  DEN d   1      -1.290  -1.120   0.188  0.00  0.00     0.027 A 
ATOM      4  C4  DEN d   1       1.105  -1.532   1.051  0.00  0.00     0.027 A 
ATOM      5  C5  DEN d   1       2.358  -0.977   1.194  0.00  0.00    -0.003 A 
ATOM      6  C6  DEN d   1       2.653   0.285   0.751  0.00  0.00     0.001 A 
ATOM      7  C7  DEN d   1       1.669   1.052   0.183  0.00  0.00     0.017 A 
ATOM      8  C8  DEN d   1       0.406   0.497   0.029  0.00  0.00    -0.094 A 
ATOM      9  C9  DEN d   1       0.125  -0.777   0.495  0.00  0.00    -0.072 A 
ENDROOT
TORSDOF 0
ENDMDL
