MODEL 1
REMARK minimizedAffinity 6.73169279
REMARK minimizedRMSD -1
REMARK  0 active torsions:
REMARK  status: ('A' for Active; 'I' for Inactive)
ROOT
ATOM      1  C2' OXE d   1      -1.885   2.661   1.520  0.00  0.00     0.078 C 
ATOM      2  C1' OXE d   1      -3.315   0.971  -0.206  0.00  0.00     0.078 C 
ATOM      3  C1  OXE d   1      -1.905   1.343  -0.594  0.00  0.00    -0.078 A 
ATOM      4  C2  OXE d   1      -1.229   2.207   0.233  0.00  0.00    -0.078 A 
ATOM      5  C3  OXE d   1       0.093   2.540  -0.049  0.00  0.00     0.003 A 
ATOM      6  C4  OXE d   1       0.688   2.124  -1.246  0.00  0.00    -0.002 A 
ATOM      7  C5  OXE d   1       0.003   1.275  -2.122  0.00  0.00    -0.002 A 
ATOM      8  C6  OXE d   1      -1.276   0.842  -1.791  0.00  0.00     0.003 A 
ENDROOT
TORSDOF 0
ENDMDL
