MODEL 1
REMARK minimizedAffinity -4.1437273
REMARK minimizedRMSD -1
REMARK  0 active torsions:
REMARK  status: ('A' for Active; 'I' for Inactive)
ROOT
ATOM      1  C2' OXE d   1      -1.110   2.735   2.070  0.00  0.00     0.078 C 
ATOM      2  C1' OXE d   1      -1.033   2.729  -0.736  0.00  0.00     0.078 C 
ATOM      3  C1  OXE d   1      -0.517   1.509  -0.016  0.00  0.00    -0.078 A 
ATOM      4  C2  OXE d   1      -0.515   1.539   1.358  0.00  0.00    -0.078 A 
ATOM      5  C3  OXE d   1      -0.100   0.419   2.072  0.00  0.00     0.003 A 
ATOM      6  C4  OXE d   1       0.458  -0.679   1.406  0.00  0.00    -0.002 A 
ATOM      7  C5  OXE d   1       0.502  -0.714   0.008  0.00  0.00    -0.002 A 
ATOM      8  C6  OXE d   1      -0.019   0.352  -0.717  0.00  0.00     0.003 A 
ENDROOT
TORSDOF 0
ENDMDL
