MODEL 1
REMARK minimizedAffinity -0.185748637
REMARK minimizedRMSD -1
REMARK  0 active torsions:
REMARK  status: ('A' for Active; 'I' for Inactive)
ROOT
ATOM      1  C2' OXE d   1       0.304  -0.479   2.177  0.00  0.00     0.078 C 
ATOM      2  C1' OXE d   1      -0.464   1.833   3.570  0.00  0.00     0.078 C 
ATOM      3  C1  OXE d   1      -0.848   1.729   2.115  0.00  0.00    -0.078 A 
ATOM      4  C2  OXE d   1      -0.428   0.615   1.429  0.00  0.00    -0.078 A 
ATOM      5  C3  OXE d   1      -0.801   0.443   0.099  0.00  0.00     0.003 A 
ATOM      6  C4  OXE d   1      -1.469   1.464  -0.587  0.00  0.00    -0.002 A 
ATOM      7  C5  OXE d   1      -1.872   2.624   0.083  0.00  0.00    -0.002 A 
ATOM      8  C6  OXE d   1      -1.607   2.753   1.442  0.00  0.00     0.003 A 
ENDROOT
TORSDOF 0
ENDMDL
