MODEL 1
REMARK minimizedAffinity 0.136476889
REMARK minimizedRMSD -1
REMARK  0 active torsions:
REMARK  status: ('A' for Active; 'I' for Inactive)
ROOT
ATOM      1  C2' OXE d   1      -0.598  -1.262   0.072  0.00  0.00     0.078 C 
ATOM      2  C1' OXE d   1       0.710  -0.979   2.540  0.00  0.00     0.078 C 
ATOM      3  C1  OXE d   1      -0.177   0.151   2.080  0.00  0.00    -0.078 A 
ATOM      4  C2  OXE d   1      -0.776   0.024   0.850  0.00  0.00    -0.078 A 
ATOM      5  C3  OXE d   1      -1.648   1.013   0.403  0.00  0.00     0.003 A 
ATOM      6  C4  OXE d   1      -1.799   2.204   1.124  0.00  0.00    -0.002 A 
ATOM      7  C5  OXE d   1      -1.167   2.370   2.360  0.00  0.00    -0.002 A 
ATOM      8  C6  OXE d   1      -0.388   1.338   2.872  0.00  0.00     0.003 A 
ENDROOT
TORSDOF 0
ENDMDL
