MODEL 1
REMARK minimizedAffinity -3.19588637
REMARK minimizedRMSD -1
REMARK  0 active torsions:
REMARK  status: ('A' for Active; 'I' for Inactive)
ROOT
ATOM      1  C2' OXE d   1       0.223   1.613  -1.772  0.00  0.00     0.078 C 
ATOM      2  C1' OXE d   1       1.094  -0.764  -0.560  0.00  0.00     0.078 C 
ATOM      3  C1  OXE d   1       0.103   0.087   0.194  0.00  0.00    -0.078 A 
ATOM      4  C2  OXE d   1      -0.282   1.272  -0.387  0.00  0.00    -0.078 A 
ATOM      5  C3  OXE d   1      -1.235   2.069   0.241  0.00  0.00     0.003 A 
ATOM      6  C4  OXE d   1      -1.690   1.751   1.526  0.00  0.00    -0.002 A 
ATOM      7  C5  OXE d   1      -1.280   0.569   2.153  0.00  0.00    -0.002 A 
ATOM      8  C6  OXE d   1      -0.418  -0.293   1.483  0.00  0.00     0.003 A 
ENDROOT
TORSDOF 0
ENDMDL
