MODEL 1
REMARK minimizedAffinity -5.3281188
REMARK minimizedRMSD -1
REMARK  0 active torsions:
REMARK  status: ('A' for Active; 'I' for Inactive)
ROOT
ATOM      1  C2' OXE d   1       0.362  -1.313   2.345  0.00  0.00     0.078 C 
ATOM      2  C1' OXE d   1       0.379  -1.296  -0.462  0.00  0.00     0.078 C 
ATOM      3  C1  OXE d   1      -0.414  -0.224   0.243  0.00  0.00    -0.078 A 
ATOM      4  C2  OXE d   1      -0.455  -0.268   1.616  0.00  0.00    -0.078 A 
ATOM      5  C3  OXE d   1      -1.126   0.729   2.318  0.00  0.00     0.003 A 
ATOM      6  C4  OXE d   1      -1.888   1.686   1.636  0.00  0.00    -0.002 A 
ATOM      7  C5  OXE d   1      -1.892   1.725   0.237  0.00  0.00    -0.002 A 
ATOM      8  C6  OXE d   1      -1.128   0.805  -0.472  0.00  0.00     0.003 A 
ENDROOT
TORSDOF 0
ENDMDL
