MODEL 1
REMARK minimizedAffinity -4.28630352
REMARK minimizedRMSD -1
REMARK  0 active torsions:
REMARK  status: ('A' for Active; 'I' for Inactive)
ROOT
ATOM      1  C2' OXE d   1       0.400  -1.240  -0.623  0.00  0.00     0.078 C 
ATOM      2  C1' OXE d   1       0.662  -1.651   2.142  0.00  0.00     0.078 C 
ATOM      3  C1  OXE d   1      -0.122  -0.448   1.681  0.00  0.00    -0.078 A 
ATOM      4  C2  OXE d   1      -0.205  -0.229   0.327  0.00  0.00    -0.078 A 
ATOM      5  C3  OXE d   1      -0.962   0.836  -0.154  0.00  0.00     0.003 A 
ATOM      6  C4  OXE d   1      -1.510   1.773   0.730  0.00  0.00    -0.002 A 
ATOM      7  C5  OXE d   1      -1.403   1.590   2.113  0.00  0.00    -0.002 A 
ATOM      8  C6  OXE d   1      -0.750   0.465   2.604  0.00  0.00     0.003 A 
ENDROOT
TORSDOF 0
ENDMDL
