MODEL 1
REMARK minimizedAffinity -3.87513733
REMARK minimizedRMSD -1
REMARK  0 active torsions:
REMARK  status: ('A' for Active; 'I' for Inactive)
ROOT
ATOM      1  C2' OXE d   1       0.490  -0.988   2.223  0.00  0.00     0.078 C 
ATOM      2  C1' OXE d   1       0.340  -0.754  -0.570  0.00  0.00     0.078 C 
ATOM      3  C1  OXE d   1      -0.364   0.288   0.262  0.00  0.00    -0.078 A 
ATOM      4  C2  OXE d   1      -0.324   0.140   1.627  0.00  0.00    -0.078 A 
ATOM      5  C3  OXE d   1      -0.910   1.103   2.443  0.00  0.00     0.003 A 
ATOM      6  C4  OXE d   1      -1.670   2.138   1.884  0.00  0.00    -0.002 A 
ATOM      7  C5  OXE d   1      -1.756   2.285   0.495  0.00  0.00    -0.002 A 
ATOM      8  C6  OXE d   1      -1.075   1.395  -0.328  0.00  0.00     0.003 A 
ENDROOT
TORSDOF 0
ENDMDL
