MODEL 1
REMARK minimizedAffinity -4.61395502
REMARK minimizedRMSD -1
REMARK  0 active torsions:
REMARK  status: ('A' for Active; 'I' for Inactive)
ROOT
ATOM      1  C2' OXE d   1      -1.639   1.913   0.976  0.00  0.00     0.078 C 
ATOM      2  C1' OXE d   1      -0.235   2.442  -1.397  0.00  0.00     0.078 C 
ATOM      3  C1  OXE d   1       0.028   1.129  -0.702  0.00  0.00    -0.078 A 
ATOM      4  C2  OXE d   1      -0.628   0.899   0.484  0.00  0.00    -0.078 A 
ATOM      5  C3  OXE d   1      -0.463  -0.318   1.138  0.00  0.00     0.003 A 
ATOM      6  C4  OXE d   1       0.480  -1.246   0.681  0.00  0.00    -0.002 A 
ATOM      7  C5  OXE d   1       1.189  -1.014  -0.502  0.00  0.00    -0.002 A 
ATOM      8  C6  OXE d   1       0.944   0.147  -1.227  0.00  0.00     0.003 A 
ENDROOT
TORSDOF 0
ENDMDL
