MODEL 1
REMARK minimizedAffinity -2.75967407
REMARK minimizedRMSD -1
REMARK  0 active torsions:
REMARK  status: ('A' for Active; 'I' for Inactive)
ROOT
ATOM      1  C2' OXE d   1      -0.618  -0.745   1.643  0.00  0.00     0.078 C 
ATOM      2  C1' OXE d   1      -1.870   1.735   1.242  0.00  0.00     0.078 C 
ATOM      3  C1  OXE d   1      -0.744   1.357   0.312  0.00  0.00    -0.078 A 
ATOM      4  C2  OXE d   1      -0.106   0.162   0.545  0.00  0.00    -0.078 A 
ATOM      5  C3  OXE d   1       0.902  -0.260  -0.316  0.00  0.00     0.003 A 
ATOM      6  C4  OXE d   1       1.376   0.589  -1.323  0.00  0.00    -0.002 A 
ATOM      7  C5  OXE d   1       0.767   1.827  -1.552  0.00  0.00    -0.002 A 
ATOM      8  C6  OXE d   1      -0.320   2.207  -0.772  0.00  0.00     0.003 A 
ENDROOT
TORSDOF 0
ENDMDL
