MODEL 1
REMARK minimizedAffinity -5.38075781
REMARK minimizedRMSD -1
REMARK  0 active torsions:
REMARK  status: ('A' for Active; 'I' for Inactive)
ROOT
ATOM      1  C2' OXE d   1       0.163   1.552   4.456  0.00  0.00     0.078 C 
ATOM      2  C1' OXE d   1       0.995  -0.854   3.272  0.00  0.00     0.078 C 
ATOM      3  C1  OXE d   1       0.034   0.015   2.500  0.00  0.00    -0.078 A 
ATOM      4  C2  OXE d   1      -0.404   1.168   3.107  0.00  0.00    -0.078 A 
ATOM      5  C3  OXE d   1      -1.248   2.033   2.416  0.00  0.00     0.003 A 
ATOM      6  C4  OXE d   1      -1.775   1.665   1.172  0.00  0.00    -0.002 A 
ATOM      7  C5  OXE d   1      -1.373   0.477   0.553  0.00  0.00    -0.002 A 
ATOM      8  C6  OXE d   1      -0.439  -0.337   1.184  0.00  0.00     0.003 A 
ENDROOT
TORSDOF 0
ENDMDL
