MODEL 1
REMARK minimizedAffinity -4.11073208
REMARK minimizedRMSD -1
REMARK  0 active torsions:
REMARK  status: ('A' for Active; 'I' for Inactive)
ROOT
ATOM      1  C2' OXE d   1       0.783  -0.732  -0.070  0.00  0.00     0.078 C 
ATOM      2  C1' OXE d   1      -0.392  -1.061   2.458  0.00  0.00     0.078 C 
ATOM      3  C1  OXE d   1      -0.789   0.149   1.649  0.00  0.00    -0.078 A 
ATOM      4  C2  OXE d   1      -0.173   0.327   0.433  0.00  0.00    -0.078 A 
ATOM      5  C3  OXE d   1      -0.543   1.397  -0.376  0.00  0.00     0.003 A 
ATOM      6  C4  OXE d   1      -1.421   2.377   0.101  0.00  0.00    -0.002 A 
ATOM      7  C5  OXE d   1      -2.029   2.236   1.353  0.00  0.00    -0.002 A 
ATOM      8  C6  OXE d   1      -1.756   1.109   2.120  0.00  0.00     0.003 A 
ENDROOT
TORSDOF 0
ENDMDL
