MODEL 1
REMARK minimizedAffinity -4.78607559
REMARK minimizedRMSD -1
REMARK  0 active torsions:
REMARK  status: ('A' for Active; 'I' for Inactive)
ROOT
ATOM      1  C2' OXE d   1       0.680  -1.019  -0.227  0.00  0.00     0.078 C 
ATOM      2  C1' OXE d   1       0.146  -1.304   2.514  0.00  0.00     0.078 C 
ATOM      3  C1  OXE d   1      -0.443  -0.111   1.803  0.00  0.00    -0.078 A 
ATOM      4  C2  OXE d   1      -0.138   0.045   0.472  0.00  0.00    -0.078 A 
ATOM      5  C3  OXE d   1      -0.699   1.098  -0.245  0.00  0.00     0.003 A 
ATOM      6  C4  OXE d   1      -1.446   2.084   0.412  0.00  0.00    -0.002 A 
ATOM      7  C5  OXE d   1      -1.736   1.965   1.775  0.00  0.00    -0.002 A 
ATOM      8  C6  OXE d   1      -1.278   0.853   2.474  0.00  0.00     0.003 A 
ENDROOT
TORSDOF 0
ENDMDL
