MODEL 1
REMARK minimizedAffinity -4.87396049
REMARK minimizedRMSD -1
REMARK  0 active torsions:
REMARK  status: ('A' for Active; 'I' for Inactive)
ROOT
ATOM      1  C2' OXE d   1       0.410  -1.414   2.426  0.00  0.00     0.078 C 
ATOM      2  C1' OXE d   1       0.804  -1.065  -0.332  0.00  0.00     0.078 C 
ATOM      3  C1  OXE d   1      -0.082  -0.076   0.383  0.00  0.00    -0.078 A 
ATOM      4  C2  OXE d   1      -0.307  -0.281   1.723  0.00  0.00    -0.078 A 
ATOM      5  C3  OXE d   1      -1.073   0.632   2.442  0.00  0.00     0.003 A 
ATOM      6  C4  OXE d   1      -1.741   1.671   1.782  0.00  0.00    -0.002 A 
ATOM      7  C5  OXE d   1      -1.557   1.875   0.410  0.00  0.00    -0.002 A 
ATOM      8  C6  OXE d   1      -0.699   1.038  -0.294  0.00  0.00     0.003 A 
ENDROOT
TORSDOF 0
ENDMDL
