MODEL 1
REMARK minimizedAffinity -5.71761322
REMARK minimizedRMSD -1
REMARK  0 active torsions:
REMARK  status: ('A' for Active; 'I' for Inactive)
ROOT
ATOM      1  C2' OXE d   1      -0.171  -1.127   2.583  0.00  0.00     0.078 C 
ATOM      2  C1' OXE d   1       0.820  -1.197  -0.043  0.00  0.00     0.078 C 
ATOM      3  C1  OXE d   1      -0.174  -0.117   0.306  0.00  0.00    -0.078 A 
ATOM      4  C2  OXE d   1      -0.689  -0.119   1.580  0.00  0.00    -0.078 A 
ATOM      5  C3  OXE d   1      -1.567   0.888   1.969  0.00  0.00     0.003 A 
ATOM      6  C4  OXE d   1      -2.048   1.811   1.033  0.00  0.00    -0.002 A 
ATOM      7  C5  OXE d   1      -1.567   1.806  -0.281  0.00  0.00    -0.002 A 
ATOM      8  C6  OXE d   1      -0.599   0.877  -0.648  0.00  0.00     0.003 A 
ENDROOT
TORSDOF 0
ENDMDL
