MODEL 1
REMARK minimizedAffinity -6.00456047
REMARK minimizedRMSD -1
REMARK  0 active torsions:
REMARK  status: ('A' for Active; 'I' for Inactive)
ROOT
ATOM      1  C2' OXE d   1      -0.167  -1.016   2.566  0.00  0.00     0.078 C 
ATOM      2  C1' OXE d   1       0.368  -0.888  -0.187  0.00  0.00     0.078 C 
ATOM      3  C1  OXE d   1      -0.405   0.249   0.433  0.00  0.00    -0.078 A 
ATOM      4  C2  OXE d   1      -0.703   0.155   1.771  0.00  0.00    -0.078 A 
ATOM      5  C3  OXE d   1      -1.366   1.202   2.405  0.00  0.00     0.003 A 
ATOM      6  C4  OXE d   1      -1.867   2.277   1.661  0.00  0.00    -0.002 A 
ATOM      7  C5  OXE d   1      -1.609   2.373   0.289  0.00  0.00    -0.002 A 
ATOM      8  C6  OXE d   1      -0.845   1.390  -0.331  0.00  0.00     0.003 A 
ENDROOT
TORSDOF 0
ENDMDL
