MODEL 1
REMARK minimizedAffinity -5.74469471
REMARK minimizedRMSD -1
REMARK  0 active torsions:
REMARK  status: ('A' for Active; 'I' for Inactive)
ROOT
ATOM      1  C2' OXE d   1      -0.007  -1.192   2.216  0.00  0.00     0.078 C 
ATOM      2  C1' OXE d   1       0.846  -0.727  -0.418  0.00  0.00     0.078 C 
ATOM      3  C1  OXE d   1      -0.106   0.267   0.199  0.00  0.00    -0.078 A 
ATOM      4  C2  OXE d   1      -0.554   0.006   1.471  0.00  0.00    -0.078 A 
ATOM      5  C3  OXE d   1      -1.391   0.919   2.108  0.00  0.00     0.003 A 
ATOM      6  C4  OXE d   1      -1.901   2.020   1.409  0.00  0.00    -0.002 A 
ATOM      7  C5  OXE d   1      -1.488   2.282   0.098  0.00  0.00    -0.002 A 
ATOM      8  C6  OXE d   1      -0.560   1.441  -0.505  0.00  0.00     0.003 A 
ENDROOT
TORSDOF 0
ENDMDL
