MODEL 1
REMARK minimizedAffinity -0.187122658
REMARK minimizedRMSD -1
REMARK  0 active torsions:
REMARK  status: ('A' for Active; 'I' for Inactive)
ROOT
ATOM      1  C2' OXE d   1       1.869  -4.277  -0.632  0.00  0.00     0.078 C 
ATOM      2  C1' OXE d   1       0.506  -3.840  -3.047  0.00  0.00     0.078 C 
ATOM      3  C1  OXE d   1       0.680  -2.667  -2.115  0.00  0.00    -0.078 A 
ATOM      4  C2  OXE d   1       1.307  -2.900  -0.915  0.00  0.00    -0.078 A 
ATOM      5  C3  OXE d   1       1.542  -1.841  -0.043  0.00  0.00     0.003 A 
ATOM      6  C4  OXE d   1       1.011  -0.573  -0.308  0.00  0.00    -0.002 A 
ATOM      7  C5  OXE d   1       0.334  -0.324  -1.507  0.00  0.00    -0.002 A 
ATOM      8  C6  OXE d   1       0.198  -1.347  -2.438  0.00  0.00     0.003 A 
ENDROOT
TORSDOF 0
ENDMDL
