MODEL 1
REMARK minimizedAffinity 1.99415755
REMARK minimizedRMSD -1
REMARK  0 active torsions:
REMARK  status: ('A' for Active; 'I' for Inactive)
ROOT
ATOM      1  C   UNL d   1       0.616   0.380   0.294  0.00  0.00     0.172 C 
ATOM      2  N   UNL d   1       1.722  -0.327  -0.308  0.00  0.00    -0.070 N 
ATOM      3  C1  UNL d   1       1.745  -1.662  -0.614  0.00  0.00    -0.004 A 
ATOM      4  C2  UNL d   1       2.973  -1.946  -1.171  0.00  0.00    -0.047 A 
ATOM      5  C3  UNL d   1       3.714  -0.741  -1.200  0.00  0.00    -0.047 A 
ATOM      6  C4  UNL d   1       2.916   0.245  -0.659  0.00  0.00    -0.004 A 
ENDROOT
TORSDOF 0
ENDMDL
