MODEL 1
REMARK minimizedAffinity 4.93816471
REMARK minimizedRMSD -1
REMARK  0 active torsions:
REMARK  status: ('A' for Active; 'I' for Inactive)
ROOT
ATOM      1  C   UNL d   1       2.365  -1.732   0.086  0.00  0.00     0.172 C 
ATOM      2  N   UNL d   1       1.168  -0.927   0.137  0.00  0.00    -0.070 N 
ATOM      3  C1  UNL d   1      -0.103  -1.369  -0.119  0.00  0.00    -0.004 A 
ATOM      4  C2  UNL d   1      -0.960  -0.301   0.035  0.00  0.00    -0.047 A 
ATOM      5  C3  UNL d   1      -0.178   0.822   0.397  0.00  0.00    -0.047 A 
ATOM      6  C4  UNL d   1       1.136   0.406   0.453  0.00  0.00    -0.004 A 
ENDROOT
TORSDOF 0
ENDMDL
