MODEL 1
REMARK minimizedAffinity 3.13707399
REMARK minimizedRMSD -1
REMARK  0 active torsions:
REMARK  status: ('A' for Active; 'I' for Inactive)
ROOT
ATOM      1  C   UNL d   1       2.266   1.976   0.359  0.00  0.00     0.172 C 
ATOM      2  N   UNL d   1       3.609   2.139  -0.146  0.00  0.00    -0.070 N 
ATOM      3  C1  UNL d   1       4.449   3.182   0.141  0.00  0.00    -0.004 A 
ATOM      4  C2  UNL d   1       5.632   2.968  -0.532  0.00  0.00    -0.047 A 
ATOM      5  C3  UNL d   1       5.499   1.755  -1.248  0.00  0.00    -0.047 A 
ATOM      6  C4  UNL d   1       4.237   1.263  -0.991  0.00  0.00    -0.004 A 
ENDROOT
TORSDOF 0
ENDMDL
