MODEL 1
REMARK minimizedAffinity -2.24586344
REMARK minimizedRMSD -1
REMARK  0 active torsions:
REMARK  status: ('A' for Active; 'I' for Inactive)
ROOT
ATOM      1  C   UNL d   1       3.878   1.956  -0.490  0.00  0.00     0.172 C 
ATOM      2  N   UNL d   1       2.951   2.216   0.587  0.00  0.00    -0.070 N 
ATOM      3  C1  UNL d   1       3.241   2.884   1.746  0.00  0.00    -0.004 A 
ATOM      4  C2  UNL d   1       2.095   2.921   2.510  0.00  0.00    -0.047 A 
ATOM      5  C3  UNL d   1       1.081   2.251   1.785  0.00  0.00    -0.047 A 
ATOM      6  C4  UNL d   1       1.638   1.825   0.598  0.00  0.00    -0.004 A 
ENDROOT
TORSDOF 0
ENDMDL
