MODEL 1
REMARK minimizedAffinity 5.97082901
REMARK minimizedRMSD -1
REMARK  0 active torsions:
REMARK  status: ('A' for Active; 'I' for Inactive)
ROOT
ATOM      1  C   UNL d   1      -1.005  -4.899  -0.752  0.00  0.00     0.172 C 
ATOM      2  N   UNL d   1      -1.980  -5.059  -1.805  0.00  0.00    -0.070 N 
ATOM      3  C1  UNL d   1      -1.934  -6.000  -2.799  0.00  0.00    -0.004 A 
ATOM      4  C2  UNL d   1      -3.042  -5.822  -3.600  0.00  0.00    -0.047 A 
ATOM      5  C3  UNL d   1      -3.778  -4.736  -3.069  0.00  0.00    -0.047 A 
ATOM      6  C4  UNL d   1      -3.098  -4.283  -1.959  0.00  0.00    -0.004 A 
ENDROOT
TORSDOF 0
ENDMDL
