MODEL 1
REMARK minimizedAffinity 4.9435358
REMARK minimizedRMSD -1
REMARK  0 active torsions:
REMARK  status: ('A' for Active; 'I' for Inactive)
ROOT
ATOM      1  C   UNL d   1      -5.999   0.013  -5.178  0.00  0.00     0.172 C 
ATOM      2  N   UNL d   1      -4.600   0.307  -4.976  0.00  0.00    -0.070 N 
ATOM      3  C1  UNL d   1      -3.886   0.045  -3.837  0.00  0.00    -0.004 A 
ATOM      4  C2  UNL d   1      -2.592   0.473  -4.042  0.00  0.00    -0.047 A 
ATOM      5  C3  UNL d   1      -2.527   1.012  -5.349  0.00  0.00    -0.047 A 
ATOM      6  C4  UNL d   1      -3.784   0.896  -5.905  0.00  0.00    -0.004 A 
ENDROOT
TORSDOF 0
ENDMDL
