MODEL 1
REMARK minimizedAffinity -1.87696254
REMARK minimizedRMSD -1
REMARK  0 active torsions:
REMARK  status: ('A' for Active; 'I' for Inactive)
ROOT
ATOM      1  C   UNL d   1       1.488  -5.997   5.623  0.00  0.00     0.172 C 
ATOM      2  N   UNL d   1       0.327  -5.151   5.768  0.00  0.00    -0.070 N 
ATOM      3  C1  UNL d   1      -0.968  -5.585   5.880  0.00  0.00    -0.004 A 
ATOM      4  C2  UNL d   1      -1.776  -4.475   6.000  0.00  0.00    -0.047 A 
ATOM      5  C3  UNL d   1      -0.938  -3.335   5.958  0.00  0.00    -0.047 A 
ATOM      6  C4  UNL d   1       0.358  -3.782   5.814  0.00  0.00    -0.004 A 
ENDROOT
TORSDOF 0
ENDMDL
