MODEL 1
REMARK minimizedAffinity -1.3159796
REMARK minimizedRMSD -1
REMARK  0 active torsions:
REMARK  status: ('A' for Active; 'I' for Inactive)
ROOT
ATOM      1  C   UNL d   1       3.765   0.860  -0.978  0.00  0.00     0.172 C 
ATOM      2  N   UNL d   1       2.639   0.011  -0.668  0.00  0.00    -0.070 N 
ATOM      3  C1  UNL d   1       1.409   0.440  -0.245  0.00  0.00    -0.004 A 
ATOM      4  C2  UNL d   1       0.616  -0.672  -0.058  0.00  0.00    -0.047 A 
ATOM      5  C3  UNL d   1       1.397  -1.808  -0.380  0.00  0.00    -0.047 A 
ATOM      6  C4  UNL d   1       2.644  -1.356  -0.754  0.00  0.00    -0.004 A 
ENDROOT
TORSDOF 0
ENDMDL
