MODEL 1
REMARK minimizedAffinity -0.749124289
REMARK minimizedRMSD -1
REMARK  0 active torsions:
REMARK  status: ('A' for Active; 'I' for Inactive)
ROOT
ATOM      1  C   UNL d   1       3.994   0.886  -0.788  0.00  0.00     0.172 C 
ATOM      2  N   UNL d   1       3.765  -0.467  -1.238  0.00  0.00    -0.070 N 
ATOM      3  C1  UNL d   1       2.988  -1.399  -0.604  0.00  0.00    -0.004 A 
ATOM      4  C2  UNL d   1       3.026  -2.558  -1.348  0.00  0.00    -0.047 A 
ATOM      5  C3  UNL d   1       3.856  -2.315  -2.468  0.00  0.00    -0.047 A 
ATOM      6  C4  UNL d   1       4.300  -1.012  -2.376  0.00  0.00    -0.004 A 
ENDROOT
TORSDOF 0
ENDMDL
