MODEL 1
REMARK minimizedAffinity 0.731442332
REMARK minimizedRMSD -1
REMARK  0 active torsions:
REMARK  status: ('A' for Active; 'I' for Inactive)
ROOT
ATOM      1  C   UNL d   1       1.090   0.667   0.226  0.00  0.00     0.172 C 
ATOM      2  N   UNL d   1       0.781  -0.671  -0.219  0.00  0.00    -0.070 N 
ATOM      3  C1  UNL d   1       1.611  -1.755  -0.126  0.00  0.00    -0.004 A 
ATOM      4  C2  UNL d   1       0.950  -2.841  -0.659  0.00  0.00    -0.047 A 
ATOM      5  C3  UNL d   1      -0.321  -2.393  -1.089  0.00  0.00    -0.047 A 
ATOM      6  C4  UNL d   1      -0.400  -1.046  -0.805  0.00  0.00    -0.004 A 
ENDROOT
TORSDOF 0
ENDMDL
