MODEL 1
REMARK minimizedAffinity -3.13816214
REMARK minimizedRMSD -1
REMARK  0 active torsions:
REMARK  status: ('A' for Active; 'I' for Inactive)
ROOT
ATOM      1  C   UNL d   1       0.743   1.055  -0.149  0.00  0.00     0.172 C 
ATOM      2  N   UNL d   1       1.817   0.145  -0.474  0.00  0.00    -0.070 N 
ATOM      3  C1  UNL d   1       1.735  -1.222  -0.469  0.00  0.00    -0.004 A 
ATOM      4  C2  UNL d   1       2.967  -1.720  -0.834  0.00  0.00    -0.047 A 
ATOM      5  C3  UNL d   1       3.819  -0.614  -1.066  0.00  0.00    -0.047 A 
ATOM      6  C4  UNL d   1       3.082   0.528  -0.836  0.00  0.00    -0.004 A 
ENDROOT
TORSDOF 0
ENDMDL
