MODEL 1
REMARK minimizedAffinity 10.9964418
REMARK minimizedRMSD -1
REMARK  2 active torsions:
REMARK  status: ('A' for Active; 'I' for Inactive)
REMARK    1  A    between atoms: C2'_3  and  C1'_4 
REMARK    2  A    between atoms: C1'_4  and  C1_5 
ROOT
ATOM      1  C1  I4B d   1       4.334   5.494  -3.600  0.00  0.00    -0.075 A 
ATOM      2  C2  I4B d   1       5.335   4.562  -3.489  0.00  0.00     0.003 A 
ATOM      3  C3  I4B d   1       5.996   4.085  -4.647  0.00  0.00     0.002 A 
ATOM      4  C4  I4B d   1       5.592   4.526  -5.891  0.00  0.00    -0.004 A 
ATOM      5  C5  I4B d   1       4.592   5.488  -5.999  0.00  0.00     0.002 A 
ATOM      6  C6  I4B d   1       3.967   5.985  -4.846  0.00  0.00     0.003 A 
ENDROOT
BRANCH   1   7
ATOM      7  C1' I4B d   1       3.635   5.952  -2.359  0.00  0.00     0.060 C 
BRANCH   7   8
ATOM      8  C2' I4B d   1       4.453   5.496  -1.167  0.00  0.00    -0.013 C 
ATOM      9  C4' I4B d   1       5.870   5.996  -1.256  0.00  0.00     0.013 C 
ATOM     10  C3' I4B d   1       3.779   5.996   0.075  0.00  0.00     0.013 C 
ENDBRANCH   7   8
ENDBRANCH   1   7
TORSDOF 2
ENDMDL
