MODEL 1
REMARK minimizedAffinity 12.2278013
REMARK minimizedRMSD -1
REMARK  2 active torsions:
REMARK  status: ('A' for Active; 'I' for Inactive)
REMARK    1  A    between atoms: C2'_3  and  C1'_4 
REMARK    2  A    between atoms: C1'_4  and  C1_5 
ROOT
ATOM      1  C1  I4B d   1       4.614   5.280  -3.980  0.00  0.00    -0.075 A 
ATOM      2  C2  I4B d   1       3.255   5.153  -3.829  0.00  0.00     0.003 A 
ATOM      3  C3  I4B d   1       2.645   5.453  -2.587  0.00  0.00     0.002 A 
ATOM      4  C4  I4B d   1       3.432   5.825  -1.516  0.00  0.00    -0.004 A 
ATOM      5  C5  I4B d   1       4.806   5.975  -1.677  0.00  0.00     0.002 A 
ATOM      6  C6  I4B d   1       5.400   5.713  -2.920  0.00  0.00     0.003 A 
ENDROOT
BRANCH   1   7
ATOM      7  C1' I4B d   1       5.229   4.923  -5.296  0.00  0.00     0.060 C 
BRANCH   7   8
ATOM      8  C2' I4B d   1       6.000   3.631  -5.116  0.00  0.00    -0.013 C 
ATOM      9  C4' I4B d   1       5.999   3.192  -3.676  0.00  0.00     0.013 C 
ATOM     10  C3' I4B d   1       5.375   2.592  -5.999  0.00  0.00     0.013 C 
ENDBRANCH   7   8
ENDBRANCH   1   7
TORSDOF 2
ENDMDL
