MODEL 1
REMARK minimizedAffinity 4.70580626
REMARK minimizedRMSD -1
REMARK  2 active torsions:
REMARK  status: ('A' for Active; 'I' for Inactive)
REMARK    1  A    between atoms: C2'_3  and  C1'_4 
REMARK    2  A    between atoms: C1'_4  and  C1_5 
ROOT
ATOM      1  C1  I4B d   1       4.579   4.507  -1.389  0.00  0.00    -0.075 A 
ATOM      2  C2  I4B d   1       4.603   3.547  -2.369  0.00  0.00     0.003 A 
ATOM      3  C3  I4B d   1       5.344   3.761  -3.557  0.00  0.00     0.002 A 
ATOM      4  C4  I4B d   1       6.000   4.961  -3.743  0.00  0.00    -0.004 A 
ATOM      5  C5  I4B d   1       5.992   5.923  -2.738  0.00  0.00     0.002 A 
ATOM      6  C6  I4B d   1       5.288   5.691  -1.548  0.00  0.00     0.003 A 
ENDROOT
BRANCH   1   7
ATOM      7  C1' I4B d   1       3.759   4.263  -0.161  0.00  0.00     0.060 C 
BRANCH   7   8
ATOM      8  C2' I4B d   1       2.414   4.933  -0.357  0.00  0.00    -0.013 C 
ATOM      9  C4' I4B d   1       1.816   4.577  -1.692  0.00  0.00     0.013 C 
ATOM     10  C3' I4B d   1       1.518   4.510   0.769  0.00  0.00     0.013 C 
ENDBRANCH   7   8
ENDBRANCH   1   7
TORSDOF 2
ENDMDL
