MODEL 1
REMARK minimizedAffinity 13.5714989
REMARK minimizedRMSD -1
REMARK  2 active torsions:
REMARK  status: ('A' for Active; 'I' for Inactive)
REMARK    1  A    between atoms: C2'_3  and  C1'_4 
REMARK    2  A    between atoms: C1'_4  and  C1_5 
ROOT
ATOM      1  C1  I4B d   1       3.605   5.053  -3.424  0.00  0.00    -0.075 A 
ATOM      2  C2  I4B d   1       2.653   5.781  -2.755  0.00  0.00     0.003 A 
ATOM      3  C3  I4B d   1       1.450   5.164  -2.334  0.00  0.00     0.002 A 
ATOM      4  C4  I4B d   1       1.221   3.839  -2.645  0.00  0.00    -0.004 A 
ATOM      5  C5  I4B d   1       2.197   3.097  -3.303  0.00  0.00     0.002 A 
ATOM      6  C6  I4B d   1       3.403   3.704  -3.684  0.00  0.00     0.003 A 
ENDROOT
BRANCH   1   7
ATOM      7  C1' I4B d   1       4.850   5.745  -3.883  0.00  0.00     0.060 C 
BRANCH   7   8
ATOM      8  C2' I4B d   1       5.998   5.260  -3.022  0.00  0.00    -0.013 C 
ATOM      9  C4' I4B d   1       5.999   5.943  -1.679  0.00  0.00     0.013 C 
ATOM     10  C3' I4B d   1       5.870   3.773  -2.873  0.00  0.00     0.013 C 
ENDBRANCH   7   8
ENDBRANCH   1   7
TORSDOF 2
ENDMDL
