MODEL 1
REMARK minimizedAffinity -2.84638333
REMARK minimizedRMSD -1
REMARK  2 active torsions:
REMARK  status: ('A' for Active; 'I' for Inactive)
REMARK    1  A    between atoms: C2'_3  and  C1'_4 
REMARK    2  A    between atoms: C1'_4  and  C1_5 
ROOT
ATOM      1  C1  I4B d   1       5.340   4.012  -4.872  0.00  0.00    -0.075 A 
ATOM      2  C2  I4B d   1       5.974   4.166  -3.665  0.00  0.00     0.003 A 
ATOM      3  C3  I4B d   1       5.399   4.978  -2.656  0.00  0.00     0.002 A 
ATOM      4  C4  I4B d   1       4.224   5.652  -2.915  0.00  0.00    -0.004 A 
ATOM      5  C5  I4B d   1       3.571   5.477  -4.132  0.00  0.00     0.002 A 
ATOM      6  C6  I4B d   1       4.126   4.642  -5.112  0.00  0.00     0.003 A 
ENDROOT
BRANCH   1   7
ATOM      7  C1' I4B d   1       5.991   3.174  -5.926  0.00  0.00     0.060 C 
BRANCH   7   8
ATOM      8  C2' I4B d   1       5.260   1.848  -5.986  0.00  0.00    -0.013 C 
ATOM      9  C4' I4B d   1       5.931   0.817  -5.117  0.00  0.00     0.013 C 
ATOM     10  C3' I4B d   1       3.843   2.081  -5.555  0.00  0.00     0.013 C 
ENDBRANCH   7   8
ENDBRANCH   1   7
TORSDOF 2
ENDMDL
