MODEL 1
REMARK minimizedAffinity 4.57627773
REMARK minimizedRMSD -1
REMARK  2 active torsions:
REMARK  status: ('A' for Active; 'I' for Inactive)
REMARK    1  A    between atoms: C2'_3  and  C1'_4 
REMARK    2  A    between atoms: C1'_4  and  C1_5 
ROOT
ATOM      1  C1  I4B d   1       4.026  -3.271   4.065  0.00  0.00    -0.075 A 
ATOM      2  C2  I4B d   1       5.246  -3.762   4.456  0.00  0.00     0.003 A 
ATOM      3  C3  I4B d   1       5.995  -3.097   5.456  0.00  0.00     0.002 A 
ATOM      4  C4  I4B d   1       5.512  -1.924   6.000  0.00  0.00    -0.004 A 
ATOM      5  C5  I4B d   1       4.264  -1.440   5.619  0.00  0.00     0.002 A 
ATOM      6  C6  I4B d   1       3.510  -2.124   4.655  0.00  0.00     0.003 A 
ENDROOT
BRANCH   1   7
ATOM      7  C1' I4B d   1       3.276  -3.981   2.982  0.00  0.00     0.060 C 
BRANCH   7   8
ATOM      8  C2' I4B d   1       2.318  -2.991   2.352  0.00  0.00    -0.013 C 
ATOM      9  C4' I4B d   1       2.973  -2.240   1.224  0.00  0.00     0.013 C 
ATOM     10  C3' I4B d   1       1.117  -3.751   1.872  0.00  0.00     0.013 C 
ENDBRANCH   7   8
ENDBRANCH   1   7
TORSDOF 2
ENDMDL
