MODEL 1
REMARK minimizedAffinity -2.52025032
REMARK minimizedRMSD -1
REMARK  2 active torsions:
REMARK  status: ('A' for Active; 'I' for Inactive)
REMARK    1  A    between atoms: C2'_3  and  C1'_4 
REMARK    2  A    between atoms: C1'_4  and  C1_5 
ROOT
ATOM      1  C1  I4B d   1       3.896  -2.518   2.679  0.00  0.00    -0.075 A 
ATOM      2  C2  I4B d   1       5.083  -3.097   2.305  0.00  0.00     0.003 A 
ATOM      3  C3  I4B d   1       5.617  -2.861   1.015  0.00  0.00     0.002 A 
ATOM      4  C4  I4B d   1       4.910  -2.085   0.119  0.00  0.00    -0.004 A 
ATOM      5  C5  I4B d   1       3.718  -1.481   0.507  0.00  0.00     0.002 A 
ATOM      6  C6  I4B d   1       3.213  -1.688   1.799  0.00  0.00     0.003 A 
ENDROOT
BRANCH   1   7
ATOM      7  C1' I4B d   1       3.345  -2.816   4.037  0.00  0.00     0.060 C 
BRANCH   7   8
ATOM      8  C2' I4B d   1       4.034  -1.902   5.030  0.00  0.00    -0.013 C 
ATOM      9  C4' I4B d   1       3.035  -1.060   5.780  0.00  0.00     0.013 C 
ATOM     10  C3' I4B d   1       4.834  -2.756   5.968  0.00  0.00     0.013 C 
ENDBRANCH   7   8
ENDBRANCH   1   7
TORSDOF 2
ENDMDL
