MODEL 1
REMARK minimizedAffinity 3.68383503
REMARK minimizedRMSD -1
REMARK  2 active torsions:
REMARK  status: ('A' for Active; 'I' for Inactive)
REMARK    1  A    between atoms: C2'_3  and  C1'_4 
REMARK    2  A    between atoms: C1'_4  and  C1_5 
ROOT
ATOM      1  C1  I4B d   1       2.930   4.281  -1.118  0.00  0.00    -0.075 A 
ATOM      2  C2  I4B d   1       4.261   4.611  -1.049  0.00  0.00     0.003 A 
ATOM      3  C3  I4B d   1       4.956   5.018  -2.214  0.00  0.00     0.002 A 
ATOM      4  C4  I4B d   1       4.299   5.032  -3.427  0.00  0.00    -0.004 A 
ATOM      5  C5  I4B d   1       2.944   4.719  -3.491  0.00  0.00     0.002 A 
ATOM      6  C6  I4B d   1       2.252   4.354  -2.327  0.00  0.00     0.003 A 
ENDROOT
BRANCH   1   7
ATOM      7  C1' I4B d   1       2.236   3.824   0.126  0.00  0.00     0.060 C 
BRANCH   7   8
ATOM      8  C2' I4B d   1       0.812   4.340   0.081  0.00  0.00    -0.013 C 
ATOM      9  C4' I4B d   1      -0.180   3.215   0.224  0.00  0.00     0.013 C 
ATOM     10  C3' I4B d   1       0.650   5.347   1.180  0.00  0.00     0.013 C 
ENDBRANCH   7   8
ENDBRANCH   1   7
TORSDOF 2
ENDMDL
