MODEL 1
REMARK minimizedAffinity 21.6244869
REMARK minimizedRMSD -1
REMARK  2 active torsions:
REMARK  status: ('A' for Active; 'I' for Inactive)
REMARK    1  A    between atoms: C2'_3  and  C1'_4 
REMARK    2  A    between atoms: C1'_4  and  C1_5 
ROOT
ATOM      1  C1  I4B d   1       2.040  -2.124  -2.550  0.00  0.00    -0.075 A 
ATOM      2  C2  I4B d   1       1.163  -1.364  -3.283  0.00  0.00     0.003 A 
ATOM      3  C3  I4B d   1      -0.196  -1.273  -2.896  0.00  0.00     0.002 A 
ATOM      4  C4  I4B d   1      -0.642  -1.993  -1.807  0.00  0.00    -0.004 A 
ATOM      5  C5  I4B d   1       0.253  -2.745  -1.052  0.00  0.00     0.002 A 
ATOM      6  C6  I4B d   1       1.606  -2.802  -1.419  0.00  0.00     0.003 A 
ENDROOT
BRANCH   1   7
ATOM      7  C1' I4B d   1       3.461  -2.225  -3.006  0.00  0.00     0.060 C 
BRANCH   7   8
ATOM      8  C2' I4B d   1       4.212  -3.083  -2.008  0.00  0.00    -0.013 C 
ATOM      9  C4' I4B d   1       4.746  -4.333  -2.657  0.00  0.00     0.013 C 
ATOM     10  C3' I4B d   1       5.322  -2.256  -1.430  0.00  0.00     0.013 C 
ENDBRANCH   7   8
ENDBRANCH   1   7
TORSDOF 2
ENDMDL
