MODEL 1
REMARK minimizedAffinity -3.3267076
REMARK minimizedRMSD -1
REMARK  2 active torsions:
REMARK  status: ('A' for Active; 'I' for Inactive)
REMARK    1  A    between atoms: C2'_3  and  C1'_4 
REMARK    2  A    between atoms: C1'_4  and  C1_5 
ROOT
ATOM      1  C1  I4B d   1       4.216   4.209  -4.531  0.00  0.00    -0.075 A 
ATOM      2  C2  I4B d   1       3.573   4.205  -3.318  0.00  0.00     0.003 A 
ATOM      3  C3  I4B d   1       4.136   4.884  -2.210  0.00  0.00     0.002 A 
ATOM      4  C4  I4B d   1       5.360   5.507  -2.345  0.00  0.00    -0.004 A 
ATOM      5  C5  I4B d   1       6.000   5.529  -3.581  0.00  0.00     0.002 A 
ATOM      6  C6  I4B d   1       5.419   4.887  -4.684  0.00  0.00     0.003 A 
ENDROOT
BRANCH   1   7
ATOM      7  C1' I4B d   1       3.610   3.454  -5.671  0.00  0.00     0.060 C 
BRANCH   7   8
ATOM      8  C2' I4B d   1       4.523   2.291  -5.999  0.00  0.00    -0.013 C 
ATOM      9  C4' I4B d   1       5.953   2.605  -5.647  0.00  0.00     0.013 C 
ATOM     10  C3' I4B d   1       4.031   1.090  -5.248  0.00  0.00     0.013 C 
ENDBRANCH   7   8
ENDBRANCH   1   7
TORSDOF 2
ENDMDL
