MODEL 1
REMARK minimizedAffinity 1.14914906
REMARK minimizedRMSD -1
REMARK  2 active torsions:
REMARK  status: ('A' for Active; 'I' for Inactive)
REMARK    1  A    between atoms: C2'_3  and  C1'_4 
REMARK    2  A    between atoms: C1'_4  and  C1_5 
ROOT
ATOM      1  C1  I4B d   1       4.853   4.407  -3.871  0.00  0.00    -0.075 A 
ATOM      2  C2  I4B d   1       3.669   5.033  -3.568  0.00  0.00     0.003 A 
ATOM      3  C3  I4B d   1       3.573   5.860  -2.423  0.00  0.00     0.002 A 
ATOM      4  C4  I4B d   1       4.662   5.992  -1.586  0.00  0.00    -0.004 A 
ATOM      5  C5  I4B d   1       5.868   5.376  -1.907  0.00  0.00     0.002 A 
ATOM      6  C6  I4B d   1       5.969   4.588  -3.063  0.00  0.00     0.003 A 
ENDROOT
BRANCH   1   7
ATOM      7  C1' I4B d   1       4.910   3.515  -5.070  0.00  0.00     0.060 C 
BRANCH   7   8
ATOM      8  C2' I4B d   1       5.986   2.475  -4.827  0.00  0.00    -0.013 C 
ATOM      9  C4' I4B d   1       5.744   1.730  -3.541  0.00  0.00     0.013 C 
ATOM     10  C3' I4B d   1       6.000   1.541  -6.000  0.00  0.00     0.013 C 
ENDBRANCH   7   8
ENDBRANCH   1   7
TORSDOF 2
ENDMDL
