MODEL 1
REMARK minimizedAffinity 4.24628305
REMARK minimizedRMSD -1
REMARK  2 active torsions:
REMARK  status: ('A' for Active; 'I' for Inactive)
REMARK    1  A    between atoms: C2'_3  and  C1'_4 
REMARK    2  A    between atoms: C1'_4  and  C1_5 
ROOT
ATOM      1  C1  I4B d   1       5.365   5.511  -3.572  0.00  0.00    -0.075 A 
ATOM      2  C2  I4B d   1       4.236   4.734  -3.656  0.00  0.00     0.003 A 
ATOM      3  C3  I4B d   1       3.628   4.231  -2.480  0.00  0.00     0.002 A 
ATOM      4  C4  I4B d   1       4.207   4.484  -1.254  0.00  0.00    -0.004 A 
ATOM      5  C5  I4B d   1       5.339   5.290  -1.169  0.00  0.00     0.002 A 
ATOM      6  C6  I4B d   1       5.914   5.818  -2.334  0.00  0.00     0.003 A 
ENDROOT
BRANCH   1   7
ATOM      7  C1' I4B d   1       6.000   5.999  -4.835  0.00  0.00     0.060 C 
BRANCH   7   8
ATOM      8  C2' I4B d   1       5.389   5.233  -5.991  0.00  0.00    -0.013 C 
ATOM      9  C4' I4B d   1       5.685   3.760  -5.885  0.00  0.00     0.013 C 
ATOM     10  C3' I4B d   1       3.912   5.490  -5.988  0.00  0.00     0.013 C 
ENDBRANCH   7   8
ENDBRANCH   1   7
TORSDOF 2
ENDMDL
