MODEL 1
REMARK minimizedAffinity -2.11546516
REMARK minimizedRMSD -1
REMARK  2 active torsions:
REMARK  status: ('A' for Active; 'I' for Inactive)
REMARK    1  A    between atoms: C2'_3  and  C1'_4 
REMARK    2  A    between atoms: C1'_4  and  C1_5 
ROOT
ATOM      1  C1  I4B d   1       4.067   5.248  -4.427  0.00  0.00    -0.075 A 
ATOM      2  C2  I4B d   1       4.935   5.955  -5.221  0.00  0.00     0.003 A 
ATOM      3  C3  I4B d   1       5.903   5.276  -6.000  0.00  0.00     0.002 A 
ATOM      4  C4  I4B d   1       6.000   3.902  -5.916  0.00  0.00    -0.004 A 
ATOM      5  C5  I4B d   1       5.104   3.185  -5.128  0.00  0.00     0.002 A 
ATOM      6  C6  I4B d   1       4.123   3.861  -4.388  0.00  0.00     0.003 A 
ENDROOT
BRANCH   1   7
ATOM      7  C1' I4B d   1       3.079   6.000  -3.592  0.00  0.00     0.060 C 
BRANCH   7   8
ATOM      8  C2' I4B d   1       3.563   5.971  -2.156  0.00  0.00    -0.013 C 
ATOM      9  C4' I4B d   1       2.662   5.127  -1.294  0.00  0.00     0.013 C 
ATOM     10  C3' I4B d   1       4.967   5.444  -2.152  0.00  0.00     0.013 C 
ENDBRANCH   7   8
ENDBRANCH   1   7
TORSDOF 2
ENDMDL
