MODEL 1
REMARK minimizedAffinity 8.03934097
REMARK minimizedRMSD -1
REMARK  2 active torsions:
REMARK  status: ('A' for Active; 'I' for Inactive)
REMARK    1  A    between atoms: C2'_3  and  C1'_4 
REMARK    2  A    between atoms: C1'_4  and  C1_5 
ROOT
ATOM      1  C1  I4B d   1       5.817   3.963  -4.747  0.00  0.00    -0.075 A 
ATOM      2  C2  I4B d   1       5.739   3.262  -3.570  0.00  0.00     0.003 A 
ATOM      3  C3  I4B d   1       5.599   1.853  -3.587  0.00  0.00     0.002 A 
ATOM      4  C4  I4B d   1       5.491   1.195  -4.796  0.00  0.00    -0.004 A 
ATOM      5  C5  I4B d   1       5.594   1.905  -5.989  0.00  0.00     0.002 A 
ATOM      6  C6  I4B d   1       5.770   3.297  -5.965  0.00  0.00     0.003 A 
ENDROOT
BRANCH   1   7
ATOM      7  C1' I4B d   1       5.931   5.454  -4.692  0.00  0.00     0.060 C 
BRANCH   7   8
ATOM      8  C2' I4B d   1       4.906   5.964  -3.700  0.00  0.00    -0.013 C 
ATOM      9  C4' I4B d   1       3.535   5.418  -4.003  0.00  0.00     0.013 C 
ATOM     10  C3' I4B d   1       5.355   5.567  -2.325  0.00  0.00     0.013 C 
ENDBRANCH   7   8
ENDBRANCH   1   7
TORSDOF 2
ENDMDL
