MODEL 1
REMARK minimizedAffinity -2.87864494
REMARK minimizedRMSD -1
REMARK  0 active torsions:
REMARK  status: ('A' for Active; 'I' for Inactive)
ROOT
ATOM      1  N1  IND d   1      -1.932  -1.287   0.782  0.00  0.00    -0.196 N 
ATOM      2  C2  IND d   1      -1.492  -2.534   1.128  0.00  0.00     0.054 A 
ATOM      3  C3  IND d   1      -0.165  -2.647   0.896  0.00  0.00    -0.031 A 
ATOM      4  C4  IND d   1       1.502  -0.878   0.048  0.00  0.00     0.051 A 
ATOM      5  C5  IND d   1       1.565   0.399  -0.435  0.00  0.00    -0.031 A 
ATOM      6  C6  IND d   1       0.444   1.196  -0.536  0.00  0.00     0.015 A 
ATOM      7  C7  IND d   1      -0.787   0.748  -0.146  0.00  0.00    -0.016 A 
ATOM      8  C8  IND d   1      -0.856  -0.551   0.338  0.00  0.00    -0.047 A 
ATOM      9  C9  IND d   1       0.272  -1.379   0.403  0.00  0.00    -0.096 A 
ATOM     10  HN1 IND d   1      -2.744  -1.009   0.834  0.00  0.00     0.298 HD
ENDROOT
TORSDOF 0
ENDMDL
