MODEL 1
REMARK minimizedAffinity -3.13068914
REMARK minimizedRMSD -1
REMARK  0 active torsions:
REMARK  status: ('A' for Active; 'I' for Inactive)
ROOT
ATOM      1  N1  IND d   1      -0.910   1.057  -0.372  0.00  0.00    -0.196 N 
ATOM      2  C2  IND d   1       0.265   1.692  -0.662  0.00  0.00     0.054 A 
ATOM      3  C3  IND d   1       1.317   0.902  -0.346  0.00  0.00    -0.031 A 
ATOM      4  C4  IND d   1       1.339  -1.506   0.563  0.00  0.00     0.051 A 
ATOM      5  C5  IND d   1       0.510  -2.492   1.020  0.00  0.00    -0.031 A 
ATOM      6  C6  IND d   1      -0.861  -2.344   1.034  0.00  0.00     0.015 A 
ATOM      7  C7  IND d   1      -1.459  -1.203   0.579  0.00  0.00    -0.016 A 
ATOM      8  C8  IND d   1      -0.621  -0.197   0.121  0.00  0.00    -0.047 A 
ATOM      9  C9  IND d   1       0.774  -0.325   0.144  0.00  0.00    -0.096 A 
ATOM     10  HN1 IND d   1      -1.697   1.385  -0.479  0.00  0.00     0.298 HD
ENDROOT
TORSDOF 0
ENDMDL
