MODEL 1
REMARK minimizedAffinity -1.1993854
REMARK minimizedRMSD -1
REMARK  0 active torsions:
REMARK  status: ('A' for Active; 'I' for Inactive)
ROOT
ATOM      1  N1  IND d   1      -1.395   0.748  -0.003  0.00  0.00    -0.196 N 
ATOM      2  C2  IND d   1      -0.430   1.588  -0.486  0.00  0.00     0.054 A 
ATOM      3  C3  IND d   1       0.791   1.022  -0.359  0.00  0.00    -0.031 A 
ATOM      4  C4  IND d   1       1.430  -1.311   0.520  0.00  0.00     0.051 A 
ATOM      5  C5  IND d   1       0.897  -2.425   1.106  0.00  0.00    -0.031 A 
ATOM      6  C6  IND d   1      -0.455  -2.541   1.356  0.00  0.00     0.015 A 
ATOM      7  C7  IND d   1      -1.330  -1.548   1.016  0.00  0.00    -0.016 A 
ATOM      8  C8  IND d   1      -0.791  -0.413   0.427  0.00  0.00    -0.047 A 
ATOM      9  C9  IND d   1       0.586  -0.272   0.210  0.00  0.00    -0.096 A 
ATOM     10  HN1 IND d   1      -2.238   0.918   0.028  0.00  0.00     0.298 HD
ENDROOT
TORSDOF 0
ENDMDL
