MODEL 1
REMARK minimizedAffinity -3.76820111
REMARK minimizedRMSD -1
REMARK  0 active torsions:
REMARK  status: ('A' for Active; 'I' for Inactive)
ROOT
ATOM      1  N1  IND d   1       1.546  -0.379   0.474  0.00  0.00    -0.196 N 
ATOM      2  C2  IND d   1       1.173   0.868   0.058  0.00  0.00     0.054 A 
ATOM      3  C3  IND d   1      -0.168   0.930  -0.102  0.00  0.00    -0.031 A 
ATOM      4  C4  IND d   1      -1.954  -0.867   0.359  0.00  0.00     0.051 A 
ATOM      5  C5  IND d   1      -2.096  -2.178   0.716  0.00  0.00    -0.031 A 
ATOM      6  C6  IND d   1      -1.009  -2.972   1.020  0.00  0.00     0.015 A 
ATOM      7  C7  IND d   1       0.265  -2.479   0.989  0.00  0.00    -0.016 A 
ATOM      8  C8  IND d   1       0.413  -1.150   0.619  0.00  0.00    -0.047 A 
ATOM      9  C9  IND d   1      -0.683  -0.351   0.269  0.00  0.00    -0.096 A 
ATOM     10  HN1 IND d   1       2.352  -0.639   0.620  0.00  0.00     0.298 HD
ENDROOT
TORSDOF 0
ENDMDL
