MODEL 1
REMARK minimizedAffinity -4.38756132
REMARK minimizedRMSD -1
REMARK  0 active torsions:
REMARK  status: ('A' for Active; 'I' for Inactive)
ROOT
ATOM      1  N1  IND d   1       0.367  -1.501   0.211  0.00  0.00    -0.196 N 
ATOM      2  C2  IND d   1      -0.654  -2.284   0.673  0.00  0.00     0.054 A 
ATOM      3  C3  IND d   1      -1.730  -1.524   0.974  0.00  0.00    -0.031 A 
ATOM      4  C4  IND d   1      -2.072   1.012   0.692  0.00  0.00     0.051 A 
ATOM      5  C5  IND d   1      -1.411   2.156   0.342  0.00  0.00    -0.031 A 
ATOM      6  C6  IND d   1      -0.097   2.138  -0.081  0.00  0.00     0.015 A 
ATOM      7  C7  IND d   1       0.603   0.970  -0.180  0.00  0.00    -0.016 A 
ATOM      8  C8  IND d   1      -0.063  -0.193   0.181  0.00  0.00    -0.047 A 
ATOM      9  C9  IND d   1      -1.382  -0.176   0.651  0.00  0.00    -0.096 A 
ATOM     10  HN1 IND d   1       1.147  -1.779  -0.022  0.00  0.00     0.298 HD
ENDROOT
TORSDOF 0
ENDMDL
