MODEL 1
REMARK minimizedAffinity -2.73428845
REMARK minimizedRMSD -1
REMARK  0 active torsions:
REMARK  status: ('A' for Active; 'I' for Inactive)
ROOT
ATOM      1  N1  IND d   1      -0.201   0.752  -0.413  0.00  0.00    -0.196 N 
ATOM      2  C2  IND d   1       1.137   0.776  -0.134  0.00  0.00     0.054 A 
ATOM      3  C3  IND d   1       1.512  -0.373   0.473  0.00  0.00    -0.031 A 
ATOM      4  C4  IND d   1       0.116  -2.467   1.014  0.00  0.00     0.051 A 
ATOM      5  C5  IND d   1      -1.163  -2.947   0.980  0.00  0.00    -0.031 A 
ATOM      6  C6  IND d   1      -2.208  -2.205   0.468  0.00  0.00     0.015 A 
ATOM      7  C7  IND d   1      -2.009  -0.954  -0.042  0.00  0.00    -0.016 A 
ATOM      8  C8  IND d   1      -0.712  -0.460  -0.004  0.00  0.00    -0.047 A 
ATOM      9  C9  IND d   1       0.344  -1.192   0.553  0.00  0.00    -0.096 A 
ATOM     10  HN1 IND d   1      -0.648   1.387  -0.782  0.00  0.00     0.298 HD
ENDROOT
TORSDOF 0
ENDMDL
