MODEL 1
REMARK minimizedAffinity -3.50049472
REMARK minimizedRMSD -1
REMARK  0 active torsions:
REMARK  status: ('A' for Active; 'I' for Inactive)
ROOT
ATOM      1  N1  IND d   1      -1.788  -1.762   0.741  0.00  0.00    -0.196 N 
ATOM      2  C2  IND d   1      -1.014  -2.831   1.095  0.00  0.00     0.054 A 
ATOM      3  C3  IND d   1       0.296  -2.499   1.050  0.00  0.00    -0.031 A 
ATOM      4  C4  IND d   1       1.391  -0.230   0.520  0.00  0.00     0.051 A 
ATOM      5  C5  IND d   1       1.095   1.037   0.103  0.00  0.00    -0.031 A 
ATOM      6  C6  IND d   1      -0.204   1.446  -0.124  0.00  0.00     0.015 A 
ATOM      7  C7  IND d   1      -1.260   0.601   0.069  0.00  0.00    -0.016 A 
ATOM      8  C8  IND d   1      -0.963  -0.689   0.485  0.00  0.00    -0.047 A 
ATOM      9  C9  IND d   1       0.356  -1.122   0.676  0.00  0.00    -0.096 A 
ATOM     10  HN1 IND d   1      -2.646  -1.760   0.688  0.00  0.00     0.298 HD
ENDROOT
TORSDOF 0
ENDMDL
