MODEL 1
REMARK minimizedAffinity -2.29809022
REMARK minimizedRMSD -1
REMARK  0 active torsions:
REMARK  status: ('A' for Active; 'I' for Inactive)
ROOT
ATOM      1  N1  IND d   1      -1.241   0.749  -0.175  0.00  0.00    -0.196 N 
ATOM      2  C2  IND d   1      -0.171   1.478  -0.615  0.00  0.00     0.054 A 
ATOM      3  C3  IND d   1       0.986   0.905  -0.215  0.00  0.00    -0.031 A 
ATOM      4  C4  IND d   1       1.362  -1.286   1.084  0.00  0.00     0.051 A 
ATOM      5  C5  IND d   1       0.689  -2.282   1.733  0.00  0.00    -0.031 A 
ATOM      6  C6  IND d   1      -0.690  -2.321   1.778  0.00  0.00     0.015 A 
ATOM      7  C7  IND d   1      -1.450  -1.367   1.163  0.00  0.00    -0.016 A 
ATOM      8  C8  IND d   1      -0.770  -0.350   0.509  0.00  0.00    -0.047 A 
ATOM      9  C9  IND d   1       0.629  -0.282   0.496  0.00  0.00    -0.096 A 
ATOM     10  HN1 IND d   1      -2.068   0.945  -0.303  0.00  0.00     0.298 HD
ENDROOT
TORSDOF 0
ENDMDL
