MODEL 1
REMARK minimizedAffinity -5.41736746
REMARK minimizedRMSD -1
REMARK  0 active torsions:
REMARK  status: ('A' for Active; 'I' for Inactive)
ROOT
ATOM      1  N1  IND d   1      -0.624   1.209  -0.176  0.00  0.00    -0.196 N 
ATOM      2  C2  IND d   1       0.699   1.234  -0.521  0.00  0.00     0.054 A 
ATOM      3  C3  IND d   1       1.248   0.009  -0.363  0.00  0.00    -0.031 A 
ATOM      4  C4  IND d   1       0.139  -2.202   0.351  0.00  0.00     0.051 A 
ATOM      5  C5  IND d   1      -1.043  -2.717   0.803  0.00  0.00    -0.031 A 
ATOM      6  C6  IND d   1      -2.170  -1.935   0.952  0.00  0.00     0.015 A 
ATOM      7  C7  IND d   1      -2.159  -0.604   0.643  0.00  0.00    -0.016 A 
ATOM      8  C8  IND d   1      -0.958  -0.076   0.190  0.00  0.00    -0.047 A 
ATOM      9  C9  IND d   1       0.200  -0.856   0.078  0.00  0.00    -0.096 A 
ATOM     10  HN1 IND d   1      -1.158   1.883  -0.186  0.00  0.00     0.298 HD
ENDROOT
TORSDOF 0
ENDMDL
