MODEL 1
REMARK minimizedAffinity -2.315202
REMARK minimizedRMSD -1
REMARK  0 active torsions:
REMARK  status: ('A' for Active; 'I' for Inactive)
ROOT
ATOM      1  N1  IND d   1      -0.761   1.460  -0.607  0.00  0.00    -0.196 N 
ATOM      2  C2  IND d   1       0.466   1.679  -1.167  0.00  0.00     0.054 A 
ATOM      3  C3  IND d   1       1.268   0.607  -0.976  0.00  0.00    -0.031 A 
ATOM      4  C4  IND d   1       0.740  -1.652   0.139  0.00  0.00     0.051 A 
ATOM      5  C5  IND d   1      -0.238  -2.309   0.833  0.00  0.00    -0.031 A 
ATOM      6  C6  IND d   1      -1.465  -1.732   1.085  0.00  0.00     0.015 A 
ATOM      7  C7  IND d   1      -1.767  -0.475   0.641  0.00  0.00    -0.016 A 
ATOM      8  C8  IND d   1      -0.774   0.197  -0.058  0.00  0.00    -0.047 A 
ATOM      9  C9  IND d   1       0.489  -0.367  -0.280  0.00  0.00    -0.096 A 
ATOM     10  HN1 IND d   1      -1.415   2.019  -0.598  0.00  0.00     0.298 HD
ENDROOT
TORSDOF 0
ENDMDL
