MODEL 1
REMARK minimizedAffinity -3.37731099
REMARK minimizedRMSD -1
REMARK  0 active torsions:
REMARK  status: ('A' for Active; 'I' for Inactive)
ROOT
ATOM      1  N1  IND d   1      -0.115   0.438  -0.738  0.00  0.00    -0.196 N 
ATOM      2  C2  IND d   1       1.098   0.454  -0.107  0.00  0.00     0.054 A 
ATOM      3  C3  IND d   1       1.140  -0.495   0.856  0.00  0.00    -0.031 A 
ATOM      4  C4  IND d   1      -0.628  -2.252   1.499  0.00  0.00     0.051 A 
ATOM      5  C5  IND d   1      -1.912  -2.637   1.230  0.00  0.00    -0.031 A 
ATOM      6  C6  IND d   1      -2.676  -2.006   0.269  0.00  0.00     0.015 A 
ATOM      7  C7  IND d   1      -2.179  -0.969  -0.468  0.00  0.00    -0.016 A 
ATOM      8  C8  IND d   1      -0.879  -0.571  -0.193  0.00  0.00    -0.047 A 
ATOM      9  C9  IND d   1      -0.113  -1.179   0.810  0.00  0.00    -0.096 A 
ATOM     10  HN1 IND d   1      -0.359   0.968  -1.369  0.00  0.00     0.298 HD
ENDROOT
TORSDOF 0
ENDMDL
