MODEL 1
REMARK minimizedAffinity -4.57515049
REMARK minimizedRMSD -1
REMARK  0 active torsions:
REMARK  status: ('A' for Active; 'I' for Inactive)
ROOT
ATOM      1  N1  IND d   1      -1.205   0.407  -0.919  0.00  0.00    -0.196 N 
ATOM      2  C2  IND d   1      -0.602  -0.096   0.200  0.00  0.00     0.054 A 
ATOM      3  C3  IND d   1       0.719   0.189   0.191  0.00  0.00    -0.031 A 
ATOM      4  C4  IND d   1       2.086   1.556  -1.508  0.00  0.00     0.051 A 
ATOM      5  C5  IND d   1       1.982   2.189  -2.715  0.00  0.00    -0.031 A 
ATOM      6  C6  IND d   1       0.785   2.264  -3.397  0.00  0.00     0.015 A 
ATOM      7  C7  IND d   1      -0.360   1.716  -2.891  0.00  0.00    -0.016 A 
ATOM      8  C8  IND d   1      -0.256   1.067  -1.669  0.00  0.00    -0.047 A 
ATOM      9  C9  IND d   1       0.965   0.951  -0.992  0.00  0.00    -0.096 A 
ATOM     10  HN1 IND d   1      -2.037   0.326  -1.121  0.00  0.00     0.298 HD
ENDROOT
TORSDOF 0
ENDMDL
