MODEL 1
REMARK minimizedAffinity -5.25559092
REMARK minimizedRMSD -1
REMARK  0 active torsions:
REMARK  status: ('A' for Active; 'I' for Inactive)
ROOT
ATOM      1  N1  IND d   1      -1.205   1.573   1.033  0.00  0.00    -0.196 N 
ATOM      2  C2  IND d   1      -2.427   1.526   1.645  0.00  0.00     0.054 A 
ATOM      3  C3  IND d   1      -2.793   0.244   1.865  0.00  0.00    -0.031 A 
ATOM      4  C4  IND d   1      -1.498  -1.931   1.395  0.00  0.00     0.051 A 
ATOM      5  C5  IND d   1      -0.354  -2.399   0.812  0.00  0.00    -0.031 A 
ATOM      6  C6  IND d   1       0.585  -1.549   0.264  0.00  0.00     0.015 A 
ATOM      7  C7  IND d   1       0.419  -0.193   0.289  0.00  0.00    -0.016 A 
ATOM      8  C8  IND d   1      -0.744   0.285   0.874  0.00  0.00    -0.047 A 
ATOM      9  C9  IND d   1      -1.721  -0.574   1.394  0.00  0.00    -0.096 A 
ATOM     10  HN1 IND d   1      -0.794   2.288   0.788  0.00  0.00     0.298 HD
ENDROOT
TORSDOF 0
ENDMDL
