MODEL 1
REMARK minimizedAffinity -3.67997289
REMARK minimizedRMSD -1
REMARK  0 active torsions:
REMARK  status: ('A' for Active; 'I' for Inactive)
ROOT
ATOM      1  N1  IND d   1      -2.280  -1.181   0.779  0.00  0.00    -0.196 N 
ATOM      2  C2  IND d   1      -1.837  -2.472   0.713  0.00  0.00     0.054 A 
ATOM      3  C3  IND d   1      -0.497  -2.501   0.535  0.00  0.00    -0.031 A 
ATOM      4  C4  IND d   1       1.181  -0.552   0.428  0.00  0.00     0.051 A 
ATOM      5  C5  IND d   1       1.246   0.813   0.405  0.00  0.00    -0.031 A 
ATOM      6  C6  IND d   1       0.117   1.599   0.511  0.00  0.00     0.015 A 
ATOM      7  C7  IND d   1      -1.124   1.047   0.655  0.00  0.00    -0.016 A 
ATOM      8  C8  IND d   1      -1.195  -0.339   0.672  0.00  0.00    -0.047 A 
ATOM      9  C9  IND d   1      -0.057  -1.142   0.522  0.00  0.00    -0.096 A 
ATOM     10  HN1 IND d   1      -3.099  -0.935   0.873  0.00  0.00     0.298 HD
ENDROOT
TORSDOF 0
ENDMDL
