MODEL 1
REMARK minimizedAffinity -4.89485312
REMARK minimizedRMSD -1
REMARK  0 active torsions:
REMARK  status: ('A' for Active; 'I' for Inactive)
ROOT
ATOM      1  N1  IND d   1      -0.024   0.425  -0.446  0.00  0.00    -0.196 N 
ATOM      2  C2  IND d   1       1.289   0.396  -0.065  0.00  0.00     0.054 A 
ATOM      3  C3  IND d   1       1.521  -0.666   0.740  0.00  0.00    -0.031 A 
ATOM      4  C4  IND d   1      -0.081  -2.540   1.479  0.00  0.00     0.051 A 
ATOM      5  C5  IND d   1      -1.390  -2.926   1.414  0.00  0.00    -0.031 A 
ATOM      6  C6  IND d   1      -2.330  -2.201   0.710  0.00  0.00     0.015 A 
ATOM      7  C7  IND d   1      -1.991  -1.064   0.031  0.00  0.00    -0.016 A 
ATOM      8  C8  IND d   1      -0.663  -0.666   0.100  0.00  0.00    -0.047 A 
ATOM      9  C9  IND d   1       0.286  -1.375   0.848  0.00  0.00    -0.096 A 
ATOM     10  HN1 IND d   1      -0.388   1.023  -0.944  0.00  0.00     0.298 HD
ENDROOT
TORSDOF 0
ENDMDL
