MODEL 1
REMARK minimizedAffinity -2.68560672
REMARK minimizedRMSD -1
REMARK  0 active torsions:
REMARK  status: ('A' for Active; 'I' for Inactive)
ROOT
ATOM      1  N1  IND d   1       1.166   0.455  -1.034  0.00  0.00    -0.196 N 
ATOM      2  C2  IND d   1       0.188   1.219  -1.607  0.00  0.00     0.054 A 
ATOM      3  C3  IND d   1      -1.034   0.768  -1.243  0.00  0.00    -0.031 A 
ATOM      4  C4  IND d   1      -1.661  -1.143   0.364  0.00  0.00     0.051 A 
ATOM      5  C5  IND d   1      -1.111  -2.152   1.104  0.00  0.00    -0.031 A 
ATOM      6  C6  IND d   1       0.253  -2.346   1.172  0.00  0.00     0.015 A 
ATOM      7  C7  IND d   1       1.124  -1.527   0.510  0.00  0.00    -0.016 A 
ATOM      8  C8  IND d   1       0.569  -0.506  -0.248  0.00  0.00    -0.047 A 
ATOM      9  C9  IND d   1      -0.817  -0.330  -0.355  0.00  0.00    -0.096 A 
ATOM     10  HN1 IND d   1       2.013   0.557  -1.146  0.00  0.00     0.298 HD
ENDROOT
TORSDOF 0
ENDMDL
