MODEL 1
REMARK minimizedAffinity -4.27562618
REMARK minimizedRMSD -1
REMARK  0 active torsions:
REMARK  status: ('A' for Active; 'I' for Inactive)
ROOT
ATOM      1  N1  IND d   1      -2.995  -3.662  -5.992  0.00  0.00    -0.196 N 
ATOM      2  C2  IND d   1      -2.508  -4.522  -5.048  0.00  0.00     0.054 A 
ATOM      3  C3  IND d   1      -3.193  -4.387  -3.890  0.00  0.00    -0.031 A 
ATOM      4  C4  IND d   1      -5.216  -2.890  -3.352  0.00  0.00     0.051 A 
ATOM      5  C5  IND d   1      -5.998  -1.903  -3.885  0.00  0.00    -0.031 A 
ATOM      6  C6  IND d   1      -5.817  -1.445  -5.174  0.00  0.00     0.015 A 
ATOM      7  C7  IND d   1      -4.850  -1.967  -5.986  0.00  0.00    -0.016 A 
ATOM      8  C8  IND d   1      -4.050  -2.964  -5.446  0.00  0.00    -0.047 A 
ATOM      9  C9  IND d   1      -4.201  -3.403  -4.125  0.00  0.00    -0.096 A 
ATOM     10  HN1 IND d   1      -2.694  -3.572  -6.792  0.00  0.00     0.298 HD
ENDROOT
TORSDOF 0
ENDMDL
