MODEL 1
REMARK minimizedAffinity 8.49716091
REMARK minimizedRMSD -1
REMARK  1 active torsions:
REMARK  status: ('A' for Active; 'I' for Inactive)
REMARK    1  A    between atoms: C3_4  and  O_7 
ROOT
ATOM      1  C   UNL d   1      -0.530   2.069   0.532  0.00  0.00    -0.033 A 
ATOM      2  C1  UNL d   1       0.484   1.949  -0.421  0.00  0.00     0.039 A 
ATOM      3  C2  UNL d   1       0.848   3.050  -1.198  0.00  0.00    -0.080 A 
ATOM      4  C3  UNL d   1       0.193   4.264  -1.012  0.00  0.00     0.150 A 
ATOM      5  C4  UNL d   1      -0.815   4.392  -0.062  0.00  0.00    -0.007 A 
ATOM      6  C5  UNL d   1      -1.178   3.291   0.712  0.00  0.00     0.039 A 
ENDROOT
BRANCH   4   7
ATOM      7  O   UNL d   1       0.511   5.366  -1.750  0.00  0.00    -0.526 OA
ATOM      8  H5  UNL d   1       1.204   5.121  -2.385  0.00  0.00     0.418 HD
ENDBRANCH   4   7
TORSDOF 1
ENDMDL
