MODEL 1
REMARK minimizedAffinity 2.16392827
REMARK minimizedRMSD -1
REMARK  1 active torsions:
REMARK  status: ('A' for Active; 'I' for Inactive)
REMARK    1  A    between atoms: C3_4  and  O_7 
ROOT
ATOM      1  C   UNL d   1      -5.488  -4.193  -5.951  0.00  0.00    -0.033 A 
ATOM      2  C1  UNL d   1      -4.245  -3.557  -6.000  0.00  0.00     0.039 A 
ATOM      3  C2  UNL d   1      -3.136  -4.142  -5.385  0.00  0.00    -0.080 A 
ATOM      4  C3  UNL d   1      -3.282  -5.359  -4.727  0.00  0.00     0.150 A 
ATOM      5  C4  UNL d   1      -4.516  -6.000  -4.678  0.00  0.00    -0.007 A 
ATOM      6  C5  UNL d   1      -5.623  -5.414  -5.291  0.00  0.00     0.039 A 
ENDROOT
BRANCH   4   7
ATOM      7  O   UNL d   1      -2.230  -5.966  -4.108  0.00  0.00    -0.526 OA
ATOM      8  H5  UNL d   1      -1.448  -5.395  -4.199  0.00  0.00     0.418 HD
ENDBRANCH   4   7
TORSDOF 1
ENDMDL
