MODEL 1
REMARK minimizedAffinity 6.42114735
REMARK minimizedRMSD -1
REMARK  1 active torsions:
REMARK  status: ('A' for Active; 'I' for Inactive)
REMARK    1  A    between atoms: C3_4  and  O_7 
ROOT
ATOM      1  C   UNL d   1       0.427   4.096  -1.472  0.00  0.00    -0.033 A 
ATOM      2  C1  UNL d   1       1.613   4.029  -0.739  0.00  0.00     0.039 A 
ATOM      3  C2  UNL d   1       1.691   3.215   0.393  0.00  0.00    -0.080 A 
ATOM      4  C3  UNL d   1       0.577   2.474   0.780  0.00  0.00     0.150 A 
ATOM      5  C4  UNL d   1      -0.606   2.533   0.051  0.00  0.00    -0.007 A 
ATOM      6  C5  UNL d   1      -0.682   3.348  -1.078  0.00  0.00     0.039 A 
ENDROOT
BRANCH   4   7
ATOM      7  O   UNL d   1       0.604   1.669   1.880  0.00  0.00    -0.526 OA
ATOM      8  H5  UNL d   1       1.476   1.750   2.300  0.00  0.00     0.418 HD
ENDBRANCH   4   7
TORSDOF 1
ENDMDL
