MODEL 1
REMARK minimizedAffinity 16.5529861
REMARK minimizedRMSD -1
REMARK  1 active torsions:
REMARK  status: ('A' for Active; 'I' for Inactive)
REMARK    1  A    between atoms: C3_4  and  O_7 
ROOT
ATOM      1  C   UNL d   1       3.588  -1.844   0.326  0.00  0.00    -0.033 A 
ATOM      2  C1  UNL d   1       2.226  -1.541   0.373  0.00  0.00     0.039 A 
ATOM      3  C2  UNL d   1       1.281  -2.510   0.029  0.00  0.00    -0.080 A 
ATOM      4  C3  UNL d   1       1.710  -3.776  -0.359  0.00  0.00     0.150 A 
ATOM      5  C4  UNL d   1       3.065  -4.086  -0.405  0.00  0.00    -0.007 A 
ATOM      6  C5  UNL d   1       4.007  -3.117  -0.062  0.00  0.00     0.039 A 
ENDROOT
BRANCH   4   7
ATOM      7  O   UNL d   1       0.825  -4.752  -0.709  0.00  0.00    -0.526 OA
ATOM      8  H5  UNL d   1      -0.074  -4.386  -0.657  0.00  0.00     0.418 HD
ENDBRANCH   4   7
TORSDOF 1
ENDMDL
