MODEL 1
REMARK minimizedAffinity 9.30378151
REMARK minimizedRMSD -1
REMARK  1 active torsions:
REMARK  status: ('A' for Active; 'I' for Inactive)
REMARK    1  A    between atoms: C3_4  and  O_7 
ROOT
ATOM      1  C   UNL d   1      -0.122   1.836   2.894  0.00  0.00    -0.033 A 
ATOM      2  C1  UNL d   1       1.229   2.008   2.586  0.00  0.00     0.039 A 
ATOM      3  C2  UNL d   1       1.607   2.426   1.308  0.00  0.00    -0.080 A 
ATOM      4  C3  UNL d   1       0.626   2.668   0.350  0.00  0.00     0.150 A 
ATOM      5  C4  UNL d   1      -0.721   2.502   0.652  0.00  0.00    -0.007 A 
ATOM      6  C5  UNL d   1      -1.097   2.084   1.928  0.00  0.00     0.039 A 
ENDROOT
BRANCH   4   7
ATOM      7  O   UNL d   1       0.947   3.072  -0.912  0.00  0.00    -0.526 OA
ATOM      8  H5  UNL d   1       1.915   3.116  -0.984  0.00  0.00     0.418 HD
ENDBRANCH   4   7
TORSDOF 1
ENDMDL
