MODEL 1
REMARK minimizedAffinity 8.71627235
REMARK minimizedRMSD -1
REMARK  1 active torsions:
REMARK  status: ('A' for Active; 'I' for Inactive)
REMARK    1  A    between atoms: C3_4  and  O_7 
ROOT
ATOM      1  C   UNL d   1       0.960   2.991  -0.880  0.00  0.00    -0.033 A 
ATOM      2  C1  UNL d   1       2.217   3.590  -0.788  0.00  0.00     0.039 A 
ATOM      3  C2  UNL d   1       3.017   3.370   0.335  0.00  0.00    -0.080 A 
ATOM      4  C3  UNL d   1       2.549   2.549   1.357  0.00  0.00     0.150 A 
ATOM      5  C4  UNL d   1       1.299   1.946   1.270  0.00  0.00    -0.007 A 
ATOM      6  C5  UNL d   1       0.501   2.167   0.149  0.00  0.00     0.039 A 
ENDROOT
BRANCH   4   7
ATOM      7  O   UNL d   1       3.292   2.309   2.474  0.00  0.00    -0.526 OA
ATOM      8  H5  UNL d   1       4.120   2.814   2.408  0.00  0.00     0.418 HD
ENDBRANCH   4   7
TORSDOF 1
ENDMDL
