MODEL 1
REMARK minimizedAffinity 12.3784351
REMARK minimizedRMSD -1
REMARK  1 active torsions:
REMARK  status: ('A' for Active; 'I' for Inactive)
REMARK    1  A    between atoms: C3_4  and  O_7 
ROOT
ATOM      1  C   UNL d   1      -3.745   2.519  -3.838  0.00  0.00    -0.033 A 
ATOM      2  C1  UNL d   1      -4.858   1.835  -3.345  0.00  0.00     0.039 A 
ATOM      3  C2  UNL d   1      -5.393   0.762  -4.060  0.00  0.00    -0.080 A 
ATOM      4  C3  UNL d   1      -4.807   0.383  -5.264  0.00  0.00     0.150 A 
ATOM      5  C4  UNL d   1      -3.696   1.057  -5.759  0.00  0.00    -0.007 A 
ATOM      6  C5  UNL d   1      -3.163   2.129  -5.045  0.00  0.00     0.039 A 
ENDROOT
BRANCH   4   7
ATOM      7  O   UNL d   1      -5.296  -0.656  -5.999  0.00  0.00    -0.526 OA
ATOM      8  H5  UNL d   1      -6.082  -1.008  -5.549  0.00  0.00     0.418 HD
ENDBRANCH   4   7
TORSDOF 1
ENDMDL
