MODEL 1
REMARK minimizedAffinity 7.05357075
REMARK minimizedRMSD -1
REMARK  1 active torsions:
REMARK  status: ('A' for Active; 'I' for Inactive)
REMARK    1  A    between atoms: C3_4  and  O_7 
ROOT
ATOM      1  C   UNL d   1       0.975  -5.030  -1.215  0.00  0.00    -0.033 A 
ATOM      2  C1  UNL d   1      -0.076  -4.428  -1.909  0.00  0.00     0.039 A 
ATOM      3  C2  UNL d   1       0.062  -4.128  -3.266  0.00  0.00    -0.080 A 
ATOM      4  C3  UNL d   1       1.254  -4.436  -3.915  0.00  0.00     0.150 A 
ATOM      5  C4  UNL d   1       2.304  -5.040  -3.231  0.00  0.00    -0.007 A 
ATOM      6  C5  UNL d   1       2.164  -5.337  -1.876  0.00  0.00     0.039 A 
ENDROOT
BRANCH   4   7
ATOM      7  O   UNL d   1       1.438  -4.159  -5.237  0.00  0.00    -0.526 OA
ATOM      8  H5  UNL d   1       0.640  -3.717  -5.573  0.00  0.00     0.418 HD
ENDBRANCH   4   7
TORSDOF 1
ENDMDL
