MODEL 1
REMARK minimizedAffinity 4.91695833
REMARK minimizedRMSD -1
REMARK  1 active torsions:
REMARK  status: ('A' for Active; 'I' for Inactive)
REMARK    1  A    between atoms: C3_4  and  O_7 
ROOT
ATOM      1  C   UNL d   1      -0.366   2.441   1.638  0.00  0.00    -0.033 A 
ATOM      2  C1  UNL d   1       0.094   2.281   0.329  0.00  0.00     0.039 A 
ATOM      3  C2  UNL d   1      -0.786   2.428  -0.745  0.00  0.00    -0.080 A 
ATOM      4  C3  UNL d   1      -2.121   2.734  -0.497  0.00  0.00     0.150 A 
ATOM      5  C4  UNL d   1      -2.585   2.899   0.804  0.00  0.00    -0.007 A 
ATOM      6  C5  UNL d   1      -1.705   2.751   1.875  0.00  0.00     0.039 A 
ENDROOT
BRANCH   4   7
ATOM      7  O   UNL d   1      -3.019   2.883  -1.512  0.00  0.00    -0.526 OA
ATOM      8  H5  UNL d   1      -2.563   2.712  -2.353  0.00  0.00     0.418 HD
ENDBRANCH   4   7
TORSDOF 1
ENDMDL
