MODEL 1
REMARK minimizedAffinity 4.62221766
REMARK minimizedRMSD -1
REMARK  1 active torsions:
REMARK  status: ('A' for Active; 'I' for Inactive)
REMARK    1  A    between atoms: C3_4  and  O_7 
ROOT
ATOM      1  C   UNL d   1      -4.229   1.710  -1.042  0.00  0.00    -0.033 A 
ATOM      2  C1  UNL d   1      -4.790   2.192   0.142  0.00  0.00     0.039 A 
ATOM      3  C2  UNL d   1      -4.959   1.339   1.234  0.00  0.00    -0.080 A 
ATOM      4  C3  UNL d   1      -4.563   0.009   1.130  0.00  0.00     0.150 A 
ATOM      5  C4  UNL d   1      -4.000  -0.478  -0.045  0.00  0.00    -0.007 A 
ATOM      6  C5  UNL d   1      -3.833   0.375  -1.136  0.00  0.00     0.039 A 
ENDROOT
BRANCH   4   7
ATOM      7  O   UNL d   1      -4.713  -0.863   2.168  0.00  0.00    -0.526 OA
ATOM      8  H5  UNL d   1      -5.141  -0.394   2.904  0.00  0.00     0.418 HD
ENDBRANCH   4   7
TORSDOF 1
ENDMDL
