MODEL 1
REMARK minimizedAffinity -1.73247278
REMARK minimizedRMSD -1
REMARK  0 active torsions:
REMARK  status: ('A' for Active; 'I' for Inactive)
ROOT
ATOM      1  C   UNL d   1      -1.123   1.854   1.379  0.00  0.00     0.023 A 
ATOM      2  C1  UNL d   1      -0.099   2.233   0.512  0.00  0.00     0.003 A 
ATOM      3  C2  UNL d   1       0.562   1.271  -0.254  0.00  0.00     0.048 A 
ATOM      4  C3  UNL d   1       0.194  -0.070  -0.148  0.00  0.00     0.023 A 
ATOM      5  C4  UNL d   1      -0.832  -0.454   0.718  0.00  0.00     0.048 A 
ATOM      6  C5  UNL d   1      -1.489   0.511   1.482  0.00  0.00     0.003 A 
ATOM      7  I   UNL d   1       1.176  -1.504  -1.286  0.00  0.00    -0.146 I 
ENDROOT
TORSDOF 0
ENDMDL
