MODEL 1
REMARK minimizedAffinity -3.89918399
REMARK minimizedRMSD -1
REMARK  0 active torsions:
REMARK  status: ('A' for Active; 'I' for Inactive)
ROOT
ATOM      1  C   UNL d   1       2.613  -0.072  -2.751  0.00  0.00     0.023 A 
ATOM      2  C1  UNL d   1       1.957   1.157  -2.827  0.00  0.00     0.003 A 
ATOM      3  C2  UNL d   1       0.937   1.462  -1.923  0.00  0.00     0.048 A 
ATOM      4  C3  UNL d   1       0.579   0.534  -0.945  0.00  0.00     0.023 A 
ATOM      5  C4  UNL d   1       1.233  -0.696  -0.866  0.00  0.00     0.048 A 
ATOM      6  C5  UNL d   1       2.252  -0.997  -1.772  0.00  0.00     0.003 A 
ATOM      7  I   UNL d   1      -0.938   0.986   0.401  0.00  0.00    -0.146 I 
ENDROOT
TORSDOF 0
ENDMDL
