MODEL 1
REMARK minimizedAffinity -4.55626249
REMARK minimizedRMSD -1
REMARK  0 active torsions:
REMARK  status: ('A' for Active; 'I' for Inactive)
ROOT
ATOM      1  C   UNL d   1       1.059  -2.220  -0.500  0.00  0.00     0.023 A 
ATOM      2  C1  UNL d   1       1.799  -1.405  -1.356  0.00  0.00     0.003 A 
ATOM      3  C2  UNL d   1       1.450  -0.064  -1.521  0.00  0.00     0.048 A 
ATOM      4  C3  UNL d   1       0.359   0.457  -0.826  0.00  0.00     0.023 A 
ATOM      5  C4  UNL d   1      -0.385  -0.355   0.032  0.00  0.00     0.048 A 
ATOM      6  C5  UNL d   1      -0.032  -1.696   0.193  0.00  0.00     0.003 A 
ATOM      7  I   UNL d   1      -0.163   2.454  -1.069  0.00  0.00    -0.146 I 
ENDROOT
TORSDOF 0
ENDMDL
