MODEL 1
REMARK minimizedAffinity -3.32647371
REMARK minimizedRMSD -1
REMARK  0 active torsions:
REMARK  status: ('A' for Active; 'I' for Inactive)
ROOT
ATOM      1  C   UNL d   1       1.858  -1.312  -1.943  0.00  0.00     0.023 A 
ATOM      2  C1  UNL d   1       1.311  -0.065  -2.244  0.00  0.00     0.003 A 
ATOM      3  C2  UNL d   1       0.434   0.548  -1.347  0.00  0.00     0.048 A 
ATOM      4  C3  UNL d   1       0.109  -0.091  -0.151  0.00  0.00     0.023 A 
ATOM      5  C4  UNL d   1       0.655  -1.338   0.154  0.00  0.00     0.048 A 
ATOM      6  C5  UNL d   1       1.531  -1.948  -0.746  0.00  0.00     0.003 A 
ATOM      7  I   UNL d   1      -1.196   0.820   1.185  0.00  0.00    -0.146 I 
ENDROOT
TORSDOF 0
ENDMDL
