MODEL 1
REMARK minimizedAffinity -4.03370667
REMARK minimizedRMSD -1
REMARK  0 active torsions:
REMARK  status: ('A' for Active; 'I' for Inactive)
ROOT
ATOM      1  C   UNL d   1       0.047   0.569  -1.125  0.00  0.00     0.023 A 
ATOM      2  C1  UNL d   1       0.426  -0.047   0.067  0.00  0.00     0.003 A 
ATOM      3  C2  UNL d   1      -0.151   0.350   1.275  0.00  0.00     0.048 A 
ATOM      4  C3  UNL d   1      -1.109   1.364   1.283  0.00  0.00     0.023 A 
ATOM      5  C4  UNL d   1      -1.493   1.983   0.092  0.00  0.00     0.048 A 
ATOM      6  C5  UNL d   1      -0.912   1.583  -1.113  0.00  0.00     0.003 A 
ATOM      7  I   UNL d   1      -1.970   1.957   3.079  0.00  0.00    -0.146 I 
ENDROOT
TORSDOF 0
ENDMDL
