MODEL 1
REMARK minimizedAffinity -2.28023291
REMARK minimizedRMSD -1
REMARK  0 active torsions:
REMARK  status: ('A' for Active; 'I' for Inactive)
ROOT
ATOM      1  C   UNL d   1       4.554   2.997   2.968  0.00  0.00     0.023 A 
ATOM      2  C1  UNL d   1       4.274   1.663   2.670  0.00  0.00     0.003 A 
ATOM      3  C2  UNL d   1       4.687   0.651   3.539  0.00  0.00     0.048 A 
ATOM      4  C3  UNL d   1       5.378   0.979   4.705  0.00  0.00     0.023 A 
ATOM      5  C4  UNL d   1       5.659   2.313   5.008  0.00  0.00     0.048 A 
ATOM      6  C5  UNL d   1       5.245   3.321   4.136  0.00  0.00     0.003 A 
ATOM      7  I   UNL d   1       5.993  -0.526   5.999  0.00  0.00    -0.146 I 
ENDROOT
TORSDOF 0
ENDMDL
