MODEL 1
REMARK minimizedAffinity -3.54862833
REMARK minimizedRMSD -1
REMARK  0 active torsions:
REMARK  status: ('A' for Active; 'I' for Inactive)
ROOT
ATOM      1  C   UNL d   1      -1.951   2.213   2.271  0.00  0.00     0.023 A 
ATOM      2  C1  UNL d   1      -2.205   0.856   2.472  0.00  0.00     0.003 A 
ATOM      3  C2  UNL d   1      -1.582  -0.099   1.665  0.00  0.00     0.048 A 
ATOM      4  C3  UNL d   1      -0.706   0.310   0.661  0.00  0.00     0.023 A 
ATOM      5  C4  UNL d   1      -0.448   1.666   0.456  0.00  0.00     0.048 A 
ATOM      6  C5  UNL d   1      -1.074   2.617   1.264  0.00  0.00     0.003 A 
ATOM      7  I   UNL d   1       0.222  -1.110  -0.541  0.00  0.00    -0.146 I 
ENDROOT
TORSDOF 0
ENDMDL
