MODEL 1
REMARK minimizedAffinity -4.69529486
REMARK minimizedRMSD -1
REMARK  0 active torsions:
REMARK  status: ('A' for Active; 'I' for Inactive)
ROOT
ATOM      1  C   UNL d   1       1.713  -1.746  -1.217  0.00  0.00     0.023 A 
ATOM      2  C1  UNL d   1       2.633  -0.757  -0.868  0.00  0.00     0.003 A 
ATOM      3  C2  UNL d   1       2.203   0.398  -0.212  0.00  0.00     0.048 A 
ATOM      4  C3  UNL d   1       0.851   0.558   0.092  0.00  0.00     0.023 A 
ATOM      5  C4  UNL d   1      -0.073  -0.429  -0.255  0.00  0.00     0.048 A 
ATOM      6  C5  UNL d   1       0.362  -1.582  -0.911  0.00  0.00     0.003 A 
ATOM      7  I   UNL d   1       0.209   2.277   1.068  0.00  0.00    -0.146 I 
ENDROOT
TORSDOF 0
ENDMDL
