MODEL 1
REMARK minimizedAffinity -0.384463251
REMARK minimizedRMSD -1
REMARK  0 active torsions:
REMARK  status: ('A' for Active; 'I' for Inactive)
ROOT
ATOM      1  C   UNL d   1      -0.020   1.248  -0.670  0.00  0.00     0.023 A 
ATOM      2  C1  UNL d   1       0.085   2.235   0.310  0.00  0.00     0.003 A 
ATOM      3  C2  UNL d   1      -0.357   1.980   1.610  0.00  0.00     0.048 A 
ATOM      4  C3  UNL d   1      -0.903   0.735   1.923  0.00  0.00     0.023 A 
ATOM      5  C4  UNL d   1      -1.008  -0.256   0.946  0.00  0.00     0.048 A 
ATOM      6  C5  UNL d   1      -0.566   0.004  -0.353  0.00  0.00     0.003 A 
ATOM      7  I   UNL d   1      -1.561   0.352   3.857  0.00  0.00    -0.146 I 
ENDROOT
TORSDOF 0
ENDMDL
