MODEL 1
REMARK minimizedAffinity -1.51917434
REMARK minimizedRMSD -1
REMARK  0 active torsions:
REMARK  status: ('A' for Active; 'I' for Inactive)
ROOT
ATOM      1  C   UNL d   1       1.010  -2.738  -0.767  0.00  0.00     0.023 A 
ATOM      2  C1  UNL d   1      -0.091  -2.413   0.025  0.00  0.00     0.003 A 
ATOM      3  C2  UNL d   1      -0.483  -1.081   0.166  0.00  0.00     0.048 A 
ATOM      4  C3  UNL d   1       0.230  -0.077  -0.489  0.00  0.00     0.023 A 
ATOM      5  C4  UNL d   1       1.332  -0.397  -1.283  0.00  0.00     0.048 A 
ATOM      6  C5  UNL d   1       1.721  -1.731  -1.421  0.00  0.00     0.003 A 
ATOM      7  I   UNL d   1      -0.352   1.907  -0.280  0.00  0.00    -0.146 I 
ENDROOT
TORSDOF 0
ENDMDL
