MODEL 1
REMARK minimizedAffinity -4.75913239
REMARK minimizedRMSD -1
REMARK  0 active torsions:
REMARK  status: ('A' for Active; 'I' for Inactive)
ROOT
ATOM      1  C   UNL d   1       1.910  -1.328  -0.702  0.00  0.00     0.023 A 
ATOM      2  C1  UNL d   1       0.702  -1.892  -0.290  0.00  0.00     0.003 A 
ATOM      3  C2  UNL d   1      -0.276  -1.092   0.304  0.00  0.00     0.048 A 
ATOM      4  C3  UNL d   1      -0.040   0.271   0.482  0.00  0.00     0.023 A 
ATOM      5  C4  UNL d   1       1.167   0.839   0.071  0.00  0.00     0.048 A 
ATOM      6  C5  UNL d   1       2.142   0.035  -0.522  0.00  0.00     0.003 A 
ATOM      7  I   UNL d   1      -1.494   1.464   1.366  0.00  0.00    -0.146 I 
ENDROOT
TORSDOF 0
ENDMDL
