MODEL 1
REMARK minimizedAffinity -3.30238152
REMARK minimizedRMSD -1
REMARK  1 active torsions:
REMARK  status: ('A' for Active; 'I' for Inactive)
REMARK    1  A    between atoms: C3_4  and  O_7 
ROOT
ATOM      1  C   UNL d   1       0.417  -2.418  -1.177  0.00  0.00    -0.033 A 
ATOM      2  C1  UNL d   1      -0.084  -2.843  -2.409  0.00  0.00     0.039 A 
ATOM      3  C2  UNL d   1      -1.387  -3.338  -2.501  0.00  0.00    -0.080 A 
ATOM      4  C3  UNL d   1      -2.176  -3.401  -1.356  0.00  0.00     0.150 A 
ATOM      5  C4  UNL d   1      -1.684  -2.975  -0.126  0.00  0.00    -0.007 A 
ATOM      6  C5  UNL d   1      -0.383  -2.482  -0.036  0.00  0.00     0.039 A 
ENDROOT
BRANCH   4   7
ATOM      7  O   UNL d   1      -3.452  -3.880  -1.395  0.00  0.00    -0.526 OA
ATOM      8  H5  UNL d   1      -3.646  -4.164  -2.304  0.00  0.00     0.418 HD
ENDBRANCH   4   7
TORSDOF 1
ENDMDL
