MODEL 1
REMARK minimizedAffinity -2.82792616
REMARK minimizedRMSD -1
REMARK  1 active torsions:
REMARK  status: ('A' for Active; 'I' for Inactive)
REMARK    1  A    between atoms: C3_4  and  O_7 
ROOT
ATOM      1  C   UNL d   1       0.309  -0.974   0.300  0.00  0.00    -0.033 A 
ATOM      2  C1  UNL d   1       0.603  -2.285  -0.082  0.00  0.00     0.039 A 
ATOM      3  C2  UNL d   1      -0.064  -2.865  -1.163  0.00  0.00    -0.080 A 
ATOM      4  C3  UNL d   1      -1.021  -2.125  -1.852  0.00  0.00     0.150 A 
ATOM      5  C4  UNL d   1      -1.316  -0.818  -1.479  0.00  0.00    -0.007 A 
ATOM      6  C5  UNL d   1      -0.649  -0.240  -0.399  0.00  0.00     0.039 A 
ENDROOT
BRANCH   4   7
ATOM      7  O   UNL d   1      -1.701  -2.650  -2.910  0.00  0.00    -0.526 OA
ATOM      8  H5  UNL d   1      -1.414  -3.570  -3.035  0.00  0.00     0.418 HD
ENDBRANCH   4   7
TORSDOF 1
ENDMDL
