MODEL 1
REMARK minimizedAffinity -3.85470152
REMARK minimizedRMSD -1
REMARK  1 active torsions:
REMARK  status: ('A' for Active; 'I' for Inactive)
REMARK    1  A    between atoms: C3_4  and  O_7 
ROOT
ATOM      1  C   UNL d   1      -1.148   1.854   0.778  0.00  0.00    -0.033 A 
ATOM      2  C1  UNL d   1       0.090   1.260   1.034  0.00  0.00     0.039 A 
ATOM      3  C2  UNL d   1       0.306  -0.078   0.700  0.00  0.00    -0.080 A 
ATOM      4  C3  UNL d   1      -0.721  -0.810   0.111  0.00  0.00     0.150 A 
ATOM      5  C4  UNL d   1      -1.954  -0.224  -0.151  0.00  0.00    -0.007 A 
ATOM      6  C5  UNL d   1      -2.169   1.113   0.184  0.00  0.00     0.039 A 
ENDROOT
BRANCH   4   7
ATOM      7  O   UNL d   1      -0.558  -2.120  -0.228  0.00  0.00    -0.526 OA
ATOM      8  H5  UNL d   1       0.335  -2.398   0.037  0.00  0.00     0.418 HD
ENDBRANCH   4   7
TORSDOF 1
ENDMDL
