MODEL 1
REMARK minimizedAffinity -0.710441828
REMARK minimizedRMSD -1
REMARK  1 active torsions:
REMARK  status: ('A' for Active; 'I' for Inactive)
REMARK    1  A    between atoms: C3_4  and  O_7 
ROOT
ATOM      1  C   UNL d   1      -2.117   1.372   0.780  0.00  0.00    -0.033 A 
ATOM      2  C1  UNL d   1      -2.076   0.015   0.451  0.00  0.00     0.039 A 
ATOM      3  C2  UNL d   1      -0.848  -0.631   0.300  0.00  0.00    -0.080 A 
ATOM      4  C3  UNL d   1       0.330   0.088   0.481  0.00  0.00     0.150 A 
ATOM      5  C4  UNL d   1       0.297   1.438   0.813  0.00  0.00    -0.007 A 
ATOM      6  C5  UNL d   1      -0.931   2.083   0.963  0.00  0.00     0.039 A 
ENDROOT
BRANCH   4   7
ATOM      7  O   UNL d   1       1.552  -0.499   0.340  0.00  0.00    -0.526 OA
ATOM      8  H5  UNL d   1       1.420  -1.426   0.081  0.00  0.00     0.418 HD
ENDBRANCH   4   7
TORSDOF 1
ENDMDL
