MODEL 1
REMARK minimizedAffinity -2.0211482
REMARK minimizedRMSD -1
REMARK  1 active torsions:
REMARK  status: ('A' for Active; 'I' for Inactive)
REMARK    1  A    between atoms: C3_4  and  O_7 
ROOT
ATOM      1  C   UNL d   1      -1.123  -3.480  -2.871  0.00  0.00    -0.033 A 
ATOM      2  C1  UNL d   1      -1.970  -3.000  -1.871  0.00  0.00     0.039 A 
ATOM      3  C2  UNL d   1      -1.466  -2.173  -0.865  0.00  0.00    -0.080 A 
ATOM      4  C3  UNL d   1      -0.116  -1.833  -0.872  0.00  0.00     0.150 A 
ATOM      5  C4  UNL d   1       0.733  -2.305  -1.868  0.00  0.00    -0.007 A 
ATOM      6  C5  UNL d   1       0.228  -3.132  -2.871  0.00  0.00     0.039 A 
ENDROOT
BRANCH   4   7
ATOM      7  O   UNL d   1       0.422  -1.032   0.091  0.00  0.00    -0.526 OA
ATOM      8  H5  UNL d   1      -0.275  -0.806   0.728  0.00  0.00     0.418 HD
ENDBRANCH   4   7
TORSDOF 1
ENDMDL
