MODEL 1
REMARK minimizedAffinity -5.19159317
REMARK minimizedRMSD -1
REMARK  1 active torsions:
REMARK  status: ('A' for Active; 'I' for Inactive)
REMARK    1  A    between atoms: C3_4  and  O_7 
ROOT
ATOM      1  C   UNL d   1      -1.031   1.306   0.396  0.00  0.00    -0.033 A 
ATOM      2  C1  UNL d   1      -0.222   2.444   0.411  0.00  0.00     0.039 A 
ATOM      3  C2  UNL d   1       1.168   2.314   0.409  0.00  0.00    -0.080 A 
ATOM      4  C3  UNL d   1       1.736   1.043   0.391  0.00  0.00     0.150 A 
ATOM      5  C4  UNL d   1       0.936  -0.094   0.371  0.00  0.00    -0.007 A 
ATOM      6  C5  UNL d   1      -0.452   0.037   0.374  0.00  0.00     0.039 A 
ENDROOT
BRANCH   4   7
ATOM      7  O   UNL d   1       3.087   0.867   0.393  0.00  0.00    -0.526 OA
ATOM      8  H5  UNL d   1       3.512   1.740   0.436  0.00  0.00     0.418 HD
ENDBRANCH   4   7
TORSDOF 1
ENDMDL
