MODEL 1
REMARK minimizedAffinity -4.51446009
REMARK minimizedRMSD -1
REMARK  1 active torsions:
REMARK  status: ('A' for Active; 'I' for Inactive)
REMARK    1  A    between atoms: C3_4  and  O_7 
ROOT
ATOM      1  C   UNL d   1       0.018  -0.847   0.842  0.00  0.00    -0.033 A 
ATOM      2  C1  UNL d   1       1.152  -0.107   0.503  0.00  0.00     0.039 A 
ATOM      3  C2  UNL d   1       1.075   1.284   0.399  0.00  0.00    -0.080 A 
ATOM      4  C3  UNL d   1      -0.140   1.921   0.637  0.00  0.00     0.150 A 
ATOM      5  C4  UNL d   1      -1.273   1.190   0.979  0.00  0.00    -0.007 A 
ATOM      6  C5  UNL d   1      -1.194  -0.198   1.081  0.00  0.00     0.039 A 
ENDROOT
BRANCH   4   7
ATOM      7  O   UNL d   1      -0.265   3.275   0.543  0.00  0.00    -0.526 OA
ATOM      8  H5  UNL d   1       0.592   3.645   0.271  0.00  0.00     0.418 HD
ENDBRANCH   4   7
TORSDOF 1
ENDMDL
