MODEL 1
REMARK minimizedAffinity -3.91904378
REMARK minimizedRMSD -1
REMARK  1 active torsions:
REMARK  status: ('A' for Active; 'I' for Inactive)
REMARK    1  A    between atoms: C3_4  and  O_7 
ROOT
ATOM      1  C   UNL d   1      -0.587  -0.450   0.528  0.00  0.00    -0.033 A 
ATOM      2  C1  UNL d   1      -0.710  -1.802   0.203  0.00  0.00     0.039 A 
ATOM      3  C2  UNL d   1       0.218  -2.404  -0.648  0.00  0.00    -0.080 A 
ATOM      4  C3  UNL d   1       1.263  -1.644  -1.167  0.00  0.00     0.150 A 
ATOM      5  C4  UNL d   1       1.393  -0.298  -0.845  0.00  0.00    -0.007 A 
ATOM      6  C5  UNL d   1       0.465   0.302   0.005  0.00  0.00     0.039 A 
ENDROOT
BRANCH   4   7
ATOM      7  O   UNL d   1       2.191  -2.187  -2.006  0.00  0.00    -0.526 OA
ATOM      8  H5  UNL d   1       1.957  -3.117  -2.162  0.00  0.00     0.418 HD
ENDBRANCH   4   7
TORSDOF 1
ENDMDL
