MODEL 1
REMARK minimizedAffinity -1.53073335
REMARK minimizedRMSD -1
REMARK  1 active torsions:
REMARK  status: ('A' for Active; 'I' for Inactive)
REMARK    1  A    between atoms: C3_4  and  O_7 
ROOT
ATOM      1  C   UNL d   1      -0.362  -1.503  -0.096  0.00  0.00    -0.033 A 
ATOM      2  C1  UNL d   1      -1.393  -1.153   0.779  0.00  0.00     0.039 A 
ATOM      3  C2  UNL d   1      -1.583   0.183   1.138  0.00  0.00    -0.080 A 
ATOM      4  C3  UNL d   1      -0.737   1.158   0.615  0.00  0.00     0.150 A 
ATOM      5  C4  UNL d   1       0.289   0.817  -0.260  0.00  0.00    -0.007 A 
ATOM      6  C5  UNL d   1       0.478  -0.518  -0.616  0.00  0.00     0.039 A 
ENDROOT
BRANCH   4   7
ATOM      7  O   UNL d   1      -0.881   2.474   0.941  0.00  0.00    -0.526 OA
ATOM      8  H5  UNL d   1      -1.611   2.556   1.576  0.00  0.00     0.418 HD
ENDBRANCH   4   7
TORSDOF 1
ENDMDL
