MODEL 1
REMARK minimizedAffinity -0.0393091477
REMARK minimizedRMSD -1
REMARK  1 active torsions:
REMARK  status: ('A' for Active; 'I' for Inactive)
REMARK    1  A    between atoms: C3_4  and  O_7 
ROOT
ATOM      1  C   UNL d   1      -1.259   0.404   0.161  0.00  0.00    -0.033 A 
ATOM      2  C1  UNL d   1      -0.206  -0.512   0.115  0.00  0.00     0.039 A 
ATOM      3  C2  UNL d   1       1.088  -0.109   0.448  0.00  0.00    -0.080 A 
ATOM      4  C3  UNL d   1       1.316   1.212   0.826  0.00  0.00     0.150 A 
ATOM      5  C4  UNL d   1       0.272   2.129   0.878  0.00  0.00    -0.007 A 
ATOM      6  C5  UNL d   1      -1.020   1.724   0.544  0.00  0.00     0.039 A 
ENDROOT
BRANCH   4   7
ATOM      7  O   UNL d   1       2.563   1.653   1.156  0.00  0.00    -0.526 OA
ATOM      8  H5  UNL d   1       3.189   0.918   1.047  0.00  0.00     0.418 HD
ENDBRANCH   4   7
TORSDOF 1
ENDMDL
