MODEL 1
REMARK minimizedAffinity -2.04045701
REMARK minimizedRMSD -1
REMARK  1 active torsions:
REMARK  status: ('A' for Active; 'I' for Inactive)
REMARK    1  A    between atoms: C3_4  and  O_7 
ROOT
ATOM      1  C   UNL d   1      -0.493  -3.698  -1.989  0.00  0.00    -0.033 A 
ATOM      2  C1  UNL d   1      -0.654  -3.616  -0.604  0.00  0.00     0.039 A 
ATOM      3  C2  UNL d   1      -0.462  -2.399   0.052  0.00  0.00    -0.080 A 
ATOM      4  C3  UNL d   1      -0.111  -1.272  -0.687  0.00  0.00     0.150 A 
ATOM      5  C4  UNL d   1       0.047  -1.346  -2.067  0.00  0.00    -0.007 A 
ATOM      6  C5  UNL d   1      -0.144  -2.562  -2.720  0.00  0.00     0.039 A 
ENDROOT
BRANCH   4   7
ATOM      7  O   UNL d   1       0.092  -0.064  -0.090  0.00  0.00    -0.526 OA
ATOM      8  H5  UNL d   1      -0.024  -0.171   0.869  0.00  0.00     0.418 HD
ENDBRANCH   4   7
TORSDOF 1
ENDMDL
