MODEL 1
REMARK minimizedAffinity -3.01281762
REMARK minimizedRMSD -1
REMARK  1 active torsions:
REMARK  status: ('A' for Active; 'I' for Inactive)
REMARK    1  A    between atoms: C3_4  and  O_7 
ROOT
ATOM      1  C   UNL d   1      -1.145   0.792   0.482  0.00  0.00    -0.033 A 
ATOM      2  C1  UNL d   1      -0.274  -0.294   0.374  0.00  0.00     0.039 A 
ATOM      3  C2  UNL d   1       1.093  -0.119   0.599  0.00  0.00    -0.080 A 
ATOM      4  C3  UNL d   1       1.575   1.143   0.932  0.00  0.00     0.150 A 
ATOM      5  C4  UNL d   1       0.712   2.229   1.045  0.00  0.00    -0.007 A 
ATOM      6  C5  UNL d   1      -0.652   2.053   0.819  0.00  0.00     0.039 A 
ENDROOT
BRANCH   4   7
ATOM      7  O   UNL d   1       2.901   1.363   1.157  0.00  0.00    -0.526 OA
ATOM      8  H5  UNL d   1       3.380   0.530   1.015  0.00  0.00     0.418 HD
ENDBRANCH   4   7
TORSDOF 1
ENDMDL
