MODEL 1
REMARK minimizedAffinity -1.7923286
REMARK minimizedRMSD -1
REMARK  1 active torsions:
REMARK  status: ('A' for Active; 'I' for Inactive)
REMARK    1  A    between atoms: C3_4  and  O_7 
ROOT
ATOM      1  C   UNL d   1       0.867   3.503   1.342  0.00  0.00    -0.033 A 
ATOM      2  C1  UNL d   1       1.921   2.593   1.233  0.00  0.00     0.039 A 
ATOM      3  C2  UNL d   1       1.694   1.320   0.706  0.00  0.00    -0.080 A 
ATOM      4  C3  UNL d   1       0.411   0.970   0.293  0.00  0.00     0.150 A 
ATOM      5  C4  UNL d   1      -0.642   1.873   0.395  0.00  0.00    -0.007 A 
ATOM      6  C5  UNL d   1      -0.414   3.144   0.922  0.00  0.00     0.039 A 
ENDROOT
BRANCH   4   7
ATOM      7  O   UNL d   1       0.140  -0.262  -0.223  0.00  0.00    -0.526 OA
ATOM      8  H5  UNL d   1       0.957  -0.789  -0.207  0.00  0.00     0.418 HD
ENDBRANCH   4   7
TORSDOF 1
ENDMDL
