MODEL 1
REMARK minimizedAffinity -4.05396938
REMARK minimizedRMSD -1
REMARK  1 active torsions:
REMARK  status: ('A' for Active; 'I' for Inactive)
REMARK    1  A    between atoms: C3_4  and  O_7 
ROOT
ATOM      1  C   UNL d   1      -0.855  -1.855  -0.655  0.00  0.00    -0.033 A 
ATOM      2  C1  UNL d   1      -1.380  -2.812  -1.525  0.00  0.00     0.039 A 
ATOM      3  C2  UNL d   1      -0.823  -2.987  -2.793  0.00  0.00    -0.080 A 
ATOM      4  C3  UNL d   1       0.259  -2.199  -3.178  0.00  0.00     0.150 A 
ATOM      5  C4  UNL d   1       0.789  -1.246  -2.315  0.00  0.00    -0.007 A 
ATOM      6  C5  UNL d   1       0.231  -1.073  -1.050  0.00  0.00     0.039 A 
ENDROOT
BRANCH   4   7
ATOM      7  O   UNL d   1       0.833  -2.329  -4.408  0.00  0.00    -0.526 OA
ATOM      8  H5  UNL d   1       0.344  -3.005  -4.906  0.00  0.00     0.418 HD
ENDBRANCH   4   7
TORSDOF 1
ENDMDL
