MODEL 1
REMARK minimizedAffinity -4.26950073
REMARK minimizedRMSD -1
REMARK  1 active torsions:
REMARK  status: ('A' for Active; 'I' for Inactive)
REMARK    1  A    between atoms: C3_4  and  O_7 
ROOT
ATOM      1  C   UNL d   1      -0.672  -1.956  -0.250  0.00  0.00    -0.033 A 
ATOM      2  C1  UNL d   1      -0.912  -3.106  -1.004  0.00  0.00     0.039 A 
ATOM      3  C2  UNL d   1      -0.751  -3.081  -2.391  0.00  0.00    -0.080 A 
ATOM      4  C3  UNL d   1      -0.348  -1.901  -3.010  0.00  0.00     0.150 A 
ATOM      5  C4  UNL d   1      -0.104  -0.752  -2.265  0.00  0.00    -0.007 A 
ATOM      6  C5  UNL d   1      -0.266  -0.779  -0.881  0.00  0.00     0.039 A 
ENDROOT
BRANCH   4   7
ATOM      7  O   UNL d   1      -0.182  -1.826  -4.361  0.00  0.00    -0.526 OA
ATOM      8  H5  UNL d   1      -0.414  -2.686  -4.748  0.00  0.00     0.418 HD
ENDBRANCH   4   7
TORSDOF 1
ENDMDL
