MODEL 1
REMARK minimizedAffinity -2.97389746
REMARK minimizedRMSD -1
REMARK  1 active torsions:
REMARK  status: ('A' for Active; 'I' for Inactive)
REMARK    1  A    between atoms: C3_4  and  O_7 
ROOT
ATOM      1  C   UNL d   1       0.930  -0.831   0.460  0.00  0.00    -0.033 A 
ATOM      2  C1  UNL d   1      -0.446  -0.653   0.304  0.00  0.00     0.039 A 
ATOM      3  C2  UNL d   1      -0.994   0.630   0.339  0.00  0.00    -0.080 A 
ATOM      4  C3  UNL d   1      -0.157   1.726   0.528  0.00  0.00     0.150 A 
ATOM      5  C4  UNL d   1       1.215   1.557   0.680  0.00  0.00    -0.007 A 
ATOM      6  C5  UNL d   1       1.761   0.274   0.646  0.00  0.00     0.039 A 
ENDROOT
BRANCH   4   7
ATOM      7  O   UNL d   1      -0.647   2.997   0.574  0.00  0.00    -0.526 OA
ATOM      8  H5  UNL d   1      -1.613   2.958   0.484  0.00  0.00     0.418 HD
ENDBRANCH   4   7
TORSDOF 1
ENDMDL
