MODEL 1
REMARK minimizedAffinity -5.87486172
REMARK minimizedRMSD -1
REMARK  0 active torsions:
REMARK  status: ('A' for Active; 'I' for Inactive)
ROOT
ATOM      1  C2' OXE d   1      -2.121   0.381   0.740  0.00  0.00     0.078 C 
ATOM      2  C1' OXE d   1       0.129  -1.202   0.184  0.00  0.00     0.078 C 
ATOM      3  C1  OXE d   1       0.289   0.296   0.117  0.00  0.00    -0.078 A 
ATOM      4  C2  OXE d   1      -0.829   1.062   0.344  0.00  0.00    -0.078 A 
ATOM      5  C3  OXE d   1      -0.724   2.450   0.348  0.00  0.00     0.003 A 
ATOM      6  C4  OXE d   1       0.472   3.072  -0.028  0.00  0.00    -0.002 A 
ATOM      7  C5  OXE d   1       1.613   2.309  -0.303  0.00  0.00    -0.002 A 
ATOM      8  C6  OXE d   1       1.549   0.925  -0.194  0.00  0.00     0.003 A 
ENDROOT
TORSDOF 0
ENDMDL
