MODEL 1
REMARK minimizedAffinity -1.82084215
REMARK minimizedRMSD -1
REMARK  0 active torsions:
REMARK  status: ('A' for Active; 'I' for Inactive)
ROOT
ATOM      1  C2' OXE d   1       2.516   1.450   0.312  0.00  0.00     0.078 C 
ATOM      2  C1' OXE d   1       0.163   2.969   0.494  0.00  0.00     0.078 C 
ATOM      3  C1  OXE d   1       0.029   1.467   0.459  0.00  0.00    -0.078 A 
ATOM      4  C2  OXE d   1       1.183   0.733   0.323  0.00  0.00    -0.078 A 
ATOM      5  C3  OXE d   1       1.121  -0.658   0.340  0.00  0.00     0.003 A 
ATOM      6  C4  OXE d   1      -0.116  -1.312   0.341  0.00  0.00    -0.002 A 
ATOM      7  C5  OXE d   1      -1.306  -0.582   0.439  0.00  0.00    -0.002 A 
ATOM      8  C6  OXE d   1      -1.248   0.803   0.542  0.00  0.00     0.003 A 
ENDROOT
TORSDOF 0
ENDMDL
