MODEL 1
REMARK minimizedAffinity -6.45550156
REMARK minimizedRMSD -1
REMARK  0 active torsions:
REMARK  status: ('A' for Active; 'I' for Inactive)
ROOT
ATOM      1  C2' OXE d   1      -1.479   0.755   0.365  0.00  0.00     0.078 C 
ATOM      2  C1' OXE d   1       0.808  -0.871   0.437  0.00  0.00     0.078 C 
ATOM      3  C1  OXE d   1       1.008   0.623   0.423  0.00  0.00    -0.078 A 
ATOM      4  C2  OXE d   1      -0.115   1.411   0.340  0.00  0.00    -0.078 A 
ATOM      5  C3  OXE d   1       0.011   2.797   0.379  0.00  0.00     0.003 A 
ATOM      6  C4  OXE d   1       1.276   3.395   0.346  0.00  0.00    -0.002 A 
ATOM      7  C5  OXE d   1       2.434   2.611   0.389  0.00  0.00    -0.002 A 
ATOM      8  C6  OXE d   1       2.317   1.227   0.470  0.00  0.00     0.003 A 
ENDROOT
TORSDOF 0
ENDMDL
