MODEL 1
REMARK minimizedAffinity -5.56909657
REMARK minimizedRMSD -1
REMARK  0 active torsions:
REMARK  status: ('A' for Active; 'I' for Inactive)
ROOT
ATOM      1  C2' OXE d   1       0.426   3.062   0.048  0.00  0.00     0.078 C 
ATOM      2  C1' OXE d   1      -0.098   0.304   0.018  0.00  0.00     0.078 C 
ATOM      3  C1  OXE d   1       1.293   0.752   0.394  0.00  0.00    -0.078 A 
ATOM      4  C2  OXE d   1       1.553   2.101   0.360  0.00  0.00    -0.078 A 
ATOM      5  C3  OXE d   1       2.803   2.572   0.751  0.00  0.00     0.003 A 
ATOM      6  C4  OXE d   1       3.843   1.676   1.029  0.00  0.00    -0.002 A 
ATOM      7  C5  OXE d   1       3.610   0.297   1.030  0.00  0.00    -0.002 A 
ATOM      8  C6  OXE d   1       2.332  -0.179   0.757  0.00  0.00     0.003 A 
ENDROOT
TORSDOF 0
ENDMDL
