MODEL 1
REMARK minimizedAffinity -6.28402901
REMARK minimizedRMSD -1
REMARK  0 active torsions:
REMARK  status: ('A' for Active; 'I' for Inactive)
ROOT
ATOM      1  C2' OXE d   1      -1.169   0.148   0.188  0.00  0.00     0.078 C 
ATOM      2  C1' OXE d   1       1.287  -1.208   0.096  0.00  0.00     0.078 C 
ATOM      3  C1  OXE d   1       1.317   0.297   0.192  0.00  0.00    -0.078 A 
ATOM      4  C2  OXE d   1       0.111   0.955   0.190  0.00  0.00    -0.078 A 
ATOM      5  C3  OXE d   1       0.081   2.340   0.331  0.00  0.00     0.003 A 
ATOM      6  C4  OXE d   1       1.270   3.079   0.322  0.00  0.00    -0.002 A 
ATOM      7  C5  OXE d   1       2.509   2.431   0.285  0.00  0.00    -0.002 A 
ATOM      8  C6  OXE d   1       2.551   1.041   0.263  0.00  0.00     0.003 A 
ENDROOT
TORSDOF 0
ENDMDL
