MODEL 1
REMARK minimizedAffinity -4.11269283
REMARK minimizedRMSD -1
REMARK  0 active torsions:
REMARK  status: ('A' for Active; 'I' for Inactive)
ROOT
ATOM      1  C2' OXE d   1      -1.679   0.538   0.476  0.00  0.00     0.078 C 
ATOM      2  C1' OXE d   1       0.813  -0.540  -0.238  0.00  0.00     0.078 C 
ATOM      3  C1  OXE d   1       0.762   0.916   0.151  0.00  0.00    -0.078 A 
ATOM      4  C2  OXE d   1      -0.469   1.447   0.454  0.00  0.00    -0.078 A 
ATOM      5  C3  OXE d   1      -0.565   2.771   0.872  0.00  0.00     0.003 A 
ATOM      6  C4  OXE d   1       0.557   3.608   0.839  0.00  0.00    -0.002 A 
ATOM      7  C5  OXE d   1       1.813   3.097   0.495  0.00  0.00    -0.002 A 
ATOM      8  C6  OXE d   1       1.940   1.746   0.191  0.00  0.00     0.003 A 
ENDROOT
TORSDOF 0
ENDMDL
