MODEL 1
REMARK minimizedAffinity -3.41849804
REMARK minimizedRMSD -1
REMARK  0 active torsions:
REMARK  status: ('A' for Active; 'I' for Inactive)
ROOT
ATOM      1  C2' OXE d   1       1.310   3.695   0.445  0.00  0.00     0.078 C 
ATOM      2  C1' OXE d   1      -0.894   3.092   2.076  0.00  0.00     0.078 C 
ATOM      3  C1  OXE d   1      -0.462   2.058   1.066  0.00  0.00    -0.078 A 
ATOM      4  C2  OXE d   1       0.588   2.380   0.241  0.00  0.00    -0.078 A 
ATOM      5  C3  OXE d   1       1.061   1.441  -0.671  0.00  0.00     0.003 A 
ATOM      6  C4  OXE d   1       0.382   0.232  -0.860  0.00  0.00    -0.002 A 
ATOM      7  C5  OXE d   1      -0.715  -0.100  -0.057  0.00  0.00    -0.002 A 
ATOM      8  C6  OXE d   1      -1.122   0.782   0.938  0.00  0.00     0.003 A 
ENDROOT
TORSDOF 0
ENDMDL
