MODEL 1
REMARK minimizedAffinity -4.65380621
REMARK minimizedRMSD -1
REMARK  0 active torsions:
REMARK  status: ('A' for Active; 'I' for Inactive)
ROOT
ATOM      1  C2' OXE d   1       0.310   3.170  -0.137  0.00  0.00     0.078 C 
ATOM      2  C1' OXE d   1       2.505   1.527  -0.740  0.00  0.00     0.078 C 
ATOM      3  C1  OXE d   1       1.270   0.871  -0.176  0.00  0.00    -0.078 A 
ATOM      4  C2  OXE d   1       0.217   1.689   0.160  0.00  0.00    -0.078 A 
ATOM      5  C3  OXE d   1      -0.966   1.130   0.634  0.00  0.00     0.003 A 
ATOM      6  C4  OXE d   1      -1.040  -0.240   0.915  0.00  0.00    -0.002 A 
ATOM      7  C5  OXE d   1       0.034  -1.085   0.618  0.00  0.00    -0.002 A 
ATOM      8  C6  OXE d   1       1.178  -0.553   0.034  0.00  0.00     0.003 A 
ENDROOT
TORSDOF 0
ENDMDL
