MODEL 1
REMARK minimizedAffinity -5.59426689
REMARK minimizedRMSD -1
REMARK  0 active torsions:
REMARK  status: ('A' for Active; 'I' for Inactive)
ROOT
ATOM      1  C2' OXE d   1       0.363  -0.635   0.057  0.00  0.00     0.078 C 
ATOM      2  C1' OXE d   1      -1.508   1.457   0.002  0.00  0.00     0.078 C 
ATOM      3  C1  OXE d   1      -0.058   1.815   0.210  0.00  0.00    -0.078 A 
ATOM      4  C2  OXE d   1       0.845   0.782   0.282  0.00  0.00    -0.078 A 
ATOM      5  C3  OXE d   1       2.202   1.060   0.418  0.00  0.00     0.003 A 
ATOM      6  C4  OXE d   1       2.638   2.373   0.635  0.00  0.00    -0.002 A 
ATOM      7  C5  OXE d   1       1.730   3.437   0.605  0.00  0.00    -0.002 A 
ATOM      8  C6  OXE d   1       0.387   3.180   0.351  0.00  0.00     0.003 A 
ENDROOT
TORSDOF 0
ENDMDL
