MODEL 1
REMARK minimizedAffinity -1.62736809
REMARK minimizedRMSD -1
REMARK  0 active torsions:
REMARK  status: ('A' for Active; 'I' for Inactive)
ROOT
ATOM      1  C2' OXE d   1       2.647   1.821   0.597  0.00  0.00     0.078 C 
ATOM      2  C1' OXE d   1       0.095   2.989   0.645  0.00  0.00     0.078 C 
ATOM      3  C1  OXE d   1       0.183   1.498   0.437  0.00  0.00    -0.078 A 
ATOM      4  C2  OXE d   1       1.437   0.942   0.368  0.00  0.00    -0.078 A 
ATOM      5  C3  OXE d   1       1.574  -0.437   0.232  0.00  0.00     0.003 A 
ATOM      6  C4  OXE d   1       0.450  -1.242   0.010  0.00  0.00    -0.002 A 
ATOM      7  C5  OXE d   1      -0.835  -0.690   0.037  0.00  0.00    -0.002 A 
ATOM      8  C6  OXE d   1      -0.988   0.668   0.291  0.00  0.00     0.003 A 
ENDROOT
TORSDOF 0
ENDMDL
