MODEL 1
REMARK minimizedAffinity -5.69412279
REMARK minimizedRMSD -1
REMARK  0 active torsions:
REMARK  status: ('A' for Active; 'I' for Inactive)
ROOT
ATOM      1  C2' OXE d   1      -0.267  -0.701   0.388  0.00  0.00     0.078 C 
ATOM      2  C1' OXE d   1      -2.389   1.137   0.366  0.00  0.00     0.078 C 
ATOM      3  C1  OXE d   1      -0.986   1.682   0.273  0.00  0.00    -0.078 A 
ATOM      4  C2  OXE d   1       0.048   0.779   0.331  0.00  0.00    -0.078 A 
ATOM      5  C3  OXE d   1       1.360   1.223   0.195  0.00  0.00     0.003 A 
ATOM      6  C4  OXE d   1       1.643   2.594   0.153  0.00  0.00    -0.002 A 
ATOM      7  C5  OXE d   1       0.607   3.533   0.132  0.00  0.00    -0.002 A 
ATOM      8  C6  OXE d   1      -0.712   3.092   0.148  0.00  0.00     0.003 A 
ENDROOT
TORSDOF 0
ENDMDL
