MODEL 1
REMARK minimizedAffinity -3.22132611
REMARK minimizedRMSD -1
REMARK  0 active torsions:
REMARK  status: ('A' for Active; 'I' for Inactive)
ROOT
ATOM      1  C2' OXE d   1      -1.661   0.626   0.860  0.00  0.00     0.078 C 
ATOM      2  C1' OXE d   1       0.534  -0.854  -0.075  0.00  0.00     0.078 C 
ATOM      3  C1  OXE d   1       0.680   0.645   0.010  0.00  0.00    -0.078 A 
ATOM      4  C2  OXE d   1      -0.414   1.365   0.424  0.00  0.00    -0.078 A 
ATOM      5  C3  OXE d   1      -0.315   2.745   0.573  0.00  0.00     0.003 A 
ATOM      6  C4  OXE d   1       0.838   3.422   0.158  0.00  0.00    -0.002 A 
ATOM      7  C5  OXE d   1       1.950   2.711  -0.305  0.00  0.00    -0.002 A 
ATOM      8  C6  OXE d   1       1.903   1.322  -0.345  0.00  0.00     0.003 A 
ENDROOT
TORSDOF 0
ENDMDL
