MODEL 1
REMARK minimizedAffinity -6.42783213
REMARK minimizedRMSD -1
REMARK  0 active torsions:
REMARK  status: ('A' for Active; 'I' for Inactive)
ROOT
ATOM      1  C2' OXE d   1       0.179  -1.108  -0.030  0.00  0.00     0.078 C 
ATOM      2  C1' OXE d   1      -1.862   0.812   0.148  0.00  0.00     0.078 C 
ATOM      3  C1  OXE d   1      -0.436   1.288   0.271  0.00  0.00    -0.078 A 
ATOM      4  C2  OXE d   1       0.554   0.336   0.230  0.00  0.00    -0.078 A 
ATOM      5  C3  OXE d   1       1.889   0.726   0.284  0.00  0.00     0.003 A 
ATOM      6  C4  OXE d   1       2.227   2.061   0.534  0.00  0.00    -0.002 A 
ATOM      7  C5  OXE d   1       1.233   3.042   0.620  0.00  0.00    -0.002 A 
ATOM      8  C6  OXE d   1      -0.098   2.679   0.448  0.00  0.00     0.003 A 
ENDROOT
TORSDOF 0
ENDMDL
