MODEL 1
REMARK minimizedAffinity -4.17682743
REMARK minimizedRMSD -1
REMARK  0 active torsions:
REMARK  status: ('A' for Active; 'I' for Inactive)
ROOT
ATOM      1  C2' OXE d   1      -0.097   2.792  -0.055  0.00  0.00     0.078 C 
ATOM      2  C1' OXE d   1      -2.302   1.246   0.738  0.00  0.00     0.078 C 
ATOM      3  C1  OXE d   1      -0.970   0.552   0.596  0.00  0.00    -0.078 A 
ATOM      4  C2  OXE d   1       0.093   1.307   0.163  0.00  0.00    -0.078 A 
ATOM      5  C3  OXE d   1       1.356   0.729   0.068  0.00  0.00     0.003 A 
ATOM      6  C4  OXE d   1       1.521  -0.648   0.261  0.00  0.00    -0.002 A 
ATOM      7  C5  OXE d   1       0.443  -1.443   0.665  0.00  0.00    -0.002 A 
ATOM      8  C6  OXE d   1      -0.797  -0.852   0.878  0.00  0.00     0.003 A 
ENDROOT
TORSDOF 0
ENDMDL
