MODEL 1
REMARK minimizedAffinity -5.18911123
REMARK minimizedRMSD -1
REMARK  0 active torsions:
REMARK  status: ('A' for Active; 'I' for Inactive)
ROOT
ATOM      1  C2' OXE d   1      -1.906   1.070   0.139  0.00  0.00     0.078 C 
ATOM      2  C1' OXE d   1       0.390  -0.527  -0.095  0.00  0.00     0.078 C 
ATOM      3  C1  OXE d   1       0.580   0.965   0.021  0.00  0.00    -0.078 A 
ATOM      4  C2  OXE d   1      -0.551   1.743   0.088  0.00  0.00    -0.078 A 
ATOM      5  C3  OXE d   1      -0.433   3.120   0.251  0.00  0.00     0.003 A 
ATOM      6  C4  OXE d   1       0.824   3.735   0.193  0.00  0.00    -0.002 A 
ATOM      7  C5  OXE d   1       1.987   2.964   0.086  0.00  0.00    -0.002 A 
ATOM      8  C6  OXE d   1       1.885   1.578   0.041  0.00  0.00     0.003 A 
ENDROOT
TORSDOF 0
ENDMDL
