MODEL 1
REMARK minimizedAffinity -5.18698311
REMARK minimizedRMSD -1
REMARK  0 active torsions:
REMARK  status: ('A' for Active; 'I' for Inactive)
ROOT
ATOM      1  C2' OXE d   1       0.682  -0.397   0.197  0.00  0.00     0.078 C 
ATOM      2  C1' OXE d   1       3.040   1.056   0.653  0.00  0.00     0.078 C 
ATOM      3  C1  OXE d   1       1.763   1.833   0.451  0.00  0.00    -0.078 A 
ATOM      4  C2  OXE d   1       0.622   1.115   0.182  0.00  0.00    -0.078 A 
ATOM      5  C3  OXE d   1      -0.593   1.779   0.042  0.00  0.00     0.003 A 
ATOM      6  C4  OXE d   1      -0.638   3.178   0.020  0.00  0.00    -0.002 A 
ATOM      7  C5  OXE d   1       0.519   3.929   0.252  0.00  0.00    -0.002 A 
ATOM      8  C6  OXE d   1       1.717   3.273   0.511  0.00  0.00     0.003 A 
ENDROOT
TORSDOF 0
ENDMDL
