MODEL 1
REMARK minimizedAffinity -2.12886
REMARK minimizedRMSD -1
REMARK  0 active torsions:
REMARK  status: ('A' for Active; 'I' for Inactive)
ROOT
ATOM      1  C2' OXE d   1      -2.516   0.510   0.990  0.00  0.00     0.078 C 
ATOM      2  C1' OXE d   1      -0.541  -1.250   0.051  0.00  0.00     0.078 C 
ATOM      3  C1  OXE d   1      -0.204   0.218   0.110  0.00  0.00    -0.078 A 
ATOM      4  C2  OXE d   1      -1.192   1.078   0.527  0.00  0.00    -0.078 A 
ATOM      5  C3  OXE d   1      -0.916   2.436   0.652  0.00  0.00     0.003 A 
ATOM      6  C4  OXE d   1       0.308   2.955   0.212  0.00  0.00    -0.002 A 
ATOM      7  C5  OXE d   1       1.314   2.101  -0.253  0.00  0.00    -0.002 A 
ATOM      8  C6  OXE d   1       1.090   0.729  -0.270  0.00  0.00     0.003 A 
ENDROOT
TORSDOF 0
ENDMDL
