MODEL 1
REMARK minimizedAffinity -3.00474262
REMARK minimizedRMSD -1
REMARK  0 active torsions:
REMARK  status: ('A' for Active; 'I' for Inactive)
ROOT
ATOM      1  C2' OXE d   1       0.146   3.157  -0.152  0.00  0.00     0.078 C 
ATOM      2  C1' OXE d   1      -2.039   1.811   0.986  0.00  0.00     0.078 C 
ATOM      3  C1  OXE d   1      -0.973   0.981   0.316  0.00  0.00    -0.078 A 
ATOM      4  C2  OXE d   1       0.069   1.650  -0.279  0.00  0.00    -0.078 A 
ATOM      5  C3  OXE d   1       1.107   0.930  -0.863  0.00  0.00     0.003 A 
ATOM      6  C4  OXE d   1       1.023  -0.462  -0.984  0.00  0.00    -0.002 A 
ATOM      7  C5  OXE d   1      -0.049  -1.161  -0.420  0.00  0.00    -0.002 A 
ATOM      8  C6  OXE d   1      -1.032  -0.459   0.269  0.00  0.00     0.003 A 
ENDROOT
TORSDOF 0
ENDMDL
