MODEL 1
REMARK minimizedAffinity 5.52722311
REMARK minimizedRMSD -1
REMARK  3 active torsions:
REMARK  status: ('A' for Active; 'I' for Inactive)
REMARK    1  A    between atoms: C3'_2  and  C2'_3 
REMARK    2  A    between atoms: C2'_3  and  C1'_4 
REMARK    3  A    between atoms: C1'_4  and  C1_5 
ROOT
ATOM      1  C1  N4B d   1      -4.439   2.715  -0.388  0.00  0.00    -0.075 A 
ATOM      2  C2  N4B d   1      -5.569   2.157  -1.025  0.00  0.00     0.002 A 
ATOM      3  C3  N4B d   1      -5.522   1.852  -2.363  0.00  0.00     0.002 A 
ATOM      4  C4  N4B d   1      -4.368   2.113  -3.086  0.00  0.00    -0.004 A 
ATOM      5  C5  N4B d   1      -3.272   2.629  -2.458  0.00  0.00     0.002 A 
ATOM      6  C6  N4B d   1      -3.304   2.936  -1.112  0.00  0.00     0.002 A 
ENDROOT
BRANCH   1   7
ATOM      7  C1' N4B d   1      -4.471   3.144   1.054  0.00  0.00     0.057 C 
BRANCH   7   8
ATOM      8  C2' N4B d   1      -5.125   2.047   1.888  0.00  0.00     0.009 C 
BRANCH   8   9
ATOM      9  C3' N4B d   1      -4.599   0.669   1.528  0.00  0.00     0.004 C 
ATOM     10  C4' N4B d   1      -5.248  -0.426   2.320  0.00  0.00     0.003 C 
ENDBRANCH   8   9
ENDBRANCH   7   8
ENDBRANCH   1   7
TORSDOF 3
ENDMDL
