MODEL 1
REMARK minimizedAffinity 7.55000734
REMARK minimizedRMSD -1
REMARK  3 active torsions:
REMARK  status: ('A' for Active; 'I' for Inactive)
REMARK    1  A    between atoms: C3'_2  and  C2'_3 
REMARK    2  A    between atoms: C2'_3  and  C1'_4 
REMARK    3  A    between atoms: C1'_4  and  C1_5 
ROOT
ATOM      1  C1  N4B d   1       0.585  -2.474   1.314  0.00  0.00    -0.075 A 
ATOM      2  C2  N4B d   1       1.023  -3.072   2.516  0.00  0.00     0.002 A 
ATOM      3  C3  N4B d   1       1.652  -2.312   3.471  0.00  0.00     0.002 A 
ATOM      4  C4  N4B d   1       1.870  -0.962   3.239  0.00  0.00    -0.004 A 
ATOM      5  C5  N4B d   1       1.421  -0.387   2.087  0.00  0.00     0.002 A 
ATOM      6  C6  N4B d   1       0.784  -1.138   1.120  0.00  0.00     0.002 A 
ENDROOT
BRANCH   1   7
ATOM      7  C1' N4B d   1      -0.031  -3.281   0.204  0.00  0.00     0.057 C 
BRANCH   7   8
ATOM      8  C2' N4B d   1       1.076  -3.969  -0.589  0.00  0.00     0.009 C 
BRANCH   8   9
ATOM      9  C3' N4B d   1       1.083  -3.539  -2.046  0.00  0.00     0.004 C 
ATOM     10  C4' N4B d   1       0.888  -2.062  -2.216  0.00  0.00     0.003 C 
ENDBRANCH   8   9
ENDBRANCH   7   8
ENDBRANCH   1   7
TORSDOF 3
ENDMDL
