MODEL 1
REMARK minimizedAffinity 6.68422318
REMARK minimizedRMSD -1
REMARK  3 active torsions:
REMARK  status: ('A' for Active; 'I' for Inactive)
REMARK    1  A    between atoms: C3'_2  and  C2'_3 
REMARK    2  A    between atoms: C2'_3  and  C1'_4 
REMARK    3  A    between atoms: C1'_4  and  C1_5 
ROOT
ATOM      1  C1  N4B d   1      -5.581   2.023  -1.907  0.00  0.00    -0.075 A 
ATOM      2  C2  N4B d   1      -4.892   1.098  -2.723  0.00  0.00     0.002 A 
ATOM      3  C3  N4B d   1      -4.661   1.388  -4.045  0.00  0.00     0.002 A 
ATOM      4  C4  N4B d   1      -5.122   2.583  -4.576  0.00  0.00    -0.004 A 
ATOM      5  C5  N4B d   1      -5.764   3.483  -3.775  0.00  0.00     0.002 A 
ATOM      6  C6  N4B d   1      -6.000   3.206  -2.443  0.00  0.00     0.002 A 
ENDROOT
BRANCH   1   7
ATOM      7  C1' N4B d   1      -5.933   1.713  -0.478  0.00  0.00     0.057 C 
BRANCH   7   8
ATOM      8  C2' N4B d   1      -5.722   2.963   0.372  0.00  0.00     0.009 C 
BRANCH   8   9
ATOM      9  C3' N4B d   1      -4.686   2.741   1.461  0.00  0.00     0.004 C 
ATOM     10  C4' N4B d   1      -3.314   2.482   0.914  0.00  0.00     0.003 C 
ENDBRANCH   8   9
ENDBRANCH   7   8
ENDBRANCH   1   7
TORSDOF 3
ENDMDL
