MODEL 1
REMARK minimizedAffinity -0.127836481
REMARK minimizedRMSD -1
REMARK  3 active torsions:
REMARK  status: ('A' for Active; 'I' for Inactive)
REMARK    1  A    between atoms: C3'_2  and  C2'_3 
REMARK    2  A    between atoms: C2'_3  and  C1'_4 
REMARK    3  A    between atoms: C1'_4  and  C1_5 
ROOT
ATOM      1  C1  N4B d   1      -5.043   3.230  -0.800  0.00  0.00    -0.075 A 
ATOM      2  C2  N4B d   1      -3.652   3.459  -0.878  0.00  0.00     0.002 A 
ATOM      3  C3  N4B d   1      -2.929   2.939  -1.924  0.00  0.00     0.002 A 
ATOM      4  C4  N4B d   1      -3.569   2.174  -2.887  0.00  0.00    -0.004 A 
ATOM      5  C5  N4B d   1      -4.917   1.978  -2.817  0.00  0.00     0.002 A 
ATOM      6  C6  N4B d   1      -5.657   2.499  -1.775  0.00  0.00     0.002 A 
ENDROOT
BRANCH   1   7
ATOM      7  C1' N4B d   1      -5.861   3.706   0.370  0.00  0.00     0.057 C 
BRANCH   7   8
ATOM      8  C2' N4B d   1      -5.502   2.880   1.601  0.00  0.00     0.009 C 
BRANCH   8   9
ATOM      9  C3' N4B d   1      -4.882   1.545   1.229  0.00  0.00     0.004 C 
ATOM     10  C4' N4B d   1      -5.906   0.477   0.984  0.00  0.00     0.003 C 
ENDBRANCH   8   9
ENDBRANCH   7   8
ENDBRANCH   1   7
TORSDOF 3
ENDMDL
