MODEL 1
REMARK minimizedAffinity -5.54578447
REMARK minimizedRMSD -1
REMARK  1 active torsions:
REMARK  status: ('A' for Active; 'I' for Inactive)
REMARK    1  A    between atoms: C1_2  and  C2_3 
ROOT
ATOM      1  C2  UNL d   1      -0.198   0.644  -0.851  0.00  0.00    -0.081 A 
ATOM      2  C3  UNL d   1      -0.848   0.758   0.384  0.00  0.00     0.006 A 
ATOM      3  C4  UNL d   1      -0.368   0.076   1.504  0.00  0.00     0.002 A 
ATOM      4  C5  UNL d   1       0.776  -0.725   1.410  0.00  0.00    -0.080 A 
ATOM      5  C6  UNL d   1       1.320  -1.439   2.611  0.00  0.00     0.076 C 
ATOM      6  C7  UNL d   1       1.416  -0.853   0.173  0.00  0.00     0.002 A 
ATOM      7  C8  UNL d   1       0.935  -0.172  -0.948  0.00  0.00     0.006 A 
ENDROOT
BRANCH   1   8
ATOM      8  C1  UNL d   1      -0.676   1.430  -2.045  0.00  0.00     0.054 C 
ATOM      9  C   UNL d   1       0.103   2.728  -2.201  0.00  0.00     0.018 C 
ENDBRANCH   1   8
TORSDOF 1
ENDMDL
