MODEL 1
REMARK minimizedAffinity -4.45226479
REMARK minimizedRMSD -1
REMARK  1 active torsions:
REMARK  status: ('A' for Active; 'I' for Inactive)
REMARK    1  A    between atoms: C1_2  and  C2_3 
ROOT
ATOM      1  C2  UNL d   1      -0.041  -0.108  -0.250  0.00  0.00    -0.081 A 
ATOM      2  C3  UNL d   1      -0.732  -0.124   0.968  0.00  0.00     0.006 A 
ATOM      3  C4  UNL d   1      -0.071  -0.462   2.152  0.00  0.00     0.002 A 
ATOM      4  C5  UNL d   1       1.290  -0.783   2.138  0.00  0.00    -0.080 A 
ATOM      5  C6  UNL d   1       2.018  -1.119   3.406  0.00  0.00     0.076 C 
ATOM      6  C7  UNL d   1       1.976  -0.785   0.919  0.00  0.00     0.002 A 
ATOM      7  C8  UNL d   1       1.316  -0.447  -0.265  0.00  0.00     0.006 A 
ENDROOT
BRANCH   1   8
ATOM      8  C1  UNL d   1      -0.735   0.320  -1.518  0.00  0.00     0.054 C 
ATOM      9  C   UNL d   1      -0.277   1.702  -1.960  0.00  0.00     0.018 C 
ENDBRANCH   1   8
TORSDOF 1
ENDMDL
