MODEL 1
REMARK minimizedAffinity -3.70786214
REMARK minimizedRMSD -1
REMARK  1 active torsions:
REMARK  status: ('A' for Active; 'I' for Inactive)
REMARK    1  A    between atoms: C1_2  and  C2_3 
ROOT
ATOM      1  C2  UNL d   1      -0.282   0.052  -0.655  0.00  0.00    -0.081 A 
ATOM      2  C3  UNL d   1      -1.155   0.045   0.439  0.00  0.00     0.006 A 
ATOM      3  C4  UNL d   1      -0.683  -0.250   1.720  0.00  0.00     0.002 A 
ATOM      4  C5  UNL d   1       0.671  -0.534   1.930  0.00  0.00    -0.080 A 
ATOM      5  C6  UNL d   1       1.197  -0.821   3.304  0.00  0.00     0.076 C 
ATOM      6  C7  UNL d   1       1.541  -0.543   0.834  0.00  0.00     0.002 A 
ATOM      7  C8  UNL d   1       1.069  -0.250  -0.448  0.00  0.00     0.006 A 
ENDROOT
BRANCH   1   8
ATOM      8  C1  UNL d   1      -0.776   0.432  -2.028  0.00  0.00     0.054 C 
ATOM      9  C   UNL d   1      -1.073   1.923  -2.115  0.00  0.00     0.018 C 
ENDBRANCH   1   8
TORSDOF 1
ENDMDL
