MODEL 1
REMARK minimizedAffinity -4.88438368
REMARK minimizedRMSD -1
REMARK  1 active torsions:
REMARK  status: ('A' for Active; 'I' for Inactive)
REMARK    1  A    between atoms: C1_2  and  C2_3 
ROOT
ATOM      1  C2  UNL d   1      -0.116   0.463  -0.997  0.00  0.00    -0.081 A 
ATOM      2  C3  UNL d   1      -0.975   0.735   0.074  0.00  0.00     0.006 A 
ATOM      3  C4  UNL d   1      -0.666   0.288   1.361  0.00  0.00     0.002 A 
ATOM      4  C5  UNL d   1       0.510  -0.432   1.599  0.00  0.00    -0.080 A 
ATOM      5  C6  UNL d   1       0.868  -0.892   2.981  0.00  0.00     0.076 C 
ATOM      6  C7  UNL d   1       1.360  -0.719   0.526  0.00  0.00     0.002 A 
ATOM      7  C8  UNL d   1       1.051  -0.273  -0.761  0.00  0.00     0.006 A 
ENDROOT
BRANCH   1   8
ATOM      8  C1  UNL d   1      -0.414   0.999  -2.374  0.00  0.00     0.054 C 
ATOM      9  C   UNL d   1      -0.282   2.515  -2.418  0.00  0.00     0.018 C 
ENDBRANCH   1   8
TORSDOF 1
ENDMDL
