MODEL 1
REMARK minimizedAffinity -5.29254913
REMARK minimizedRMSD -1
REMARK  1 active torsions:
REMARK  status: ('A' for Active; 'I' for Inactive)
REMARK    1  A    between atoms: C1_2  and  C2_3 
ROOT
ATOM      1  C2  UNL d   1      -0.540   0.186  -0.395  0.00  0.00    -0.081 A 
ATOM      2  C3  UNL d   1      -1.320  -0.055   0.743  0.00  0.00     0.006 A 
ATOM      3  C4  UNL d   1      -0.723  -0.467   1.937  0.00  0.00     0.002 A 
ATOM      4  C5  UNL d   1       0.663  -0.638   2.015  0.00  0.00    -0.080 A 
ATOM      5  C6  UNL d   1       1.320  -1.051   3.299  0.00  0.00     0.076 C 
ATOM      6  C7  UNL d   1       1.441  -0.414   0.874  0.00  0.00     0.002 A 
ATOM      7  C8  UNL d   1       0.845  -0.003  -0.320  0.00  0.00     0.006 A 
ENDROOT
BRANCH   1   8
ATOM      8  C1  UNL d   1      -1.173   0.693  -1.665  0.00  0.00     0.054 C 
ATOM      9  C   UNL d   1      -0.602   2.045  -2.067  0.00  0.00     0.018 C 
ENDBRANCH   1   8
TORSDOF 1
ENDMDL
