MODEL 1
REMARK minimizedAffinity -3.93544555
REMARK minimizedRMSD -1
REMARK  1 active torsions:
REMARK  status: ('A' for Active; 'I' for Inactive)
REMARK    1  A    between atoms: C1_2  and  C2_3 
ROOT
ATOM      1  C2  UNL d   1      -0.383   0.823  -1.191  0.00  0.00    -0.081 A 
ATOM      2  C3  UNL d   1      -1.493   0.808  -0.338  0.00  0.00     0.006 A 
ATOM      3  C4  UNL d   1      -1.421   0.181   0.909  0.00  0.00     0.002 A 
ATOM      4  C5  UNL d   1      -0.235  -0.433   1.326  0.00  0.00    -0.080 A 
ATOM      5  C6  UNL d   1      -0.135  -1.083   2.674  0.00  0.00     0.076 C 
ATOM      6  C7  UNL d   1       0.869  -0.433   0.467  0.00  0.00     0.002 A 
ATOM      7  C8  UNL d   1       0.797   0.192  -0.779  0.00  0.00     0.006 A 
ENDROOT
BRANCH   1   8
ATOM      8  C1  UNL d   1      -0.438   1.554  -2.508  0.00  0.00     0.054 C 
ATOM      9  C   UNL d   1      -1.015   2.952  -2.341  0.00  0.00     0.018 C 
ENDBRANCH   1   8
TORSDOF 1
ENDMDL
