MODEL 1
REMARK minimizedAffinity -4.90751553
REMARK minimizedRMSD -1
REMARK  1 active torsions:
REMARK  status: ('A' for Active; 'I' for Inactive)
REMARK    1  A    between atoms: C1_2  and  C2_3 
ROOT
ATOM      1  C2  UNL d   1      -0.620  -0.251  -0.167  0.00  0.00    -0.081 A 
ATOM      2  C3  UNL d   1      -1.178  -0.476   1.097  0.00  0.00     0.006 A 
ATOM      3  C4  UNL d   1      -0.392  -0.972   2.140  0.00  0.00     0.002 A 
ATOM      4  C5  UNL d   1       0.965  -1.245   1.939  0.00  0.00    -0.080 A 
ATOM      5  C6  UNL d   1       1.826  -1.750   3.058  0.00  0.00     0.076 C 
ATOM      6  C7  UNL d   1       1.519  -1.037   0.671  0.00  0.00     0.002 A 
ATOM      7  C8  UNL d   1       0.734  -0.542  -0.373  0.00  0.00     0.006 A 
ENDROOT
BRANCH   1   8
ATOM      8  C1  UNL d   1      -1.448   0.345  -1.276  0.00  0.00     0.054 C 
ATOM      9  C   UNL d   1      -0.817   1.621  -1.814  0.00  0.00     0.018 C 
ENDBRANCH   1   8
TORSDOF 1
ENDMDL
