MODEL 1
REMARK minimizedAffinity 2.94643807
REMARK minimizedRMSD -1
REMARK  0 active torsions:
REMARK  status: ('A' for Active; 'I' for Inactive)
ROOT
ATOM      1  C4' PXY d   1       1.616  -1.945  -0.302  0.00  0.00     0.077 C 
ATOM      2  C1' PXY d   1      -2.997  -0.014   2.596  0.00  0.00     0.077 C 
ATOM      3  C1  PXY d   1      -1.781  -0.522   1.847  0.00  0.00    -0.082 A 
ATOM      4  C2  PXY d   1      -1.603  -0.182   0.581  0.00  0.00     0.003 A 
ATOM      5  C3  PXY d   1      -0.526  -0.659  -0.121  0.00  0.00     0.003 A 
ATOM      6  C4  PXY d   1       0.408  -1.448   0.496  0.00  0.00    -0.082 A 
ATOM      7  C5  PXY d   1       0.239  -1.790   1.791  0.00  0.00     0.003 A 
ATOM      8  C6  PXY d   1      -0.883  -1.330   2.473  0.00  0.00     0.003 A 
ENDROOT
TORSDOF 0
ENDMDL
