MODEL 1
REMARK minimizedAffinity -2.24357772
REMARK minimizedRMSD -1
REMARK  0 active torsions:
REMARK  status: ('A' for Active; 'I' for Inactive)
ROOT
ATOM      1  C4' PXY d   1       2.289  -4.873   2.630  0.00  0.00     0.077 C 
ATOM      2  C1' PXY d   1      -0.497  -0.116   0.893  0.00  0.00     0.077 C 
ATOM      3  C1  PXY d   1       0.235  -1.367   1.336  0.00  0.00    -0.082 A 
ATOM      4  C2  PXY d   1       0.066  -1.823   2.567  0.00  0.00     0.003 A 
ATOM      5  C3  PXY d   1       0.744  -2.935   2.994  0.00  0.00     0.003 A 
ATOM      6  C4  PXY d   1       1.564  -3.619   2.136  0.00  0.00    -0.082 A 
ATOM      7  C5  PXY d   1       1.733  -3.166   0.876  0.00  0.00     0.003 A 
ATOM      8  C6  PXY d   1       1.067  -2.012   0.474  0.00  0.00     0.003 A 
ENDROOT
TORSDOF 0
ENDMDL
