MODEL 1
REMARK minimizedAffinity 1.97560728
REMARK minimizedRMSD -1
REMARK  0 active torsions:
REMARK  status: ('A' for Active; 'I' for Inactive)
ROOT
ATOM      1  C4' PXY d   1      -2.167   2.201  -1.650  0.00  0.00     0.077 C 
ATOM      2  C1' PXY d   1      -0.916  -1.181   2.868  0.00  0.00     0.077 C 
ATOM      3  C1  PXY d   1      -1.237  -0.301   1.676  0.00  0.00    -0.082 A 
ATOM      4  C2  PXY d   1      -1.660   0.937   1.871  0.00  0.00     0.003 A 
ATOM      5  C3  PXY d   1      -1.984   1.736   0.805  0.00  0.00     0.003 A 
ATOM      6  C4  PXY d   1      -1.823   1.280  -0.476  0.00  0.00    -0.082 A 
ATOM      7  C5  PXY d   1      -1.382   0.022  -0.684  0.00  0.00     0.003 A 
ATOM      8  C6  PXY d   1      -1.097  -0.787   0.412  0.00  0.00     0.003 A 
ENDROOT
TORSDOF 0
ENDMDL
