MODEL 1
REMARK minimizedAffinity 1.36201143
REMARK minimizedRMSD -1
REMARK  0 active torsions:
REMARK  status: ('A' for Active; 'I' for Inactive)
ROOT
ATOM      1  C4' PXY d   1      -0.186  -4.494   2.599  0.00  0.00     0.077 C 
ATOM      2  C1' PXY d   1       4.758  -4.883  -0.370  0.00  0.00     0.077 C 
ATOM      3  C1  PXY d   1       3.460  -4.794   0.408  0.00  0.00    -0.082 A 
ATOM      4  C2  PXY d   1       2.775  -3.662   0.410  0.00  0.00     0.003 A 
ATOM      5  C3  PXY d   1       1.616  -3.554   1.134  0.00  0.00     0.003 A 
ATOM      6  C4  PXY d   1       1.125  -4.632   1.820  0.00  0.00    -0.082 A 
ATOM      7  C5  PXY d   1       1.812  -5.794   1.814  0.00  0.00     0.003 A 
ATOM      8  C6  PXY d   1       3.008  -5.871   1.107  0.00  0.00     0.003 A 
ENDROOT
TORSDOF 0
ENDMDL
