MODEL 1
REMARK minimizedAffinity 0.0954577476
REMARK minimizedRMSD -1
REMARK  0 active torsions:
REMARK  status: ('A' for Active; 'I' for Inactive)
ROOT
ATOM      1  C4' PXY d   1       2.538  -3.731   0.646  0.00  0.00     0.077 C 
ATOM      2  C1' PXY d   1      -1.768   0.026   1.515  0.00  0.00     0.077 C 
ATOM      3  C1  PXY d   1      -0.638  -0.961   1.300  0.00  0.00    -0.082 A 
ATOM      4  C2  PXY d   1       0.116  -0.868   0.217  0.00  0.00     0.003 A 
ATOM      5  C3  PXY d   1       1.121  -1.772  -0.009  0.00  0.00     0.003 A 
ATOM      6  C4  PXY d   1       1.392  -2.750   0.909  0.00  0.00    -0.082 A 
ATOM      7  C5  PXY d   1       0.635  -2.846   2.023  0.00  0.00     0.003 A 
ATOM      8  C6  PXY d   1      -0.407  -1.944   2.213  0.00  0.00     0.003 A 
ENDROOT
TORSDOF 0
ENDMDL
