MODEL 1
REMARK minimizedAffinity 3.97120929
REMARK minimizedRMSD -1
REMARK  0 active torsions:
REMARK  status: ('A' for Active; 'I' for Inactive)
ROOT
ATOM      1  C4' PXY d   1       4.413  -6.000   0.762  0.00  0.00     0.077 C 
ATOM      2  C1' PXY d   1       1.392  -1.221  -0.445  0.00  0.00     0.077 C 
ATOM      3  C1  PXY d   1       2.191  -2.473  -0.140  0.00  0.00    -0.082 A 
ATOM      4  C2  PXY d   1       1.702  -3.372   0.699  0.00  0.00     0.003 A 
ATOM      5  C3  PXY d   1       2.425  -4.495   1.011  0.00  0.00     0.003 A 
ATOM      6  C4  PXY d   1       3.637  -4.725   0.417  0.00  0.00    -0.082 A 
ATOM      7  C5  PXY d   1       4.137  -3.818  -0.448  0.00  0.00     0.003 A 
ATOM      8  C6  PXY d   1       3.406  -2.665  -0.720  0.00  0.00     0.003 A 
ENDROOT
TORSDOF 0
ENDMDL
