MODEL 1
REMARK minimizedAffinity 3.2893548
REMARK minimizedRMSD -1
REMARK  0 active torsions:
REMARK  status: ('A' for Active; 'I' for Inactive)
ROOT
ATOM      1  C4' PXY d   1       2.033  -1.564  -0.105  0.00  0.00     0.077 C 
ATOM      2  C1' PXY d   1      -3.237   0.010   1.676  0.00  0.00     0.077 C 
ATOM      3  C1  PXY d   1      -1.859  -0.405   1.197  0.00  0.00    -0.082 A 
ATOM      4  C2  PXY d   1      -0.976  -0.866   2.067  0.00  0.00     0.003 A 
ATOM      5  C3  PXY d   1       0.285  -1.215   1.656  0.00  0.00     0.003 A 
ATOM      6  C4  PXY d   1       0.627  -1.142   0.332  0.00  0.00    -0.082 A 
ATOM      7  C5  PXY d   1      -0.272  -0.683  -0.563  0.00  0.00     0.003 A 
ATOM      8  C6  PXY d   1      -1.533  -0.294  -0.120  0.00  0.00     0.003 A 
ENDROOT
TORSDOF 0
ENDMDL
