MODEL 1
REMARK minimizedAffinity 0.392164767
REMARK minimizedRMSD -1
REMARK  0 active torsions:
REMARK  status: ('A' for Active; 'I' for Inactive)
ROOT
ATOM      1  C4' PXY d   1       2.878  -3.550   0.410  0.00  0.00     0.077 C 
ATOM      2  C1' PXY d   1      -1.211   0.281   1.831  0.00  0.00     0.077 C 
ATOM      3  C1  PXY d   1      -0.140  -0.721   1.446  0.00  0.00    -0.082 A 
ATOM      4  C2  PXY d   1       0.147  -1.719   2.265  0.00  0.00     0.003 A 
ATOM      5  C3  PXY d   1       1.134  -2.616   1.947  0.00  0.00     0.003 A 
ATOM      6  C4  PXY d   1       1.798  -2.520   0.754  0.00  0.00    -0.082 A 
ATOM      7  C5  PXY d   1       1.504  -1.511  -0.093  0.00  0.00     0.003 A 
ATOM      8  C6  PXY d   1       0.526  -0.588   0.267  0.00  0.00     0.003 A 
ENDROOT
TORSDOF 0
ENDMDL
