MODEL 1
REMARK minimizedAffinity 5.54832697
REMARK minimizedRMSD -1
REMARK  0 active torsions:
REMARK  status: ('A' for Active; 'I' for Inactive)
ROOT
ATOM      1  C4' PXY d   1       1.338  -1.072  -0.382  0.00  0.00     0.077 C 
ATOM      2  C1' PXY d   1      -4.089  -0.033   1.316  0.00  0.00     0.077 C 
ATOM      3  C1  PXY d   1      -2.661  -0.303   0.883  0.00  0.00    -0.082 A 
ATOM      4  C2  PXY d   1      -2.337  -0.207  -0.396  0.00  0.00     0.003 A 
ATOM      5  C3  PXY d   1      -1.058  -0.478  -0.810  0.00  0.00     0.003 A 
ATOM      6  C4  PXY d   1      -0.089  -0.800   0.102  0.00  0.00    -0.082 A 
ATOM      7  C5  PXY d   1      -0.409  -0.889   1.411  0.00  0.00     0.003 A 
ATOM      8  C6  PXY d   1      -1.723  -0.650   1.805  0.00  0.00     0.003 A 
ENDROOT
TORSDOF 0
ENDMDL
