MODEL 1
REMARK minimizedAffinity 8.34277058
REMARK minimizedRMSD -1
REMARK  1 active torsions:
REMARK  status: ('A' for Active; 'I' for Inactive)
REMARK    1  A    between atoms: C1_2  and  C2_3 
ROOT
ATOM      1  C2  UNL d   1      -1.764  -0.233   1.968  0.00  0.00    -0.076 A 
ATOM      2  C3  UNL d   1      -0.391  -0.020   1.754  0.00  0.00     0.004 A 
ATOM      3  C4  UNL d   1       0.559  -0.507   2.650  0.00  0.00    -0.003 A 
ATOM      4  C5  UNL d   1       0.151  -1.216   3.775  0.00  0.00     0.000 A 
ATOM      5  C6  UNL d   1      -1.206  -1.451   3.994  0.00  0.00     0.000 A 
ATOM      6  C7  UNL d   1      -2.176  -0.981   3.091  0.00  0.00    -0.073 A 
ATOM      7  C8  UNL d   1      -3.626  -1.259   3.379  0.00  0.00     0.078 C 
ENDROOT
BRANCH   1   8
ATOM      8  C1  UNL d   1      -2.749   0.343   0.975  0.00  0.00     0.053 C 
ATOM      9  C   UNL d   1      -2.134   0.557  -0.399  0.00  0.00     0.018 C 
ENDBRANCH   1   8
TORSDOF 1
ENDMDL
