MODEL 1
REMARK minimizedAffinity -2.71367216
REMARK minimizedRMSD -1
REMARK  1 active torsions:
REMARK  status: ('A' for Active; 'I' for Inactive)
REMARK    1  A    between atoms: C1_2  and  C2_3 
ROOT
ATOM      1  C2  UNL d   1       1.386  -0.689  -1.609  0.00  0.00    -0.076 A 
ATOM      2  C3  UNL d   1       0.296  -1.344  -2.208  0.00  0.00     0.004 A 
ATOM      3  C4  UNL d   1      -0.098  -1.038  -3.510  0.00  0.00    -0.003 A 
ATOM      4  C5  UNL d   1       0.593  -0.072  -4.234  0.00  0.00     0.000 A 
ATOM      5  C6  UNL d   1       1.688   0.575  -3.661  0.00  0.00     0.000 A 
ATOM      6  C7  UNL d   1       2.107   0.266  -2.356  0.00  0.00    -0.073 A 
ATOM      7  C8  UNL d   1       3.291   0.999  -1.786  0.00  0.00     0.078 C 
ENDROOT
BRANCH   1   8
ATOM      8  C1  UNL d   1       1.750  -1.044  -0.185  0.00  0.00     0.053 C 
ATOM      9  C   UNL d   1       1.100  -0.117   0.831  0.00  0.00     0.018 C 
ENDBRANCH   1   8
TORSDOF 1
ENDMDL
