MODEL 1
REMARK minimizedAffinity 5.33948898
REMARK minimizedRMSD -1
REMARK  1 active torsions:
REMARK  status: ('A' for Active; 'I' for Inactive)
REMARK    1  A    between atoms: C1_2  and  C2_3 
ROOT
ATOM      1  C2  UNL d   1       4.283   4.674   1.122  0.00  0.00    -0.076 A 
ATOM      2  C3  UNL d   1       5.204   5.736   1.118  0.00  0.00     0.004 A 
ATOM      3  C4  UNL d   1       6.000   6.000   2.231  0.00  0.00    -0.003 A 
ATOM      4  C5  UNL d   1       5.888   5.205   3.367  0.00  0.00     0.000 A 
ATOM      5  C6  UNL d   1       4.993   4.137   3.382  0.00  0.00     0.000 A 
ATOM      6  C7  UNL d   1       4.194   3.847   2.262  0.00  0.00    -0.073 A 
ATOM      7  C8  UNL d   1       3.241   2.686   2.335  0.00  0.00     0.078 C 
ENDROOT
BRANCH   1   8
ATOM      8  C1  UNL d   1       3.427   4.453  -0.105  0.00  0.00     0.053 C 
ATOM      9  C   UNL d   1       4.124   3.602  -1.156  0.00  0.00     0.018 C 
ENDBRANCH   1   8
TORSDOF 1
ENDMDL
