MODEL 1
REMARK minimizedAffinity 0.82219696
REMARK minimizedRMSD -1
REMARK  1 active torsions:
REMARK  status: ('A' for Active; 'I' for Inactive)
REMARK    1  A    between atoms: C1_2  and  C2_3 
ROOT
ATOM      1  C2  UNL d   1      -0.052  -0.672   1.571  0.00  0.00    -0.076 A 
ATOM      2  C3  UNL d   1       0.247  -1.229   2.827  0.00  0.00     0.004 A 
ATOM      3  C4  UNL d   1      -0.650  -1.127   3.889  0.00  0.00    -0.003 A 
ATOM      4  C5  UNL d   1      -1.861  -0.466   3.712  0.00  0.00     0.000 A 
ATOM      5  C6  UNL d   1      -2.181   0.078   2.469  0.00  0.00     0.000 A 
ATOM      6  C7  UNL d   1      -1.295  -0.031   1.383  0.00  0.00    -0.073 A 
ATOM      7  C8  UNL d   1      -1.689   0.579   0.066  0.00  0.00     0.078 C 
ENDROOT
BRANCH   1   8
ATOM      8  C1  UNL d   1       0.971  -0.791   0.465  0.00  0.00     0.053 C 
ATOM      9  C   UNL d   1       1.809   0.469   0.308  0.00  0.00     0.018 C 
ENDBRANCH   1   8
TORSDOF 1
ENDMDL
