MODEL 1
REMARK minimizedAffinity 0.404001564
REMARK minimizedRMSD -1
REMARK  1 active torsions:
REMARK  status: ('A' for Active; 'I' for Inactive)
REMARK    1  A    between atoms: C1_2  and  C2_3 
ROOT
ATOM      1  C2  UNL d   1      -0.303  -0.504   2.437  0.00  0.00    -0.076 A 
ATOM      2  C3  UNL d   1       0.795  -0.921   3.210  0.00  0.00     0.004 A 
ATOM      3  C4  UNL d   1       0.614  -1.468   4.478  0.00  0.00    -0.003 A 
ATOM      4  C5  UNL d   1      -0.669  -1.608   4.996  0.00  0.00     0.000 A 
ATOM      5  C6  UNL d   1      -1.772  -1.217   4.236  0.00  0.00     0.000 A 
ATOM      6  C7  UNL d   1      -1.607  -0.678   2.949  0.00  0.00    -0.073 A 
ATOM      7  C8  UNL d   1      -2.830  -0.267   2.176  0.00  0.00     0.078 C 
ENDROOT
BRANCH   1   8
ATOM      8  C1  UNL d   1      -0.043   0.108   1.079  0.00  0.00     0.053 C 
ATOM      9  C   UNL d   1       0.186  -0.941   0.002  0.00  0.00     0.018 C 
ENDBRANCH   1   8
TORSDOF 1
ENDMDL
