MODEL 1
REMARK minimizedAffinity -0.274316013
REMARK minimizedRMSD -1
REMARK  1 active torsions:
REMARK  status: ('A' for Active; 'I' for Inactive)
REMARK    1  A    between atoms: C1_2  and  C2_3 
ROOT
ATOM      1  C2  UNL d   1      -2.353  -0.512  -0.001  0.00  0.00    -0.076 A 
ATOM      2  C3  UNL d   1      -1.352  -0.503  -0.987  0.00  0.00     0.004 A 
ATOM      3  C4  UNL d   1      -0.034  -0.181  -0.667  0.00  0.00    -0.003 A 
ATOM      4  C5  UNL d   1       0.304   0.136   0.644  0.00  0.00     0.000 A 
ATOM      5  C6  UNL d   1      -0.673   0.115   1.638  0.00  0.00     0.000 A 
ATOM      6  C7  UNL d   1      -2.004  -0.223   1.336  0.00  0.00    -0.073 A 
ATOM      7  C8  UNL d   1      -3.018  -0.225   2.446  0.00  0.00     0.078 C 
ENDROOT
BRANCH   1   8
ATOM      8  C1  UNL d   1      -3.771  -0.843  -0.411  0.00  0.00     0.053 C 
ATOM      9  C   UNL d   1      -3.855  -2.110  -1.247  0.00  0.00     0.018 C 
ENDBRANCH   1   8
TORSDOF 1
ENDMDL
