MODEL 1
REMARK minimizedAffinity 1.5864675
REMARK minimizedRMSD -1
REMARK  1 active torsions:
REMARK  status: ('A' for Active; 'I' for Inactive)
REMARK    1  A    between atoms: C1_2  and  C2_3 
ROOT
ATOM      1  C2  UNL d   1      -0.904  -0.110   1.069  0.00  0.00    -0.076 A 
ATOM      2  C3  UNL d   1       0.476   0.083   0.881  0.00  0.00     0.004 A 
ATOM      3  C4  UNL d   1       0.962   0.735  -0.251  0.00  0.00    -0.003 A 
ATOM      4  C5  UNL d   1       0.076   1.205  -1.214  0.00  0.00     0.000 A 
ATOM      5  C6  UNL d   1      -1.297   1.038  -1.036  0.00  0.00     0.000 A 
ATOM      6  C7  UNL d   1      -1.804   0.397   0.107  0.00  0.00    -0.073 A 
ATOM      7  C8  UNL d   1      -3.294   0.239   0.245  0.00  0.00     0.078 C 
ENDROOT
BRANCH   1   8
ATOM      8  C1  UNL d   1      -1.371  -0.848   2.303  0.00  0.00     0.053 C 
ATOM      9  C   UNL d   1      -0.281  -0.969   3.357  0.00  0.00     0.018 C 
ENDBRANCH   1   8
TORSDOF 1
ENDMDL
