MODEL 1
REMARK minimizedAffinity 7.16588068
REMARK minimizedRMSD -1
REMARK  0 active torsions:
REMARK  status: ('A' for Active; 'I' for Inactive)
ROOT
ATOM      1  C4' PXY d   1      -2.202  -3.388  -3.307  0.00  0.00     0.077 C 
ATOM      2  C1' PXY d   1      -1.176  -1.679   2.119  0.00  0.00     0.077 C 
ATOM      3  C1  PXY d   1      -1.433  -2.132   0.695  0.00  0.00    -0.082 A 
ATOM      4  C2  PXY d   1      -2.340  -1.505  -0.037  0.00  0.00     0.003 A 
ATOM      5  C3  PXY d   1      -2.607  -1.923  -1.316  0.00  0.00     0.003 A 
ATOM      6  C4  PXY d   1      -1.903  -2.958  -1.868  0.00  0.00    -0.082 A 
ATOM      7  C5  PXY d   1      -0.969  -3.596  -1.131  0.00  0.00     0.003 A 
ATOM      8  C6  PXY d   1      -0.741  -3.183   0.179  0.00  0.00     0.003 A 
ENDROOT
TORSDOF 0
ENDMDL
