MODEL 1
REMARK minimizedAffinity -1.05145264
REMARK minimizedRMSD -1
REMARK  0 active torsions:
REMARK  status: ('A' for Active; 'I' for Inactive)
ROOT
ATOM      1  C4' PXY d   1       5.994   1.046  -5.830  0.00  0.00     0.077 C 
ATOM      2  C1' PXY d   1       2.072   5.289  -6.000  0.00  0.00     0.077 C 
ATOM      3  C1  PXY d   1       3.110   4.185  -5.960  0.00  0.00    -0.082 A 
ATOM      4  C2  PXY d   1       2.721   2.921  -5.998  0.00  0.00     0.003 A 
ATOM      5  C3  PXY d   1       3.644   1.909  -5.930  0.00  0.00     0.003 A 
ATOM      6  C4  PXY d   1       4.982   2.194  -5.877  0.00  0.00    -0.082 A 
ATOM      7  C5  PXY d   1       5.388   3.482  -5.849  0.00  0.00     0.003 A 
ATOM      8  C6  PXY d   1       4.433   4.494  -5.877  0.00  0.00     0.003 A 
ENDROOT
TORSDOF 0
ENDMDL
