MODEL 1
REMARK minimizedAffinity 2.48516893
REMARK minimizedRMSD -1
REMARK  0 active torsions:
REMARK  status: ('A' for Active; 'I' for Inactive)
ROOT
ATOM      1  C4' PXY d   1      -1.101  -2.086  -0.757  0.00  0.00     0.077 C 
ATOM      2  C1' PXY d   1      -2.625  -3.983  -6.000  0.00  0.00     0.077 C 
ATOM      3  C1  PXY d   1      -2.215  -3.480  -4.630  0.00  0.00    -0.082 A 
ATOM      4  C2  PXY d   1      -2.595  -4.141  -3.549  0.00  0.00     0.003 A 
ATOM      5  C3  PXY d   1      -2.260  -3.682  -2.301  0.00  0.00     0.003 A 
ATOM      6  C4  PXY d   1      -1.484  -2.563  -2.160  0.00  0.00    -0.082 A 
ATOM      7  C5  PXY d   1      -1.083  -1.888  -3.259  0.00  0.00     0.003 A 
ATOM      8  C6  PXY d   1      -1.469  -2.348  -4.515  0.00  0.00     0.003 A 
ENDROOT
TORSDOF 0
ENDMDL
