MODEL 1
REMARK minimizedAffinity 7.69904327
REMARK minimizedRMSD -1
REMARK  0 active torsions:
REMARK  status: ('A' for Active; 'I' for Inactive)
ROOT
ATOM      1  C4' PXY d   1      -2.802  -2.615  -4.146  0.00  0.00     0.077 C 
ATOM      2  C1' PXY d   1       0.039  -3.183   0.856  0.00  0.00     0.077 C 
ATOM      3  C1  PXY d   1      -0.714  -3.025  -0.450  0.00  0.00    -0.082 A 
ATOM      4  C2  PXY d   1      -0.650  -3.982  -1.361  0.00  0.00     0.003 A 
ATOM      5  C3  PXY d   1      -1.299  -3.842  -2.561  0.00  0.00     0.003 A 
ATOM      6  C4  PXY d   1      -2.065  -2.735  -2.809  0.00  0.00    -0.082 A 
ATOM      7  C5  PXY d   1      -2.144  -1.759  -1.880  0.00  0.00     0.003 A 
ATOM      8  C6  PXY d   1      -1.445  -1.902  -0.685  0.00  0.00     0.003 A 
ENDROOT
TORSDOF 0
ENDMDL
