MODEL 1
REMARK minimizedAffinity -0.89092797
REMARK minimizedRMSD -1
REMARK  0 active torsions:
REMARK  status: ('A' for Active; 'I' for Inactive)
ROOT
ATOM      1  C4' PXY d   1       4.475   0.538  -2.732  0.00  0.00     0.077 C 
ATOM      2  C1' PXY d   1       6.000   5.060  -5.994  0.00  0.00     0.077 C 
ATOM      3  C1  PXY d   1       5.610   3.876  -5.131  0.00  0.00    -0.082 A 
ATOM      4  C2  PXY d   1       4.889   2.896  -5.651  0.00  0.00     0.003 A 
ATOM      5  C3  PXY d   1       4.501   1.834  -4.876  0.00  0.00     0.003 A 
ATOM      6  C4  PXY d   1       4.900   1.748  -3.569  0.00  0.00    -0.082 A 
ATOM      7  C5  PXY d   1       5.644   2.738  -3.034  0.00  0.00     0.003 A 
ATOM      8  C6  PXY d   1       5.993   3.828  -3.826  0.00  0.00     0.003 A 
ENDROOT
TORSDOF 0
ENDMDL
