MODEL 1
REMARK minimizedAffinity 11.9641466
REMARK minimizedRMSD -1
REMARK  0 active torsions:
REMARK  status: ('A' for Active; 'I' for Inactive)
ROOT
ATOM      1  C4' PXY d   1      -1.546  -2.122   3.346  0.00  0.00     0.077 C 
ATOM      2  C1' PXY d   1      -1.472  -2.440  -2.426  0.00  0.00     0.077 C 
ATOM      3  C1  PXY d   1      -1.482  -2.366  -0.911  0.00  0.00    -0.082 A 
ATOM      4  C2  PXY d   1      -2.558  -1.918  -0.286  0.00  0.00     0.003 A 
ATOM      5  C3  PXY d   1      -2.573  -1.815   1.081  0.00  0.00     0.003 A 
ATOM      6  C4  PXY d   1      -1.494  -2.223   1.819  0.00  0.00    -0.082 A 
ATOM      7  C5  PXY d   1      -0.396  -2.691   1.188  0.00  0.00     0.003 A 
ATOM      8  C6  PXY d   1      -0.386  -2.750  -0.202  0.00  0.00     0.003 A 
ENDROOT
TORSDOF 0
ENDMDL
