MODEL 1
REMARK minimizedAffinity 7.02461863
REMARK minimizedRMSD -1
REMARK  0 active torsions:
REMARK  status: ('A' for Active; 'I' for Inactive)
ROOT
ATOM      1  C4' PXY d   1      -1.779  -5.911   4.296  0.00  0.00     0.077 C 
ATOM      2  C1' PXY d   1       0.508  -2.517   0.214  0.00  0.00     0.077 C 
ATOM      3  C1  PXY d   1      -0.092  -3.397   1.293  0.00  0.00    -0.082 A 
ATOM      4  C2  PXY d   1       0.085  -4.707   1.241  0.00  0.00     0.003 A 
ATOM      5  C3  PXY d   1      -0.477  -5.521   2.191  0.00  0.00     0.003 A 
ATOM      6  C4  PXY d   1      -1.183  -4.983   3.233  0.00  0.00    -0.082 A 
ATOM      7  C5  PXY d   1      -1.359  -3.646   3.299  0.00  0.00     0.003 A 
ATOM      8  C6  PXY d   1      -0.815  -2.841   2.302  0.00  0.00     0.003 A 
ENDROOT
TORSDOF 0
ENDMDL
