MODEL 1
REMARK minimizedAffinity 3.9469521
REMARK minimizedRMSD -1
REMARK  0 active torsions:
REMARK  status: ('A' for Active; 'I' for Inactive)
ROOT
ATOM      1  C4' PXY d   1       5.872   1.598  -1.776  0.00  0.00     0.077 C 
ATOM      2  C1' PXY d   1       1.746   1.724   2.270  0.00  0.00     0.077 C 
ATOM      3  C1  PXY d   1       2.820   1.697   1.201  0.00  0.00    -0.082 A 
ATOM      4  C2  PXY d   1       3.750   0.757   1.231  0.00  0.00     0.003 A 
ATOM      5  C3  PXY d   1       4.748   0.737   0.291  0.00  0.00     0.003 A 
ATOM      6  C4  PXY d   1       4.763   1.658  -0.723  0.00  0.00    -0.082 A 
ATOM      7  C5  PXY d   1       3.811   2.614  -0.767  0.00  0.00     0.003 A 
ATOM      8  C6  PXY d   1       2.831   2.641   0.221  0.00  0.00     0.003 A 
ENDROOT
TORSDOF 0
ENDMDL
