MODEL 1
REMARK minimizedAffinity 4.42007208
REMARK minimizedRMSD -1
REMARK  0 active torsions:
REMARK  status: ('A' for Active; 'I' for Inactive)
ROOT
ATOM      1  C4' PXY d   1      -0.880  -2.140   1.995  0.00  0.00     0.077 C 
ATOM      2  C1' PXY d   1      -1.399  -2.833  -3.720  0.00  0.00     0.077 C 
ATOM      3  C1  PXY d   1      -1.256  -2.663  -2.221  0.00  0.00    -0.082 A 
ATOM      4  C2  PXY d   1      -2.109  -1.891  -1.566  0.00  0.00     0.003 A 
ATOM      5  C3  PXY d   1      -1.975  -1.701  -0.215  0.00  0.00     0.003 A 
ATOM      6  C4  PXY d   1      -0.991  -2.349   0.482  0.00  0.00    -0.082 A 
ATOM      7  C5  PXY d   1      -0.124  -3.146  -0.177  0.00  0.00     0.003 A 
ATOM      8  C6  PXY d   1      -0.251  -3.294  -1.555  0.00  0.00     0.003 A 
ENDROOT
TORSDOF 0
ENDMDL
