MODEL 1
REMARK minimizedAffinity 8.55788898
REMARK minimizedRMSD -1
REMARK  0 active torsions:
REMARK  status: ('A' for Active; 'I' for Inactive)
ROOT
ATOM      1  C4' PXY d   1      -0.672  -2.616  -0.631  0.00  0.00     0.077 C 
ATOM      2  C1' PXY d   1      -2.805  -2.815  -6.000  0.00  0.00     0.077 C 
ATOM      3  C1  PXY d   1      -2.241  -2.751  -4.594  0.00  0.00    -0.082 A 
ATOM      4  C2  PXY d   1      -1.970  -3.873  -3.946  0.00  0.00     0.003 A 
ATOM      5  C3  PXY d   1      -1.489  -3.833  -2.663  0.00  0.00     0.003 A 
ATOM      6  C4  PXY d   1      -1.234  -2.633  -2.055  0.00  0.00    -0.082 A 
ATOM      7  C5  PXY d   1      -1.497  -1.485  -2.714  0.00  0.00     0.003 A 
ATOM      8  C6  PXY d   1      -2.024  -1.546  -4.001  0.00  0.00     0.003 A 
ENDROOT
TORSDOF 0
ENDMDL
