MODEL 1
REMARK minimizedAffinity 10.9991665
REMARK minimizedRMSD -1
REMARK  0 active torsions:
REMARK  status: ('A' for Active; 'I' for Inactive)
ROOT
ATOM      1  C4' PXY d   1      -2.176  -1.379  -1.873  0.00  0.00     0.077 C 
ATOM      2  C1' PXY d   1       0.969  -5.815   0.089  0.00  0.00     0.077 C 
ATOM      3  C1  PXY d   1       0.145  -4.656  -0.438  0.00  0.00    -0.082 A 
ATOM      4  C2  PXY d   1       0.055  -3.543   0.271  0.00  0.00     0.003 A 
ATOM      5  C3  PXY d   1      -0.711  -2.497  -0.175  0.00  0.00     0.003 A 
ATOM      6  C4  PXY d   1      -1.348  -2.571  -1.385  0.00  0.00    -0.082 A 
ATOM      7  C5  PXY d   1      -1.252  -3.700  -2.119  0.00  0.00     0.003 A 
ATOM      8  C6  PXY d   1      -0.503  -4.766  -1.629  0.00  0.00     0.003 A 
ENDROOT
TORSDOF 0
ENDMDL
