MODEL 1
REMARK minimizedAffinity 11.6649942
REMARK minimizedRMSD -1
REMARK  0 active torsions:
REMARK  status: ('A' for Active; 'I' for Inactive)
ROOT
ATOM      1  C4' PXY d   1      -4.117  -2.587  -6.000  0.00  0.00     0.077 C 
ATOM      2  C1' PXY d   1      -0.878  -3.765  -1.359  0.00  0.00     0.077 C 
ATOM      3  C1  PXY d   1      -1.717  -3.451  -2.582  0.00  0.00    -0.082 A 
ATOM      4  C2  PXY d   1      -3.030  -3.343  -2.464  0.00  0.00     0.003 A 
ATOM      5  C3  PXY d   1      -3.807  -3.091  -3.565  0.00  0.00     0.003 A 
ATOM      6  C4  PXY d   1      -3.229  -2.894  -4.791  0.00  0.00    -0.082 A 
ATOM      7  C5  PXY d   1      -1.889  -2.992  -4.918  0.00  0.00     0.003 A 
ATOM      8  C6  PXY d   1      -1.122  -3.290  -3.795  0.00  0.00     0.003 A 
ENDROOT
TORSDOF 0
ENDMDL
