MODEL 1
REMARK minimizedAffinity 8.89979458
REMARK minimizedRMSD -1
REMARK  0 active torsions:
REMARK  status: ('A' for Active; 'I' for Inactive)
ROOT
ATOM      1  C4' PXY d   1      -1.158  -2.178   3.082  0.00  0.00     0.077 C 
ATOM      2  C1' PXY d   1      -1.350  -2.302  -2.694  0.00  0.00     0.077 C 
ATOM      3  C1  PXY d   1      -1.291  -2.279  -1.179  0.00  0.00    -0.082 A 
ATOM      4  C2  PXY d   1      -2.301  -1.769  -0.493  0.00  0.00     0.003 A 
ATOM      5  C3  PXY d   1      -2.250  -1.712   0.876  0.00  0.00     0.003 A 
ATOM      6  C4  PXY d   1      -1.178  -2.230   1.552  0.00  0.00    -0.082 A 
ATOM      7  C5  PXY d   1      -0.149  -2.762   0.860  0.00  0.00     0.003 A 
ATOM      8  C6  PXY d   1      -0.201  -2.773  -0.531  0.00  0.00     0.003 A 
ENDROOT
TORSDOF 0
ENDMDL
