MODEL 1
REMARK minimizedAffinity 10.275445
REMARK minimizedRMSD -1
REMARK  0 active torsions:
REMARK  status: ('A' for Active; 'I' for Inactive)
ROOT
ATOM      1  C4' PXY d   1       5.842  -0.293  -5.952  0.00  0.00     0.077 C 
ATOM      2  C1' PXY d   1       1.643   3.679  -5.998  0.00  0.00     0.077 C 
ATOM      3  C1  PXY d   1       2.753   2.646  -5.991  0.00  0.00    -0.082 A 
ATOM      4  C2  PXY d   1       2.448   1.359  -5.998  0.00  0.00     0.003 A 
ATOM      5  C3  PXY d   1       3.438   0.411  -5.960  0.00  0.00     0.003 A 
ATOM      6  C4  PXY d   1       4.755   0.785  -5.968  0.00  0.00    -0.082 A 
ATOM      7  C5  PXY d   1       5.075   2.097  -5.972  0.00  0.00     0.003 A 
ATOM      8  C6  PXY d   1       4.054   3.043  -5.969  0.00  0.00     0.003 A 
ENDROOT
TORSDOF 0
ENDMDL
