MODEL 1
REMARK minimizedAffinity 8.92845249
REMARK minimizedRMSD -1
REMARK  0 active torsions:
REMARK  status: ('A' for Active; 'I' for Inactive)
ROOT
ATOM      1  C4' PXY d   1      -1.177  -2.122   2.630  0.00  0.00     0.077 C 
ATOM      2  C1' PXY d   1      -1.525  -2.546  -3.125  0.00  0.00     0.077 C 
ATOM      3  C1  PXY d   1      -1.426  -2.445  -1.615  0.00  0.00    -0.082 A 
ATOM      4  C2  PXY d   1      -2.378  -1.825  -0.937  0.00  0.00     0.003 A 
ATOM      5  C3  PXY d   1      -2.288  -1.697   0.425  0.00  0.00     0.003 A 
ATOM      6  C4  PXY d   1      -1.240  -2.256   1.106  0.00  0.00    -0.082 A 
ATOM      7  C5  PXY d   1      -0.270  -2.900   0.422  0.00  0.00     0.003 A 
ATOM      8  C6  PXY d   1      -0.359  -2.983  -0.964  0.00  0.00     0.003 A 
ENDROOT
TORSDOF 0
ENDMDL
