MODEL 1
REMARK minimizedAffinity 7.52877712
REMARK minimizedRMSD -1
REMARK  0 active torsions:
REMARK  status: ('A' for Active; 'I' for Inactive)
ROOT
ATOM      1  C4' PXY d   1      -2.567   5.550  -1.131  0.00  0.00     0.077 C 
ATOM      2  C1' PXY d   1       2.678   4.170   0.869  0.00  0.00     0.077 C 
ATOM      3  C1  PXY d   1       1.308   4.532   0.333  0.00  0.00    -0.082 A 
ATOM      4  C2  PXY d   1       0.429   5.121   1.127  0.00  0.00     0.003 A 
ATOM      5  C3  PXY d   1      -0.826   5.426   0.668  0.00  0.00     0.003 A 
ATOM      6  C4  PXY d   1      -1.168   5.175  -0.634  0.00  0.00    -0.082 A 
ATOM      7  C5  PXY d   1      -0.273   4.584  -1.454  0.00  0.00     0.003 A 
ATOM      8  C6  PXY d   1       0.982   4.244  -0.957  0.00  0.00     0.003 A 
ENDROOT
TORSDOF 0
ENDMDL
