MODEL 1
REMARK minimizedAffinity 6.71652126
REMARK minimizedRMSD -1
REMARK  0 active torsions:
REMARK  status: ('A' for Active; 'I' for Inactive)
ROOT
ATOM      1  C4' PXY d   1      -2.227  -4.311  -6.000  0.00  0.00     0.077 C 
ATOM      2  C1' PXY d   1      -2.067  -1.632  -0.881  0.00  0.00     0.077 C 
ATOM      3  C1  PXY d   1      -2.103  -2.345  -2.218  0.00  0.00    -0.082 A 
ATOM      4  C2  PXY d   1      -2.207  -1.639  -3.333  0.00  0.00     0.003 A 
ATOM      5  C3  PXY d   1      -2.273  -2.270  -4.549  0.00  0.00     0.003 A 
ATOM      6  C4  PXY d   1      -2.178  -3.633  -4.628  0.00  0.00    -0.082 A 
ATOM      7  C5  PXY d   1      -2.060  -4.359  -3.496  0.00  0.00     0.003 A 
ATOM      8  C6  PXY d   1      -2.036  -3.703  -2.269  0.00  0.00     0.003 A 
ENDROOT
TORSDOF 0
ENDMDL
