MODEL 1
REMARK minimizedAffinity 2.17412972
REMARK minimizedRMSD -1
REMARK  0 active torsions:
REMARK  status: ('A' for Active; 'I' for Inactive)
ROOT
ATOM      1  C4' PXY d   1       6.000   1.109  -5.362  0.00  0.00     0.077 C 
ATOM      2  C1' PXY d   1       3.375  -4.040  -5.457  0.00  0.00     0.077 C 
ATOM      3  C1  PXY d   1       4.070  -2.693  -5.422  0.00  0.00    -0.082 A 
ATOM      4  C2  PXY d   1       3.498  -1.647  -5.995  0.00  0.00     0.003 A 
ATOM      5  C3  PXY d   1       4.128  -0.429  -6.000  0.00  0.00     0.003 A 
ATOM      6  C4  PXY d   1       5.330  -0.268  -5.365  0.00  0.00    -0.082 A 
ATOM      7  C5  PXY d   1       5.915  -1.328  -4.769  0.00  0.00     0.003 A 
ATOM      8  C6  PXY d   1       5.279  -2.566  -4.811  0.00  0.00     0.003 A 
ENDROOT
TORSDOF 0
ENDMDL
