MODEL 1
REMARK minimizedAffinity 4.85934114
REMARK minimizedRMSD -1
REMARK  0 active torsions:
REMARK  status: ('A' for Active; 'I' for Inactive)
ROOT
ATOM      1  C4' PXY d   1      -0.711  -2.249  -0.581  0.00  0.00     0.077 C 
ATOM      2  C1' PXY d   1      -2.310  -3.473  -5.999  0.00  0.00     0.077 C 
ATOM      3  C1  PXY d   1      -1.884  -3.142  -4.583  0.00  0.00    -0.082 A 
ATOM      4  C2  PXY d   1      -1.875  -4.093  -3.663  0.00  0.00     0.003 A 
ATOM      5  C3  PXY d   1      -1.523  -3.804  -2.370  0.00  0.00     0.003 A 
ATOM      6  C4  PXY d   1      -1.125  -2.539  -2.026  0.00  0.00    -0.082 A 
ATOM      7  C5  PXY d   1      -1.122  -1.566  -2.961  0.00  0.00     0.003 A 
ATOM      8  C6  PXY d   1      -1.522  -1.871  -4.259  0.00  0.00     0.003 A 
ENDROOT
TORSDOF 0
ENDMDL
