MODEL 1
REMARK minimizedAffinity -3.57203484
REMARK minimizedRMSD -1
REMARK  2 active torsions:
REMARK  status: ('A' for Active; 'I' for Inactive)
REMARK    1  A    between atoms: C1_2  and  C2_3 
REMARK    2  A    between atoms: C2_3  and  C3_4 
ROOT
ATOM      1  C3  UNL d   1       0.607  -0.679  -0.904  0.00  0.00    -0.075 A 
ATOM      2  C4  UNL d   1       1.084  -1.563  -1.883  0.00  0.00     0.002 A 
ATOM      3  C5  UNL d   1       1.217  -1.147  -3.208  0.00  0.00     0.002 A 
ATOM      4  C6  UNL d   1       0.865   0.150  -3.573  0.00  0.00    -0.004 A 
ATOM      5  C7  UNL d   1       0.374   1.031  -2.611  0.00  0.00     0.002 A 
ATOM      6  C8  UNL d   1       0.245   0.620  -1.284  0.00  0.00     0.002 A 
ENDROOT
BRANCH   1   7
ATOM      7  C2  UNL d   1       0.489  -1.114   0.538  0.00  0.00     0.056 C 
BRANCH   7   8
ATOM      8  C1  UNL d   1       0.961  -0.062   1.547  0.00  0.00     0.007 C 
ATOM      9  C   UNL d   1      -0.178   0.562   2.341  0.00  0.00     0.009 C 
ENDBRANCH   7   8
ENDBRANCH   1   7
TORSDOF 2
ENDMDL
