MODEL 1
REMARK minimizedAffinity -4.32860994
REMARK minimizedRMSD -1
REMARK  2 active torsions:
REMARK  status: ('A' for Active; 'I' for Inactive)
REMARK    1  A    between atoms: C1_2  and  C2_3 
REMARK    2  A    between atoms: C2_3  and  C3_4 
ROOT
ATOM      1  C3  UNL d   1       1.117  -0.920  -1.108  0.00  0.00    -0.075 A 
ATOM      2  C4  UNL d   1       0.230   0.029  -1.636  0.00  0.00     0.002 A 
ATOM      3  C5  UNL d   1      -0.087   0.024  -2.995  0.00  0.00     0.002 A 
ATOM      4  C6  UNL d   1       0.486  -0.921  -3.843  0.00  0.00    -0.004 A 
ATOM      5  C7  UNL d   1       1.382  -1.858  -3.333  0.00  0.00     0.002 A 
ATOM      6  C8  UNL d   1       1.697  -1.859  -1.973  0.00  0.00     0.002 A 
ENDROOT
BRANCH   1   7
ATOM      7  C2  UNL d   1       1.441  -0.939   0.366  0.00  0.00     0.056 C 
BRANCH   7   8
ATOM      8  C1  UNL d   1       1.392   0.440   1.033  0.00  0.00     0.007 C 
ATOM      9  C   UNL d   1       0.452   0.495   2.230  0.00  0.00     0.009 C 
ENDBRANCH   7   8
ENDBRANCH   1   7
TORSDOF 2
ENDMDL
