MODEL 1
REMARK minimizedAffinity -4.5278616
REMARK minimizedRMSD -1
REMARK  2 active torsions:
REMARK  status: ('A' for Active; 'I' for Inactive)
REMARK    1  A    between atoms: C1_2  and  C2_3 
REMARK    2  A    between atoms: C2_3  and  C3_4 
ROOT
ATOM      1  C3  UNL d   1      -0.024   0.543  -0.017  0.00  0.00    -0.075 A 
ATOM      2  C4  UNL d   1      -1.401   0.629   0.235  0.00  0.00     0.002 A 
ATOM      3  C5  UNL d   1      -1.882   0.623   1.545  0.00  0.00     0.002 A 
ATOM      4  C6  UNL d   1      -0.997   0.521   2.615  0.00  0.00    -0.004 A 
ATOM      5  C7  UNL d   1       0.372   0.419   2.376  0.00  0.00     0.002 A 
ATOM      6  C8  UNL d   1       0.857   0.429   1.067  0.00  0.00     0.002 A 
ENDROOT
BRANCH   1   7
ATOM      7  C2  UNL d   1       0.506   0.579  -1.431  0.00  0.00     0.056 C 
BRANCH   7   8
ATOM      8  C1  UNL d   1       0.781  -0.804  -2.029  0.00  0.00     0.007 C 
ATOM      9  C   UNL d   1       1.133  -0.759  -3.510  0.00  0.00     0.009 C 
ENDBRANCH   7   8
ENDBRANCH   1   7
TORSDOF 2
ENDMDL
