MODEL 1
REMARK minimizedAffinity -1.44084573
REMARK minimizedRMSD -1
REMARK  2 active torsions:
REMARK  status: ('A' for Active; 'I' for Inactive)
REMARK    1  A    between atoms: C1_2  and  C2_3 
REMARK    2  A    between atoms: C2_3  and  C3_4 
ROOT
ATOM      1  C3  UNL d   1       0.039   0.101   0.853  0.00  0.00    -0.075 A 
ATOM      2  C4  UNL d   1      -1.339   0.337   0.745  0.00  0.00     0.002 A 
ATOM      3  C5  UNL d   1      -2.095   0.649   1.876  0.00  0.00     0.002 A 
ATOM      4  C6  UNL d   1      -1.486   0.719   3.127  0.00  0.00    -0.004 A 
ATOM      5  C7  UNL d   1      -0.121   0.469   3.248  0.00  0.00     0.002 A 
ATOM      6  C8  UNL d   1       0.639   0.161   2.118  0.00  0.00     0.002 A 
ENDROOT
BRANCH   1   7
ATOM      7  C2  UNL d   1       0.869  -0.208  -0.370  0.00  0.00     0.056 C 
BRANCH   7   8
ATOM      8  C1  UNL d   1       0.200   0.184  -1.692  0.00  0.00     0.007 C 
ATOM      9  C   UNL d   1       0.986  -0.262  -2.918  0.00  0.00     0.009 C 
ENDBRANCH   7   8
ENDBRANCH   1   7
TORSDOF 2
ENDMDL
