MODEL 1
REMARK minimizedAffinity -1.43927801
REMARK minimizedRMSD -1
REMARK  2 active torsions:
REMARK  status: ('A' for Active; 'I' for Inactive)
REMARK    1  A    between atoms: C1_2  and  C2_3 
REMARK    2  A    between atoms: C2_3  and  C3_4 
ROOT
ATOM      1  C3  UNL d   1       0.432  -0.233  -0.395  0.00  0.00    -0.075 A 
ATOM      2  C4  UNL d   1       0.016   0.909   0.305  0.00  0.00     0.002 A 
ATOM      3  C5  UNL d   1       0.334   1.069   1.654  0.00  0.00     0.002 A 
ATOM      4  C6  UNL d   1       1.062   0.087   2.322  0.00  0.00    -0.004 A 
ATOM      5  C7  UNL d   1       1.466  -1.060   1.641  0.00  0.00     0.002 A 
ATOM      6  C8  UNL d   1       1.153  -1.220   0.290  0.00  0.00     0.002 A 
ENDROOT
BRANCH   1   7
ATOM      7  C2  UNL d   1       0.116  -0.398  -1.862  0.00  0.00     0.056 C 
BRANCH   7   8
ATOM      8  C1  UNL d   1       1.352  -0.584  -2.749  0.00  0.00     0.007 C 
ATOM      9  C   UNL d   1       1.281  -1.829  -3.624  0.00  0.00     0.009 C 
ENDBRANCH   7   8
ENDBRANCH   1   7
TORSDOF 2
ENDMDL
