MODEL 1
REMARK minimizedAffinity -4.48620987
REMARK minimizedRMSD -1
REMARK  2 active torsions:
REMARK  status: ('A' for Active; 'I' for Inactive)
REMARK    1  A    between atoms: C1_2  and  C2_3 
REMARK    2  A    between atoms: C2_3  and  C3_4 
ROOT
ATOM      1  C3  UNL d   1      -0.231   0.185   0.066  0.00  0.00    -0.075 A 
ATOM      2  C4  UNL d   1       0.699   0.037   1.106  0.00  0.00     0.002 A 
ATOM      3  C5  UNL d   1       0.287   0.091   2.438  0.00  0.00     0.002 A 
ATOM      4  C6  UNL d   1      -1.055   0.304   2.747  0.00  0.00    -0.004 A 
ATOM      5  C7  UNL d   1      -1.984   0.469   1.722  0.00  0.00     0.002 A 
ATOM      6  C8  UNL d   1      -1.575   0.411   0.388  0.00  0.00     0.002 A 
ENDROOT
BRANCH   1   7
ATOM      7  C2  UNL d   1       0.204   0.098  -1.377  0.00  0.00     0.056 C 
BRANCH   7   8
ATOM      8  C1  UNL d   1       0.150  -1.318  -1.961  0.00  0.00     0.007 C 
ATOM      9  C   UNL d   1       0.873  -1.446  -3.295  0.00  0.00     0.009 C 
ENDBRANCH   7   8
ENDBRANCH   1   7
TORSDOF 2
ENDMDL
