MODEL 1
REMARK minimizedAffinity -4.56988811
REMARK minimizedRMSD -1
REMARK  2 active torsions:
REMARK  status: ('A' for Active; 'I' for Inactive)
REMARK    1  A    between atoms: C1_2  and  C2_3 
REMARK    2  A    between atoms: C2_3  and  C3_4 
ROOT
ATOM      1  C3  UNL d   1      -0.257  -0.078   0.450  0.00  0.00    -0.075 A 
ATOM      2  C4  UNL d   1       0.266   0.129   1.735  0.00  0.00     0.002 A 
ATOM      3  C5  UNL d   1      -0.574   0.471   2.795  0.00  0.00     0.002 A 
ATOM      4  C6  UNL d   1      -1.943   0.620   2.583  0.00  0.00    -0.004 A 
ATOM      5  C7  UNL d   1      -2.471   0.434   1.307  0.00  0.00     0.002 A 
ATOM      6  C8  UNL d   1      -1.633   0.087   0.245  0.00  0.00     0.002 A 
ENDROOT
BRANCH   1   7
ATOM      7  C2  UNL d   1       0.643  -0.477  -0.695  0.00  0.00     0.056 C 
BRANCH   7   8
ATOM      8  C1  UNL d   1       0.327   0.235  -2.014  0.00  0.00     0.007 C 
ATOM      9  C   UNL d   1       0.850  -0.507  -3.237  0.00  0.00     0.009 C 
ENDBRANCH   7   8
ENDBRANCH   1   7
TORSDOF 2
ENDMDL
