MODEL 1
REMARK minimizedAffinity -4.3045578
REMARK minimizedRMSD -1
REMARK  2 active torsions:
REMARK  status: ('A' for Active; 'I' for Inactive)
REMARK    1  A    between atoms: C1_2  and  C2_3 
REMARK    2  A    between atoms: C2_3  and  C3_4 
ROOT
ATOM      1  C3  UNL d   1       0.471  -0.281  -2.082  0.00  0.00    -0.075 A 
ATOM      2  C4  UNL d   1      -0.029  -1.582  -2.235  0.00  0.00     0.002 A 
ATOM      3  C5  UNL d   1       0.340  -2.358  -3.335  0.00  0.00     0.002 A 
ATOM      4  C6  UNL d   1       1.204  -1.840  -4.298  0.00  0.00    -0.004 A 
ATOM      5  C7  UNL d   1       1.693  -0.542  -4.164  0.00  0.00     0.002 A 
ATOM      6  C8  UNL d   1       1.329   0.234  -3.063  0.00  0.00     0.002 A 
ENDROOT
BRANCH   1   7
ATOM      7  C2  UNL d   1       0.099   0.553  -0.879  0.00  0.00     0.056 C 
BRANCH   7   8
ATOM      8  C1  UNL d   1       0.535  -0.052   0.459  0.00  0.00     0.007 C 
ATOM      9  C   UNL d   1       1.818   0.560   1.005  0.00  0.00     0.009 C 
ENDBRANCH   7   8
ENDBRANCH   1   7
TORSDOF 2
ENDMDL
