MODEL 1
REMARK minimizedAffinity -4.90082788
REMARK minimizedRMSD -1
REMARK  2 active torsions:
REMARK  status: ('A' for Active; 'I' for Inactive)
REMARK    1  A    between atoms: C1_2  and  C2_3 
REMARK    2  A    between atoms: C2_3  and  C3_4 
ROOT
ATOM      1  C3  UNL d   1       0.741  -0.017  -1.184  0.00  0.00    -0.075 A 
ATOM      2  C4  UNL d   1      -0.344   0.258  -2.028  0.00  0.00     0.002 A 
ATOM      3  C5  UNL d   1      -0.350  -0.201  -3.346  0.00  0.00     0.002 A 
ATOM      4  C6  UNL d   1       0.730  -0.930  -3.838  0.00  0.00    -0.004 A 
ATOM      5  C7  UNL d   1       1.821  -1.195  -3.012  0.00  0.00     0.002 A 
ATOM      6  C8  UNL d   1       1.828  -0.741  -1.692  0.00  0.00     0.002 A 
ENDROOT
BRANCH   1   7
ATOM      7  C2  UNL d   1       0.740   0.451   0.252  0.00  0.00     0.056 C 
BRANCH   7   8
ATOM      8  C1  UNL d   1       0.801  -0.685   1.279  0.00  0.00     0.007 C 
ATOM      9  C   UNL d   1       0.342  -0.264   2.668  0.00  0.00     0.009 C 
ENDBRANCH   7   8
ENDBRANCH   1   7
TORSDOF 2
ENDMDL
