MODEL 1
REMARK minimizedAffinity 2.72746158
REMARK minimizedRMSD -1
REMARK  2 active torsions:
REMARK  status: ('A' for Active; 'I' for Inactive)
REMARK    1  A    between atoms: C2'_3  and  C1'_4 
REMARK    2  A    between atoms: C1'_4  and  C1_5 
ROOT
ATOM      1  C1  I4B d   1       0.502  -0.419   0.126  0.00  0.00    -0.075 A 
ATOM      2  C2  I4B d   1       1.012   0.460  -0.795  0.00  0.00     0.003 A 
ATOM      3  C3  I4B d   1       2.398   0.752  -0.810  0.00  0.00     0.002 A 
ATOM      4  C4  I4B d   1       3.222   0.185   0.139  0.00  0.00    -0.004 A 
ATOM      5  C5  I4B d   1       2.707  -0.724   1.059  0.00  0.00     0.002 A 
ATOM      6  C6  I4B d   1       1.340  -1.038   1.045  0.00  0.00     0.003 A 
ENDROOT
BRANCH   1   7
ATOM      7  C1' I4B d   1      -0.971  -0.680   0.135  0.00  0.00     0.060 C 
BRANCH   7   8
ATOM      8  C2' I4B d   1      -1.663   0.570   0.641  0.00  0.00    -0.013 C 
ATOM      9  C4' I4B d   1      -2.950   0.819  -0.101  0.00  0.00     0.013 C 
ATOM     10  C3' I4B d   1      -1.910   0.400   2.111  0.00  0.00     0.013 C 
ENDBRANCH   7   8
ENDBRANCH   1   7
TORSDOF 2
ENDMDL
