MODEL 1
REMARK minimizedAffinity -3.50555062
REMARK minimizedRMSD -1
REMARK  2 active torsions:
REMARK  status: ('A' for Active; 'I' for Inactive)
REMARK    1  A    between atoms: C2'_3  and  C1'_4 
REMARK    2  A    between atoms: C1'_4  and  C1_5 
ROOT
ATOM      1  C1  I4B d   1      -4.892   3.582  -0.653  0.00  0.00    -0.075 A 
ATOM      2  C2  I4B d   1      -5.950   2.739  -0.420  0.00  0.00     0.003 A 
ATOM      3  C3  I4B d   1      -6.000   1.469  -1.044  0.00  0.00     0.002 A 
ATOM      4  C4  I4B d   1      -5.003   1.105  -1.925  0.00  0.00    -0.004 A 
ATOM      5  C5  I4B d   1      -3.919   1.952  -2.142  0.00  0.00     0.002 A 
ATOM      6  C6  I4B d   1      -3.857   3.193  -1.493  0.00  0.00     0.003 A 
ENDROOT
BRANCH   1   7
ATOM      7  C1' I4B d   1      -4.888   4.930  -0.003  0.00  0.00     0.060 C 
BRANCH   7   8
ATOM      8  C2' I4B d   1      -3.496   5.511  -0.143  0.00  0.00    -0.013 C 
ATOM      9  C4' I4B d   1      -2.443   4.492   0.202  0.00  0.00     0.013 C 
ATOM     10  C3' I4B d   1      -3.337   5.999  -1.552  0.00  0.00     0.013 C 
ENDBRANCH   7   8
ENDBRANCH   1   7
TORSDOF 2
ENDMDL
