MODEL 1
REMARK minimizedAffinity 2.57634139
REMARK minimizedRMSD -1
REMARK  2 active torsions:
REMARK  status: ('A' for Active; 'I' for Inactive)
REMARK    1  A    between atoms: C2'_3  and  C1'_4 
REMARK    2  A    between atoms: C1'_4  and  C1_5 
ROOT
ATOM      1  C1  I4B d   1      -0.280  -3.481  -4.649  0.00  0.00    -0.075 A 
ATOM      2  C2  I4B d   1      -1.157  -4.476  -4.999  0.00  0.00     0.003 A 
ATOM      3  C3  I4B d   1      -1.817  -5.230  -3.998  0.00  0.00     0.002 A 
ATOM      4  C4  I4B d   1      -1.533  -4.990  -2.669  0.00  0.00    -0.004 A 
ATOM      5  C5  I4B d   1      -0.661  -3.965  -2.315  0.00  0.00     0.002 A 
ATOM      6  C6  I4B d   1      -0.039  -3.197  -3.311  0.00  0.00     0.003 A 
ENDROOT
BRANCH   1   7
ATOM      7  C1' I4B d   1       0.424  -2.726  -5.732  0.00  0.00     0.060 C 
BRANCH   7   8
ATOM      8  C2' I4B d   1       0.296  -1.247  -5.430  0.00  0.00    -0.013 C 
ATOM      9  C4' I4B d   1       1.454  -0.472  -6.000  0.00  0.00     0.013 C 
ATOM     10  C3' I4B d   1      -1.007  -0.770  -5.998  0.00  0.00     0.013 C 
ENDBRANCH   7   8
ENDBRANCH   1   7
TORSDOF 2
ENDMDL
