MODEL 1
REMARK minimizedAffinity 13.009078
REMARK minimizedRMSD -1
REMARK  2 active torsions:
REMARK  status: ('A' for Active; 'I' for Inactive)
REMARK    1  A    between atoms: C2'_3  and  C1'_4 
REMARK    2  A    between atoms: C1'_4  and  C1_5 
ROOT
ATOM      1  C1  I4B d   1      -0.040  -2.992  -4.907  0.00  0.00    -0.075 A 
ATOM      2  C2  I4B d   1      -1.320  -2.696  -4.510  0.00  0.00     0.003 A 
ATOM      3  C3  I4B d   1      -2.251  -3.736  -4.273  0.00  0.00     0.002 A 
ATOM      4  C4  I4B d   1      -1.877  -5.046  -4.493  0.00  0.00    -0.004 A 
ATOM      5  C5  I4B d   1      -0.572  -5.345  -4.873  0.00  0.00     0.002 A 
ATOM      6  C6  I4B d   1       0.356  -4.313  -5.070  0.00  0.00     0.003 A 
ENDROOT
BRANCH   1   7
ATOM      7  C1' I4B d   1       0.908  -1.867  -5.179  0.00  0.00     0.060 C 
BRANCH   7   8
ATOM      8  C2' I4B d   1       0.178  -0.566  -4.914  0.00  0.00    -0.013 C 
ATOM      9  C4' I4B d   1       1.135   0.595  -4.857  0.00  0.00     0.013 C 
ATOM     10  C3' I4B d   1      -0.839  -0.377  -6.000  0.00  0.00     0.013 C 
ENDBRANCH   7   8
ENDBRANCH   1   7
TORSDOF 2
ENDMDL
