MODEL 1
REMARK minimizedAffinity 11.4446478
REMARK minimizedRMSD -1
REMARK  2 active torsions:
REMARK  status: ('A' for Active; 'I' for Inactive)
REMARK    1  A    between atoms: C2'_3  and  C1'_4 
REMARK    2  A    between atoms: C1'_4  and  C1_5 
ROOT
ATOM      1  C1  I4B d   1      -0.701   0.434   1.958  0.00  0.00    -0.075 A 
ATOM      2  C2  I4B d   1      -1.162  -0.792   2.368  0.00  0.00     0.003 A 
ATOM      3  C3  I4B d   1      -2.535  -0.975   2.663  0.00  0.00     0.002 A 
ATOM      4  C4  I4B d   1      -3.396   0.100   2.582  0.00  0.00    -0.004 A 
ATOM      5  C5  I4B d   1      -2.931   1.336   2.144  0.00  0.00     0.002 A 
ATOM      6  C6  I4B d   1      -1.577   1.502   1.818  0.00  0.00     0.003 A 
ENDROOT
BRANCH   1   7
ATOM      7  C1' I4B d   1       0.761   0.600   1.687  0.00  0.00     0.060 C 
BRANCH   7   8
ATOM      8  C2' I4B d   1       0.942   0.771   0.193  0.00  0.00    -0.013 C 
ATOM      9  C4' I4B d   1       1.409   2.163  -0.144  0.00  0.00     0.013 C 
ATOM     10  C3' I4B d   1       1.927  -0.258  -0.275  0.00  0.00     0.013 C 
ENDBRANCH   7   8
ENDBRANCH   1   7
TORSDOF 2
ENDMDL
