MODEL 1
REMARK minimizedAffinity -2.90334892
REMARK minimizedRMSD -1
REMARK  2 active torsions:
REMARK  status: ('A' for Active; 'I' for Inactive)
REMARK    1  A    between atoms: C2'_3  and  C1'_4 
REMARK    2  A    between atoms: C1'_4  and  C1_5 
ROOT
ATOM      1  C1  I4B d   1      -1.843   0.473   1.395  0.00  0.00    -0.075 A 
ATOM      2  C2  I4B d   1      -2.882   1.333   1.141  0.00  0.00     0.003 A 
ATOM      3  C3  I4B d   1      -3.703   1.142   0.003  0.00  0.00     0.002 A 
ATOM      4  C4  I4B d   1      -3.420   0.116  -0.875  0.00  0.00    -0.004 A 
ATOM      5  C5  I4B d   1      -2.381  -0.769  -0.603  0.00  0.00     0.002 A 
ATOM      6  C6  I4B d   1      -1.595  -0.597   0.546  0.00  0.00     0.003 A 
ENDROOT
BRANCH   1   7
ATOM      7  C1' I4B d   1      -0.976   0.723   2.588  0.00  0.00     0.060 C 
BRANCH   7   8
ATOM      8  C2' I4B d   1       0.050  -0.390   2.661  0.00  0.00    -0.013 C 
ATOM      9  C4' I4B d   1       1.078  -0.256   1.568  0.00  0.00     0.013 C 
ATOM     10  C3' I4B d   1       0.691  -0.341   4.015  0.00  0.00     0.013 C 
ENDBRANCH   7   8
ENDBRANCH   1   7
TORSDOF 2
ENDMDL
