MODEL 1
REMARK minimizedAffinity -3.29210806
REMARK minimizedRMSD -1
REMARK  2 active torsions:
REMARK  status: ('A' for Active; 'I' for Inactive)
REMARK    1  A    between atoms: C2'_3  and  C1'_4 
REMARK    2  A    between atoms: C1'_4  and  C1_5 
ROOT
ATOM      1  C1  I4B d   1       1.377  -0.217  -0.712  0.00  0.00    -0.075 A 
ATOM      2  C2  I4B d   1       0.330  -0.866  -0.106  0.00  0.00     0.003 A 
ATOM      3  C3  I4B d   1       0.087  -2.234  -0.377  0.00  0.00     0.002 A 
ATOM      4  C4  I4B d   1       0.879  -2.897  -1.292  0.00  0.00    -0.004 A 
ATOM      5  C5  I4B d   1       1.954  -2.244  -1.888  0.00  0.00     0.002 A 
ATOM      6  C6  I4B d   1       2.213  -0.899  -1.587  0.00  0.00     0.003 A 
ENDROOT
BRANCH   1   7
ATOM      7  C1' I4B d   1       1.585   1.237  -0.428  0.00  0.00     0.060 C 
BRANCH   7   8
ATOM      8  C2' I4B d   1       0.997   2.026  -1.580  0.00  0.00    -0.013 C 
ATOM      9  C4' I4B d   1      -0.462   2.321  -1.351  0.00  0.00     0.013 C 
ATOM     10  C3' I4B d   1       1.789   3.291  -1.726  0.00  0.00     0.013 C 
ENDBRANCH   7   8
ENDBRANCH   1   7
TORSDOF 2
ENDMDL
