MODEL 1
REMARK minimizedAffinity -4.68721533
REMARK minimizedRMSD -1
REMARK  2 active torsions:
REMARK  status: ('A' for Active; 'I' for Inactive)
REMARK    1  A    between atoms: C2'_3  and  C1'_4 
REMARK    2  A    between atoms: C1'_4  and  C1_5 
ROOT
ATOM      1  C1  I4B d   1      -0.138   0.078   0.164  0.00  0.00    -0.075 A 
ATOM      2  C2  I4B d   1      -0.449  -1.235  -0.089  0.00  0.00     0.003 A 
ATOM      3  C3  I4B d   1       0.507  -2.091  -0.688  0.00  0.00     0.002 A 
ATOM      4  C4  I4B d   1       1.734  -1.583  -1.062  0.00  0.00    -0.004 A 
ATOM      5  C5  I4B d   1       2.056  -0.258  -0.784  0.00  0.00     0.002 A 
ATOM      6  C6  I4B d   1       1.119   0.575  -0.156  0.00  0.00     0.003 A 
ENDROOT
BRANCH   1   7
ATOM      7  C1' I4B d   1      -1.182   0.962   0.768  0.00  0.00     0.060 C 
BRANCH   7   8
ATOM      8  C2' I4B d   1      -1.412   0.506   2.194  0.00  0.00    -0.013 C 
ATOM      9  C4' I4B d   1      -1.264   1.649   3.164  0.00  0.00     0.013 C 
ATOM     10  C3' I4B d   1      -2.784  -0.095   2.272  0.00  0.00     0.013 C 
ENDBRANCH   7   8
ENDBRANCH   1   7
TORSDOF 2
ENDMDL
