MODEL 1
REMARK minimizedAffinity -3.8926692
REMARK minimizedRMSD -1
REMARK  2 active torsions:
REMARK  status: ('A' for Active; 'I' for Inactive)
REMARK    1  A    between atoms: C2'_3  and  C1'_4 
REMARK    2  A    between atoms: C1'_4  and  C1_5 
ROOT
ATOM      1  C1  I4B d   1       0.367  -0.385  -0.215  0.00  0.00    -0.075 A 
ATOM      2  C2  I4B d   1       1.475   0.400  -0.416  0.00  0.00     0.003 A 
ATOM      3  C3  I4B d   1       1.361   1.629  -1.110  0.00  0.00     0.002 A 
ATOM      4  C4  I4B d   1       0.138   2.007  -1.627  0.00  0.00    -0.004 A 
ATOM      5  C5  I4B d   1      -0.988   1.221  -1.402  0.00  0.00     0.002 A 
ATOM      6  C6  I4B d   1      -0.876   0.023  -0.681  0.00  0.00     0.003 A 
ENDROOT
BRANCH   1   7
ATOM      7  C1' I4B d   1       0.530  -1.693   0.493  0.00  0.00     0.060 C 
BRANCH   7   8
ATOM      8  C2' I4B d   1       0.542  -2.791  -0.551  0.00  0.00    -0.013 C 
ATOM      9  C4' I4B d   1       1.660  -2.592  -1.539  0.00  0.00     0.013 C 
ATOM     10  C3' I4B d   1       0.675  -4.105   0.160  0.00  0.00     0.013 C 
ENDBRANCH   7   8
ENDBRANCH   1   7
TORSDOF 2
ENDMDL
