MODEL 1
REMARK minimizedAffinity -3.88256955
REMARK minimizedRMSD -1
REMARK  2 active torsions:
REMARK  status: ('A' for Active; 'I' for Inactive)
REMARK    1  A    between atoms: C2'_3  and  C1'_4 
REMARK    2  A    between atoms: C1'_4  and  C1_5 
ROOT
ATOM      1  C1  I4B d   1      -0.261   0.073   0.072  0.00  0.00    -0.075 A 
ATOM      2  C2  I4B d   1      -0.400  -1.293   0.102  0.00  0.00     0.003 A 
ATOM      3  C3  I4B d   1       0.608  -2.124  -0.444  0.00  0.00     0.002 A 
ATOM      4  C4  I4B d   1       1.707  -1.550  -1.051  0.00  0.00    -0.004 A 
ATOM      5  C5  I4B d   1       1.857  -0.167  -1.059  0.00  0.00     0.002 A 
ATOM      6  C6  I4B d   1       0.873   0.650  -0.483  0.00  0.00     0.003 A 
ENDROOT
BRANCH   1   7
ATOM      7  C1' I4B d   1      -1.360   0.921   0.628  0.00  0.00     0.060 C 
BRANCH   7   8
ATOM      8  C2' I4B d   1      -1.796   0.315   1.947  0.00  0.00    -0.013 C 
ATOM      9  C4' I4B d   1      -1.314   1.141   3.111  0.00  0.00     0.013 C 
ATOM     10  C3' I4B d   1      -3.292   0.213   1.938  0.00  0.00     0.013 C 
ENDBRANCH   7   8
ENDBRANCH   1   7
TORSDOF 2
ENDMDL
