MODEL 1
REMARK minimizedAffinity -1.59889793
REMARK minimizedRMSD -1
REMARK  2 active torsions:
REMARK  status: ('A' for Active; 'I' for Inactive)
REMARK    1  A    between atoms: C2'_3  and  C1'_4 
REMARK    2  A    between atoms: C1'_4  and  C1_5 
ROOT
ATOM      1  C1  I4B d   1      -0.654   0.361   0.841  0.00  0.00    -0.075 A 
ATOM      2  C2  I4B d   1       0.203   1.299   0.321  0.00  0.00     0.003 A 
ATOM      3  C3  I4B d   1       1.254   0.904  -0.541  0.00  0.00     0.002 A 
ATOM      4  C4  I4B d   1       1.443  -0.436  -0.814  0.00  0.00    -0.004 A 
ATOM      5  C5  I4B d   1       0.559  -1.383  -0.304  0.00  0.00     0.002 A 
ATOM      6  C6  I4B d   1      -0.503  -0.981   0.518  0.00  0.00     0.003 A 
ENDROOT
BRANCH   1   7
ATOM      7  C1' I4B d   1      -1.734   0.810   1.774  0.00  0.00     0.060 C 
BRANCH   7   8
ATOM      8  C2' I4B d   1      -1.113   1.746   2.790  0.00  0.00    -0.013 C 
ATOM      9  C4' I4B d   1      -1.924   3.007   2.936  0.00  0.00     0.013 C 
ATOM     10  C3' I4B d   1      -1.013   1.013   4.095  0.00  0.00     0.013 C 
ENDBRANCH   7   8
ENDBRANCH   1   7
TORSDOF 2
ENDMDL
