MODEL 1
REMARK minimizedAffinity 0.544896185
REMARK minimizedRMSD -1
REMARK  2 active torsions:
REMARK  status: ('A' for Active; 'I' for Inactive)
REMARK    1  A    between atoms: C2'_3  and  C1'_4 
REMARK    2  A    between atoms: C1'_4  and  C1_5 
ROOT
ATOM      1  C1  I4B d   1       0.471  -0.224   0.814  0.00  0.00    -0.075 A 
ATOM      2  C2  I4B d   1       1.312  -1.154   0.256  0.00  0.00     0.003 A 
ATOM      3  C3  I4B d   1       1.653  -1.075  -1.116  0.00  0.00     0.002 A 
ATOM      4  C4  I4B d   1       1.094  -0.085  -1.899  0.00  0.00    -0.004 A 
ATOM      5  C5  I4B d   1       0.260   0.871  -1.326  0.00  0.00     0.002 A 
ATOM      6  C6  I4B d   1      -0.044   0.809   0.041  0.00  0.00     0.003 A 
ENDROOT
BRANCH   1   7
ATOM      7  C1' I4B d   1       0.107  -0.356   2.259  0.00  0.00     0.060 C 
BRANCH   7   8
ATOM      8  C2' I4B d   1      -1.291   0.201   2.441  0.00  0.00    -0.013 C 
ATOM      9  C4' I4B d   1      -2.244  -0.863   2.917  0.00  0.00     0.013 C 
ATOM     10  C3' I4B d   1      -1.213   1.335   3.418  0.00  0.00     0.013 C 
ENDBRANCH   7   8
ENDBRANCH   1   7
TORSDOF 2
ENDMDL
