MODEL 1
REMARK minimizedAffinity -4.99814892
REMARK minimizedRMSD -1
REMARK  2 active torsions:
REMARK  status: ('A' for Active; 'I' for Inactive)
REMARK    1  A    between atoms: C2'_3  and  C1'_4 
REMARK    2  A    between atoms: C1'_4  and  C1_5 
ROOT
ATOM      1  C1  I4B d   1      -0.112   0.228   0.019  0.00  0.00    -0.075 A 
ATOM      2  C2  I4B d   1       0.117  -1.123   0.093  0.00  0.00     0.003 A 
ATOM      3  C3  I4B d   1       1.345  -1.663  -0.362  0.00  0.00     0.002 A 
ATOM      4  C4  I4B d   1       2.288  -0.827  -0.925  0.00  0.00    -0.004 A 
ATOM      5  C5  I4B d   1       2.062   0.545  -0.977  0.00  0.00     0.002 A 
ATOM      6  C6  I4B d   1       0.860   1.078  -0.491  0.00  0.00     0.003 A 
ENDROOT
BRANCH   1   7
ATOM      7  C1' I4B d   1      -1.433   0.761   0.478  0.00  0.00     0.060 C 
BRANCH   7   8
ATOM      8  C2' I4B d   1      -1.510   0.585   1.981  0.00  0.00    -0.013 C 
ATOM      9  C4' I4B d   1      -1.035   1.820   2.700  0.00  0.00     0.013 C 
ATOM     10  C3' I4B d   1      -2.931   0.264   2.337  0.00  0.00     0.013 C 
ENDBRANCH   7   8
ENDBRANCH   1   7
TORSDOF 2
ENDMDL
