MODEL 1
REMARK minimizedAffinity -2.77404451
REMARK minimizedRMSD -1
REMARK  2 active torsions:
REMARK  status: ('A' for Active; 'I' for Inactive)
REMARK    1  A    between atoms: C2'_3  and  C1'_4 
REMARK    2  A    between atoms: C1'_4  and  C1_5 
ROOT
ATOM      1  C1  I4B d   1      -0.852   0.445   1.058  0.00  0.00    -0.075 A 
ATOM      2  C2  I4B d   1      -1.165   1.182  -0.058  0.00  0.00     0.003 A 
ATOM      3  C3  I4B d   1      -0.231   1.306  -1.115  0.00  0.00     0.002 A 
ATOM      4  C4  I4B d   1       1.014   0.724  -0.994  0.00  0.00    -0.004 A 
ATOM      5  C5  I4B d   1       1.321  -0.041   0.128  0.00  0.00     0.002 A 
ATOM      6  C6  I4B d   1       0.378  -0.192   1.155  0.00  0.00     0.003 A 
ENDROOT
BRANCH   1   7
ATOM      7  C1' I4B d   1      -1.849   0.362   2.170  0.00  0.00     0.060 C 
BRANCH   7   8
ATOM      8  C2' I4B d   1      -1.522   1.451   3.172  0.00  0.00    -0.013 C 
ATOM      9  C4' I4B d   1      -2.613   2.488   3.225  0.00  0.00     0.013 C 
ATOM     10  C3' I4B d   1      -1.324   0.804   4.510  0.00  0.00     0.013 C 
ENDBRANCH   7   8
ENDBRANCH   1   7
TORSDOF 2
ENDMDL
