MODEL 1
REMARK minimizedAffinity -5.61355591
REMARK minimizedRMSD -1
REMARK  2 active torsions:
REMARK  status: ('A' for Active; 'I' for Inactive)
REMARK    1  A    between atoms: C2'_3  and  C1'_4 
REMARK    2  A    between atoms: C1'_4  and  C1_5 
ROOT
ATOM      1  C1  I4B d   1      -0.049   0.086  -0.092  0.00  0.00    -0.075 A 
ATOM      2  C2  I4B d   1       0.992   0.840  -0.574  0.00  0.00     0.003 A 
ATOM      3  C3  I4B d   1       2.148   0.208  -1.093  0.00  0.00     0.002 A 
ATOM      4  C4  I4B d   1       2.242  -1.168  -1.065  0.00  0.00    -0.004 A 
ATOM      5  C5  I4B d   1       1.176  -1.931  -0.596  0.00  0.00     0.002 A 
ATOM      6  C6  I4B d   1       0.018  -1.301  -0.118  0.00  0.00     0.003 A 
ENDROOT
BRANCH   1   7
ATOM      7  C1' I4B d   1      -1.241   0.786   0.480  0.00  0.00     0.060 C 
BRANCH   7   8
ATOM      8  C2' I4B d   1      -1.319   0.447   1.955  0.00  0.00    -0.013 C 
ATOM      9  C4' I4B d   1      -1.204   1.684   2.805  0.00  0.00     0.013 C 
ATOM     10  C3' I4B d   1      -2.619  -0.260   2.199  0.00  0.00     0.013 C 
ENDBRANCH   7   8
ENDBRANCH   1   7
TORSDOF 2
ENDMDL
