MODEL 1
REMARK minimizedAffinity -2.85520434
REMARK minimizedRMSD -1
REMARK  2 active torsions:
REMARK  status: ('A' for Active; 'I' for Inactive)
REMARK    1  A    between atoms: C2'_3  and  C1'_4 
REMARK    2  A    between atoms: C1'_4  and  C1_5 
ROOT
ATOM      1  C1  I4B d   1       0.284  -0.307  -0.223  0.00  0.00    -0.075 A 
ATOM      2  C2  I4B d   1       1.606   0.038  -0.094  0.00  0.00     0.003 A 
ATOM      3  C3  I4B d   1       2.113   1.179  -0.761  0.00  0.00     0.002 A 
ATOM      4  C4  I4B d   1       1.280   1.912  -1.582  0.00  0.00    -0.004 A 
ATOM      5  C5  I4B d   1      -0.065   1.574  -1.694  0.00  0.00     0.002 A 
ATOM      6  C6  I4B d   1      -0.570   0.464  -1.000  0.00  0.00     0.003 A 
ENDROOT
BRANCH   1   7
ATOM      7  C1' I4B d   1      -0.210  -1.538   0.470  0.00  0.00     0.060 C 
BRANCH   7   8
ATOM      8  C2' I4B d   1      -0.203  -2.673  -0.533  0.00  0.00    -0.013 C 
ATOM      9  C4' I4B d   1       1.058  -2.665  -1.357  0.00  0.00     0.013 C 
ATOM     10  C3' I4B d   1      -0.348  -3.960   0.223  0.00  0.00     0.013 C 
ENDBRANCH   7   8
ENDBRANCH   1   7
TORSDOF 2
ENDMDL
