MODEL 1
REMARK minimizedAffinity -4.75537682
REMARK minimizedRMSD -1
REMARK  2 active torsions:
REMARK  status: ('A' for Active; 'I' for Inactive)
REMARK    1  A    between atoms: C2'_3  and  C1'_4 
REMARK    2  A    between atoms: C1'_4  and  C1_5 
ROOT
ATOM      1  C1  I4B d   1      -0.024   0.493   0.236  0.00  0.00    -0.075 A 
ATOM      2  C2  I4B d   1       0.943   1.326  -0.269  0.00  0.00     0.003 A 
ATOM      3  C3  I4B d   1       2.081   0.786  -0.917  0.00  0.00     0.002 A 
ATOM      4  C4  I4B d   1       2.234  -0.583  -0.992  0.00  0.00    -0.004 A 
ATOM      5  C5  I4B d   1       1.242  -1.426  -0.499  0.00  0.00     0.002 A 
ATOM      6  C6  I4B d   1       0.099  -0.884   0.108  0.00  0.00     0.003 A 
ENDROOT
BRANCH   1   7
ATOM      7  C1' I4B d   1      -1.196   1.096   0.944  0.00  0.00     0.060 C 
BRANCH   7   8
ATOM      8  C2' I4B d   1      -0.868   1.160   2.421  0.00  0.00    -0.013 C 
ATOM      9  C4' I4B d   1      -0.838   2.583   2.912  0.00  0.00     0.013 C 
ATOM     10  C3' I4B d   1      -1.895   0.354   3.159  0.00  0.00     0.013 C 
ENDBRANCH   7   8
ENDBRANCH   1   7
TORSDOF 2
ENDMDL
