MODEL 1
REMARK minimizedAffinity -4.80782366
REMARK minimizedRMSD -1
REMARK  2 active torsions:
REMARK  status: ('A' for Active; 'I' for Inactive)
REMARK    1  A    between atoms: C2'_3  and  C1'_4 
REMARK    2  A    between atoms: C1'_4  and  C1_5 
ROOT
ATOM      1  C1  I4B d   1       0.223  -0.332  -0.267  0.00  0.00    -0.075 A 
ATOM      2  C2  I4B d   1       1.055   0.650  -0.744  0.00  0.00     0.003 A 
ATOM      3  C3  I4B d   1       0.515   1.843  -1.283  0.00  0.00     0.002 A 
ATOM      4  C4  I4B d   1      -0.854   1.990  -1.371  0.00  0.00    -0.004 A 
ATOM      5  C5  I4B d   1      -1.696   1.003  -0.866  0.00  0.00     0.002 A 
ATOM      6  C6  I4B d   1      -1.155  -0.160  -0.299  0.00  0.00     0.003 A 
ENDROOT
BRANCH   1   7
ATOM      7  C1' I4B d   1       0.826  -1.593   0.264  0.00  0.00     0.060 C 
BRANCH   7   8
ATOM      8  C2' I4B d   1       0.550  -2.700  -0.734  0.00  0.00    -0.013 C 
ATOM      9  C4' I4B d   1       1.445  -2.582  -1.939  0.00  0.00     0.013 C 
ATOM     10  C3' I4B d   1       0.750  -4.012  -0.036  0.00  0.00     0.013 C 
ENDBRANCH   7   8
ENDBRANCH   1   7
TORSDOF 2
ENDMDL
