MODEL 1
REMARK minimizedAffinity 3.48588204
REMARK minimizedRMSD -1
REMARK  0 active torsions:
REMARK  status: ('A' for Active; 'I' for Inactive)
ROOT
ATOM      1  C   UNL d   1       1.338   4.526  -4.064  0.00  0.00     0.023 A 
ATOM      2  C1  UNL d   1       1.151   4.487  -5.445  0.00  0.00     0.003 A 
ATOM      3  C2  UNL d   1      -0.060   4.909  -6.000  0.00  0.00     0.048 A 
ATOM      4  C3  UNL d   1      -1.078   5.371  -5.167  0.00  0.00     0.023 A 
ATOM      5  C4  UNL d   1      -0.895   5.412  -3.783  0.00  0.00     0.048 A 
ATOM      6  C5  UNL d   1       0.316   4.988  -3.234  0.00  0.00     0.003 A 
ATOM      7  I   UNL d   1      -2.880   6.000  -5.989  0.00  0.00    -0.146 I 
ENDROOT
TORSDOF 0
ENDMDL
