MODEL 1
REMARK minimizedAffinity 4.20417547
REMARK minimizedRMSD -1
REMARK  0 active torsions:
REMARK  status: ('A' for Active; 'I' for Inactive)
ROOT
ATOM      1  C   UNL d   1       1.733   4.132  -4.272  0.00  0.00     0.023 A 
ATOM      2  C1  UNL d   1       0.555   4.009  -3.536  0.00  0.00     0.003 A 
ATOM      3  C2  UNL d   1      -0.637   4.545  -4.029  0.00  0.00     0.048 A 
ATOM      4  C3  UNL d   1      -0.643   5.201  -5.259  0.00  0.00     0.023 A 
ATOM      5  C4  UNL d   1       0.533   5.325  -6.000  0.00  0.00     0.048 A 
ATOM      6  C5  UNL d   1       1.722   4.789  -5.503  0.00  0.00     0.003 A 
ATOM      7  I   UNL d   1      -2.416   5.999  -5.995  0.00  0.00    -0.146 I 
ENDROOT
TORSDOF 0
ENDMDL
