MODEL 1
REMARK minimizedAffinity 4.85168791
REMARK minimizedRMSD -1
REMARK  0 active torsions:
REMARK  status: ('A' for Active; 'I' for Inactive)
ROOT
ATOM      1  C   UNL d   1      -0.757   5.285  -5.801  0.00  0.00     0.023 A 
ATOM      2  C1  UNL d   1      -1.161   5.616  -4.507  0.00  0.00     0.003 A 
ATOM      3  C2  UNL d   1      -0.428   5.162  -3.408  0.00  0.00     0.048 A 
ATOM      4  C3  UNL d   1       0.708   4.379  -3.611  0.00  0.00     0.023 A 
ATOM      5  C4  UNL d   1       1.116   4.047  -4.904  0.00  0.00     0.048 A 
ATOM      6  C5  UNL d   1       0.380   4.502  -5.999  0.00  0.00     0.003 A 
ATOM      7  I   UNL d   1       1.800   3.702  -1.977  0.00  0.00    -0.146 I 
ENDROOT
TORSDOF 0
ENDMDL
