MODEL 1
REMARK minimizedAffinity 7.28484964
REMARK minimizedRMSD -1
REMARK  0 active torsions:
REMARK  status: ('A' for Active; 'I' for Inactive)
ROOT
ATOM      1  C   UNL d   1      -3.023   0.331   1.183  0.00  0.00     0.023 A 
ATOM      2  C1  UNL d   1      -2.433   0.667   2.402  0.00  0.00     0.003 A 
ATOM      3  C2  UNL d   1      -1.292  -0.011   2.837  0.00  0.00     0.048 A 
ATOM      4  C3  UNL d   1      -0.745  -1.022   2.048  0.00  0.00     0.023 A 
ATOM      5  C4  UNL d   1      -1.331  -1.360   0.827  0.00  0.00     0.048 A 
ATOM      6  C5  UNL d   1      -2.473  -0.681   0.397  0.00  0.00     0.003 A 
ATOM      7  I   UNL d   1       0.953  -2.031   2.693  0.00  0.00    -0.146 I 
ENDROOT
TORSDOF 0
ENDMDL
