MODEL 1
REMARK minimizedAffinity 6.05020857
REMARK minimizedRMSD -1
REMARK  0 active torsions:
REMARK  status: ('A' for Active; 'I' for Inactive)
ROOT
ATOM      1  C   UNL d   1      -1.003  -5.151  -4.549  0.00  0.00     0.023 A 
ATOM      2  C1  UNL d   1      -1.502  -6.000  -5.537  0.00  0.00     0.003 A 
ATOM      3  C2  UNL d   1      -2.832  -5.892  -5.946  0.00  0.00     0.048 A 
ATOM      4  C3  UNL d   1      -3.659  -4.933  -5.364  0.00  0.00     0.023 A 
ATOM      5  C4  UNL d   1      -3.165  -4.081  -4.375  0.00  0.00     0.048 A 
ATOM      6  C5  UNL d   1      -1.834  -4.193  -3.968  0.00  0.00     0.003 A 
ATOM      7  I   UNL d   1      -5.640  -4.770  -5.971  0.00  0.00    -0.146 I 
ENDROOT
TORSDOF 0
ENDMDL
