MODEL 1
REMARK minimizedAffinity 12.2674618
REMARK minimizedRMSD -1
REMARK  0 active torsions:
REMARK  status: ('A' for Active; 'I' for Inactive)
ROOT
ATOM      1  C   UNL d   1       0.112   5.995  -5.943  0.00  0.00     0.023 A 
ATOM      2  C1  UNL d   1      -0.648   6.000  -4.773  0.00  0.00     0.003 A 
ATOM      3  C2  UNL d   1      -0.173   5.357  -3.628  0.00  0.00     0.048 A 
ATOM      4  C3  UNL d   1       1.063   4.712  -3.659  0.00  0.00     0.023 A 
ATOM      5  C4  UNL d   1       1.827   4.705  -4.828  0.00  0.00     0.048 A 
ATOM      6  C5  UNL d   1       1.347   5.348  -5.970  0.00  0.00     0.003 A 
ATOM      7  I   UNL d   1       1.772   3.755  -1.956  0.00  0.00    -0.146 I 
ENDROOT
TORSDOF 0
ENDMDL
