MODEL 1
REMARK minimizedAffinity 11.0640268
REMARK minimizedRMSD -1
REMARK  0 active torsions:
REMARK  status: ('A' for Active; 'I' for Inactive)
ROOT
ATOM      1  C   UNL d   1      -3.994   5.374  -4.310  0.00  0.00     0.023 A 
ATOM      2  C1  UNL d   1      -2.959   4.948  -3.477  0.00  0.00     0.003 A 
ATOM      3  C2  UNL d   1      -1.633   5.046  -3.903  0.00  0.00     0.048 A 
ATOM      4  C3  UNL d   1      -1.349   5.571  -5.163  0.00  0.00     0.023 A 
ATOM      5  C4  UNL d   1      -2.381   6.000  -6.000  0.00  0.00     0.048 A 
ATOM      6  C5  UNL d   1      -3.705   5.899  -5.570  0.00  0.00     0.003 A 
ATOM      7  I   UNL d   1       0.625   5.718  -5.800  0.00  0.00    -0.146 I 
ENDROOT
TORSDOF 0
ENDMDL
