MODEL 1
REMARK minimizedAffinity 10.2522039
REMARK minimizedRMSD -1
REMARK  0 active torsions:
REMARK  status: ('A' for Active; 'I' for Inactive)
ROOT
ATOM      1  C   UNL d   1      -0.607   5.997  -5.999  0.00  0.00     0.023 A 
ATOM      2  C1  UNL d   1       0.152   5.876  -4.834  0.00  0.00     0.003 A 
ATOM      3  C2  UNL d   1      -0.482   5.748  -3.596  0.00  0.00     0.048 A 
ATOM      4  C3  UNL d   1      -1.875   5.740  -3.531  0.00  0.00     0.023 A 
ATOM      5  C4  UNL d   1      -2.638   5.860  -4.693  0.00  0.00     0.048 A 
ATOM      6  C5  UNL d   1      -2.000   5.989  -5.928  0.00  0.00     0.003 A 
ATOM      7  I   UNL d   1      -2.821   5.549  -1.690  0.00  0.00    -0.146 I 
ENDROOT
TORSDOF 0
ENDMDL
