MODEL 1
REMARK minimizedAffinity 7.24602461
REMARK minimizedRMSD -1
REMARK  0 active torsions:
REMARK  status: ('A' for Active; 'I' for Inactive)
ROOT
ATOM      1  C   UNL d   1       5.522   2.144   3.280  0.00  0.00     0.023 A 
ATOM      2  C1  UNL d   1       4.158   2.433   3.317  0.00  0.00     0.003 A 
ATOM      3  C2  UNL d   1       3.225   1.453   2.971  0.00  0.00     0.048 A 
ATOM      4  C3  UNL d   1       3.664   0.185   2.591  0.00  0.00     0.023 A 
ATOM      5  C4  UNL d   1       5.028  -0.109   2.554  0.00  0.00     0.048 A 
ATOM      6  C5  UNL d   1       5.956   0.874   2.899  0.00  0.00     0.003 A 
ATOM      7  I   UNL d   1       2.278  -1.276   2.077  0.00  0.00    -0.146 I 
ENDROOT
TORSDOF 0
ENDMDL
