MODEL 1
REMARK minimizedAffinity 4.20208597
REMARK minimizedRMSD -1
REMARK  0 active torsions:
REMARK  status: ('A' for Active; 'I' for Inactive)
ROOT
ATOM      1  C   UNL d   1      -2.859   0.586   2.101  0.00  0.00     0.023 A 
ATOM      2  C1  UNL d   1      -2.344  -0.538   1.455  0.00  0.00     0.003 A 
ATOM      3  C2  UNL d   1      -2.747  -0.844   0.154  0.00  0.00     0.048 A 
ATOM      4  C3  UNL d   1      -3.665  -0.020  -0.497  0.00  0.00     0.023 A 
ATOM      5  C4  UNL d   1      -4.182   1.107   0.144  0.00  0.00     0.048 A 
ATOM      6  C5  UNL d   1      -3.777   1.408   1.446  0.00  0.00     0.003 A 
ATOM      7  I   UNL d   1      -4.266  -0.472  -2.434  0.00  0.00    -0.146 I 
ENDROOT
TORSDOF 0
ENDMDL
