MODEL 1
REMARK minimizedAffinity 14.4412003
REMARK minimizedRMSD -1
REMARK  0 active torsions:
REMARK  status: ('A' for Active; 'I' for Inactive)
ROOT
ATOM      1  C   UNL d   1      -0.263  -0.963   4.185  0.00  0.00     0.023 A 
ATOM      2  C1  UNL d   1       0.356  -2.213   4.152  0.00  0.00     0.003 A 
ATOM      3  C2  UNL d   1       0.220  -3.031   3.029  0.00  0.00     0.048 A 
ATOM      4  C3  UNL d   1      -0.535  -2.594   1.942  0.00  0.00     0.023 A 
ATOM      5  C4  UNL d   1      -1.155  -1.344   1.970  0.00  0.00     0.048 A 
ATOM      6  C5  UNL d   1      -1.018  -0.529   3.095  0.00  0.00     0.003 A 
ATOM      7  I   UNL d   1      -0.738  -3.811   0.269  0.00  0.00    -0.146 I 
ENDROOT
TORSDOF 0
ENDMDL
