MODEL 1
REMARK minimizedAffinity 5.23105335
REMARK minimizedRMSD -1
REMARK  0 active torsions:
REMARK  status: ('A' for Active; 'I' for Inactive)
ROOT
ATOM      1  C   UNL d   1      -0.427   5.998  -5.083  0.00  0.00     0.023 A 
ATOM      2  C1  UNL d   1      -1.479   5.999  -5.999  0.00  0.00     0.003 A 
ATOM      3  C2  UNL d   1      -2.800   5.998  -5.548  0.00  0.00     0.048 A 
ATOM      4  C3  UNL d   1      -3.063   5.999  -4.178  0.00  0.00     0.023 A 
ATOM      5  C4  UNL d   1      -2.013   5.999  -3.258  0.00  0.00     0.048 A 
ATOM      6  C5  UNL d   1      -0.694   5.999  -3.714  0.00  0.00     0.003 A 
ATOM      7  I   UNL d   1      -5.028   5.998  -3.504  0.00  0.00    -0.146 I 
ENDROOT
TORSDOF 0
ENDMDL
