MODEL 1
REMARK minimizedAffinity 0.140507221
REMARK minimizedRMSD -1
REMARK  0 active torsions:
REMARK  status: ('A' for Active; 'I' for Inactive)
ROOT
ATOM      1  C   UNL d   1      -5.147   5.655  -4.149  0.00  0.00     0.023 A 
ATOM      2  C1  UNL d   1      -4.888   6.000  -5.476  0.00  0.00     0.003 A 
ATOM      3  C2  UNL d   1      -3.603   5.849  -6.000  0.00  0.00     0.048 A 
ATOM      4  C3  UNL d   1      -2.581   5.353  -5.192  0.00  0.00     0.023 A 
ATOM      5  C4  UNL d   1      -2.835   5.005  -3.864  0.00  0.00     0.048 A 
ATOM      6  C5  UNL d   1      -4.122   5.158  -3.344  0.00  0.00     0.003 A 
ATOM      7  I   UNL d   1      -0.666   5.128  -5.969  0.00  0.00    -0.146 I 
ENDROOT
TORSDOF 0
ENDMDL
