MODEL 1
REMARK minimizedAffinity 4.55839539
REMARK minimizedRMSD -1
REMARK  0 active torsions:
REMARK  status: ('A' for Active; 'I' for Inactive)
ROOT
ATOM      1  C   UNL d   1      -1.840   5.652  -6.000  0.00  0.00     0.023 A 
ATOM      2  C1  UNL d   1      -3.191   6.000  -5.999  0.00  0.00     0.003 A 
ATOM      3  C2  UNL d   1      -3.917   5.981  -4.806  0.00  0.00     0.048 A 
ATOM      4  C3  UNL d   1      -3.286   5.614  -3.618  0.00  0.00     0.023 A 
ATOM      5  C4  UNL d   1      -1.934   5.266  -3.614  0.00  0.00     0.048 A 
ATOM      6  C5  UNL d   1      -1.213   5.285  -4.809  0.00  0.00     0.003 A 
ATOM      7  I   UNL d   1      -4.364   5.586  -1.842  0.00  0.00    -0.146 I 
ENDROOT
TORSDOF 0
ENDMDL
