MODEL 1
REMARK minimizedAffinity 5.13534546
REMARK minimizedRMSD -1
REMARK  0 active torsions:
REMARK  status: ('A' for Active; 'I' for Inactive)
ROOT
ATOM      1  C   UNL d   1      -4.233   1.378  -1.002  0.00  0.00     0.023 A 
ATOM      2  C1  UNL d   1      -4.268   1.576   0.379  0.00  0.00     0.003 A 
ATOM      3  C2  UNL d   1      -3.535   0.740   1.224  0.00  0.00     0.048 A 
ATOM      4  C3  UNL d   1      -2.768  -0.290   0.682  0.00  0.00     0.023 A 
ATOM      5  C4  UNL d   1      -2.729  -0.491  -0.698  0.00  0.00     0.048 A 
ATOM      6  C5  UNL d   1      -3.464   0.346  -1.539  0.00  0.00     0.003 A 
ATOM      7  I   UNL d   1      -1.676  -1.535   1.938  0.00  0.00    -0.146 I 
ENDROOT
TORSDOF 0
ENDMDL
