MODEL 1
REMARK minimizedAffinity 2.1094768
REMARK minimizedRMSD -1
REMARK  0 active torsions:
REMARK  status: ('A' for Active; 'I' for Inactive)
ROOT
ATOM      1  C   UNL d   1      -0.810   2.279  -0.462  0.00  0.00     0.023 A 
ATOM      2  C1  UNL d   1      -1.777   1.328  -0.136  0.00  0.00     0.003 A 
ATOM      3  C2  UNL d   1      -1.543  -0.025  -0.394  0.00  0.00     0.048 A 
ATOM      4  C3  UNL d   1      -0.339  -0.419  -0.976  0.00  0.00     0.023 A 
ATOM      5  C4  UNL d   1       0.632   0.529  -1.303  0.00  0.00     0.048 A 
ATOM      6  C5  UNL d   1       0.393   1.880  -1.045  0.00  0.00     0.003 A 
ATOM      7  I   UNL d   1       0.012  -2.432  -1.360  0.00  0.00    -0.146 I 
ENDROOT
TORSDOF 0
ENDMDL
