MODEL 1
REMARK minimizedAffinity -3.24053216
REMARK minimizedRMSD -1
REMARK  0 active torsions:
REMARK  status: ('A' for Active; 'I' for Inactive)
ROOT
ATOM      1  C   UNL d   1       1.256  -0.746  -0.739  0.00  0.00     0.023 A 
ATOM      2  C1  UNL d   1       0.686  -1.163   0.464  0.00  0.00     0.003 A 
ATOM      3  C2  UNL d   1      -0.301  -0.388   1.077  0.00  0.00     0.048 A 
ATOM      4  C3  UNL d   1      -0.715   0.803   0.480  0.00  0.00     0.023 A 
ATOM      5  C4  UNL d   1      -0.148   1.224  -0.724  0.00  0.00     0.048 A 
ATOM      6  C5  UNL d   1       0.839   0.446  -1.332  0.00  0.00     0.003 A 
ATOM      7  I   UNL d   1      -2.184   1.958   1.389  0.00  0.00    -0.146 I 
ENDROOT
TORSDOF 0
ENDMDL
