MODEL 1
REMARK minimizedAffinity -1.18054676
REMARK minimizedRMSD -1
REMARK  0 active torsions:
REMARK  status: ('A' for Active; 'I' for Inactive)
ROOT
ATOM      1  C   UNL d   1      -0.853   2.247   0.012  0.00  0.00     0.023 A 
ATOM      2  C1  UNL d   1      -1.210   1.158   0.808  0.00  0.00     0.003 A 
ATOM      3  C2  UNL d   1      -0.685  -0.107   0.537  0.00  0.00     0.048 A 
ATOM      4  C3  UNL d   1       0.197  -0.276  -0.529  0.00  0.00     0.023 A 
ATOM      5  C4  UNL d   1       0.557   0.811  -1.327  0.00  0.00     0.048 A 
ATOM      6  C5  UNL d   1       0.029   2.074  -1.054  0.00  0.00     0.003 A 
ATOM      7  I   UNL d   1       0.980  -2.158  -0.934  0.00  0.00    -0.146 I 
ENDROOT
TORSDOF 0
ENDMDL
