MODEL 1
REMARK minimizedAffinity -2.19957161
REMARK minimizedRMSD -1
REMARK  0 active torsions:
REMARK  status: ('A' for Active; 'I' for Inactive)
ROOT
ATOM      1  C   UNL d   1      -1.772   1.972   2.058  0.00  0.00     0.023 A 
ATOM      2  C1  UNL d   1      -1.945   2.039   0.675  0.00  0.00     0.003 A 
ATOM      3  C2  UNL d   1      -1.232   1.177  -0.161  0.00  0.00     0.048 A 
ATOM      4  C3  UNL d   1      -0.350   0.250   0.392  0.00  0.00     0.023 A 
ATOM      5  C4  UNL d   1      -0.175   0.179   1.775  0.00  0.00     0.048 A 
ATOM      6  C5  UNL d   1      -0.888   1.043   2.607  0.00  0.00     0.003 A 
ATOM      7  I   UNL d   1       0.712  -1.034  -0.851  0.00  0.00    -0.146 I 
ENDROOT
TORSDOF 0
ENDMDL
