MODEL 1
REMARK minimizedAffinity -3.13914561
REMARK minimizedRMSD -1
REMARK  0 active torsions:
REMARK  status: ('A' for Active; 'I' for Inactive)
ROOT
ATOM      1  C   UNL d   1      -1.600   1.835   1.596  0.00  0.00     0.023 A 
ATOM      2  C1  UNL d   1      -1.080   0.715   2.246  0.00  0.00     0.003 A 
ATOM      3  C2  UNL d   1      -0.324  -0.219   1.534  0.00  0.00     0.048 A 
ATOM      4  C3  UNL d   1      -0.090  -0.026   0.173  0.00  0.00     0.023 A 
ATOM      5  C4  UNL d   1      -0.607   1.094  -0.481  0.00  0.00     0.048 A 
ATOM      6  C5  UNL d   1      -1.363   2.024   0.234  0.00  0.00     0.003 A 
ATOM      7  I   UNL d   1       1.036  -1.413  -0.888  0.00  0.00    -0.146 I 
ENDROOT
TORSDOF 0
ENDMDL
