MODEL 1
REMARK minimizedAffinity -2.03752112
REMARK minimizedRMSD -1
REMARK  0 active torsions:
REMARK  status: ('A' for Active; 'I' for Inactive)
ROOT
ATOM      1  C   UNL d   1      -2.092   2.239   1.549  0.00  0.00     0.023 A 
ATOM      2  C1  UNL d   1      -1.846   2.579   0.219  0.00  0.00     0.003 A 
ATOM      3  C2  UNL d   1      -1.109   1.720  -0.598  0.00  0.00     0.048 A 
ATOM      4  C3  UNL d   1      -0.621   0.521  -0.079  0.00  0.00     0.023 A 
ATOM      5  C4  UNL d   1      -0.865   0.176   1.252  0.00  0.00     0.048 A 
ATOM      6  C5  UNL d   1      -1.602   1.039   2.065  0.00  0.00     0.003 A 
ATOM      7  I   UNL d   1       0.476  -0.760  -1.293  0.00  0.00    -0.146 I 
ENDROOT
TORSDOF 0
ENDMDL
