MODEL 1
REMARK minimizedAffinity -1.92732501
REMARK minimizedRMSD -1
REMARK  0 active torsions:
REMARK  status: ('A' for Active; 'I' for Inactive)
ROOT
ATOM      1  C   UNL d   1       0.465   0.596   0.594  0.00  0.00     0.023 A 
ATOM      2  C1  UNL d   1       0.441   0.813  -0.784  0.00  0.00     0.003 A 
ATOM      3  C2  UNL d   1       0.245  -0.259  -1.657  0.00  0.00     0.048 A 
ATOM      4  C3  UNL d   1       0.073  -1.545  -1.146  0.00  0.00     0.023 A 
ATOM      5  C4  UNL d   1       0.095  -1.766   0.232  0.00  0.00     0.048 A 
ATOM      6  C5  UNL d   1       0.292  -0.692   1.101  0.00  0.00     0.003 A 
ATOM      7  I   UNL d   1      -0.219  -3.142  -2.444  0.00  0.00    -0.146 I 
ENDROOT
TORSDOF 0
ENDMDL
