MODEL 1
REMARK minimizedAffinity -4.67614698
REMARK minimizedRMSD -1
REMARK  0 active torsions:
REMARK  status: ('A' for Active; 'I' for Inactive)
ROOT
ATOM      1  C   UNL d   1      -1.766   1.306   2.211  0.00  0.00     0.023 A 
ATOM      2  C1  UNL d   1      -1.609   1.875   0.946  0.00  0.00     0.003 A 
ATOM      3  C2  UNL d   1      -0.806   1.247  -0.008  0.00  0.00     0.048 A 
ATOM      4  C3  UNL d   1      -0.164   0.051   0.307  0.00  0.00     0.023 A 
ATOM      5  C4  UNL d   1      -0.318  -0.522   1.571  0.00  0.00     0.048 A 
ATOM      6  C5  UNL d   1      -1.121   0.109   2.522  0.00  0.00     0.003 A 
ATOM      7  I   UNL d   1       1.032  -0.885  -1.112  0.00  0.00    -0.146 I 
ENDROOT
TORSDOF 0
ENDMDL
