MODEL 1
REMARK minimizedAffinity -2.46367455
REMARK minimizedRMSD -1
REMARK  0 active torsions:
REMARK  status: ('A' for Active; 'I' for Inactive)
ROOT
ATOM      1  C   UNL d   1      -1.727   2.192   1.202  0.00  0.00     0.023 A 
ATOM      2  C1  UNL d   1      -1.595   0.924   1.769  0.00  0.00     0.003 A 
ATOM      3  C2  UNL d   1      -0.775  -0.030   1.164  0.00  0.00     0.048 A 
ATOM      4  C3  UNL d   1      -0.089   0.290  -0.007  0.00  0.00     0.023 A 
ATOM      5  C4  UNL d   1      -0.217   1.557  -0.578  0.00  0.00     0.048 A 
ATOM      6  C5  UNL d   1      -1.039   2.508   0.030  0.00  0.00     0.003 A 
ATOM      7  I   UNL d   1       1.133  -1.129  -0.909  0.00  0.00    -0.146 I 
ENDROOT
TORSDOF 0
ENDMDL
