MODEL 1
REMARK minimizedAffinity -1.55877781
REMARK minimizedRMSD -1
REMARK  0 active torsions:
REMARK  status: ('A' for Active; 'I' for Inactive)
ROOT
ATOM      1  C   UNL d   1       0.936  -0.446  -0.894  0.00  0.00     0.023 A 
ATOM      2  C1  UNL d   1       0.496  -0.864   0.362  0.00  0.00     0.003 A 
ATOM      3  C2  UNL d   1      -0.462  -0.118   1.052  0.00  0.00     0.048 A 
ATOM      4  C3  UNL d   1      -0.976   1.045   0.479  0.00  0.00     0.023 A 
ATOM      5  C4  UNL d   1      -0.538   1.467  -0.777  0.00  0.00     0.048 A 
ATOM      6  C5  UNL d   1       0.420   0.719  -1.463  0.00  0.00     0.003 A 
ATOM      7  I   UNL d   1      -2.401   2.157   1.504  0.00  0.00    -0.146 I 
ENDROOT
TORSDOF 0
ENDMDL
