MODEL 1
REMARK minimizedAffinity -2.90309739
REMARK minimizedRMSD -1
REMARK  0 active torsions:
REMARK  status: ('A' for Active; 'I' for Inactive)
ROOT
ATOM      1  C   UNL d   1      -1.941   1.326   1.576  0.00  0.00     0.023 A 
ATOM      2  C1  UNL d   1      -1.482   0.100   2.060  0.00  0.00     0.003 A 
ATOM      3  C2  UNL d   1      -0.601  -0.668   1.297  0.00  0.00     0.048 A 
ATOM      4  C3  UNL d   1      -0.180  -0.204   0.051  0.00  0.00     0.023 A 
ATOM      5  C4  UNL d   1      -0.636   1.022  -0.437  0.00  0.00     0.048 A 
ATOM      6  C5  UNL d   1      -1.518   1.786   0.329  0.00  0.00     0.003 A 
ATOM      7  I   UNL d   1       1.132  -1.345  -1.087  0.00  0.00    -0.146 I 
ENDROOT
TORSDOF 0
ENDMDL
