MODEL 1
REMARK minimizedAffinity -2.70454431
REMARK minimizedRMSD -1
REMARK  0 active torsions:
REMARK  status: ('A' for Active; 'I' for Inactive)
ROOT
ATOM      1  C   UNL d   1      -1.873   2.758   1.297  0.00  0.00     0.023 A 
ATOM      2  C1  UNL d   1      -1.060   3.123   0.223  0.00  0.00     0.003 A 
ATOM      3  C2  UNL d   1      -0.248   2.170  -0.394  0.00  0.00     0.048 A 
ATOM      4  C3  UNL d   1      -0.253   0.854   0.067  0.00  0.00     0.023 A 
ATOM      5  C4  UNL d   1      -1.065   0.484   1.140  0.00  0.00     0.048 A 
ATOM      6  C5  UNL d   1      -1.875   1.440   1.755  0.00  0.00     0.003 A 
ATOM      7  I   UNL d   1       0.955  -0.567  -0.851  0.00  0.00    -0.146 I 
ENDROOT
TORSDOF 0
ENDMDL
