MODEL 1
REMARK minimizedAffinity -2.1540935
REMARK minimizedRMSD -1
REMARK  0 active torsions:
REMARK  status: ('A' for Active; 'I' for Inactive)
ROOT
ATOM      1  C   UNL d   1      -1.054   1.737   2.146  0.00  0.00     0.023 A 
ATOM      2  C1  UNL d   1      -1.071   1.985   0.773  0.00  0.00     0.003 A 
ATOM      3  C2  UNL d   1      -0.558   1.037  -0.115  0.00  0.00     0.048 A 
ATOM      4  C3  UNL d   1      -0.031  -0.156   0.376  0.00  0.00     0.023 A 
ATOM      5  C4  UNL d   1      -0.013  -0.409   1.749  0.00  0.00     0.048 A 
ATOM      6  C5  UNL d   1      -0.526   0.541   2.633  0.00  0.00     0.003 A 
ATOM      7  I   UNL d   1       0.733  -1.568  -0.944  0.00  0.00    -0.146 I 
ENDROOT
TORSDOF 0
ENDMDL
