MODEL 1
REMARK minimizedAffinity -2.74423528
REMARK minimizedRMSD -1
REMARK  0 active torsions:
REMARK  status: ('A' for Active; 'I' for Inactive)
ROOT
ATOM      1  C   UNL d   1      -1.954   2.264   1.753  0.00  0.00     0.023 A 
ATOM      2  C1  UNL d   1      -0.920   1.567   2.377  0.00  0.00     0.003 A 
ATOM      3  C2  UNL d   1      -0.102   0.714   1.632  0.00  0.00     0.048 A 
ATOM      4  C3  UNL d   1      -0.324   0.565   0.264  0.00  0.00     0.023 A 
ATOM      5  C4  UNL d   1      -1.357   1.261  -0.365  0.00  0.00     0.048 A 
ATOM      6  C5  UNL d   1      -2.173   2.112   0.384  0.00  0.00     0.003 A 
ATOM      7  I   UNL d   1       0.893  -0.703  -0.847  0.00  0.00    -0.146 I 
ENDROOT
TORSDOF 0
ENDMDL
