MODEL 1
REMARK minimizedAffinity -3.35155702
REMARK minimizedRMSD -1
REMARK  0 active torsions:
REMARK  status: ('A' for Active; 'I' for Inactive)
ROOT
ATOM      1  C   UNL d   1      -1.844   2.055   1.468  0.00  0.00     0.023 A 
ATOM      2  C1  UNL d   1      -1.268   1.013   2.194  0.00  0.00     0.003 A 
ATOM      3  C2  UNL d   1      -0.545   0.017   1.535  0.00  0.00     0.048 A 
ATOM      4  C3  UNL d   1      -0.400   0.069   0.149  0.00  0.00     0.023 A 
ATOM      5  C4  UNL d   1      -0.974   1.110  -0.582  0.00  0.00     0.048 A 
ATOM      6  C5  UNL d   1      -1.697   2.104   0.081  0.00  0.00     0.003 A 
ATOM      7  I   UNL d   1       0.676  -1.412  -0.834  0.00  0.00    -0.146 I 
ENDROOT
TORSDOF 0
ENDMDL
