MODEL 1
REMARK minimizedAffinity -3.06891942
REMARK minimizedRMSD -1
REMARK  1 active torsions:
REMARK  status: ('A' for Active; 'I' for Inactive)
REMARK    1  A    between atoms: C1_2  and  C2_3 
ROOT
ATOM      1  C2  UNL d   1       0.145   0.138   0.417  0.00  0.00    -0.077 A 
ATOM      2  C3  UNL d   1       0.961   0.916   1.250  0.00  0.00     0.002 A 
ATOM      3  C4  UNL d   1       0.431   1.524   2.389  0.00  0.00     0.002 A 
ATOM      4  C5  UNL d   1      -0.915   1.358   2.708  0.00  0.00    -0.004 A 
ATOM      5  C6  UNL d   1      -1.735   0.587   1.885  0.00  0.00     0.002 A 
ATOM      6  C7  UNL d   1      -1.207  -0.021   0.745  0.00  0.00     0.002 A 
ENDROOT
BRANCH   1   7
ATOM      7  C1  UNL d   1       0.726  -0.560  -0.786  0.00  0.00     0.055 C 
ATOM      8  C   UNL d   1       0.616   0.304  -2.034  0.00  0.00     0.019 C 
ENDBRANCH   1   7
TORSDOF 1
ENDMDL
