MODEL 1
REMARK minimizedAffinity -3.93550444
REMARK minimizedRMSD -1
REMARK  1 active torsions:
REMARK  status: ('A' for Active; 'I' for Inactive)
REMARK    1  A    between atoms: C1_2  and  C2_3 
ROOT
ATOM      1  C2  UNL d   1      -0.019  -0.746  -3.196  0.00  0.00    -0.077 A 
ATOM      2  C3  UNL d   1       1.028   0.088  -3.613  0.00  0.00     0.002 A 
ATOM      3  C4  UNL d   1       1.052   0.594  -4.914  0.00  0.00     0.002 A 
ATOM      4  C5  UNL d   1       0.032   0.276  -5.807  0.00  0.00    -0.004 A 
ATOM      5  C6  UNL d   1      -1.013  -0.555  -5.403  0.00  0.00     0.002 A 
ATOM      6  C7  UNL d   1      -1.039  -1.063  -4.103  0.00  0.00     0.002 A 
ENDROOT
BRANCH   1   7
ATOM      7  C1  UNL d   1      -0.073  -1.254  -1.779  0.00  0.00     0.055 C 
ATOM      8  C   UNL d   1       0.791  -0.408  -0.855  0.00  0.00     0.019 C 
ENDBRANCH   1   7
TORSDOF 1
ENDMDL
