MODEL 1
REMARK minimizedAffinity -4.15524006
REMARK minimizedRMSD -1
REMARK  1 active torsions:
REMARK  status: ('A' for Active; 'I' for Inactive)
REMARK    1  A    between atoms: C1_2  and  C2_3 
ROOT
ATOM      1  C2  UNL d   1      -0.143   0.134   0.505  0.00  0.00    -0.077 A 
ATOM      2  C3  UNL d   1       0.699   0.946   1.278  0.00  0.00     0.002 A 
ATOM      3  C4  UNL d   1       0.219   1.558   2.437  0.00  0.00     0.002 A 
ATOM      4  C5  UNL d   1      -1.101   1.363   2.836  0.00  0.00    -0.004 A 
ATOM      5  C6  UNL d   1      -1.947   0.559   2.072  0.00  0.00     0.002 A 
ATOM      6  C7  UNL d   1      -1.470  -0.053   0.913  0.00  0.00     0.002 A 
ENDROOT
BRANCH   1   7
ATOM      7  C1  UNL d   1       0.386  -0.567  -0.719  0.00  0.00     0.055 C 
ATOM      8  C   UNL d   1       0.223   0.293  -1.964  0.00  0.00     0.019 C 
ENDBRANCH   1   7
TORSDOF 1
ENDMDL
