MODEL 1
REMARK minimizedAffinity -3.54502559
REMARK minimizedRMSD -1
REMARK  1 active torsions:
REMARK  status: ('A' for Active; 'I' for Inactive)
REMARK    1  A    between atoms: C1_2  and  C2_3 
ROOT
ATOM      1  C2  UNL d   1       0.698   0.064  -0.959  0.00  0.00    -0.077 A 
ATOM      2  C3  UNL d   1      -0.219   1.012  -0.482  0.00  0.00     0.002 A 
ATOM      3  C4  UNL d   1      -0.311   1.280   0.885  0.00  0.00     0.002 A 
ATOM      4  C5  UNL d   1       0.513   0.608   1.786  0.00  0.00    -0.004 A 
ATOM      5  C6  UNL d   1       1.427  -0.338   1.322  0.00  0.00     0.002 A 
ATOM      6  C7  UNL d   1       1.519  -0.608  -0.044  0.00  0.00     0.002 A 
ENDROOT
BRANCH   1   7
ATOM      7  C1  UNL d   1       0.833  -0.191  -2.437  0.00  0.00     0.055 C 
ATOM      8  C   UNL d   1       0.850   1.111  -3.224  0.00  0.00     0.019 C 
ENDBRANCH   1   7
TORSDOF 1
ENDMDL
