MODEL 1
REMARK minimizedAffinity 3.847579
REMARK minimizedRMSD -1
REMARK  0 active torsions:
REMARK  status: ('A' for Active; 'I' for Inactive)
ROOT
ATOM      1  C2' OXE d   1      -3.995   2.497   0.385  0.00  0.00     0.078 C 
ATOM      2  C1' OXE d   1      -2.373   0.996   2.116  0.00  0.00     0.078 C 
ATOM      3  C1  OXE d   1      -1.752   2.181   1.421  0.00  0.00    -0.078 A 
ATOM      4  C2  OXE d   1      -2.540   2.882   0.540  0.00  0.00    -0.078 A 
ATOM      5  C3  OXE d   1      -2.032   4.017  -0.086  0.00  0.00     0.003 A 
ATOM      6  C4  OXE d   1      -0.682   4.361   0.055  0.00  0.00    -0.002 A 
ATOM      7  C5  OXE d   1       0.148   3.637   0.916  0.00  0.00    -0.002 A 
ATOM      8  C6  OXE d   1      -0.381   2.572   1.638  0.00  0.00     0.003 A 
ENDROOT
TORSDOF 0
ENDMDL
