MODEL 1
REMARK minimizedAffinity -1.41550946
REMARK minimizedRMSD -1
REMARK  0 active torsions:
REMARK  status: ('A' for Active; 'I' for Inactive)
ROOT
ATOM      1  C2' OXE d   1       4.962   3.553  -4.887  0.00  0.00     0.078 C 
ATOM      2  C1' OXE d   1       4.952   2.244  -2.404  0.00  0.00     0.078 C 
ATOM      3  C1  OXE d   1       5.337   1.441  -3.621  0.00  0.00    -0.078 A 
ATOM      4  C2  OXE d   1       5.294   2.077  -4.838  0.00  0.00    -0.078 A 
ATOM      5  C3  OXE d   1       5.692   1.397  -5.985  0.00  0.00     0.003 A 
ATOM      6  C4  OXE d   1       5.988   0.029  -5.932  0.00  0.00    -0.002 A 
ATOM      7  C5  OXE d   1       5.999  -0.648  -4.708  0.00  0.00    -0.002 A 
ATOM      8  C6  OXE d   1       5.717   0.052  -3.540  0.00  0.00     0.003 A 
ENDROOT
TORSDOF 0
ENDMDL
