MODEL 1
REMARK minimizedAffinity -4.29851484
REMARK minimizedRMSD -1
REMARK  0 active torsions:
REMARK  status: ('A' for Active; 'I' for Inactive)
ROOT
ATOM      1  C2' OXE d   1       5.325   3.714  -4.576  0.00  0.00     0.078 C 
ATOM      2  C1' OXE d   1       5.655   2.613  -2.015  0.00  0.00     0.078 C 
ATOM      3  C1  OXE d   1       5.736   1.680  -3.198  0.00  0.00    -0.078 A 
ATOM      4  C2  OXE d   1       5.527   2.220  -4.444  0.00  0.00    -0.078 A 
ATOM      5  C3  OXE d   1       5.645   1.414  -5.573  0.00  0.00     0.003 A 
ATOM      6  C4  OXE d   1       5.822   0.031  -5.441  0.00  0.00    -0.002 A 
ATOM      7  C5  OXE d   1       5.998  -0.545  -4.179  0.00  0.00    -0.002 A 
ATOM      8  C6  OXE d   1       6.000   0.270  -3.052  0.00  0.00     0.003 A 
ENDROOT
TORSDOF 0
ENDMDL
