MODEL 1
REMARK minimizedAffinity 10.9172735
REMARK minimizedRMSD -1
REMARK  0 active torsions:
REMARK  status: ('A' for Active; 'I' for Inactive)
ROOT
ATOM      1  C2' OXE d   1       5.812  -0.035  -2.281  0.00  0.00     0.078 C 
ATOM      2  C1' OXE d   1       4.304   2.330  -2.173  0.00  0.00     0.078 C 
ATOM      3  C1  OXE d   1       4.665   1.788  -3.533  0.00  0.00    -0.078 A 
ATOM      4  C2  OXE d   1       5.442   0.656  -3.576  0.00  0.00    -0.078 A 
ATOM      5  C3  OXE d   1       5.758   0.083  -4.805  0.00  0.00     0.003 A 
ATOM      6  C4  OXE d   1       5.420   0.733  -5.998  0.00  0.00    -0.002 A 
ATOM      7  C5  OXE d   1       4.662   1.909  -5.976  0.00  0.00    -0.002 A 
ATOM      8  C6  OXE d   1       4.241   2.425  -4.755  0.00  0.00     0.003 A 
ENDROOT
TORSDOF 0
ENDMDL
