MODEL 1
REMARK minimizedAffinity 3.113796
REMARK minimizedRMSD -1
REMARK  0 active torsions:
REMARK  status: ('A' for Active; 'I' for Inactive)
ROOT
ATOM      1  C2' OXE d   1       3.116   0.752  -5.949  0.00  0.00     0.078 C 
ATOM      2  C1' OXE d   1       5.922   0.683  -5.997  0.00  0.00     0.078 C 
ATOM      3  C1  OXE d   1       5.252   2.034  -5.972  0.00  0.00    -0.078 A 
ATOM      4  C2  OXE d   1       3.878   2.059  -5.996  0.00  0.00    -0.078 A 
ATOM      5  C3  OXE d   1       3.209   3.277  -5.920  0.00  0.00     0.003 A 
ATOM      6  C4  OXE d   1       3.921   4.482  -5.974  0.00  0.00    -0.002 A 
ATOM      7  C5  OXE d   1       5.320   4.479  -5.990  0.00  0.00    -0.002 A 
ATOM      8  C6  OXE d   1       6.000   3.267  -5.946  0.00  0.00     0.003 A 
ENDROOT
TORSDOF 0
ENDMDL
