MODEL 1
REMARK minimizedAffinity 8.03736782
REMARK minimizedRMSD -1
REMARK  0 active torsions:
REMARK  status: ('A' for Active; 'I' for Inactive)
ROOT
ATOM      1  C2' OXE d   1      -1.558  -2.477   1.876  0.00  0.00     0.078 C 
ATOM      2  C1' OXE d   1      -0.097  -0.619   0.362  0.00  0.00     0.078 C 
ATOM      3  C1  OXE d   1      -0.557  -1.881  -0.325  0.00  0.00    -0.078 A 
ATOM      4  C2  OXE d   1      -1.231  -2.805   0.436  0.00  0.00    -0.078 A 
ATOM      5  C3  OXE d   1      -1.725  -3.961  -0.162  0.00  0.00     0.003 A 
ATOM      6  C4  OXE d   1      -1.409  -4.262  -1.492  0.00  0.00    -0.002 A 
ATOM      7  C5  OXE d   1      -0.689  -3.352  -2.274  0.00  0.00    -0.002 A 
ATOM      8  C6  OXE d   1      -0.293  -2.141  -1.719  0.00  0.00     0.003 A 
ENDROOT
TORSDOF 0
ENDMDL
