MODEL 1
REMARK minimizedAffinity 12.6917858
REMARK minimizedRMSD -1
REMARK  0 active torsions:
REMARK  status: ('A' for Active; 'I' for Inactive)
ROOT
ATOM      1  C2' OXE d   1      -1.732  -2.273   1.690  0.00  0.00     0.078 C 
ATOM      2  C1' OXE d   1       0.218  -0.904   0.206  0.00  0.00     0.078 C 
ATOM      3  C1  OXE d   1      -0.427  -2.112  -0.426  0.00  0.00    -0.078 A 
ATOM      4  C2  OXE d   1      -1.346  -2.803   0.326  0.00  0.00    -0.078 A 
ATOM      5  C3  OXE d   1      -2.011  -3.892  -0.230  0.00  0.00     0.003 A 
ATOM      6  C4  OXE d   1      -1.641  -4.382  -1.488  0.00  0.00    -0.002 A 
ATOM      7  C5  OXE d   1      -0.678  -3.717  -2.254  0.00  0.00    -0.002 A 
ATOM      8  C6  OXE d   1      -0.093  -2.558  -1.756  0.00  0.00     0.003 A 
ENDROOT
TORSDOF 0
ENDMDL
