MODEL 1
REMARK minimizedAffinity 14.8056765
REMARK minimizedRMSD -1
REMARK  0 active torsions:
REMARK  status: ('A' for Active; 'I' for Inactive)
ROOT
ATOM      1  C2' OXE d   1      -2.134   0.805   1.957  0.00  0.00     0.078 C 
ATOM      2  C1' OXE d   1      -2.093   3.507   1.198  0.00  0.00     0.078 C 
ATOM      3  C1  OXE d   1      -0.790   2.748   1.167  0.00  0.00    -0.078 A 
ATOM      4  C2  OXE d   1      -0.811   1.439   1.584  0.00  0.00    -0.078 A 
ATOM      5  C3  OXE d   1       0.353   0.677   1.524  0.00  0.00     0.003 A 
ATOM      6  C4  OXE d   1       1.574   1.274   1.188  0.00  0.00    -0.002 A 
ATOM      7  C5  OXE d   1       1.624   2.617   0.797  0.00  0.00    -0.002 A 
ATOM      8  C6  OXE d   1       0.447   3.355   0.741  0.00  0.00     0.003 A 
ENDROOT
TORSDOF 0
ENDMDL
