MODEL 1
REMARK minimizedAffinity 2.45365524
REMARK minimizedRMSD -1
REMARK  0 active torsions:
REMARK  status: ('A' for Active; 'I' for Inactive)
ROOT
ATOM      1  C2' OXE d   1      -2.264   3.387  -4.126  0.00  0.00     0.078 C 
ATOM      2  C1' OXE d   1      -2.207   5.494  -5.980  0.00  0.00     0.078 C 
ATOM      3  C1  OXE d   1      -3.555   4.988  -5.531  0.00  0.00    -0.078 A 
ATOM      4  C2  OXE d   1      -3.573   3.926  -4.659  0.00  0.00    -0.078 A 
ATOM      5  C3  OXE d   1      -4.789   3.456  -4.171  0.00  0.00     0.003 A 
ATOM      6  C4  OXE d   1      -5.996   3.953  -4.678  0.00  0.00    -0.002 A 
ATOM      7  C5  OXE d   1      -6.000   5.008  -5.596  0.00  0.00    -0.002 A 
ATOM      8  C6  OXE d   1      -4.791   5.564  -6.000  0.00  0.00     0.003 A 
ENDROOT
TORSDOF 0
ENDMDL
