MODEL 1
REMARK minimizedAffinity 4.0063653
REMARK minimizedRMSD -1
REMARK  0 active torsions:
REMARK  status: ('A' for Active; 'I' for Inactive)
ROOT
ATOM      1  C2' OXE d   1      -0.613  -6.000  -4.671  0.00  0.00     0.078 C 
ATOM      2  C1' OXE d   1       0.724  -4.988  -2.419  0.00  0.00     0.078 C 
ATOM      3  C1  OXE d   1       1.536  -5.239  -3.666  0.00  0.00    -0.078 A 
ATOM      4  C2  OXE d   1       0.882  -5.778  -4.748  0.00  0.00    -0.078 A 
ATOM      5  C3  OXE d   1       1.572  -5.977  -5.940  0.00  0.00     0.003 A 
ATOM      6  C4  OXE d   1       2.957  -5.778  -6.000  0.00  0.00    -0.002 A 
ATOM      7  C5  OXE d   1       3.649  -5.267  -4.897  0.00  0.00    -0.002 A 
ATOM      8  C6  OXE d   1       2.947  -4.953  -3.738  0.00  0.00     0.003 A 
ENDROOT
TORSDOF 0
ENDMDL
