MODEL 1
REMARK minimizedAffinity 8.01157665
REMARK minimizedRMSD -1
REMARK  0 active torsions:
REMARK  status: ('A' for Active; 'I' for Inactive)
ROOT
ATOM      1  C2' OXE d   1      -1.374   4.255  -2.207  0.00  0.00     0.078 C 
ATOM      2  C1' OXE d   1      -2.753   2.150  -3.451  0.00  0.00     0.078 C 
ATOM      3  C1  OXE d   1      -2.722   3.484  -4.155  0.00  0.00    -0.078 A 
ATOM      4  C2  OXE d   1      -2.085   4.521  -3.516  0.00  0.00    -0.078 A 
ATOM      5  C3  OXE d   1      -1.980   5.758  -4.146  0.00  0.00     0.003 A 
ATOM      6  C4  OXE d   1      -2.650   5.998  -5.352  0.00  0.00    -0.002 A 
ATOM      7  C5  OXE d   1      -3.338   4.966  -6.000  0.00  0.00    -0.002 A 
ATOM      8  C6  OXE d   1      -3.348   3.695  -5.436  0.00  0.00     0.003 A 
ENDROOT
TORSDOF 0
ENDMDL
