MODEL 1
REMARK minimizedAffinity 7.8318758
REMARK minimizedRMSD -1
REMARK  0 active torsions:
REMARK  status: ('A' for Active; 'I' for Inactive)
ROOT
ATOM      1  C2' OXE d   1       0.893  -4.473  -5.150  0.00  0.00     0.078 C 
ATOM      2  C1' OXE d   1       3.065  -4.091  -3.414  0.00  0.00     0.078 C 
ATOM      3  C1  OXE d   1       1.676  -4.011  -2.831  0.00  0.00    -0.078 A 
ATOM      4  C2  OXE d   1       0.618  -4.153  -3.697  0.00  0.00    -0.078 A 
ATOM      5  C3  OXE d   1      -0.683  -4.143  -3.202  0.00  0.00     0.003 A 
ATOM      6  C4  OXE d   1      -0.928  -3.837  -1.858  0.00  0.00    -0.002 A 
ATOM      7  C5  OXE d   1       0.134  -3.650  -0.967  0.00  0.00    -0.002 A 
ATOM      8  C6  OXE d   1       1.440  -3.776  -1.428  0.00  0.00     0.003 A 
ENDROOT
TORSDOF 0
ENDMDL
