MODEL 1
REMARK minimizedAffinity 5.68320894
REMARK minimizedRMSD -1
REMARK  0 active torsions:
REMARK  status: ('A' for Active; 'I' for Inactive)
ROOT
ATOM      1  C2' OXE d   1      -1.469   3.769  -0.106  0.00  0.00     0.078 C 
ATOM      2  C1' OXE d   1       0.852   2.206   0.123  0.00  0.00     0.078 C 
ATOM      3  C1  OXE d   1      -0.114   2.205   1.281  0.00  0.00    -0.078 A 
ATOM      4  C2  OXE d   1      -1.224   3.009   1.180  0.00  0.00    -0.078 A 
ATOM      5  C3  OXE d   1      -2.175   3.003   2.197  0.00  0.00     0.003 A 
ATOM      6  C4  OXE d   1      -1.936   2.304   3.386  0.00  0.00    -0.002 A 
ATOM      7  C5  OXE d   1      -0.792   1.511   3.526  0.00  0.00    -0.002 A 
ATOM      8  C6  OXE d   1       0.105   1.417   2.469  0.00  0.00     0.003 A 
ENDROOT
TORSDOF 0
ENDMDL
