MODEL 1
REMARK minimizedAffinity 9.39048576
REMARK minimizedRMSD -1
REMARK  0 active torsions:
REMARK  status: ('A' for Active; 'I' for Inactive)
ROOT
ATOM      1  C2' OXE d   1      -1.491  -1.799   2.174  0.00  0.00     0.078 C 
ATOM      2  C1' OXE d   1       0.480  -0.300   0.851  0.00  0.00     0.078 C 
ATOM      3  C1  OXE d   1      -0.156  -1.444   0.101  0.00  0.00    -0.078 A 
ATOM      4  C2  OXE d   1      -1.086  -2.201   0.772  0.00  0.00    -0.078 A 
ATOM      5  C3  OXE d   1      -1.743  -3.233   0.108  0.00  0.00     0.003 A 
ATOM      6  C4  OXE d   1      -1.355  -3.605  -1.185  0.00  0.00    -0.002 A 
ATOM      7  C5  OXE d   1      -0.382  -2.872  -1.872  0.00  0.00    -0.002 A 
ATOM      8  C6  OXE d   1       0.196  -1.764  -1.261  0.00  0.00     0.003 A 
ENDROOT
TORSDOF 0
ENDMDL
