MODEL 1
REMARK minimizedAffinity 5.7799077
REMARK minimizedRMSD -1
REMARK  0 active torsions:
REMARK  status: ('A' for Active; 'I' for Inactive)
ROOT
ATOM      1  C2' OXE d   1      -2.333   3.129   1.074  0.00  0.00     0.078 C 
ATOM      2  C1' OXE d   1      -1.661   1.425   3.202  0.00  0.00     0.078 C 
ATOM      3  C1  OXE d   1      -0.536   1.998   2.376  0.00  0.00    -0.078 A 
ATOM      4  C2  OXE d   1      -0.876   2.793   1.309  0.00  0.00    -0.078 A 
ATOM      5  C3  OXE d   1       0.124   3.391   0.548  0.00  0.00     0.003 A 
ATOM      6  C4  OXE d   1       1.469   3.068   0.765  0.00  0.00    -0.002 A 
ATOM      7  C5  OXE d   1       1.836   2.228   1.823  0.00  0.00    -0.002 A 
ATOM      8  C6  OXE d   1       0.850   1.720   2.662  0.00  0.00     0.003 A 
ENDROOT
TORSDOF 0
ENDMDL
