MODEL 1
REMARK minimizedAffinity 8.50749016
REMARK minimizedRMSD -1
REMARK  0 active torsions:
REMARK  status: ('A' for Active; 'I' for Inactive)
ROOT
ATOM      1  C2' OXE d   1      -5.010   2.386  -0.161  0.00  0.00     0.078 C 
ATOM      2  C1' OXE d   1      -2.911   4.095   0.582  0.00  0.00     0.078 C 
ATOM      3  C1  OXE d   1      -3.145   3.867  -0.890  0.00  0.00    -0.078 A 
ATOM      4  C2  OXE d   1      -4.144   2.993  -1.244  0.00  0.00    -0.078 A 
ATOM      5  C3  OXE d   1      -4.438   2.789  -2.589  0.00  0.00     0.003 A 
ATOM      6  C4  OXE d   1      -3.626   3.347  -3.584  0.00  0.00    -0.002 A 
ATOM      7  C5  OXE d   1      -2.578   4.209  -3.245  0.00  0.00    -0.002 A 
ATOM      8  C6  OXE d   1      -2.352   4.513  -1.907  0.00  0.00     0.003 A 
ENDROOT
TORSDOF 0
ENDMDL
