MODEL 1
REMARK minimizedAffinity 4.07196569
REMARK minimizedRMSD -1
REMARK  0 active torsions:
REMARK  status: ('A' for Active; 'I' for Inactive)
ROOT
ATOM      1  C2' OXE d   1       4.892   4.093  -5.319  0.00  0.00     0.078 C 
ATOM      2  C1' OXE d   1       3.777   2.885  -3.043  0.00  0.00     0.078 C 
ATOM      3  C1  OXE d   1       4.566   2.013  -3.988  0.00  0.00    -0.078 A 
ATOM      4  C2  OXE d   1       5.068   2.603  -5.123  0.00  0.00    -0.078 A 
ATOM      5  C3  OXE d   1       5.849   1.856  -6.000  0.00  0.00     0.003 A 
ATOM      6  C4  OXE d   1       5.999   0.476  -5.816  0.00  0.00    -0.002 A 
ATOM      7  C5  OXE d   1       5.462  -0.153  -4.688  0.00  0.00    -0.002 A 
ATOM      8  C6  OXE d   1       4.780   0.608  -3.744  0.00  0.00     0.003 A 
ENDROOT
TORSDOF 0
ENDMDL
