MODEL 1
REMARK minimizedAffinity 10.8552513
REMARK minimizedRMSD -1
REMARK  0 active torsions:
REMARK  status: ('A' for Active; 'I' for Inactive)
ROOT
ATOM      1  C2' OXE d   1       0.026  -0.443   0.523  0.00  0.00     0.078 C 
ATOM      2  C1' OXE d   1      -0.057   0.270  -2.191  0.00  0.00     0.078 C 
ATOM      3  C1  OXE d   1      -0.360  -1.163  -1.830  0.00  0.00    -0.078 A 
ATOM      4  C2  OXE d   1      -0.271  -1.514  -0.504  0.00  0.00    -0.078 A 
ATOM      5  C3  OXE d   1      -0.593  -2.809  -0.110  0.00  0.00     0.003 A 
ATOM      6  C4  OXE d   1      -0.857  -3.796  -1.068  0.00  0.00    -0.002 A 
ATOM      7  C5  OXE d   1      -0.913  -3.470  -2.427  0.00  0.00    -0.002 A 
ATOM      8  C6  OXE d   1      -0.709  -2.152  -2.820  0.00  0.00     0.003 A 
ENDROOT
TORSDOF 0
ENDMDL
