MODEL 1
REMARK minimizedAffinity -2.33147621
REMARK minimizedRMSD -1
REMARK  0 active torsions:
REMARK  status: ('A' for Active; 'I' for Inactive)
ROOT
ATOM      1  C2' OXE d   1       5.304   1.077  -5.553  0.00  0.00     0.078 C 
ATOM      2  C1' OXE d   1       2.645   1.872  -5.975  0.00  0.00     0.078 C 
ATOM      3  C1  OXE d   1       3.694   2.951  -5.868  0.00  0.00    -0.078 A 
ATOM      4  C2  OXE d   1       4.985   2.555  -5.614  0.00  0.00    -0.078 A 
ATOM      5  C3  OXE d   1       6.000   3.507  -5.560  0.00  0.00     0.003 A 
ATOM      6  C4  OXE d   1       5.695   4.872  -5.608  0.00  0.00    -0.002 A 
ATOM      7  C5  OXE d   1       4.380   5.299  -5.825  0.00  0.00    -0.002 A 
ATOM      8  C6  OXE d   1       3.377   4.352  -6.000  0.00  0.00     0.003 A 
ENDROOT
TORSDOF 0
ENDMDL
