MODEL 1
REMARK minimizedAffinity 4.83756065
REMARK minimizedRMSD -1
REMARK  0 active torsions:
REMARK  status: ('A' for Active; 'I' for Inactive)
ROOT
ATOM      1  C   UNL d   1      -5.074  -5.955  -5.649  0.00  0.00     0.020 A 
ATOM      2  C1  UNL d   1      -3.972  -5.962  -4.794  0.00  0.00     0.020 A 
ATOM      3  C2  UNL d   1      -3.480  -4.761  -4.279  0.00  0.00     0.034 A 
ATOM      4  C3  UNL d   1      -4.089  -3.548  -4.619  0.00  0.00     0.017 A 
ATOM      5  C4  UNL d   1      -5.194  -3.541  -5.477  0.00  0.00     0.017 A 
ATOM      6  C5  UNL d   1      -5.683  -4.747  -5.990  0.00  0.00     0.034 A 
ATOM      7 Cl   UNL d   1      -5.998  -2.083  -5.942  0.00  0.00    -0.070 Cl
ATOM      8 Cl1  UNL d   1      -3.427  -2.101  -3.945  0.00  0.00    -0.070 Cl
ENDROOT
TORSDOF 0
ENDMDL
