MODEL 1
REMARK minimizedAffinity 8.49817181
REMARK minimizedRMSD -1
REMARK  0 active torsions:
REMARK  status: ('A' for Active; 'I' for Inactive)
ROOT
ATOM      1  C   UNL d   1      -2.698   1.557  -1.399  0.00  0.00     0.020 A 
ATOM      2  C1  UNL d   1      -3.315   2.140  -0.293  0.00  0.00     0.020 A 
ATOM      3  C2  UNL d   1      -4.277   3.135  -0.475  0.00  0.00     0.034 A 
ATOM      4  C3  UNL d   1      -4.625   3.552  -1.765  0.00  0.00     0.017 A 
ATOM      5  C4  UNL d   1      -4.004   2.966  -2.875  0.00  0.00     0.017 A 
ATOM      6  C5  UNL d   1      -3.041   1.970  -2.687  0.00  0.00     0.034 A 
ATOM      7 Cl   UNL d   1      -4.380   3.427  -4.498  0.00  0.00    -0.070 Cl
ATOM      8 Cl1  UNL d   1      -5.823   4.788  -1.916  0.00  0.00    -0.070 Cl
ENDROOT
TORSDOF 0
ENDMDL
