MODEL 1
REMARK minimizedAffinity 8.39142704
REMARK minimizedRMSD -1
REMARK  0 active torsions:
REMARK  status: ('A' for Active; 'I' for Inactive)
ROOT
ATOM      1  C   UNL d   1       1.702  -4.853   1.913  0.00  0.00     0.020 A 
ATOM      2  C1  UNL d   1       1.572  -3.468   1.816  0.00  0.00     0.020 A 
ATOM      3  C2  UNL d   1       1.112  -2.732   2.910  0.00  0.00     0.034 A 
ATOM      4  C3  UNL d   1       0.779  -3.380   4.105  0.00  0.00     0.017 A 
ATOM      5  C4  UNL d   1       0.910  -4.770   4.202  0.00  0.00     0.017 A 
ATOM      6  C5  UNL d   1       1.372  -5.502   3.104  0.00  0.00     0.034 A 
ATOM      7 Cl   UNL d   1       0.520  -5.640   5.643  0.00  0.00    -0.070 Cl
ATOM      8 Cl1  UNL d   1       0.217  -2.406   5.417  0.00  0.00    -0.070 Cl
ENDROOT
TORSDOF 0
ENDMDL
