MODEL 1
REMARK minimizedAffinity 15.8269043
REMARK minimizedRMSD -1
REMARK  0 active torsions:
REMARK  status: ('A' for Active; 'I' for Inactive)
ROOT
ATOM      1  C   UNL d   1       1.351   6.000  -2.282  0.00  0.00     0.020 A 
ATOM      2  C1  UNL d   1       2.607   5.431  -2.483  0.00  0.00     0.020 A 
ATOM      3  C2  UNL d   1       2.991   4.307  -1.748  0.00  0.00     0.034 A 
ATOM      4  C3  UNL d   1       2.116   3.749  -0.809  0.00  0.00     0.017 A 
ATOM      5  C4  UNL d   1       0.855   4.320  -0.608  0.00  0.00     0.017 A 
ATOM      6  C5  UNL d   1       0.476   5.446  -1.346  0.00  0.00     0.034 A 
ATOM      7 Cl   UNL d   1      -0.278   3.688   0.534  0.00  0.00    -0.070 Cl
ATOM      8 Cl1  UNL d   1       2.656   2.358   0.064  0.00  0.00    -0.070 Cl
ENDROOT
TORSDOF 0
ENDMDL
