MODEL 1
REMARK minimizedAffinity 17.630703
REMARK minimizedRMSD -1
REMARK  0 active torsions:
REMARK  status: ('A' for Active; 'I' for Inactive)
ROOT
ATOM      1  C   UNL d   1       0.149  -2.449   3.522  0.00  0.00     0.020 A 
ATOM      2  C1  UNL d   1       1.014  -3.251   2.779  0.00  0.00     0.020 A 
ATOM      3  C2  UNL d   1       1.726  -2.706   1.709  0.00  0.00     0.034 A 
ATOM      4  C3  UNL d   1       1.575  -1.354   1.379  0.00  0.00     0.017 A 
ATOM      5  C4  UNL d   1       0.706  -0.549   2.125  0.00  0.00     0.017 A 
ATOM      6  C5  UNL d   1      -0.004  -1.101   3.196  0.00  0.00     0.034 A 
ATOM      7 Cl   UNL d   1       0.467   1.127   1.778  0.00  0.00    -0.070 Cl
ATOM      8 Cl1  UNL d   1       2.487  -0.746   0.043  0.00  0.00    -0.070 Cl
ENDROOT
TORSDOF 0
ENDMDL
