MODEL 1
REMARK minimizedAffinity 0.930350482
REMARK minimizedRMSD -1
REMARK  0 active torsions:
REMARK  status: ('A' for Active; 'I' for Inactive)
ROOT
ATOM      1  C   UNL d   1       5.622   5.803  -5.551  0.00  0.00     0.020 A 
ATOM      2  C1  UNL d   1       4.339   5.347  -5.854  0.00  0.00     0.020 A 
ATOM      3  C2  UNL d   1       3.431   5.086  -4.826  0.00  0.00     0.034 A 
ATOM      4  C3  UNL d   1       3.804   5.280  -3.491  0.00  0.00     0.017 A 
ATOM      5  C4  UNL d   1       5.092   5.737  -3.188  0.00  0.00     0.017 A 
ATOM      6  C5  UNL d   1       5.998   5.997  -4.222  0.00  0.00     0.034 A 
ATOM      7 Cl   UNL d   1       5.625   6.000  -1.565  0.00  0.00    -0.070 Cl
ATOM      8 Cl1  UNL d   1       2.630   4.937  -2.270  0.00  0.00    -0.070 Cl
ENDROOT
TORSDOF 0
ENDMDL
