MODEL 1
REMARK minimizedAffinity 11.246273
REMARK minimizedRMSD -1
REMARK  0 active torsions:
REMARK  status: ('A' for Active; 'I' for Inactive)
ROOT
ATOM      1  C   UNL d   1      -4.905  -0.975  -3.035  0.00  0.00     0.020 A 
ATOM      2  C1  UNL d   1      -4.156  -0.821  -1.869  0.00  0.00     0.020 A 
ATOM      3  C2  UNL d   1      -3.683   0.442  -1.505  0.00  0.00     0.034 A 
ATOM      4  C3  UNL d   1      -3.959   1.555  -2.308  0.00  0.00     0.017 A 
ATOM      5  C4  UNL d   1      -4.711   1.399  -3.478  0.00  0.00     0.017 A 
ATOM      6  C5  UNL d   1      -5.182   0.132  -3.837  0.00  0.00     0.034 A 
ATOM      7 Cl   UNL d   1      -5.091   2.725  -4.519  0.00  0.00    -0.070 Cl
ATOM      8 Cl1  UNL d   1      -3.343   3.086  -1.797  0.00  0.00    -0.070 Cl
ENDROOT
TORSDOF 0
ENDMDL
