MODEL 1
REMARK minimizedAffinity 10.227169
REMARK minimizedRMSD -1
REMARK  0 active torsions:
REMARK  status: ('A' for Active; 'I' for Inactive)
ROOT
ATOM      1  C   UNL d   1       3.004  -0.326   0.671  0.00  0.00     0.020 A 
ATOM      2  C1  UNL d   1       3.121   0.869   1.381  0.00  0.00     0.020 A 
ATOM      3  C2  UNL d   1       3.081   2.090   0.704  0.00  0.00     0.034 A 
ATOM      4  C3  UNL d   1       2.924   2.119  -0.686  0.00  0.00     0.017 A 
ATOM      5  C4  UNL d   1       2.807   0.919  -1.398  0.00  0.00     0.017 A 
ATOM      6  C5  UNL d   1       2.848  -0.300  -0.715  0.00  0.00     0.034 A 
ATOM      7 Cl   UNL d   1       2.611   0.875  -3.114  0.00  0.00    -0.070 Cl
ATOM      8 Cl1  UNL d   1       2.883   3.664  -1.458  0.00  0.00    -0.070 Cl
ENDROOT
TORSDOF 0
ENDMDL
