MODEL 1
REMARK minimizedAffinity 0.628418326
REMARK minimizedRMSD -1
REMARK  1 active torsions:
REMARK  status: ('A' for Active; 'I' for Inactive)
REMARK    1  A    between atoms: C1_2  and  C2_3 
ROOT
ATOM      1  C2  UNL d   1       0.461  -0.771  -0.052  0.00  0.00    -0.076 A 
ATOM      2  C3  UNL d   1       1.745  -0.290  -0.363  0.00  0.00     0.004 A 
ATOM      3  C4  UNL d   1       2.057   1.061  -0.229  0.00  0.00    -0.003 A 
ATOM      4  C5  UNL d   1       1.090   1.955   0.219  0.00  0.00     0.000 A 
ATOM      5  C6  UNL d   1      -0.184   1.493   0.549  0.00  0.00     0.000 A 
ATOM      6  C7  UNL d   1      -0.510   0.130   0.435  0.00  0.00    -0.073 A 
ATOM      7  C8  UNL d   1      -1.901  -0.312   0.799  0.00  0.00     0.078 C 
ENDROOT
BRANCH   1   8
ATOM      8  C1  UNL d   1       0.172  -2.243  -0.243  0.00  0.00     0.053 C 
ATOM      9  C   UNL d   1       0.024  -2.622  -1.709  0.00  0.00     0.018 C 
ENDBRANCH   1   8
TORSDOF 1
ENDMDL
