MODEL 1
REMARK minimizedAffinity -5.46563005
REMARK minimizedRMSD -1
REMARK  1 active torsions:
REMARK  status: ('A' for Active; 'I' for Inactive)
REMARK    1  A    between atoms: C1_2  and  C2_3 
ROOT
ATOM      1  C2  UNL d   1       0.249   0.571  -0.010  0.00  0.00    -0.076 A 
ATOM      2  C3  UNL d   1       1.233   1.283  -0.717  0.00  0.00     0.004 A 
ATOM      3  C4  UNL d   1       1.233   2.677  -0.739  0.00  0.00    -0.003 A 
ATOM      4  C5  UNL d   1       0.249   3.381  -0.053  0.00  0.00     0.000 A 
ATOM      5  C6  UNL d   1      -0.724   2.690   0.668  0.00  0.00     0.000 A 
ATOM      6  C7  UNL d   1      -0.729   1.286   0.714  0.00  0.00    -0.073 A 
ATOM      7  C8  UNL d   1      -1.806   0.593   1.503  0.00  0.00     0.078 C 
ENDROOT
BRANCH   1   8
ATOM      8  C1  UNL d   1       0.284  -0.941  -0.044  0.00  0.00     0.053 C 
ATOM      9  C   UNL d   1      -0.132  -1.502  -1.395  0.00  0.00     0.018 C 
ENDBRANCH   1   8
TORSDOF 1
ENDMDL
