MODEL 1
REMARK minimizedAffinity 1.66675401
REMARK minimizedRMSD -1
REMARK  1 active torsions:
REMARK  status: ('A' for Active; 'I' for Inactive)
REMARK    1  A    between atoms: C1_2  and  C2_3 
ROOT
ATOM      1  C2  UNL d   1       0.088  -2.662  -0.984  0.00  0.00    -0.076 A 
ATOM      2  C3  UNL d   1       1.026  -2.444  -2.008  0.00  0.00     0.004 A 
ATOM      3  C4  UNL d   1       0.961  -3.156  -3.204  0.00  0.00    -0.003 A 
ATOM      4  C5  UNL d   1      -0.043  -4.099  -3.396  0.00  0.00     0.000 A 
ATOM      5  C6  UNL d   1      -0.992  -4.316  -2.398  0.00  0.00     0.000 A 
ATOM      6  C7  UNL d   1      -0.951  -3.595  -1.192  0.00  0.00    -0.073 A 
ATOM      7  C8  UNL d   1      -1.997  -3.874  -0.147  0.00  0.00     0.078 C 
ENDROOT
BRANCH   1   8
ATOM      8  C1  UNL d   1       0.224  -1.879   0.303  0.00  0.00     0.053 C 
ATOM      9  C   UNL d   1       0.289  -0.378   0.067  0.00  0.00     0.018 C 
ENDBRANCH   1   8
TORSDOF 1
ENDMDL
