MODEL 1
REMARK minimizedAffinity 0.242288798
REMARK minimizedRMSD -1
REMARK  1 active torsions:
REMARK  status: ('A' for Active; 'I' for Inactive)
REMARK    1  A    between atoms: C1_2  and  C2_3 
ROOT
ATOM      1  C2  UNL d   1       0.449  -1.077  -0.354  0.00  0.00    -0.076 A 
ATOM      2  C3  UNL d   1       1.678  -1.058   0.329  0.00  0.00     0.004 A 
ATOM      3  C4  UNL d   1       2.540   0.033   0.226  0.00  0.00    -0.003 A 
ATOM      4  C5  UNL d   1       2.186   1.123  -0.561  0.00  0.00     0.000 A 
ATOM      5  C6  UNL d   1       0.964   1.129  -1.231  0.00  0.00     0.000 A 
ATOM      6  C7  UNL d   1       0.076   0.045  -1.125  0.00  0.00    -0.073 A 
ATOM      7  C8  UNL d   1      -1.227   0.102  -1.874  0.00  0.00     0.078 C 
ENDROOT
BRANCH   1   8
ATOM      8  C1  UNL d   1      -0.432  -2.299  -0.226  0.00  0.00     0.053 C 
ATOM      9  C   UNL d   1      -0.443  -3.144  -1.491  0.00  0.00     0.018 C 
ENDBRANCH   1   8
TORSDOF 1
ENDMDL
