MODEL 1
REMARK minimizedAffinity -3.70319128
REMARK minimizedRMSD -1
REMARK  1 active torsions:
REMARK  status: ('A' for Active; 'I' for Inactive)
REMARK    1  A    between atoms: C1_2  and  C2_3 
ROOT
ATOM      1  C2  UNL d   1       0.150   0.600  -0.001  0.00  0.00    -0.076 A 
ATOM      2  C3  UNL d   1      -1.039  -0.147  -0.057  0.00  0.00     0.004 A 
ATOM      3  C4  UNL d   1      -1.019  -1.537   0.040  0.00  0.00    -0.003 A 
ATOM      4  C5  UNL d   1       0.192  -2.203   0.195  0.00  0.00     0.000 A 
ATOM      5  C6  UNL d   1       1.380  -1.477   0.271  0.00  0.00     0.000 A 
ATOM      6  C7  UNL d   1       1.375  -0.074   0.191  0.00  0.00    -0.073 A 
ATOM      7  C8  UNL d   1       2.687   0.658   0.272  0.00  0.00     0.078 C 
ENDROOT
BRANCH   1   8
ATOM      8  C1  UNL d   1       0.069   2.104  -0.138  0.00  0.00     0.053 C 
ATOM      9  C   UNL d   1      -0.515   2.771   1.097  0.00  0.00     0.018 C 
ENDBRANCH   1   8
TORSDOF 1
ENDMDL
