MODEL 1
REMARK minimizedAffinity -4.85186911
REMARK minimizedRMSD -1
REMARK  1 active torsions:
REMARK  status: ('A' for Active; 'I' for Inactive)
REMARK    1  A    between atoms: C1_2  and  C2_3 
ROOT
ATOM      1  C2  UNL d   1      -0.547   2.421   0.893  0.00  0.00    -0.076 A 
ATOM      2  C3  UNL d   1       0.186   3.536   0.451  0.00  0.00     0.004 A 
ATOM      3  C4  UNL d   1       1.102   3.424  -0.594  0.00  0.00    -0.003 A 
ATOM      4  C5  UNL d   1       1.299   2.196  -1.214  0.00  0.00     0.000 A 
ATOM      5  C6  UNL d   1       0.567   1.083  -0.800  0.00  0.00     0.000 A 
ATOM      6  C7  UNL d   1      -0.372   1.182   0.241  0.00  0.00    -0.073 A 
ATOM      7  C8  UNL d   1      -1.128  -0.052   0.651  0.00  0.00     0.078 C 
ENDROOT
BRANCH   1   8
ATOM      8  C1  UNL d   1      -1.506   2.597   2.049  0.00  0.00     0.053 C 
ATOM      9  C   UNL d   1      -0.790   2.811   3.373  0.00  0.00     0.018 C 
ENDBRANCH   1   8
TORSDOF 1
ENDMDL
