MODEL 1
REMARK minimizedAffinity -0.594769657
REMARK minimizedRMSD -1
REMARK  1 active torsions:
REMARK  status: ('A' for Active; 'I' for Inactive)
REMARK    1  A    between atoms: C1_2  and  C2_3 
ROOT
ATOM      1  C2  UNL d   1       0.157  -0.595  -0.139  0.00  0.00    -0.076 A 
ATOM      2  C3  UNL d   1      -1.161  -0.116  -0.242  0.00  0.00     0.004 A 
ATOM      3  C4  UNL d   1      -1.475   1.200   0.091  0.00  0.00    -0.003 A 
ATOM      4  C5  UNL d   1      -0.475   2.061   0.532  0.00  0.00     0.000 A 
ATOM      5  C6  UNL d   1       0.841   1.608   0.623  0.00  0.00     0.000 A 
ATOM      6  C7  UNL d   1       1.177   0.288   0.275  0.00  0.00    -0.073 A 
ATOM      7  C8  UNL d   1       2.611  -0.148   0.398  0.00  0.00     0.078 C 
ENDROOT
BRANCH   1   8
ATOM      8  C1  UNL d   1       0.432  -2.040  -0.488  0.00  0.00     0.053 C 
ATOM      9  C   UNL d   1      -0.823  -2.786  -0.913  0.00  0.00     0.018 C 
ENDBRANCH   1   8
TORSDOF 1
ENDMDL
