MODEL 1
REMARK minimizedAffinity -3.91418934
REMARK minimizedRMSD -1
REMARK  1 active torsions:
REMARK  status: ('A' for Active; 'I' for Inactive)
REMARK    1  A    between atoms: C1_2  and  C2_3 
ROOT
ATOM      1  C2  UNL d   1      -0.268  -2.032  -0.481  0.00  0.00    -0.076 A 
ATOM      2  C3  UNL d   1      -1.223  -2.439   0.466  0.00  0.00     0.004 A 
ATOM      3  C4  UNL d   1      -2.294  -3.253   0.101  0.00  0.00    -0.003 A 
ATOM      4  C5  UNL d   1      -2.426  -3.674  -1.217  0.00  0.00     0.000 A 
ATOM      5  C6  UNL d   1      -1.478  -3.295  -2.167  0.00  0.00     0.000 A 
ATOM      6  C7  UNL d   1      -0.383  -2.488  -1.812  0.00  0.00    -0.073 A 
ATOM      7  C8  UNL d   1       0.606  -2.104  -2.877  0.00  0.00     0.078 C 
ENDROOT
BRANCH   1   8
ATOM      8  C1  UNL d   1       0.857  -1.127  -0.032  0.00  0.00     0.053 C 
ATOM      9  C   UNL d   1       0.524   0.347  -0.207  0.00  0.00     0.018 C 
ENDBRANCH   1   8
TORSDOF 1
ENDMDL
