MODEL 1
REMARK minimizedAffinity -1.4028995
REMARK minimizedRMSD -1
REMARK  1 active torsions:
REMARK  status: ('A' for Active; 'I' for Inactive)
REMARK    1  A    between atoms: C1_2  and  C2_3 
ROOT
ATOM      1  C2  UNL d   1      -0.346   0.330   0.316  0.00  0.00    -0.076 A 
ATOM      2  C3  UNL d   1      -1.645   0.565   0.800  0.00  0.00     0.004 A 
ATOM      3  C4  UNL d   1      -1.976   1.773   1.410  0.00  0.00    -0.003 A 
ATOM      4  C5  UNL d   1      -1.013   2.768   1.546  0.00  0.00     0.000 A 
ATOM      5  C6  UNL d   1       0.276   2.559   1.056  0.00  0.00     0.000 A 
ATOM      6  C7  UNL d   1       0.622   1.352   0.424  0.00  0.00    -0.073 A 
ATOM      7  C8  UNL d   1       2.028   1.178  -0.080  0.00  0.00     0.078 C 
ENDROOT
BRANCH   1   8
ATOM      8  C1  UNL d   1      -0.038  -1.010  -0.312  0.00  0.00     0.053 C 
ATOM      9  C   UNL d   1       0.354  -2.060   0.717  0.00  0.00     0.018 C 
ENDBRANCH   1   8
TORSDOF 1
ENDMDL
