MODEL 1
REMARK minimizedAffinity -4.16398096
REMARK minimizedRMSD -1
REMARK  1 active torsions:
REMARK  status: ('A' for Active; 'I' for Inactive)
REMARK    1  A    between atoms: C1_2  and  C2_3 
ROOT
ATOM      1  C2  UNL d   1      -0.037   0.425   0.307  0.00  0.00    -0.076 A 
ATOM      2  C3  UNL d   1      -1.349   0.873   0.537  0.00  0.00     0.004 A 
ATOM      3  C4  UNL d   1      -1.653   2.233   0.539  0.00  0.00    -0.003 A 
ATOM      4  C5  UNL d   1      -0.650   3.168   0.310  0.00  0.00     0.000 A 
ATOM      5  C6  UNL d   1       0.654   2.741   0.062  0.00  0.00     0.000 A 
ATOM      6  C7  UNL d   1       0.975   1.373   0.040  0.00  0.00    -0.073 A 
ATOM      7  C8  UNL d   1       2.399   0.969  -0.227  0.00  0.00     0.078 C 
ENDROOT
BRANCH   1   8
ATOM      8  C1  UNL d   1       0.238  -1.061   0.344  0.00  0.00     0.053 C 
ATOM      9  C   UNL d   1      -0.585  -1.832  -0.677  0.00  0.00     0.018 C 
ENDBRANCH   1   8
TORSDOF 1
ENDMDL
