MODEL 1
REMARK minimizedAffinity -2.55076313
REMARK minimizedRMSD -1
REMARK  1 active torsions:
REMARK  status: ('A' for Active; 'I' for Inactive)
REMARK    1  A    between atoms: C1_2  and  C2_3 
ROOT
ATOM      1  C2  UNL d   1      -0.958   1.671   1.409  0.00  0.00    -0.076 A 
ATOM      2  C3  UNL d   1      -1.337   0.327   1.569  0.00  0.00     0.004 A 
ATOM      3  C4  UNL d   1      -0.853  -0.662   0.713  0.00  0.00    -0.003 A 
ATOM      4  C5  UNL d   1       0.018  -0.322  -0.316  0.00  0.00     0.000 A 
ATOM      5  C6  UNL d   1       0.419   1.004  -0.478  0.00  0.00     0.000 A 
ATOM      6  C7  UNL d   1      -0.047   2.010   0.386  0.00  0.00    -0.073 A 
ATOM      7  C8  UNL d   1       0.413   3.424   0.161  0.00  0.00     0.078 C 
ENDROOT
BRANCH   1   8
ATOM      8  C1  UNL d   1      -1.536   2.703   2.350  0.00  0.00     0.053 C 
ATOM      9  C   UNL d   1      -0.570   3.085   3.461  0.00  0.00     0.018 C 
ENDBRANCH   1   8
TORSDOF 1
ENDMDL
