MODEL 1
REMARK minimizedAffinity -4.60310555
REMARK minimizedRMSD -1
REMARK  1 active torsions:
REMARK  status: ('A' for Active; 'I' for Inactive)
REMARK    1  A    between atoms: C1_2  and  C2_3 
ROOT
ATOM      1  C2  UNL d   1       0.763   1.019   0.440  0.00  0.00    -0.076 A 
ATOM      2  C3  UNL d   1       2.156   0.893   0.584  0.00  0.00     0.004 A 
ATOM      3  C4  UNL d   1       2.885   1.814   1.334  0.00  0.00    -0.003 A 
ATOM      4  C5  UNL d   1       2.234   2.875   1.954  0.00  0.00     0.000 A 
ATOM      5  C6  UNL d   1       0.850   3.005   1.836  0.00  0.00     0.000 A 
ATOM      6  C7  UNL d   1       0.098   2.076   1.097  0.00  0.00    -0.073 A 
ATOM      7  C8  UNL d   1      -1.391   2.268   0.998  0.00  0.00     0.078 C 
ENDROOT
BRANCH   1   8
ATOM      8  C1  UNL d   1       0.028   0.006  -0.409  0.00  0.00     0.053 C 
ATOM      9  C   UNL d   1      -0.414  -1.211   0.389  0.00  0.00     0.018 C 
ENDBRANCH   1   8
TORSDOF 1
ENDMDL
