MODEL 1
REMARK minimizedAffinity -6.00301123
REMARK minimizedRMSD -1
REMARK  1 active torsions:
REMARK  status: ('A' for Active; 'I' for Inactive)
REMARK    1  A    between atoms: C1_2  and  C2_3 
ROOT
ATOM      1  C2  UNL d   1      -0.133  -0.208  -0.593  0.00  0.00    -0.076 A 
ATOM      2  C3  UNL d   1      -1.000   0.841  -0.946  0.00  0.00     0.004 A 
ATOM      3  C4  UNL d   1      -0.710   2.159  -0.597  0.00  0.00    -0.003 A 
ATOM      4  C5  UNL d   1       0.452   2.450   0.109  0.00  0.00     0.000 A 
ATOM      5  C6  UNL d   1       1.332   1.424   0.451  0.00  0.00     0.000 A 
ATOM      6  C7  UNL d   1       1.063   0.091   0.093  0.00  0.00    -0.073 A 
ATOM      7  C8  UNL d   1       2.044  -0.976   0.494  0.00  0.00     0.078 C 
ENDROOT
BRANCH   1   8
ATOM      8  C1  UNL d   1      -0.514  -1.621  -0.975  0.00  0.00     0.053 C 
ATOM      9  C   UNL d   1       0.051  -2.032  -2.326  0.00  0.00     0.018 C 
ENDBRANCH   1   8
TORSDOF 1
ENDMDL
