MODEL 1
REMARK minimizedAffinity 1.18309176
REMARK minimizedRMSD -1
REMARK  0 active torsions:
REMARK  status: ('A' for Active; 'I' for Inactive)
ROOT
ATOM      1  C   UNL d   1       1.953  -1.288  -0.158  0.00  0.00     0.172 C 
ATOM      2  N   UNL d   1       1.435  -1.239   1.189  0.00  0.00    -0.070 N 
ATOM      3  C1  UNL d   1       0.266  -1.811   1.616  0.00  0.00    -0.004 A 
ATOM      4  C2  UNL d   1       0.131  -1.540   2.961  0.00  0.00    -0.047 A 
ATOM      5  C3  UNL d   1       1.257  -0.779   3.355  0.00  0.00    -0.047 A 
ATOM      6  C4  UNL d   1       2.048  -0.608   2.238  0.00  0.00    -0.004 A 
ENDROOT
TORSDOF 0
ENDMDL
