MODEL 1
REMARK minimizedAffinity 4.86280203
REMARK minimizedRMSD -1
REMARK  0 active torsions:
REMARK  status: ('A' for Active; 'I' for Inactive)
ROOT
ATOM      1  C   UNL d   1       1.871  -2.771   1.178  0.00  0.00     0.172 C 
ATOM      2  N   UNL d   1       1.771  -1.733   0.180  0.00  0.00    -0.070 N 
ATOM      3  C1  UNL d   1       0.747  -1.584  -0.717  0.00  0.00    -0.004 A 
ATOM      4  C2  UNL d   1       1.023  -0.479  -1.493  0.00  0.00    -0.047 A 
ATOM      5  C3  UNL d   1       2.256   0.054  -1.048  0.00  0.00    -0.047 A 
ATOM      6  C4  UNL d   1       2.697  -0.742  -0.012  0.00  0.00    -0.004 A 
ENDROOT
TORSDOF 0
ENDMDL
