MODEL 1
REMARK minimizedAffinity 4.25665426
REMARK minimizedRMSD -1
REMARK  0 active torsions:
REMARK  status: ('A' for Active; 'I' for Inactive)
ROOT
ATOM      1  C   UNL d   1      -3.696   0.613   1.639  0.00  0.00     0.172 C 
ATOM      2  N   UNL d   1      -2.350   0.153   1.886  0.00  0.00    -0.070 N 
ATOM      3  C1  UNL d   1      -1.585   0.471   2.976  0.00  0.00    -0.004 A 
ATOM      4  C2  UNL d   1      -0.370  -0.165   2.839  0.00  0.00    -0.047 A 
ATOM      5  C3  UNL d   1      -0.406  -0.890   1.624  0.00  0.00    -0.047 A 
ATOM      6  C4  UNL d   1      -1.643  -0.675   1.054  0.00  0.00    -0.004 A 
ENDROOT
TORSDOF 0
ENDMDL
