MODEL 1
REMARK minimizedAffinity -0.845262706
REMARK minimizedRMSD -1
REMARK  0 active torsions:
REMARK  status: ('A' for Active; 'I' for Inactive)
ROOT
ATOM      1  C   UNL d   1      -2.974  -1.988  -2.268  0.00  0.00     0.172 C 
ATOM      2  N   UNL d   1      -3.695  -1.292  -3.308  0.00  0.00    -0.070 N 
ATOM      3  C1  UNL d   1      -5.055  -1.283  -3.468  0.00  0.00    -0.004 A 
ATOM      4  C2  UNL d   1      -5.345  -0.508  -4.570  0.00  0.00    -0.047 A 
ATOM      5  C3  UNL d   1      -4.116  -0.036  -5.091  0.00  0.00    -0.047 A 
ATOM      6  C4  UNL d   1      -3.111  -0.536  -4.290  0.00  0.00    -0.004 A 
ENDROOT
TORSDOF 0
ENDMDL
