MODEL 1
REMARK minimizedAffinity 0.405487895
REMARK minimizedRMSD -1
REMARK  0 active torsions:
REMARK  status: ('A' for Active; 'I' for Inactive)
ROOT
ATOM      1  C   UNL d   1       1.308  -1.444   0.978  0.00  0.00     0.172 C 
ATOM      2  N   UNL d   1       1.612  -1.008  -0.364  0.00  0.00    -0.070 N 
ATOM      3  C1  UNL d   1       2.555  -0.075  -0.706  0.00  0.00    -0.004 A 
ATOM      4  C2  UNL d   1       2.538   0.059  -2.078  0.00  0.00    -0.047 A 
ATOM      5  C3  UNL d   1       1.550  -0.823  -2.577  0.00  0.00    -0.047 A 
ATOM      6  C4  UNL d   1       0.993  -1.471  -1.495  0.00  0.00    -0.004 A 
ENDROOT
TORSDOF 0
ENDMDL
