MODEL 1
REMARK minimizedAffinity 6.15554619
REMARK minimizedRMSD -1
REMARK  0 active torsions:
REMARK  status: ('A' for Active; 'I' for Inactive)
ROOT
ATOM      1  C   UNL d   1       2.612  -1.368  -0.711  0.00  0.00     0.172 C 
ATOM      2  N   UNL d   1       3.863  -1.121  -0.035  0.00  0.00    -0.070 N 
ATOM      3  C1  UNL d   1       5.049  -1.755  -0.293  0.00  0.00    -0.004 A 
ATOM      4  C2  UNL d   1       5.999  -1.238   0.561  0.00  0.00    -0.047 A 
ATOM      5  C3  UNL d   1       5.362  -0.261   1.361  0.00  0.00    -0.047 A 
ATOM      6  C4  UNL d   1       4.040  -0.209   0.972  0.00  0.00    -0.004 A 
ENDROOT
TORSDOF 0
ENDMDL
