MODEL 1
REMARK minimizedAffinity 5.82156229
REMARK minimizedRMSD -1
REMARK  0 active torsions:
REMARK  status: ('A' for Active; 'I' for Inactive)
ROOT
ATOM      1  C   UNL d   1       2.909   1.742   0.824  0.00  0.00     0.172 C 
ATOM      2  N   UNL d   1       2.555   1.174  -0.456  0.00  0.00    -0.070 N 
ATOM      3  C1  UNL d   1       2.369   1.876  -1.616  0.00  0.00    -0.004 A 
ATOM      4  C2  UNL d   1       2.044   0.976  -2.607  0.00  0.00    -0.047 A 
ATOM      5  C3  UNL d   1       2.032  -0.313  -2.021  0.00  0.00    -0.047 A 
ATOM      6  C4  UNL d   1       2.352  -0.160  -0.689  0.00  0.00    -0.004 A 
ENDROOT
TORSDOF 0
ENDMDL
