MODEL 1
REMARK minimizedAffinity 0.48448208
REMARK minimizedRMSD -1
REMARK  0 active torsions:
REMARK  status: ('A' for Active; 'I' for Inactive)
ROOT
ATOM      1  C   UNL d   1       2.878   2.524  -1.345  0.00  0.00     0.172 C 
ATOM      2  N   UNL d   1       1.582   2.215  -1.902  0.00  0.00    -0.070 N 
ATOM      3  C1  UNL d   1       0.739   3.110  -2.505  0.00  0.00    -0.004 A 
ATOM      4  C2  UNL d   1      -0.390   2.426  -2.900  0.00  0.00    -0.047 A 
ATOM      5  C3  UNL d   1      -0.220   1.073  -2.520  0.00  0.00    -0.047 A 
ATOM      6  C4  UNL d   1       1.009   0.971  -1.904  0.00  0.00    -0.004 A 
ENDROOT
TORSDOF 0
ENDMDL
