MODEL 1
REMARK minimizedAffinity -0.38654387
REMARK minimizedRMSD -1
REMARK  0 active torsions:
REMARK  status: ('A' for Active; 'I' for Inactive)
ROOT
ATOM      1  C   UNL d   1       1.499  -1.408  -0.337  0.00  0.00     0.172 C 
ATOM      2  N   UNL d   1       1.767  -0.045  -0.731  0.00  0.00    -0.070 N 
ATOM      3  C1  UNL d   1       2.838   0.707  -0.326  0.00  0.00    -0.004 A 
ATOM      4  C2  UNL d   1       2.732   1.946  -0.920  0.00  0.00    -0.047 A 
ATOM      5  C3  UNL d   1       1.557   1.939  -1.708  0.00  0.00    -0.047 A 
ATOM      6  C4  UNL d   1       0.979   0.695  -1.573  0.00  0.00    -0.004 A 
ENDROOT
TORSDOF 0
ENDMDL
