MODEL 1
REMARK minimizedAffinity -2.95082426
REMARK minimizedRMSD -1
REMARK  0 active torsions:
REMARK  status: ('A' for Active; 'I' for Inactive)
ROOT
ATOM      1  C   UNL d   1       1.388   0.367  -0.735  0.00  0.00     0.172 C 
ATOM      2  N   UNL d   1       0.145   0.189  -0.023  0.00  0.00    -0.070 N 
ATOM      3  C1  UNL d   1      -1.059   0.743  -0.367  0.00  0.00    -0.004 A 
ATOM      4  C2  UNL d   1      -1.993   0.333   0.559  0.00  0.00    -0.047 A 
ATOM      5  C3  UNL d   1      -1.327  -0.496   1.493  0.00  0.00    -0.047 A 
ATOM      6  C4  UNL d   1      -0.005  -0.568   1.109  0.00  0.00    -0.004 A 
ENDROOT
TORSDOF 0
ENDMDL
