MODEL 1
REMARK minimizedAffinity -4.94227886
REMARK minimizedRMSD -1
REMARK  0 active torsions:
REMARK  status: ('A' for Active; 'I' for Inactive)
ROOT
ATOM      1  C   UNL d   1       0.214  -0.025  -1.561  0.00  0.00     0.078 C 
ATOM      2  C1  UNL d   1       0.070  -0.127  -0.072  0.00  0.00    -0.077 A 
ATOM      3  C2  UNL d   1      -1.138  -0.534   0.510  0.00  0.00    -0.001 A 
ATOM      4  C3  UNL d   1      -1.261  -0.615   1.897  0.00  0.00     0.003 A 
ATOM      5  C4  UNL d   1      -0.181  -0.289   2.716  0.00  0.00    -0.005 A 
ATOM      6  C5  UNL d   1       1.023   0.119   2.147  0.00  0.00     0.003 A 
ATOM      7  C6  UNL d   1       1.148   0.201   0.759  0.00  0.00    -0.001 A 
ENDROOT
TORSDOF 0
ENDMDL
