MODEL 1
REMARK minimizedAffinity -3.63295031
REMARK minimizedRMSD -1
REMARK  0 active torsions:
REMARK  status: ('A' for Active; 'I' for Inactive)
ROOT
ATOM      1  C   UNL d   1      -0.997  -0.804   2.450  0.00  0.00     0.078 C 
ATOM      2  C1  UNL d   1      -0.895  -0.423   1.003  0.00  0.00    -0.077 A 
ATOM      3  C2  UNL d   1       0.336  -0.450   0.336  0.00  0.00    -0.001 A 
ATOM      4  C3  UNL d   1       0.418  -0.083  -1.008  0.00  0.00     0.003 A 
ATOM      5  C4  UNL d   1      -0.727   0.315  -1.696  0.00  0.00    -0.005 A 
ATOM      6  C5  UNL d   1      -1.955   0.347  -1.040  0.00  0.00     0.003 A 
ATOM      7  C6  UNL d   1      -2.039  -0.019   0.305  0.00  0.00    -0.001 A 
ENDROOT
TORSDOF 0
ENDMDL
