MODEL 1
REMARK minimizedAffinity -5.50838852
REMARK minimizedRMSD -1
REMARK  0 active torsions:
REMARK  status: ('A' for Active; 'I' for Inactive)
ROOT
ATOM      1  C   UNL d   1      -0.015   0.723  -1.137  0.00  0.00     0.078 C 
ATOM      2  C1  UNL d   1      -0.086   0.284   0.295  0.00  0.00    -0.077 A 
ATOM      3  C2  UNL d   1      -1.124  -0.539   0.747  0.00  0.00    -0.001 A 
ATOM      4  C3  UNL d   1      -1.182  -0.932   2.085  0.00  0.00     0.003 A 
ATOM      5  C4  UNL d   1      -0.206  -0.505   2.983  0.00  0.00    -0.005 A 
ATOM      6  C5  UNL d   1       0.830   0.317   2.543  0.00  0.00     0.003 A 
ATOM      7  C6  UNL d   1       0.890   0.711   1.205  0.00  0.00    -0.001 A 
ENDROOT
TORSDOF 0
ENDMDL
