MODEL 1
REMARK minimizedAffinity -4.98805189
REMARK minimizedRMSD -1
REMARK  0 active torsions:
REMARK  status: ('A' for Active; 'I' for Inactive)
ROOT
ATOM      1  C   UNL d   1       0.373   0.248  -1.171  0.00  0.00     0.078 C 
ATOM      2  C1  UNL d   1       0.238  -0.071   0.288  0.00  0.00    -0.077 A 
ATOM      3  C2  UNL d   1      -0.979  -0.515   0.820  0.00  0.00    -0.001 A 
ATOM      4  C3  UNL d   1      -1.092  -0.799   2.182  0.00  0.00     0.003 A 
ATOM      5  C4  UNL d   1       0.007  -0.642   3.023  0.00  0.00    -0.005 A 
ATOM      6  C5  UNL d   1       1.221  -0.199   2.504  0.00  0.00     0.003 A 
ATOM      7  C6  UNL d   1       1.337   0.086   1.142  0.00  0.00    -0.001 A 
ENDROOT
TORSDOF 0
ENDMDL
