MODEL 1
REMARK minimizedAffinity -5.14683771
REMARK minimizedRMSD -1
REMARK  0 active torsions:
REMARK  status: ('A' for Active; 'I' for Inactive)
ROOT
ATOM      1  C   UNL d   1       0.055   0.579  -1.001  0.00  0.00     0.078 C 
ATOM      2  C1  UNL d   1      -0.065   0.162   0.434  0.00  0.00    -0.077 A 
ATOM      3  C2  UNL d   1      -1.286  -0.280   0.957  0.00  0.00    -0.001 A 
ATOM      4  C3  UNL d   1      -1.385  -0.656   2.298  0.00  0.00     0.003 A 
ATOM      5  C4  UNL d   1      -0.266  -0.594   3.126  0.00  0.00    -0.005 A 
ATOM      6  C5  UNL d   1       0.953  -0.153   2.615  0.00  0.00     0.003 A 
ATOM      7  C6  UNL d   1       1.054   0.223   1.275  0.00  0.00    -0.001 A 
ENDROOT
TORSDOF 0
ENDMDL
