MODEL 1
REMARK minimizedAffinity -4.2883935
REMARK minimizedRMSD -1
REMARK  0 active torsions:
REMARK  status: ('A' for Active; 'I' for Inactive)
ROOT
ATOM      1  C   UNL d   1      -0.879   0.788  -0.490  0.00  0.00     0.078 C 
ATOM      2  C1  UNL d   1       0.088   0.627   0.644  0.00  0.00    -0.077 A 
ATOM      3  C2  UNL d   1       1.470   0.622   0.418  0.00  0.00    -0.001 A 
ATOM      4  C3  UNL d   1       2.359   0.461   1.482  0.00  0.00     0.003 A 
ATOM      5  C4  UNL d   1       1.876   0.303   2.780  0.00  0.00    -0.005 A 
ATOM      6  C5  UNL d   1       0.502   0.304   3.014  0.00  0.00     0.003 A 
ATOM      7  C6  UNL d   1      -0.388   0.465   1.951  0.00  0.00    -0.001 A 
ENDROOT
TORSDOF 0
ENDMDL
