MODEL 1
REMARK minimizedAffinity -4.37197495
REMARK minimizedRMSD -1
REMARK  0 active torsions:
REMARK  status: ('A' for Active; 'I' for Inactive)
ROOT
ATOM      1  C   UNL d   1      -0.396  -0.450   3.228  0.00  0.00     0.078 C 
ATOM      2  C1  UNL d   1      -0.242   0.024   1.814  0.00  0.00    -0.077 A 
ATOM      3  C2  UNL d   1      -1.362   0.333   1.031  0.00  0.00    -0.001 A 
ATOM      4  C3  UNL d   1      -1.205   0.764  -0.287  0.00  0.00     0.003 A 
ATOM      5  C4  UNL d   1       0.071   0.889  -0.835  0.00  0.00    -0.005 A 
ATOM      6  C5  UNL d   1       1.190   0.582  -0.065  0.00  0.00     0.003 A 
ATOM      7  C6  UNL d   1       1.035   0.151   1.254  0.00  0.00    -0.001 A 
ENDROOT
TORSDOF 0
ENDMDL
