MODEL 1
REMARK minimizedAffinity -5.06422949
REMARK minimizedRMSD -1
REMARK  0 active torsions:
REMARK  status: ('A' for Active; 'I' for Inactive)
ROOT
ATOM      1  C   UNL d   1       0.849   1.013   3.062  0.00  0.00     0.078 C 
ATOM      2  C1  UNL d   1      -0.316   0.195   2.591  0.00  0.00    -0.077 A 
ATOM      3  C2  UNL d   1      -0.322  -0.381   1.315  0.00  0.00    -0.001 A 
ATOM      4  C3  UNL d   1      -1.418  -1.132   0.885  0.00  0.00     0.003 A 
ATOM      5  C4  UNL d   1      -2.515  -1.313   1.725  0.00  0.00    -0.005 A 
ATOM      6  C5  UNL d   1      -2.518  -0.741   2.996  0.00  0.00     0.003 A 
ATOM      7  C6  UNL d   1      -1.424   0.010   3.427  0.00  0.00    -0.001 A 
ENDROOT
TORSDOF 0
ENDMDL
