MODEL 1
REMARK minimizedAffinity -3.81705523
REMARK minimizedRMSD -1
REMARK  0 active torsions:
REMARK  status: ('A' for Active; 'I' for Inactive)
ROOT
ATOM      1  C   UNL d   1       0.218  -4.837  -0.918  0.00  0.00     0.078 C 
ATOM      2  C1  UNL d   1       0.513  -3.553  -1.634  0.00  0.00    -0.077 A 
ATOM      3  C2  UNL d   1       1.823  -3.068  -1.735  0.00  0.00    -0.001 A 
ATOM      4  C3  UNL d   1       2.082  -1.867  -2.396  0.00  0.00     0.003 A 
ATOM      5  C4  UNL d   1       1.036  -1.139  -2.960  0.00  0.00    -0.005 A 
ATOM      6  C5  UNL d   1      -0.271  -1.613  -2.863  0.00  0.00     0.003 A 
ATOM      7  C6  UNL d   1      -0.532  -2.814  -2.203  0.00  0.00    -0.001 A 
ENDROOT
TORSDOF 0
ENDMDL
