MODEL 1
REMARK minimizedAffinity -5.70118952
REMARK minimizedRMSD -1
REMARK  0 active torsions:
REMARK  status: ('A' for Active; 'I' for Inactive)
ROOT
ATOM      1  C   UNL d   1      -1.772   0.635  -0.932  0.00  0.00     0.078 C 
ATOM      2  C1  UNL d   1      -0.993   0.450   0.336  0.00  0.00    -0.077 A 
ATOM      3  C2  UNL d   1       0.401   0.574   0.350  0.00  0.00    -0.001 A 
ATOM      4  C3  UNL d   1       1.115   0.390   1.536  0.00  0.00     0.003 A 
ATOM      5  C4  UNL d   1       0.442   0.079   2.716  0.00  0.00    -0.005 A 
ATOM      6  C5  UNL d   1      -0.946  -0.049   2.711  0.00  0.00     0.003 A 
ATOM      7  C6  UNL d   1      -1.661   0.135   1.527  0.00  0.00    -0.001 A 
ENDROOT
TORSDOF 0
ENDMDL
