MODEL 1
REMARK minimizedAffinity 1.22049713
REMARK minimizedRMSD -1
REMARK  1 active torsions:
REMARK  status: ('A' for Active; 'I' for Inactive)
REMARK    1  A    between atoms: C1_2  and  C2_3 
ROOT
ATOM      1  C2  UNL d   1      -3.702   2.633  -5.935  0.00  0.00    -0.081 A 
ATOM      2  C3  UNL d   1      -2.605   1.766  -5.871  0.00  0.00     0.006 A 
ATOM      3  C4  UNL d   1      -2.794   0.382  -5.876  0.00  0.00     0.002 A 
ATOM      4  C5  UNL d   1      -4.082  -0.158  -5.954  0.00  0.00    -0.080 A 
ATOM      5  C6  UNL d   1      -4.297  -1.642  -5.991  0.00  0.00     0.076 C 
ATOM      6  C7  UNL d   1      -5.180   0.708  -6.000  0.00  0.00     0.002 A 
ATOM      7  C8  UNL d   1      -4.991   2.092  -5.994  0.00  0.00     0.006 A 
ENDROOT
BRANCH   1   8
ATOM      8  C1  UNL d   1      -3.498   4.125  -5.995  0.00  0.00     0.054 C 
ATOM      9  C   UNL d   1      -2.277   4.549  -5.191  0.00  0.00     0.018 C 
ENDBRANCH   1   8
TORSDOF 1
ENDMDL
