MODEL 1
REMARK minimizedAffinity -0.986478448
REMARK minimizedRMSD -1
REMARK  1 active torsions:
REMARK  status: ('A' for Active; 'I' for Inactive)
REMARK    1  A    between atoms: C1_2  and  C2_3 
ROOT
ATOM      1  C2  UNL d   1      -3.135   2.242  -5.903  0.00  0.00    -0.081 A 
ATOM      2  C3  UNL d   1      -4.434   1.718  -5.904  0.00  0.00     0.006 A 
ATOM      3  C4  UNL d   1      -4.641   0.337  -5.948  0.00  0.00     0.002 A 
ATOM      4  C5  UNL d   1      -3.553  -0.542  -5.983  0.00  0.00    -0.080 A 
ATOM      5  C6  UNL d   1      -3.761  -2.028  -6.000  0.00  0.00     0.076 C 
ATOM      6  C7  UNL d   1      -2.256  -0.019  -5.999  0.00  0.00     0.002 A 
ATOM      7  C8  UNL d   1      -2.049   1.362  -5.956  0.00  0.00     0.006 A 
ENDROOT
BRANCH   1   8
ATOM      8  C1  UNL d   1      -2.908   3.728  -5.790  0.00  0.00     0.054 C 
ATOM      9  C   UNL d   1      -4.201   4.503  -6.000  0.00  0.00     0.018 C 
ENDBRANCH   1   8
TORSDOF 1
ENDMDL
