MODEL 1
REMARK minimizedAffinity 12.4856901
REMARK minimizedRMSD -1
REMARK  1 active torsions:
REMARK  status: ('A' for Active; 'I' for Inactive)
REMARK    1  A    between atoms: C1_2  and  C2_3 
ROOT
ATOM      1  C2  UNL d   1      -1.977  -3.795  -3.857  0.00  0.00    -0.081 A 
ATOM      2  C3  UNL d   1      -2.978  -2.850  -3.597  0.00  0.00     0.006 A 
ATOM      3  C4  UNL d   1      -4.187  -2.890  -4.296  0.00  0.00     0.002 A 
ATOM      4  C5  UNL d   1      -4.419  -3.878  -5.259  0.00  0.00    -0.080 A 
ATOM      5  C6  UNL d   1      -5.724  -3.951  -5.994  0.00  0.00     0.076 C 
ATOM      6  C7  UNL d   1      -3.412  -4.811  -5.530  0.00  0.00     0.002 A 
ATOM      7  C8  UNL d   1      -2.203  -4.771  -4.833  0.00  0.00     0.006 A 
ENDROOT
BRANCH   1   8
ATOM      8  C1  UNL d   1      -0.698  -3.794  -3.060  0.00  0.00     0.054 C 
ATOM      9  C   UNL d   1       0.521  -3.747  -3.970  0.00  0.00     0.018 C 
ENDBRANCH   1   8
TORSDOF 1
ENDMDL
