MODEL 1
REMARK minimizedAffinity -0.854825258
REMARK minimizedRMSD -1
REMARK  1 active torsions:
REMARK  status: ('A' for Active; 'I' for Inactive)
REMARK    1  A    between atoms: C1_2  and  C2_3 
ROOT
ATOM      1  C2  UNL d   1      -3.399   1.704  -5.963  0.00  0.00    -0.081 A 
ATOM      2  C3  UNL d   1      -2.811   2.975  -5.971  0.00  0.00     0.006 A 
ATOM      3  C4  UNL d   1      -3.606   4.123  -5.988  0.00  0.00     0.002 A 
ATOM      4  C5  UNL d   1      -5.002   4.021  -5.990  0.00  0.00    -0.080 A 
ATOM      5  C6  UNL d   1      -5.867   5.246  -5.977  0.00  0.00     0.076 C 
ATOM      6  C7  UNL d   1      -5.589   2.751  -6.000  0.00  0.00     0.002 A 
ATOM      7  C8  UNL d   1      -4.795   1.603  -5.983  0.00  0.00     0.006 A 
ENDROOT
BRANCH   1   8
ATOM      8  C1  UNL d   1      -2.545   0.465  -5.879  0.00  0.00     0.054 C 
ATOM      9  C   UNL d   1      -3.388  -0.797  -5.999  0.00  0.00     0.018 C 
ENDBRANCH   1   8
TORSDOF 1
ENDMDL
