MODEL 1
REMARK minimizedAffinity 1.70195746
REMARK minimizedRMSD -1
REMARK  1 active torsions:
REMARK  status: ('A' for Active; 'I' for Inactive)
REMARK    1  A    between atoms: C1_2  and  C2_3 
ROOT
ATOM      1  C2  UNL d   1       3.256  -0.935  -1.126  0.00  0.00    -0.081 A 
ATOM      2  C3  UNL d   1       2.027  -1.504  -0.771  0.00  0.00     0.006 A 
ATOM      3  C4  UNL d   1       0.960  -0.695  -0.375  0.00  0.00     0.002 A 
ATOM      4  C5  UNL d   1       1.101   0.696  -0.336  0.00  0.00    -0.080 A 
ATOM      5  C6  UNL d   1      -0.047   1.579   0.058  0.00  0.00     0.076 C 
ATOM      6  C7  UNL d   1       2.334   1.264  -0.673  0.00  0.00     0.002 A 
ATOM      7  C8  UNL d   1       3.402   0.455  -1.068  0.00  0.00     0.006 A 
ENDROOT
BRANCH   1   8
ATOM      8  C1  UNL d   1       4.389  -1.801  -1.615  0.00  0.00     0.054 C 
ATOM      9  C   UNL d   1       3.870  -3.040  -2.330  0.00  0.00     0.018 C 
ENDBRANCH   1   8
TORSDOF 1
ENDMDL
