MODEL 1
REMARK minimizedAffinity 3.29392958
REMARK minimizedRMSD -1
REMARK  1 active torsions:
REMARK  status: ('A' for Active; 'I' for Inactive)
REMARK    1  A    between atoms: C1_2  and  C2_3 
ROOT
ATOM      1  C2  UNL d   1      -3.578   0.369  -5.906  0.00  0.00    -0.081 A 
ATOM      2  C3  UNL d   1      -4.688   1.221  -5.854  0.00  0.00     0.006 A 
ATOM      3  C4  UNL d   1      -4.518   2.607  -5.872  0.00  0.00     0.002 A 
ATOM      4  C5  UNL d   1      -3.237   3.165  -5.949  0.00  0.00    -0.080 A 
ATOM      5  C6  UNL d   1      -3.043   4.651  -6.000  0.00  0.00     0.076 C 
ATOM      6  C7  UNL d   1      -2.127   2.314  -5.983  0.00  0.00     0.002 A 
ATOM      7  C8  UNL d   1      -2.296   0.928  -5.965  0.00  0.00     0.006 A 
ENDROOT
BRANCH   1   8
ATOM      8  C1  UNL d   1      -3.761  -1.127  -5.953  0.00  0.00     0.054 C 
ATOM      9  C   UNL d   1      -4.391  -1.647  -4.669  0.00  0.00     0.018 C 
ENDBRANCH   1   8
TORSDOF 1
ENDMDL
