MODEL 1
REMARK minimizedAffinity -3.0965786
REMARK minimizedRMSD -1
REMARK  1 active torsions:
REMARK  status: ('A' for Active; 'I' for Inactive)
REMARK    1  A    between atoms: C1_2  and  C2_3 
ROOT
ATOM      1  C2  UNL d   1      -3.058   2.828  -5.887  0.00  0.00    -0.081 A 
ATOM      2  C3  UNL d   1      -4.447   2.998  -5.941  0.00  0.00     0.006 A 
ATOM      3  C4  UNL d   1      -5.295   1.889  -5.981  0.00  0.00     0.002 A 
ATOM      4  C5  UNL d   1      -4.770   0.592  -5.959  0.00  0.00    -0.080 A 
ATOM      5  C6  UNL d   1      -5.671  -0.607  -5.970  0.00  0.00     0.076 C 
ATOM      6  C7  UNL d   1      -3.382   0.422  -5.922  0.00  0.00     0.002 A 
ATOM      7  C8  UNL d   1      -2.533   1.531  -5.883  0.00  0.00     0.006 A 
ENDROOT
BRANCH   1   8
ATOM      8  C1  UNL d   1      -2.143   4.021  -5.778  0.00  0.00     0.054 C 
ATOM      9  C   UNL d   1      -2.902   5.322  -6.000  0.00  0.00     0.018 C 
ENDBRANCH   1   8
TORSDOF 1
ENDMDL
