MODEL 1
REMARK minimizedAffinity -3.37681508
REMARK minimizedRMSD -1
REMARK  1 active torsions:
REMARK  status: ('A' for Active; 'I' for Inactive)
REMARK    1  A    between atoms: C1_2  and  C2_3 
ROOT
ATOM      1  C2  UNL d   1      -4.683   2.250  -5.726  0.00  0.00    -0.081 A 
ATOM      2  C3  UNL d   1      -5.890   1.545  -5.632  0.00  0.00     0.006 A 
ATOM      3  C4  UNL d   1      -5.904   0.151  -5.717  0.00  0.00     0.002 A 
ATOM      4  C5  UNL d   1      -4.713  -0.562  -5.888  0.00  0.00    -0.080 A 
ATOM      5  C6  UNL d   1      -4.711  -2.061  -5.950  0.00  0.00     0.076 C 
ATOM      6  C7  UNL d   1      -3.509   0.143  -6.000  0.00  0.00     0.002 A 
ATOM      7  C8  UNL d   1      -3.494   1.537  -5.916  0.00  0.00     0.006 A 
ENDROOT
BRANCH   1   8
ATOM      8  C1  UNL d   1      -4.657   3.749  -5.571  0.00  0.00     0.054 C 
ATOM      9  C   UNL d   1      -6.000   4.366  -5.934  0.00  0.00     0.018 C 
ENDBRANCH   1   8
TORSDOF 1
ENDMDL
