MODEL 1
REMARK minimizedAffinity -3.1183157
REMARK minimizedRMSD -1
REMARK  1 active torsions:
REMARK  status: ('A' for Active; 'I' for Inactive)
REMARK    1  A    between atoms: C1_2  and  C2_3 
ROOT
ATOM      1  C2  UNL d   1      -2.058  -4.332  -5.722  0.00  0.00    -0.081 A 
ATOM      2  C3  UNL d   1      -1.905  -2.942  -5.663  0.00  0.00     0.006 A 
ATOM      3  C4  UNL d   1      -3.017  -2.102  -5.765  0.00  0.00     0.002 A 
ATOM      4  C5  UNL d   1      -4.300  -2.639  -5.919  0.00  0.00    -0.080 A 
ATOM      5  C6  UNL d   1      -5.505  -1.750  -6.000  0.00  0.00     0.076 C 
ATOM      6  C7  UNL d   1      -4.450  -4.028  -5.996  0.00  0.00     0.002 A 
ATOM      7  C8  UNL d   1      -3.339  -4.867  -5.895  0.00  0.00     0.006 A 
ENDROOT
BRANCH   1   8
ATOM      8  C1  UNL d   1      -0.868  -5.242  -5.548  0.00  0.00     0.054 C 
ATOM      9  C   UNL d   1      -0.677  -5.628  -4.088  0.00  0.00     0.018 C 
ENDBRANCH   1   8
TORSDOF 1
ENDMDL
