MODEL 1
REMARK minimizedAffinity 0.56459552
REMARK minimizedRMSD -1
REMARK  1 active torsions:
REMARK  status: ('A' for Active; 'I' for Inactive)
REMARK    1  A    between atoms: C1_2  and  C2_3 
ROOT
ATOM      1  C2  UNL d   1      -4.804   0.461  -5.999  0.00  0.00    -0.081 A 
ATOM      2  C3  UNL d   1      -3.420   0.676  -6.000  0.00  0.00     0.006 A 
ATOM      3  C4  UNL d   1      -2.904   1.974  -5.990  0.00  0.00     0.002 A 
ATOM      4  C5  UNL d   1      -3.763   3.078  -5.971  0.00  0.00    -0.080 A 
ATOM      5  C6  UNL d   1      -3.222   4.477  -5.929  0.00  0.00     0.076 C 
ATOM      6  C7  UNL d   1      -5.145   2.865  -5.988  0.00  0.00     0.002 A 
ATOM      7  C8  UNL d   1      -5.661   1.567  -5.999  0.00  0.00     0.006 A 
ENDROOT
BRANCH   1   8
ATOM      8  C1  UNL d   1      -5.363  -0.938  -5.945  0.00  0.00     0.054 C 
ATOM      9  C   UNL d   1      -4.252  -1.978  -5.954  0.00  0.00     0.018 C 
ENDBRANCH   1   8
TORSDOF 1
ENDMDL
