MODEL 1
REMARK minimizedAffinity 0.937269807
REMARK minimizedRMSD -1
REMARK  1 active torsions:
REMARK  status: ('A' for Active; 'I' for Inactive)
REMARK    1  A    between atoms: C1_2  and  C2_3 
ROOT
ATOM      1  C2  UNL d   1      -3.530   1.857  -5.912  0.00  0.00    -0.081 A 
ATOM      2  C3  UNL d   1      -4.878   1.479  -5.927  0.00  0.00     0.006 A 
ATOM      3  C4  UNL d   1      -5.234   0.129  -5.968  0.00  0.00     0.002 A 
ATOM      4  C5  UNL d   1      -4.249  -0.865  -5.986  0.00  0.00    -0.080 A 
ATOM      5  C6  UNL d   1      -4.617  -2.319  -5.999  0.00  0.00     0.076 C 
ATOM      6  C7  UNL d   1      -2.902  -0.486  -5.988  0.00  0.00     0.002 A 
ATOM      7  C8  UNL d   1      -2.545   0.863  -5.948  0.00  0.00     0.006 A 
ENDROOT
BRANCH   1   8
ATOM      8  C1  UNL d   1      -3.143   3.310  -5.803  0.00  0.00     0.054 C 
ATOM      9  C   UNL d   1      -4.357   4.218  -5.941  0.00  0.00     0.018 C 
ENDBRANCH   1   8
TORSDOF 1
ENDMDL
