MODEL 1
REMARK minimizedAffinity 0.375524133
REMARK minimizedRMSD -1
REMARK  1 active torsions:
REMARK  status: ('A' for Active; 'I' for Inactive)
REMARK    1  A    between atoms: C1_2  and  C2_3 
ROOT
ATOM      1  C2  UNL d   1      -3.573   2.341  -5.574  0.00  0.00    -0.081 A 
ATOM      2  C3  UNL d   1      -4.949   2.448  -5.810  0.00  0.00     0.006 A 
ATOM      3  C4  UNL d   1      -5.733   1.302  -5.958  0.00  0.00     0.002 A 
ATOM      4  C5  UNL d   1      -5.156   0.031  -5.866  0.00  0.00    -0.080 A 
ATOM      5  C6  UNL d   1      -5.992  -1.208  -5.993  0.00  0.00     0.076 C 
ATOM      6  C7  UNL d   1      -3.779  -0.076  -5.647  0.00  0.00     0.002 A 
ATOM      7  C8  UNL d   1      -2.994   1.070  -5.500  0.00  0.00     0.006 A 
ENDROOT
BRANCH   1   8
ATOM      8  C1  UNL d   1      -2.736   3.575  -5.349  0.00  0.00     0.054 C 
ATOM      9  C   UNL d   1      -3.424   4.818  -5.894  0.00  0.00     0.018 C 
ENDBRANCH   1   8
TORSDOF 1
ENDMDL
