MODEL 1
REMARK minimizedAffinity 2.76863194
REMARK minimizedRMSD -1
REMARK  1 active torsions:
REMARK  status: ('A' for Active; 'I' for Inactive)
REMARK    1  A    between atoms: C1_2  and  C2_3 
ROOT
ATOM      1  C2  UNL d   1      -4.255   0.917   3.079  0.00  0.00    -0.081 A 
ATOM      2  C3  UNL d   1      -3.374   1.482   2.149  0.00  0.00     0.006 A 
ATOM      3  C4  UNL d   1      -2.640   2.626   2.474  0.00  0.00     0.002 A 
ATOM      4  C5  UNL d   1      -2.770   3.218   3.735  0.00  0.00    -0.080 A 
ATOM      5  C6  UNL d   1      -1.966   4.428   4.107  0.00  0.00     0.076 C 
ATOM      6  C7  UNL d   1      -3.664   2.663   4.657  0.00  0.00     0.002 A 
ATOM      7  C8  UNL d   1      -4.398   1.520   4.333  0.00  0.00     0.006 A 
ENDROOT
BRANCH   1   8
ATOM      8  C1  UNL d   1      -4.999  -0.354   2.755  0.00  0.00     0.054 C 
ATOM      9  C   UNL d   1      -4.814  -0.747   1.296  0.00  0.00     0.018 C 
ENDBRANCH   1   8
TORSDOF 1
ENDMDL
