MODEL 1
REMARK minimizedAffinity -3.09664869
REMARK minimizedRMSD -1
REMARK  1 active torsions:
REMARK  status: ('A' for Active; 'I' for Inactive)
REMARK    1  A    between atoms: C1_2  and  C2_3 
ROOT
ATOM      1  C2  UNL d   1      -3.323  -0.204  -5.938  0.00  0.00    -0.081 A 
ATOM      2  C3  UNL d   1      -4.646   0.253  -5.918  0.00  0.00     0.006 A 
ATOM      3  C4  UNL d   1      -4.922   1.622  -5.922  0.00  0.00     0.002 A 
ATOM      4  C5  UNL d   1      -3.881   2.556  -5.953  0.00  0.00    -0.080 A 
ATOM      5  C6  UNL d   1      -4.165   4.029  -5.988  0.00  0.00     0.076 C 
ATOM      6  C7  UNL d   1      -2.559   2.100  -5.956  0.00  0.00     0.002 A 
ATOM      7  C8  UNL d   1      -2.282   0.731  -5.952  0.00  0.00     0.006 A 
ENDROOT
BRANCH   1   8
ATOM      8  C1  UNL d   1      -3.023  -1.680  -6.000  0.00  0.00     0.054 C 
ATOM      9  C   UNL d   1      -4.302  -2.505  -5.995  0.00  0.00     0.018 C 
ENDBRANCH   1   8
TORSDOF 1
ENDMDL
