MODEL 1
REMARK minimizedAffinity 19.5336666
REMARK minimizedRMSD -1
REMARK  1 active torsions:
REMARK  status: ('A' for Active; 'I' for Inactive)
REMARK    1  A    between atoms: C1_2  and  C2_3 
ROOT
ATOM      1  C2  UNL d   1       0.972   1.482   4.362  0.00  0.00    -0.073 A 
ATOM      2  C3  UNL d   1      -0.016   0.707   3.743  0.00  0.00    -0.002 A 
ATOM      3  C4  UNL d   1       0.114   0.339   2.404  0.00  0.00     0.004 A 
ATOM      4  C5  UNL d   1       1.234   0.735   1.672  0.00  0.00    -0.004 A 
ATOM      5  C6  UNL d   1       2.237   1.499   2.276  0.00  0.00    -0.075 A 
ATOM      6  C7  UNL d   1       3.446   1.935   1.503  0.00  0.00     0.076 C 
ATOM      7  C8  UNL d   1       2.098   1.867   3.622  0.00  0.00     0.001 A 
ENDROOT
BRANCH   1   8
ATOM      8  C1  UNL d   1       0.839   1.876   5.811  0.00  0.00     0.053 C 
ATOM      9  C   UNL d   1      -0.069   3.082   5.992  0.00  0.00     0.018 C 
ENDBRANCH   1   8
TORSDOF 1
ENDMDL
