MODEL 1
REMARK minimizedAffinity 22.4831886
REMARK minimizedRMSD -1
REMARK  1 active torsions:
REMARK  status: ('A' for Active; 'I' for Inactive)
REMARK    1  A    between atoms: C1_2  and  C2_3 
ROOT
ATOM      1  C2  UNL d   1       1.949   1.667   2.006  0.00  0.00    -0.073 A 
ATOM      2  C3  UNL d   1       0.735   1.094   1.610  0.00  0.00    -0.002 A 
ATOM      3  C4  UNL d   1      -0.246   0.796   2.558  0.00  0.00     0.004 A 
ATOM      4  C5  UNL d   1      -0.026   1.074   3.907  0.00  0.00    -0.004 A 
ATOM      5  C6  UNL d   1       1.176   1.658   4.320  0.00  0.00    -0.075 A 
ATOM      6  C7  UNL d   1       1.429   1.960   5.768  0.00  0.00     0.076 C 
ATOM      7  C8  UNL d   1       2.157   1.951   3.363  0.00  0.00     0.001 A 
ENDROOT
BRANCH   1   8
ATOM      8  C1  UNL d   1       3.008   1.997   0.986  0.00  0.00     0.053 C 
ATOM      9  C   UNL d   1       3.128   0.919  -0.080  0.00  0.00     0.018 C 
ENDBRANCH   1   8
TORSDOF 1
ENDMDL
