MODEL 1
REMARK minimizedAffinity 7.75741339
REMARK minimizedRMSD -1
REMARK  1 active torsions:
REMARK  status: ('A' for Active; 'I' for Inactive)
REMARK    1  A    between atoms: C1_2  and  C2_3 
ROOT
ATOM      1  C2  UNL d   1      -3.585   4.833  -5.265  0.00  0.00    -0.073 A 
ATOM      2  C3  UNL d   1      -3.331   3.462  -5.388  0.00  0.00    -0.002 A 
ATOM      3  C4  UNL d   1      -2.266   2.879  -4.701  0.00  0.00     0.004 A 
ATOM      4  C5  UNL d   1      -1.448   3.657  -3.882  0.00  0.00    -0.004 A 
ATOM      5  C6  UNL d   1      -1.693   5.026  -3.737  0.00  0.00    -0.075 A 
ATOM      6  C7  UNL d   1      -0.822   5.877  -2.861  0.00  0.00     0.076 C 
ATOM      7  C8  UNL d   1      -2.764   5.605  -4.431  0.00  0.00     0.001 A 
ENDROOT
BRANCH   1   8
ATOM      8  C1  UNL d   1      -4.739   5.467  -5.999  0.00  0.00     0.053 C 
ATOM      9  C   UNL d   1      -5.976   4.583  -5.987  0.00  0.00     0.018 C 
ENDBRANCH   1   8
TORSDOF 1
ENDMDL
