MODEL 1
REMARK minimizedAffinity 14.4064732
REMARK minimizedRMSD -1
REMARK  1 active torsions:
REMARK  status: ('A' for Active; 'I' for Inactive)
REMARK    1  A    between atoms: C1_2  and  C2_3 
ROOT
ATOM      1  C2  UNL d   1      -1.754   0.302  -3.489  0.00  0.00    -0.073 A 
ATOM      2  C3  UNL d   1      -0.464  -0.091  -3.116  0.00  0.00    -0.002 A 
ATOM      3  C4  UNL d   1      -0.090  -1.434  -3.180  0.00  0.00     0.004 A 
ATOM      4  C5  UNL d   1      -0.998  -2.395  -3.624  0.00  0.00    -0.004 A 
ATOM      5  C6  UNL d   1      -2.288  -2.021  -4.012  0.00  0.00    -0.075 A 
ATOM      6  C7  UNL d   1      -3.277  -3.043  -4.490  0.00  0.00     0.076 C 
ATOM      7  C8  UNL d   1      -2.657  -0.670  -3.943  0.00  0.00     0.001 A 
ENDROOT
BRANCH   1   8
ATOM      8  C1  UNL d   1      -2.160   1.752  -3.428  0.00  0.00     0.053 C 
ATOM      9  C   UNL d   1      -1.849   2.486  -4.722  0.00  0.00     0.018 C 
ENDBRANCH   1   8
TORSDOF 1
ENDMDL
