MODEL 1
REMARK minimizedAffinity 15.0379553
REMARK minimizedRMSD -1
REMARK  1 active torsions:
REMARK  status: ('A' for Active; 'I' for Inactive)
REMARK    1  A    between atoms: C1_2  and  C2_3 
ROOT
ATOM      1  C2  UNL d   1      -3.162  -3.519  -3.963  0.00  0.00    -0.073 A 
ATOM      2  C3  UNL d   1      -3.720  -4.530  -3.172  0.00  0.00    -0.002 A 
ATOM      3  C4  UNL d   1      -2.945  -5.181  -2.211  0.00  0.00     0.004 A 
ATOM      4  C5  UNL d   1      -1.610  -4.824  -2.026  0.00  0.00    -0.004 A 
ATOM      5  C6  UNL d   1      -1.038  -3.808  -2.799  0.00  0.00    -0.075 A 
ATOM      6  C7  UNL d   1       0.398  -3.414  -2.615  0.00  0.00     0.076 C 
ATOM      7  C8  UNL d   1      -1.821  -3.161  -3.764  0.00  0.00     0.001 A 
ENDROOT
BRANCH   1   8
ATOM      8  C1  UNL d   1      -3.997  -2.809  -4.998  0.00  0.00     0.053 C 
ATOM      9  C   UNL d   1      -5.218  -3.620  -5.401  0.00  0.00     0.018 C 
ENDBRANCH   1   8
TORSDOF 1
ENDMDL
