MODEL 1
REMARK minimizedAffinity 26.391737
REMARK minimizedRMSD -1
REMARK  1 active torsions:
REMARK  status: ('A' for Active; 'I' for Inactive)
REMARK    1  A    between atoms: C1_2  and  C2_3 
ROOT
ATOM      1  C2  UNL d   1      -1.649   4.695  -4.137  0.00  0.00    -0.073 A 
ATOM      2  C3  UNL d   1      -2.252   4.679  -5.400  0.00  0.00    -0.002 A 
ATOM      3  C4  UNL d   1      -2.602   3.469  -5.999  0.00  0.00     0.004 A 
ATOM      4  C5  UNL d   1      -2.360   2.263  -5.341  0.00  0.00    -0.004 A 
ATOM      5  C6  UNL d   1      -1.770   2.259  -4.073  0.00  0.00    -0.075 A 
ATOM      6  C7  UNL d   1      -1.501   0.970  -3.352  0.00  0.00     0.076 C 
ATOM      7  C8  UNL d   1      -1.419   3.478  -3.478  0.00  0.00     0.001 A 
ENDROOT
BRANCH   1   8
ATOM      8  C1  UNL d   1      -1.276   6.000  -3.482  0.00  0.00     0.053 C 
ATOM      9  C   UNL d   1      -0.012   5.877  -2.647  0.00  0.00     0.018 C 
ENDBRANCH   1   8
TORSDOF 1
ENDMDL
