MODEL 1
REMARK minimizedAffinity 12.7458134
REMARK minimizedRMSD -1
REMARK  1 active torsions:
REMARK  status: ('A' for Active; 'I' for Inactive)
REMARK    1  A    between atoms: C1_2  and  C2_3 
ROOT
ATOM      1  C2  UNL d   1      -3.412  -0.380   4.685  0.00  0.00    -0.073 A 
ATOM      2  C3  UNL d   1      -2.447  -0.300   3.675  0.00  0.00    -0.002 A 
ATOM      3  C4  UNL d   1      -2.401   0.809   2.830  0.00  0.00     0.004 A 
ATOM      4  C5  UNL d   1      -3.314   1.852   2.990  0.00  0.00    -0.004 A 
ATOM      5  C6  UNL d   1      -4.278   1.796   4.001  0.00  0.00    -0.075 A 
ATOM      6  C7  UNL d   1      -5.269   2.908   4.185  0.00  0.00     0.076 C 
ATOM      7  C8  UNL d   1      -4.319   0.677   4.844  0.00  0.00     0.001 A 
ENDROOT
BRANCH   1   8
ATOM      8  C1  UNL d   1      -3.461  -1.573   5.604  0.00  0.00     0.053 C 
ATOM      9  C   UNL d   1      -4.042  -2.799   4.917  0.00  0.00     0.018 C 
ENDBRANCH   1   8
TORSDOF 1
ENDMDL
