MODEL 1
REMARK minimizedAffinity 10.2046757
REMARK minimizedRMSD -1
REMARK  1 active torsions:
REMARK  status: ('A' for Active; 'I' for Inactive)
REMARK    1  A    between atoms: C1_2  and  C2_3 
ROOT
ATOM      1  C2  UNL d   1       1.465   0.907   0.773  0.00  0.00    -0.073 A 
ATOM      2  C3  UNL d   1       2.768   1.341   0.506  0.00  0.00    -0.002 A 
ATOM      3  C4  UNL d   1       3.336   1.135  -0.752  0.00  0.00     0.004 A 
ATOM      4  C5  UNL d   1       2.605   0.501  -1.757  0.00  0.00    -0.004 A 
ATOM      5  C6  UNL d   1       1.297   0.070  -1.513  0.00  0.00    -0.075 A 
ATOM      6  C7  UNL d   1       0.499  -0.616  -2.582  0.00  0.00     0.076 C 
ATOM      7  C8  UNL d   1       0.735   0.278  -0.246  0.00  0.00     0.001 A 
ENDROOT
BRANCH   1   8
ATOM      8  C1  UNL d   1       0.845   1.133   2.128  0.00  0.00     0.053 C 
ATOM      9  C   UNL d   1      -0.588   1.628   2.024  0.00  0.00     0.018 C 
ENDBRANCH   1   8
TORSDOF 1
ENDMDL
