MODEL 1
REMARK minimizedAffinity -4.68424892
REMARK minimizedRMSD -1
REMARK  1 active torsions:
REMARK  status: ('A' for Active; 'I' for Inactive)
REMARK    1  A    between atoms: C1_2  and  C2_3 
ROOT
ATOM      1  C2  UNL d   1       0.872   0.133   0.247  0.00  0.00    -0.076 A 
ATOM      2  C3  UNL d   1       1.997  -0.471  -0.340  0.00  0.00     0.004 A 
ATOM      3  C4  UNL d   1       2.347  -1.786  -0.034  0.00  0.00    -0.003 A 
ATOM      4  C5  UNL d   1       1.577  -2.517   0.864  0.00  0.00     0.000 A 
ATOM      5  C6  UNL d   1       0.447  -1.939   1.442  0.00  0.00     0.000 A 
ATOM      6  C7  UNL d   1       0.071  -0.621   1.132  0.00  0.00    -0.073 A 
ATOM      7  C8  UNL d   1      -1.153  -0.046   1.790  0.00  0.00     0.078 C 
ENDROOT
BRANCH   1   8
ATOM      8  C1  UNL d   1       0.557   1.570  -0.102  0.00  0.00     0.053 C 
ATOM      9  C   UNL d   1       1.671   2.525   0.299  0.00  0.00     0.018 C 
ENDBRANCH   1   8
TORSDOF 1
ENDMDL
