MODEL 1
REMARK minimizedAffinity -3.13236809
REMARK minimizedRMSD -1
REMARK  1 active torsions:
REMARK  status: ('A' for Active; 'I' for Inactive)
REMARK    1  A    between atoms: C1_2  and  C2_3 
ROOT
ATOM      1  C2  UNL d   1      -0.340  -0.228   0.595  0.00  0.00    -0.076 A 
ATOM      2  C3  UNL d   1      -1.082  -1.211   1.272  0.00  0.00     0.004 A 
ATOM      3  C4  UNL d   1      -0.537  -2.467   1.534  0.00  0.00    -0.003 A 
ATOM      4  C5  UNL d   1       0.759  -2.760   1.123  0.00  0.00     0.000 A 
ATOM      5  C6  UNL d   1       1.515  -1.790   0.465  0.00  0.00     0.000 A 
ATOM      6  C7  UNL d   1       0.987  -0.514   0.208  0.00  0.00    -0.073 A 
ATOM      7  C8  UNL d   1       1.845   0.492  -0.510  0.00  0.00     0.078 C 
ENDROOT
BRANCH   1   8
ATOM      8  C1  UNL d   1      -0.993   1.107   0.315  0.00  0.00     0.053 C 
ATOM      9  C   UNL d   1      -1.903   1.066  -0.904  0.00  0.00     0.018 C 
ENDBRANCH   1   8
TORSDOF 1
ENDMDL
