MODEL 1
REMARK minimizedAffinity -2.57868361
REMARK minimizedRMSD -1
REMARK  1 active torsions:
REMARK  status: ('A' for Active; 'I' for Inactive)
REMARK    1  A    between atoms: C1_2  and  C2_3 
ROOT
ATOM      1  C2  UNL d   1      -0.527   0.495  -0.361  0.00  0.00    -0.076 A 
ATOM      2  C3  UNL d   1       0.634  -0.044  -0.943  0.00  0.00     0.004 A 
ATOM      3  C4  UNL d   1       1.309  -1.107  -0.345  0.00  0.00    -0.003 A 
ATOM      4  C5  UNL d   1       0.834  -1.648   0.844  0.00  0.00     0.000 A 
ATOM      5  C6  UNL d   1      -0.326  -1.137   1.426  0.00  0.00     0.000 A 
ATOM      6  C7  UNL d   1      -1.027  -0.077   0.828  0.00  0.00    -0.073 A 
ATOM      7  C8  UNL d   1      -2.269   0.439   1.502  0.00  0.00     0.078 C 
ENDROOT
BRANCH   1   8
ATOM      8  C1  UNL d   1      -1.201   1.665  -1.041  0.00  0.00     0.053 C 
ATOM      9  C   UNL d   1      -2.158   1.229  -2.140  0.00  0.00     0.018 C 
ENDBRANCH   1   8
TORSDOF 1
ENDMDL
