MODEL 1
REMARK minimizedAffinity -4.92605114
REMARK minimizedRMSD -1
REMARK  1 active torsions:
REMARK  status: ('A' for Active; 'I' for Inactive)
REMARK    1  A    between atoms: C1_2  and  C2_3 
ROOT
ATOM      1  C2  UNL d   1      -0.375   1.034  -0.285  0.00  0.00    -0.076 A 
ATOM      2  C3  UNL d   1       0.651   1.781   0.319  0.00  0.00     0.004 A 
ATOM      3  C4  UNL d   1       0.986   3.050  -0.150  0.00  0.00    -0.003 A 
ATOM      4  C5  UNL d   1       0.299   3.593  -1.230  0.00  0.00     0.000 A 
ATOM      5  C6  UNL d   1      -0.733   2.873  -1.831  0.00  0.00     0.000 A 
ATOM      6  C7  UNL d   1      -1.094   1.599  -1.360  0.00  0.00    -0.073 A 
ATOM      7  C8  UNL d   1      -2.211   0.864  -2.049  0.00  0.00     0.078 C 
ENDROOT
BRANCH   1   8
ATOM      8  C1  UNL d   1      -0.675  -0.349   0.250  0.00  0.00     0.053 C 
ATOM      9  C   UNL d   1       0.584  -1.167   0.489  0.00  0.00     0.018 C 
ENDBRANCH   1   8
TORSDOF 1
ENDMDL
