MODEL 1
REMARK minimizedAffinity -3.50210571
REMARK minimizedRMSD -1
REMARK  1 active torsions:
REMARK  status: ('A' for Active; 'I' for Inactive)
REMARK    1  A    between atoms: C1_2  and  C2_3 
ROOT
ATOM      1  C2  UNL d   1       0.278   1.810  -0.378  0.00  0.00    -0.076 A 
ATOM      2  C3  UNL d   1       0.298   3.214  -0.302  0.00  0.00     0.004 A 
ATOM      3  C4  UNL d   1       1.491   3.904  -0.097  0.00  0.00    -0.003 A 
ATOM      4  C5  UNL d   1       2.685   3.203   0.033  0.00  0.00     0.000 A 
ATOM      5  C6  UNL d   1       2.686   1.811  -0.058  0.00  0.00     0.000 A 
ATOM      6  C7  UNL d   1       1.494   1.100  -0.280  0.00  0.00    -0.073 A 
ATOM      7  C8  UNL d   1       1.553  -0.400  -0.363  0.00  0.00     0.078 C 
ENDROOT
BRANCH   1   8
ATOM      8  C1  UNL d   1      -1.050   1.114  -0.573  0.00  0.00     0.053 C 
ATOM      9  C   UNL d   1      -1.738   1.524  -1.866  0.00  0.00     0.018 C 
ENDBRANCH   1   8
TORSDOF 1
ENDMDL
