MODEL 1
REMARK minimizedAffinity -2.67417192
REMARK minimizedRMSD -1
REMARK  1 active torsions:
REMARK  status: ('A' for Active; 'I' for Inactive)
REMARK    1  A    between atoms: C1_2  and  C2_3 
ROOT
ATOM      1  C2  UNL d   1      -0.036  -0.296   0.325  0.00  0.00    -0.076 A 
ATOM      2  C3  UNL d   1       1.206  -0.432  -0.320  0.00  0.00     0.004 A 
ATOM      3  C4  UNL d   1       1.988  -1.571  -0.137  0.00  0.00    -0.003 A 
ATOM      4  C5  UNL d   1       1.541  -2.593   0.693  0.00  0.00     0.000 A 
ATOM      5  C6  UNL d   1       0.303  -2.483   1.326  0.00  0.00     0.000 A 
ATOM      6  C7  UNL d   1      -0.505  -1.348   1.140  0.00  0.00    -0.073 A 
ATOM      7  C8  UNL d   1      -1.828  -1.279   1.853  0.00  0.00     0.078 C 
ENDROOT
BRANCH   1   8
ATOM      8  C1  UNL d   1      -0.827   0.975   0.111  0.00  0.00     0.053 C 
ATOM      9  C   UNL d   1      -1.564   0.984  -1.220  0.00  0.00     0.018 C 
ENDBRANCH   1   8
TORSDOF 1
ENDMDL
