MODEL 1
REMARK minimizedAffinity -2.15783739
REMARK minimizedRMSD -1
REMARK  1 active torsions:
REMARK  status: ('A' for Active; 'I' for Inactive)
REMARK    1  A    between atoms: C1_2  and  C2_3 
ROOT
ATOM      1  C2  UNL d   1       0.780  -0.492  -0.057  0.00  0.00    -0.076 A 
ATOM      2  C3  UNL d   1      -0.165   0.546  -0.134  0.00  0.00     0.004 A 
ATOM      3  C4  UNL d   1      -1.426   0.413   0.444  0.00  0.00    -0.003 A 
ATOM      4  C5  UNL d   1      -1.763  -0.760   1.110  0.00  0.00     0.000 A 
ATOM      5  C6  UNL d   1      -0.832  -1.793   1.212  0.00  0.00     0.000 A 
ATOM      6  C7  UNL d   1       0.450  -1.669   0.648  0.00  0.00    -0.073 A 
ATOM      7  C8  UNL d   1       1.412  -2.817   0.782  0.00  0.00     0.078 C 
ENDROOT
BRANCH   1   8
ATOM      8  C1  UNL d   1       2.121  -0.301  -0.727  0.00  0.00     0.053 C 
ATOM      9  C   UNL d   1       2.724   1.067  -0.446  0.00  0.00     0.018 C 
ENDBRANCH   1   8
TORSDOF 1
ENDMDL
