MODEL 1
REMARK minimizedAffinity -3.19441772
REMARK minimizedRMSD -1
REMARK  1 active torsions:
REMARK  status: ('A' for Active; 'I' for Inactive)
REMARK    1  A    between atoms: C1_2  and  C2_3 
ROOT
ATOM      1  C2  UNL d   1       0.381  -0.321   0.355  0.00  0.00    -0.076 A 
ATOM      2  C3  UNL d   1       1.780  -0.237   0.244  0.00  0.00     0.004 A 
ATOM      3  C4  UNL d   1       2.593  -1.319   0.578  0.00  0.00    -0.003 A 
ATOM      4  C5  UNL d   1       2.019  -2.503   1.029  0.00  0.00     0.000 A 
ATOM      5  C6  UNL d   1       0.632  -2.610   1.128  0.00  0.00     0.000 A 
ATOM      6  C7  UNL d   1      -0.202  -1.534   0.779  0.00  0.00    -0.073 A 
ATOM      7  C8  UNL d   1      -1.691  -1.703   0.912  0.00  0.00     0.078 C 
ENDROOT
BRANCH   1   8
ATOM      8  C1  UNL d   1      -0.448   0.894   0.003  0.00  0.00     0.053 C 
ATOM      9  C   UNL d   1      -0.950   0.861  -1.432  0.00  0.00     0.018 C 
ENDBRANCH   1   8
TORSDOF 1
ENDMDL
