MODEL 1
REMARK minimizedAffinity -1.10425782
REMARK minimizedRMSD -1
REMARK  1 active torsions:
REMARK  status: ('A' for Active; 'I' for Inactive)
REMARK    1  A    between atoms: C1_2  and  C2_3 
ROOT
ATOM      1  C2  UNL d   1       1.448   0.746   0.296  0.00  0.00    -0.076 A 
ATOM      2  C3  UNL d   1       2.362  -0.099   0.948  0.00  0.00     0.004 A 
ATOM      3  C4  UNL d   1       1.942  -1.285   1.548  0.00  0.00    -0.003 A 
ATOM      4  C5  UNL d   1       0.599  -1.646   1.504  0.00  0.00     0.000 A 
ATOM      5  C6  UNL d   1      -0.319  -0.828   0.847  0.00  0.00     0.000 A 
ATOM      6  C7  UNL d   1       0.091   0.363   0.223  0.00  0.00    -0.073 A 
ATOM      7  C8  UNL d   1      -0.943   1.210  -0.467  0.00  0.00     0.078 C 
ENDROOT
BRANCH   1   8
ATOM      8  C1  UNL d   1       1.958   2.033  -0.312  0.00  0.00     0.053 C 
ATOM      9  C   UNL d   1       2.062   3.158   0.707  0.00  0.00     0.018 C 
ENDBRANCH   1   8
TORSDOF 1
ENDMDL
