MODEL 1
REMARK minimizedAffinity -0.8631832
REMARK minimizedRMSD -1
REMARK  1 active torsions:
REMARK  status: ('A' for Active; 'I' for Inactive)
REMARK    1  A    between atoms: C1_2  and  C2_3 
ROOT
ATOM      1  C2  UNL d   1       0.663  -0.070   0.451  0.00  0.00    -0.076 A 
ATOM      2  C3  UNL d   1      -0.479   0.750   0.441  0.00  0.00     0.004 A 
ATOM      3  C4  UNL d   1      -1.614   0.407   1.173  0.00  0.00    -0.003 A 
ATOM      4  C5  UNL d   1      -1.626  -0.761   1.928  0.00  0.00     0.000 A 
ATOM      5  C6  UNL d   1      -0.496  -1.577   1.963  0.00  0.00     0.000 A 
ATOM      6  C7  UNL d   1       0.663  -1.238   1.243  0.00  0.00    -0.073 A 
ATOM      7  C8  UNL d   1       1.851  -2.157   1.313  0.00  0.00     0.078 C 
ENDROOT
BRANCH   1   8
ATOM      8  C1  UNL d   1       1.855   0.339  -0.384  0.00  0.00     0.053 C 
ATOM      9  C   UNL d   1       2.244   1.794  -0.172  0.00  0.00     0.018 C 
ENDBRANCH   1   8
TORSDOF 1
ENDMDL
