MODEL 1
REMARK minimizedAffinity -2.39225435
REMARK minimizedRMSD -1
REMARK  1 active torsions:
REMARK  status: ('A' for Active; 'I' for Inactive)
REMARK    1  A    between atoms: C1_2  and  C2_3 
ROOT
ATOM      1  C2  UNL d   1       0.607   2.783  -0.505  0.00  0.00    -0.076 A 
ATOM      2  C3  UNL d   1       0.416   3.762  -1.495  0.00  0.00     0.004 A 
ATOM      3  C4  UNL d   1      -0.497   3.567  -2.530  0.00  0.00    -0.003 A 
ATOM      4  C5  UNL d   1      -1.235   2.390  -2.591  0.00  0.00     0.000 A 
ATOM      5  C6  UNL d   1      -1.071   1.416  -1.607  0.00  0.00     0.000 A 
ATOM      6  C7  UNL d   1      -0.167   1.603  -0.548  0.00  0.00    -0.073 A 
ATOM      7  C8  UNL d   1      -0.026   0.517   0.482  0.00  0.00     0.078 C 
ENDROOT
BRANCH   1   8
ATOM      8  C1  UNL d   1       1.631   3.038   0.578  0.00  0.00     0.053 C 
ATOM      9  C   UNL d   1       2.989   3.430   0.015  0.00  0.00     0.018 C 
ENDBRANCH   1   8
TORSDOF 1
ENDMDL
