MODEL 1
REMARK minimizedAffinity -3.83381867
REMARK minimizedRMSD -1
REMARK  1 active torsions:
REMARK  status: ('A' for Active; 'I' for Inactive)
REMARK    1  A    between atoms: C1_2  and  C2_3 
ROOT
ATOM      1  C2  UNL d   1       1.080   0.829  -0.201  0.00  0.00    -0.076 A 
ATOM      2  C3  UNL d   1       2.157   0.011   0.181  0.00  0.00     0.004 A 
ATOM      3  C4  UNL d   1       1.979  -1.354   0.403  0.00  0.00    -0.003 A 
ATOM      4  C5  UNL d   1       0.720  -1.923   0.245  0.00  0.00     0.000 A 
ATOM      5  C6  UNL d   1      -0.356  -1.130  -0.150  0.00  0.00     0.000 A 
ATOM      6  C7  UNL d   1      -0.190   0.244  -0.394  0.00  0.00    -0.073 A 
ATOM      7  C8  UNL d   1      -1.388   1.053  -0.812  0.00  0.00     0.078 C 
ENDROOT
BRANCH   1   8
ATOM      8  C1  UNL d   1       1.328   2.307  -0.401  0.00  0.00     0.053 C 
ATOM      9  C   UNL d   1       2.758   2.707  -0.073  0.00  0.00     0.018 C 
ENDBRANCH   1   8
TORSDOF 1
ENDMDL
