MODEL 1
REMARK minimizedAffinity -0.997510493
REMARK minimizedRMSD -1
REMARK  1 active torsions:
REMARK  status: ('A' for Active; 'I' for Inactive)
REMARK    1  A    between atoms: C1_2  and  C2_3 
ROOT
ATOM      1  C2  UNL d   1       0.152  -1.573   0.765  0.00  0.00    -0.076 A 
ATOM      2  C3  UNL d   1       0.954  -0.655   0.065  0.00  0.00     0.004 A 
ATOM      3  C4  UNL d   1       0.637   0.702   0.040  0.00  0.00    -0.003 A 
ATOM      4  C5  UNL d   1      -0.487   1.163   0.717  0.00  0.00     0.000 A 
ATOM      5  C6  UNL d   1      -1.284   0.269   1.431  0.00  0.00     0.000 A 
ATOM      6  C7  UNL d   1      -0.969  -1.100   1.480  0.00  0.00    -0.073 A 
ATOM      7  C8  UNL d   1      -1.866  -2.020   2.261  0.00  0.00     0.078 C 
ENDROOT
BRANCH   1   8
ATOM      8  C1  UNL d   1       0.531  -3.037   0.734  0.00  0.00     0.053 C 
ATOM      9  C   UNL d   1       1.573  -3.392   1.782  0.00  0.00     0.018 C 
ENDBRANCH   1   8
TORSDOF 1
ENDMDL
