MODEL 1
REMARK minimizedAffinity -4.86906052
REMARK minimizedRMSD -1
REMARK  1 active torsions:
REMARK  status: ('A' for Active; 'I' for Inactive)
REMARK    1  A    between atoms: C1_2  and  C2_3 
ROOT
ATOM      1  C2  UNL d   1       0.337   2.361   0.229  0.00  0.00    -0.076 A 
ATOM      2  C3  UNL d   1      -0.606   1.323   0.320  0.00  0.00     0.004 A 
ATOM      3  C4  UNL d   1      -0.214  -0.012   0.229  0.00  0.00    -0.003 A 
ATOM      4  C5  UNL d   1       1.127  -0.329   0.046  0.00  0.00     0.000 A 
ATOM      5  C6  UNL d   1       2.078   0.688  -0.029  0.00  0.00     0.000 A 
ATOM      6  C7  UNL d   1       1.702   2.038   0.078  0.00  0.00    -0.073 A 
ATOM      7  C8  UNL d   1       2.769   3.094  -0.016  0.00  0.00     0.078 C 
ENDROOT
BRANCH   1   8
ATOM      8  C1  UNL d   1      -0.151   3.790   0.308  0.00  0.00     0.053 C 
ATOM      9  C   UNL d   1      -0.917   4.214  -0.936  0.00  0.00     0.018 C 
ENDBRANCH   1   8
TORSDOF 1
ENDMDL
