MODEL 1
REMARK minimizedAffinity -0.840621173
REMARK minimizedRMSD -1
REMARK  1 active torsions:
REMARK  status: ('A' for Active; 'I' for Inactive)
REMARK    1  A    between atoms: C1_2  and  C2_3 
ROOT
ATOM      1  C2  UNL d   1       1.727   0.292   1.087  0.00  0.00    -0.073 A 
ATOM      2  C3  UNL d   1       1.108   1.185   0.204  0.00  0.00    -0.002 A 
ATOM      3  C4  UNL d   1      -0.134   0.879  -0.352  0.00  0.00     0.004 A 
ATOM      4  C5  UNL d   1      -0.773  -0.318  -0.028  0.00  0.00    -0.004 A 
ATOM      5  C6  UNL d   1      -0.176  -1.218   0.861  0.00  0.00    -0.075 A 
ATOM      6  C7  UNL d   1      -0.849  -2.511   1.218  0.00  0.00     0.076 C 
ATOM      7  C8  UNL d   1       1.073  -0.904   1.414  0.00  0.00     0.001 A 
ENDROOT
BRANCH   1   8
ATOM      8  C1  UNL d   1       3.066   0.622   1.696  0.00  0.00     0.053 C 
ATOM      9  C   UNL d   1       4.080  -0.490   1.478  0.00  0.00     0.018 C 
ENDBRANCH   1   8
TORSDOF 1
ENDMDL
