MODEL 1
REMARK minimizedAffinity -2.82840252
REMARK minimizedRMSD -1
REMARK  1 active torsions:
REMARK  status: ('A' for Active; 'I' for Inactive)
REMARK    1  A    between atoms: C1_2  and  C2_3 
ROOT
ATOM      1  C2  UNL d   1      -2.106   0.279  -1.002  0.00  0.00    -0.073 A 
ATOM      2  C3  UNL d   1      -2.405  -0.921  -1.658  0.00  0.00    -0.002 A 
ATOM      3  C4  UNL d   1      -3.115  -0.910  -2.859  0.00  0.00     0.004 A 
ATOM      4  C5  UNL d   1      -3.527   0.299  -3.420  0.00  0.00    -0.004 A 
ATOM      5  C6  UNL d   1      -3.228   1.509  -2.786  0.00  0.00    -0.075 A 
ATOM      6  C7  UNL d   1      -3.665   2.818  -3.375  0.00  0.00     0.076 C 
ATOM      7  C8  UNL d   1      -2.517   1.490  -1.579  0.00  0.00     0.001 A 
ENDROOT
BRANCH   1   8
ATOM      8  C1  UNL d   1      -1.334   0.273   0.292  0.00  0.00     0.053 C 
ATOM      9  C   UNL d   1       0.132   0.617   0.082  0.00  0.00     0.018 C 
ENDBRANCH   1   8
TORSDOF 1
ENDMDL
