MODEL 1
REMARK minimizedAffinity -1.7670331
REMARK minimizedRMSD -1
REMARK  1 active torsions:
REMARK  status: ('A' for Active; 'I' for Inactive)
REMARK    1  A    between atoms: C1_2  and  C2_3 
ROOT
ATOM      1  C2  UNL d   1      -1.087   0.624  -0.459  0.00  0.00    -0.073 A 
ATOM      2  C3  UNL d   1      -0.147   1.624  -0.187  0.00  0.00    -0.002 A 
ATOM      3  C4  UNL d   1       1.099   1.293   0.348  0.00  0.00     0.004 A 
ATOM      4  C5  UNL d   1       1.420  -0.039   0.609  0.00  0.00    -0.004 A 
ATOM      5  C6  UNL d   1       0.498  -1.054   0.333  0.00  0.00    -0.075 A 
ATOM      6  C7  UNL d   1       0.827  -2.491   0.610  0.00  0.00     0.076 C 
ATOM      7  C8  UNL d   1      -0.752  -0.714  -0.202  0.00  0.00     0.001 A 
ENDROOT
BRANCH   1   8
ATOM      8  C1  UNL d   1      -2.431   0.975  -1.042  0.00  0.00     0.053 C 
ATOM      9  C   UNL d   1      -2.539   0.578  -2.506  0.00  0.00     0.018 C 
ENDBRANCH   1   8
TORSDOF 1
ENDMDL
