MODEL 1
REMARK minimizedAffinity -4.6885047
REMARK minimizedRMSD -1
REMARK  1 active torsions:
REMARK  status: ('A' for Active; 'I' for Inactive)
REMARK    1  A    between atoms: C1_2  and  C2_3 
ROOT
ATOM      1  C2  UNL d   1      -0.235   0.671  -0.326  0.00  0.00    -0.073 A 
ATOM      2  C3  UNL d   1       0.758   1.562  -0.748  0.00  0.00    -0.002 A 
ATOM      3  C4  UNL d   1       2.078   1.400  -0.324  0.00  0.00     0.004 A 
ATOM      4  C5  UNL d   1       2.419   0.343   0.520  0.00  0.00    -0.004 A 
ATOM      5  C6  UNL d   1       1.443  -0.565   0.943  0.00  0.00    -0.075 A 
ATOM      6  C7  UNL d   1       1.793  -1.706   1.852  0.00  0.00     0.076 C 
ATOM      7  C8  UNL d   1       0.120  -0.394   0.514  0.00  0.00     0.001 A 
ENDROOT
BRANCH   1   8
ATOM      8  C1  UNL d   1      -1.660   0.838  -0.787  0.00  0.00     0.053 C 
ATOM      9  C   UNL d   1      -1.996  -0.087  -1.946  0.00  0.00     0.018 C 
ENDBRANCH   1   8
TORSDOF 1
ENDMDL
