MODEL 1
REMARK minimizedAffinity -5.00028706
REMARK minimizedRMSD -1
REMARK  1 active torsions:
REMARK  status: ('A' for Active; 'I' for Inactive)
REMARK    1  A    between atoms: N_2  and  C1_3 
ROOT
ATOM      1  C1  UNL d   1      -0.598   0.747  -0.592  0.00  0.00     0.143 A 
ATOM      2  C2  UNL d   1      -1.471   1.256   0.376  0.00  0.00    -0.057 A 
ATOM      3  C3  UNL d   1      -1.219   2.478   1.010  0.00  0.00     0.033 A 
ATOM      4  C4  UNL d   1      -0.070   3.202   0.708  0.00  0.00    -0.042 A 
ATOM      5  C5  UNL d   1       0.824   2.704  -0.233  0.00  0.00     0.033 A 
ATOM      6  C6  UNL d   1       0.564   1.486  -0.868  0.00  0.00    -0.057 A 
ENDROOT
BRANCH   1   7
ATOM      7  N   UNL d   1      -0.742  -0.508  -1.187  0.00  0.00    -0.732 N 
ATOM      8  C   UNL d   1      -0.080  -1.668  -0.630  0.00  0.00     0.284 C 
ATOM      9  H3  UNL d   1      -1.695  -0.683  -1.499  0.00  0.00     0.395 HD
ENDBRANCH   1   7
TORSDOF 1
ENDMDL
