MODEL 1
REMARK minimizedAffinity -1.97378302
REMARK minimizedRMSD -1
REMARK  1 active torsions:
REMARK  status: ('A' for Active; 'I' for Inactive)
REMARK    1  A    between atoms: N_2  and  C1_3 
ROOT
ATOM      1  C1  UNL d   1      -0.014   1.091   0.396  0.00  0.00     0.143 A 
ATOM      2  C2  UNL d   1      -1.130   0.580   1.068  0.00  0.00    -0.057 A 
ATOM      3  C3  UNL d   1      -1.144  -0.730   1.561  0.00  0.00     0.033 A 
ATOM      4  C4  UNL d   1      -0.049  -1.566   1.364  0.00  0.00    -0.042 A 
ATOM      5  C5  UNL d   1       1.061  -1.088   0.677  0.00  0.00     0.033 A 
ATOM      6  C6  UNL d   1       1.072   0.224   0.193  0.00  0.00    -0.057 A 
ENDROOT
BRANCH   1   7
ATOM      7  N   UNL d   1       0.023   2.352  -0.203  0.00  0.00    -0.732 N 
ATOM      8  C   UNL d   1       0.706   2.550  -1.463  0.00  0.00     0.284 C 
ATOM      9  H3  UNL d   1      -0.865   2.843  -0.130  0.00  0.00     0.395 HD
ENDBRANCH   1   7
TORSDOF 1
ENDMDL
