MODEL 1
REMARK minimizedAffinity -2.82811213
REMARK minimizedRMSD -1
REMARK  1 active torsions:
REMARK  status: ('A' for Active; 'I' for Inactive)
REMARK    1  A    between atoms: N_2  and  C1_3 
ROOT
ATOM      1  C1  UNL d   1      -0.121  -0.622   0.159  0.00  0.00     0.143 A 
ATOM      2  C2  UNL d   1      -1.182  -0.377   1.036  0.00  0.00    -0.057 A 
ATOM      3  C3  UNL d   1      -1.565   0.929   1.366  0.00  0.00     0.033 A 
ATOM      4  C4  UNL d   1      -0.872   2.016   0.845  0.00  0.00    -0.042 A 
ATOM      5  C5  UNL d   1       0.203   1.796  -0.009  0.00  0.00     0.033 A 
ATOM      6  C6  UNL d   1       0.576   0.490  -0.340  0.00  0.00    -0.057 A 
ENDROOT
BRANCH   1   7
ATOM      7  N   UNL d   1       0.371  -1.897  -0.131  0.00  0.00    -0.732 N 
ATOM      8  C   UNL d   1      -0.297  -2.742  -1.098  0.00  0.00     0.284 C 
ATOM      9  H3  UNL d   1       1.386  -1.918  -0.192  0.00  0.00     0.395 HD
ENDBRANCH   1   7
TORSDOF 1
ENDMDL
