MODEL 1
REMARK minimizedAffinity -0.845700383
REMARK minimizedRMSD -1
REMARK  1 active torsions:
REMARK  status: ('A' for Active; 'I' for Inactive)
REMARK    1  A    between atoms: N_2  and  C1_3 
ROOT
ATOM      1  C1  UNL d   1      -1.073   3.000   1.697  0.00  0.00     0.143 A 
ATOM      2  C2  UNL d   1      -0.264   3.660   0.766  0.00  0.00    -0.057 A 
ATOM      3  C3  UNL d   1       0.284   2.983  -0.330  0.00  0.00     0.033 A 
ATOM      4  C4  UNL d   1       0.056   1.621  -0.498  0.00  0.00    -0.042 A 
ATOM      5  C5  UNL d   1      -0.724   0.939   0.428  0.00  0.00     0.033 A 
ATOM      6  C6  UNL d   1      -1.274   1.622   1.517  0.00  0.00    -0.057 A 
ENDROOT
BRANCH   1   7
ATOM      7  N   UNL d   1      -1.565   3.595   2.861  0.00  0.00    -0.732 N 
ATOM      8  C   UNL d   1      -0.886   3.415   4.126  0.00  0.00     0.284 C 
ATOM      9  H3  UNL d   1      -1.901   4.543   2.700  0.00  0.00     0.395 HD
ENDBRANCH   1   7
TORSDOF 1
ENDMDL
