MODEL 1
REMARK minimizedAffinity -5.12839699
REMARK minimizedRMSD -1
REMARK  1 active torsions:
REMARK  status: ('A' for Active; 'I' for Inactive)
REMARK    1  A    between atoms: N_2  and  C1_3 
ROOT
ATOM      1  C1  UNL d   1       0.266   0.372   0.156  0.00  0.00     0.143 A 
ATOM      2  C2  UNL d   1      -0.897   0.925   0.703  0.00  0.00    -0.057 A 
ATOM      3  C3  UNL d   1      -1.054   2.311   0.825  0.00  0.00     0.033 A 
ATOM      4  C4  UNL d   1      -0.035   3.170   0.427  0.00  0.00    -0.042 A 
ATOM      5  C5  UNL d   1       1.140   2.642  -0.097  0.00  0.00     0.033 A 
ATOM      6  C6  UNL d   1       1.288   1.257  -0.222  0.00  0.00    -0.057 A 
ENDROOT
BRANCH   1   7
ATOM      7  N   UNL d   1       0.522  -1.000   0.098  0.00  0.00    -0.732 N 
ATOM      8  C   UNL d   1      -0.478  -1.917  -0.405  0.00  0.00     0.284 C 
ATOM      9  H3  UNL d   1       1.469  -1.206  -0.213  0.00  0.00     0.395 HD
ENDBRANCH   1   7
TORSDOF 1
ENDMDL
