MODEL 1
REMARK minimizedAffinity -4.65180492
REMARK minimizedRMSD -1
REMARK  1 active torsions:
REMARK  status: ('A' for Active; 'I' for Inactive)
REMARK    1  A    between atoms: N_2  and  C1_3 
ROOT
ATOM      1  C1  UNL d   1       0.014  -0.008   0.209  0.00  0.00     0.143 A 
ATOM      2  C2  UNL d   1      -1.203   0.466   0.710  0.00  0.00    -0.057 A 
ATOM      3  C3  UNL d   1      -1.488   1.836   0.751  0.00  0.00     0.033 A 
ATOM      4  C4  UNL d   1      -0.545   2.762   0.317  0.00  0.00    -0.042 A 
ATOM      5  C5  UNL d   1       0.681   2.316  -0.162  0.00  0.00     0.033 A 
ATOM      6  C6  UNL d   1       0.957   0.946  -0.206  0.00  0.00    -0.057 A 
ENDROOT
BRANCH   1   7
ATOM      7  N   UNL d   1       0.396  -1.351   0.233  0.00  0.00    -0.732 N 
ATOM      8  C   UNL d   1      -0.365  -2.347  -0.492  0.00  0.00     0.284 C 
ATOM      9  H3  UNL d   1       1.404  -1.470   0.168  0.00  0.00     0.395 HD
ENDBRANCH   1   7
TORSDOF 1
ENDMDL
