MODEL 1
REMARK minimizedAffinity -3.37213898
REMARK minimizedRMSD -1
REMARK  1 active torsions:
REMARK  status: ('A' for Active; 'I' for Inactive)
REMARK    1  A    between atoms: N_2  and  C1_3 
ROOT
ATOM      1  C1  UNL d   1      -0.747   1.403   0.291  0.00  0.00     0.143 A 
ATOM      2  C2  UNL d   1      -1.502   1.539   1.460  0.00  0.00    -0.057 A 
ATOM      3  C3  UNL d   1      -1.420   2.694   2.248  0.00  0.00     0.033 A 
ATOM      4  C4  UNL d   1      -0.556   3.725   1.893  0.00  0.00    -0.042 A 
ATOM      5  C5  UNL d   1       0.223   3.601   0.749  0.00  0.00     0.033 A 
ATOM      6  C6  UNL d   1       0.131   2.448  -0.037  0.00  0.00    -0.057 A 
ENDROOT
BRANCH   1   7
ATOM      7  N   UNL d   1      -0.710   0.239  -0.481  0.00  0.00    -0.732 N 
ATOM      8  C   UNL d   1       0.316  -0.757  -0.264  0.00  0.00     0.284 C 
ATOM      9  H3  UNL d   1      -1.637  -0.147  -0.645  0.00  0.00     0.395 HD
ENDBRANCH   1   7
TORSDOF 1
ENDMDL
