MODEL 1
REMARK minimizedAffinity -2.94842482
REMARK minimizedRMSD -1
REMARK  1 active torsions:
REMARK  status: ('A' for Active; 'I' for Inactive)
REMARK    1  A    between atoms: N_2  and  C1_3 
ROOT
ATOM      1  C1  UNL d   1      -0.690   1.687   1.082  0.00  0.00     0.143 A 
ATOM      2  C2  UNL d   1      -1.305   0.443   1.259  0.00  0.00    -0.057 A 
ATOM      3  C3  UNL d   1      -1.052  -0.623   0.387  0.00  0.00     0.033 A 
ATOM      4  C4  UNL d   1      -0.198  -0.454  -0.698  0.00  0.00    -0.042 A 
ATOM      5  C5  UNL d   1       0.405   0.781  -0.908  0.00  0.00     0.033 A 
ATOM      6  C6  UNL d   1       0.153   1.839  -0.030  0.00  0.00    -0.057 A 
ENDROOT
BRANCH   1   7
ATOM      7  N   UNL d   1      -0.976   2.814   1.856  0.00  0.00    -0.732 N 
ATOM      8  C   UNL d   1      -0.991   2.731   3.301  0.00  0.00     0.284 C 
ATOM      9  H3  UNL d   1      -0.538   3.657   1.493  0.00  0.00     0.395 HD
ENDBRANCH   1   7
TORSDOF 1
ENDMDL
