MODEL 1
REMARK minimizedAffinity -2.82956386
REMARK minimizedRMSD -1
REMARK  1 active torsions:
REMARK  status: ('A' for Active; 'I' for Inactive)
REMARK    1  A    between atoms: N_2  and  C1_3 
ROOT
ATOM      1  C1  UNL d   1      -0.084  -0.174   0.015  0.00  0.00     0.143 A 
ATOM      2  C2  UNL d   1      -1.325   0.200   0.542  0.00  0.00    -0.057 A 
ATOM      3  C3  UNL d   1      -1.606   1.535   0.858  0.00  0.00     0.033 A 
ATOM      4  C4  UNL d   1      -0.638   2.517   0.679  0.00  0.00    -0.042 A 
ATOM      5  C5  UNL d   1       0.611   2.164   0.181  0.00  0.00     0.033 A 
ATOM      6  C6  UNL d   1       0.884   0.831  -0.139  0.00  0.00    -0.057 A 
ENDROOT
BRANCH   1   7
ATOM      7  N   UNL d   1       0.291  -1.498  -0.226  0.00  0.00    -0.732 N 
ATOM      8  C   UNL d   1      -0.414  -2.297  -1.207  0.00  0.00     0.284 C 
ATOM      9  H3  UNL d   1       1.301  -1.620  -0.239  0.00  0.00     0.395 HD
ENDBRANCH   1   7
TORSDOF 1
ENDMDL
