MODEL 1
REMARK minimizedAffinity -3.61751223
REMARK minimizedRMSD -1
REMARK  1 active torsions:
REMARK  status: ('A' for Active; 'I' for Inactive)
REMARK    1  A    between atoms: N_2  and  C1_3 
ROOT
ATOM      1  C1  UNL d   1       0.254  -1.009   0.421  0.00  0.00     0.143 A 
ATOM      2  C2  UNL d   1       1.509  -1.153   1.023  0.00  0.00    -0.057 A 
ATOM      3  C3  UNL d   1       2.456  -0.123   0.982  0.00  0.00     0.033 A 
ATOM      4  C4  UNL d   1       2.175   1.063   0.312  0.00  0.00    -0.042 A 
ATOM      5  C5  UNL d   1       0.944   1.218  -0.315  0.00  0.00     0.033 A 
ATOM      6  C6  UNL d   1      -0.000   0.189  -0.266  0.00  0.00    -0.057 A 
ENDROOT
BRANCH   1   7
ATOM      7  N   UNL d   1      -0.693  -2.033   0.342  0.00  0.00    -0.732 N 
ATOM      8  C   UNL d   1      -0.870  -2.781  -0.885  0.00  0.00     0.284 C 
ATOM      9  H3  UNL d   1      -0.719  -2.603   1.184  0.00  0.00     0.395 HD
ENDBRANCH   1   7
TORSDOF 1
ENDMDL
