MODEL 1
REMARK minimizedAffinity 0.335126787
REMARK minimizedRMSD -1
REMARK  0 active torsions:
REMARK  status: ('A' for Active; 'I' for Inactive)
ROOT
ATOM      1  C   UNL d   1       1.039   4.366  -4.310  0.00  0.00     0.023 A 
ATOM      2  C1  UNL d   1       0.973   2.974  -4.378  0.00  0.00     0.003 A 
ATOM      3  C2  UNL d   1       0.533   2.240  -3.275  0.00  0.00     0.048 A 
ATOM      4  C3  UNL d   1       0.159   2.904  -2.107  0.00  0.00     0.023 A 
ATOM      5  C4  UNL d   1       0.222   4.297  -2.035  0.00  0.00     0.048 A 
ATOM      6  C5  UNL d   1       0.664   5.026  -3.140  0.00  0.00     0.003 A 
ATOM      7  I   UNL d   1      -0.497   1.814  -0.464  0.00  0.00    -0.146 I 
ENDROOT
TORSDOF 0
ENDMDL
