MODEL 1
REMARK minimizedAffinity 5.57033777
REMARK minimizedRMSD -1
REMARK  0 active torsions:
REMARK  status: ('A' for Active; 'I' for Inactive)
ROOT
ATOM      1  C   UNL d   1       2.786   0.419  -1.763  0.00  0.00     0.023 A 
ATOM      2  C1  UNL d   1       2.818   1.739  -1.316  0.00  0.00     0.003 A 
ATOM      3  C2  UNL d   1       2.007   2.702  -1.921  0.00  0.00     0.048 A 
ATOM      4  C3  UNL d   1       1.167   2.337  -2.972  0.00  0.00     0.023 A 
ATOM      5  C4  UNL d   1       1.131   1.017  -3.422  0.00  0.00     0.048 A 
ATOM      6  C5  UNL d   1       1.944   0.058  -2.815  0.00  0.00     0.003 A 
ATOM      7  I   UNL d   1      -0.041   3.769  -3.873  0.00  0.00    -0.146 I 
ENDROOT
TORSDOF 0
ENDMDL
