MODEL 1
REMARK minimizedAffinity 1.9831773
REMARK minimizedRMSD -1
REMARK  0 active torsions:
REMARK  status: ('A' for Active; 'I' for Inactive)
ROOT
ATOM      1  C   UNL d   1       3.052   1.348  -0.547  0.00  0.00     0.023 A 
ATOM      2  C1  UNL d   1       2.809   2.721  -0.572  0.00  0.00     0.003 A 
ATOM      3  C2  UNL d   1       2.014   3.272  -1.580  0.00  0.00     0.048 A 
ATOM      4  C3  UNL d   1       1.465   2.444  -2.558  0.00  0.00     0.023 A 
ATOM      5  C4  UNL d   1       1.705   1.069  -2.536  0.00  0.00     0.048 A 
ATOM      6  C5  UNL d   1       2.501   0.523  -1.527  0.00  0.00     0.003 A 
ATOM      7  I   UNL d   1       0.281   3.261  -4.058  0.00  0.00    -0.146 I 
ENDROOT
TORSDOF 0
ENDMDL
