MODEL 1
REMARK minimizedAffinity 5.74482012
REMARK minimizedRMSD -1
REMARK  0 active torsions:
REMARK  status: ('A' for Active; 'I' for Inactive)
ROOT
ATOM      1  C   UNL d   1       2.140  -1.347   2.867  0.00  0.00     0.023 A 
ATOM      2  C1  UNL d   1       1.956  -0.131   3.526  0.00  0.00     0.003 A 
ATOM      3  C2  UNL d   1       0.692   0.460   3.564  0.00  0.00     0.048 A 
ATOM      4  C3  UNL d   1      -0.385  -0.170   2.941  0.00  0.00     0.023 A 
ATOM      5  C4  UNL d   1      -0.206  -1.387   2.282  0.00  0.00     0.048 A 
ATOM      6  C5  UNL d   1       1.060  -1.974   2.246  0.00  0.00     0.003 A 
ATOM      7  I   UNL d   1      -2.268   0.707   2.996  0.00  0.00    -0.146 I 
ENDROOT
TORSDOF 0
ENDMDL
