MODEL 1
REMARK minimizedAffinity 3.48565149
REMARK minimizedRMSD -1
REMARK  0 active torsions:
REMARK  status: ('A' for Active; 'I' for Inactive)
ROOT
ATOM      1  C   UNL d   1       3.765  -1.083   1.373  0.00  0.00     0.023 A 
ATOM      2  C1  UNL d   1       4.241  -0.137   0.465  0.00  0.00     0.003 A 
ATOM      3  C2  UNL d   1       3.606   0.032  -0.767  0.00  0.00     0.048 A 
ATOM      4  C3  UNL d   1       2.494  -0.749  -1.085  0.00  0.00     0.023 A 
ATOM      5  C4  UNL d   1       2.014  -1.696  -0.179  0.00  0.00     0.048 A 
ATOM      6  C5  UNL d   1       2.653  -1.862   1.051  0.00  0.00     0.003 A 
ATOM      7  I   UNL d   1       1.547  -0.500  -2.918  0.00  0.00    -0.146 I 
ENDROOT
TORSDOF 0
ENDMDL
