MODEL 1
REMARK minimizedAffinity 4.55256796
REMARK minimizedRMSD -1
REMARK  0 active torsions:
REMARK  status: ('A' for Active; 'I' for Inactive)
ROOT
ATOM      1  C   UNL d   1       1.672  -0.496  -2.692  0.00  0.00     0.023 A 
ATOM      2  C1  UNL d   1       2.964  -0.162  -3.096  0.00  0.00     0.003 A 
ATOM      3  C2  UNL d   1       4.047  -0.405  -2.249  0.00  0.00     0.048 A 
ATOM      4  C3  UNL d   1       3.831  -0.984  -0.999  0.00  0.00     0.023 A 
ATOM      5  C4  UNL d   1       2.539  -1.321  -0.591  0.00  0.00     0.048 A 
ATOM      6  C5  UNL d   1       1.459  -1.075  -1.441  0.00  0.00     0.003 A 
ATOM      7  I   UNL d   1       5.441  -1.348   0.263  0.00  0.00    -0.146 I 
ENDROOT
TORSDOF 0
ENDMDL
