MODEL 1
REMARK minimizedAffinity 2.69231176
REMARK minimizedRMSD -1
REMARK  0 active torsions:
REMARK  status: ('A' for Active; 'I' for Inactive)
ROOT
ATOM      1  C   UNL d   1       2.497   0.590  -0.978  0.00  0.00     0.023 A 
ATOM      2  C1  UNL d   1       1.476   1.538  -1.054  0.00  0.00     0.003 A 
ATOM      3  C2  UNL d   1       0.143   1.140  -0.936  0.00  0.00     0.048 A 
ATOM      4  C3  UNL d   1      -0.163  -0.206  -0.742  0.00  0.00     0.023 A 
ATOM      5  C4  UNL d   1       0.855  -1.158  -0.665  0.00  0.00     0.048 A 
ATOM      6  C5  UNL d   1       2.187  -0.756  -0.784  0.00  0.00     0.003 A 
ATOM      7  I   UNL d   1      -2.147  -0.800  -0.567  0.00  0.00    -0.146 I 
ENDROOT
TORSDOF 0
ENDMDL
