MODEL 1
REMARK minimizedAffinity -1.08767343
REMARK minimizedRMSD -1
REMARK  2 active torsions:
REMARK  status: ('A' for Active; 'I' for Inactive)
REMARK    1  A    between atoms: C1_2  and  C2_3 
REMARK    2  A    between atoms: C2_3  and  C3_4 
ROOT
ATOM      1  C3  UNL d   1      -3.885   1.687  -3.983  0.00  0.00    -0.075 A 
ATOM      2  C4  UNL d   1      -3.325   2.889  -3.528  0.00  0.00     0.002 A 
ATOM      3  C5  UNL d   1      -4.093   3.794  -2.793  0.00  0.00     0.002 A 
ATOM      4  C6  UNL d   1      -5.429   3.514  -2.515  0.00  0.00    -0.004 A 
ATOM      5  C7  UNL d   1      -5.999   2.330  -2.977  0.00  0.00     0.002 A 
ATOM      6  C8  UNL d   1      -5.232   1.421  -3.708  0.00  0.00     0.002 A 
ENDROOT
BRANCH   1   7
ATOM      7  C2  UNL d   1      -3.051   0.690  -4.753  0.00  0.00     0.056 C 
BRANCH   7   8
ATOM      8  C1  UNL d   1      -2.051  -0.086  -3.889  0.00  0.00     0.007 C 
ATOM      9  C   UNL d   1      -2.568  -0.376  -2.487  0.00  0.00     0.009 C 
ENDBRANCH   7   8
ENDBRANCH   1   7
TORSDOF 2
ENDMDL
