MODEL 1
REMARK minimizedAffinity -0.699516535
REMARK minimizedRMSD -1
REMARK  2 active torsions:
REMARK  status: ('A' for Active; 'I' for Inactive)
REMARK    1  A    between atoms: C1_2  and  C2_3 
REMARK    2  A    between atoms: C2_3  and  C3_4 
ROOT
ATOM      1  C3  UNL d   1       3.328   1.847   0.700  0.00  0.00    -0.075 A 
ATOM      2  C4  UNL d   1       4.303   2.504   1.465  0.00  0.00     0.002 A 
ATOM      3  C5  UNL d   1       5.629   2.552   1.032  0.00  0.00     0.002 A 
ATOM      4  C6  UNL d   1       5.997   1.937  -0.162  0.00  0.00    -0.004 A 
ATOM      5  C7  UNL d   1       5.040   1.268  -0.921  0.00  0.00     0.002 A 
ATOM      6  C8  UNL d   1       3.712   1.222  -0.493  0.00  0.00     0.002 A 
ENDROOT
BRANCH   1   7
ATOM      7  C2  UNL d   1       1.886   1.817   1.148  0.00  0.00     0.056 C 
BRANCH   7   8
ATOM      8  C1  UNL d   1       1.706   1.623   2.658  0.00  0.00     0.007 C 
ATOM      9  C   UNL d   1       1.581   2.936   3.420  0.00  0.00     0.009 C 
ENDBRANCH   7   8
ENDBRANCH   1   7
TORSDOF 2
ENDMDL
