MODEL 1
REMARK minimizedAffinity 5.10255051
REMARK minimizedRMSD -1
REMARK  2 active torsions:
REMARK  status: ('A' for Active; 'I' for Inactive)
REMARK    1  A    between atoms: C1_2  and  C2_3 
REMARK    2  A    between atoms: C2_3  and  C3_4 
ROOT
ATOM      1  C3  UNL d   1      -4.874   1.064  -3.298  0.00  0.00    -0.075 A 
ATOM      2  C4  UNL d   1      -3.575   0.787  -3.749  0.00  0.00     0.002 A 
ATOM      3  C5  UNL d   1      -2.676   1.825  -3.999  0.00  0.00     0.002 A 
ATOM      4  C6  UNL d   1      -3.067   3.149  -3.813  0.00  0.00    -0.004 A 
ATOM      5  C7  UNL d   1      -4.360   3.436  -3.382  0.00  0.00     0.002 A 
ATOM      6  C8  UNL d   1      -5.260   2.400  -3.127  0.00  0.00     0.002 A 
ENDROOT
BRANCH   1   7
ATOM      7  C2  UNL d   1      -5.841  -0.055  -2.997  0.00  0.00     0.056 C 
BRANCH   7   8
ATOM      8  C1  UNL d   1      -5.989  -0.367  -1.504  0.00  0.00     0.007 C 
ATOM      9  C   UNL d   1      -6.000   0.879  -0.629  0.00  0.00     0.009 C 
ENDBRANCH   7   8
ENDBRANCH   1   7
TORSDOF 2
ENDMDL
