MODEL 1
REMARK minimizedAffinity 9.03653908
REMARK minimizedRMSD -1
REMARK  2 active torsions:
REMARK  status: ('A' for Active; 'I' for Inactive)
REMARK    1  A    between atoms: C1_2  and  C2_3 
REMARK    2  A    between atoms: C2_3  and  C3_4 
ROOT
ATOM      1  C3  UNL d   1      -2.959  -4.886  -3.016  0.00  0.00    -0.075 A 
ATOM      2  C4  UNL d   1      -2.508  -4.148  -4.120  0.00  0.00     0.002 A 
ATOM      3  C5  UNL d   1      -3.094  -4.319  -5.374  0.00  0.00     0.002 A 
ATOM      4  C6  UNL d   1      -4.130  -5.235  -5.544  0.00  0.00    -0.004 A 
ATOM      5  C7  UNL d   1      -4.575  -5.986  -4.458  0.00  0.00     0.002 A 
ATOM      6  C8  UNL d   1      -3.993  -5.814  -3.201  0.00  0.00     0.002 A 
ENDROOT
BRANCH   1   7
ATOM      7  C2  UNL d   1      -2.349  -4.685  -1.650  0.00  0.00     0.056 C 
BRANCH   7   8
ATOM      8  C1  UNL d   1      -1.977  -5.988  -0.935  0.00  0.00     0.007 C 
ATOM      9  C   UNL d   1      -0.724  -5.866  -0.078  0.00  0.00     0.009 C 
ENDBRANCH   7   8
ENDBRANCH   1   7
TORSDOF 2
ENDMDL
