MODEL 1
REMARK minimizedAffinity 2.89961529
REMARK minimizedRMSD -1
REMARK  2 active torsions:
REMARK  status: ('A' for Active; 'I' for Inactive)
REMARK    1  A    between atoms: C1_2  and  C2_3 
REMARK    2  A    between atoms: C2_3  and  C3_4 
ROOT
ATOM      1  C3  UNL d   1      -5.254   1.050  -2.674  0.00  0.00    -0.075 A 
ATOM      2  C4  UNL d   1      -5.943   0.607  -3.812  0.00  0.00     0.002 A 
ATOM      3  C5  UNL d   1      -5.250   0.043  -4.885  0.00  0.00     0.002 A 
ATOM      4  C6  UNL d   1      -3.863  -0.075  -4.837  0.00  0.00    -0.004 A 
ATOM      5  C7  UNL d   1      -3.167   0.376  -3.718  0.00  0.00     0.002 A 
ATOM      6  C8  UNL d   1      -3.858   0.936  -2.641  0.00  0.00     0.002 A 
ENDROOT
BRANCH   1   7
ATOM      7  C2  UNL d   1      -6.000   1.633  -1.498  0.00  0.00     0.056 C 
BRANCH   7   8
ATOM      8  C1  UNL d   1      -5.983   0.748  -0.247  0.00  0.00     0.007 C 
ATOM      9  C   UNL d   1      -5.639  -0.705  -0.544  0.00  0.00     0.009 C 
ENDBRANCH   7   8
ENDBRANCH   1   7
TORSDOF 2
ENDMDL
