MODEL 1
REMARK minimizedAffinity 6.67346525
REMARK minimizedRMSD -1
REMARK  0 active torsions:
REMARK  status: ('A' for Active; 'I' for Inactive)
ROOT
ATOM      1  C4' PXY d   1       2.988  -0.377   1.141  0.00  0.00     0.077 C 
ATOM      2  C1' PXY d   1       5.998   2.896  -2.552  0.00  0.00     0.077 C 
ATOM      3  C1  PXY d   1       5.198   2.039  -1.591  0.00  0.00    -0.082 A 
ATOM      4  C2  PXY d   1       5.551   1.981  -0.318  0.00  0.00     0.003 A 
ATOM      5  C3  PXY d   1       4.858   1.185   0.558  0.00  0.00     0.003 A 
ATOM      6  C4  PXY d   1       3.761   0.483   0.137  0.00  0.00    -0.082 A 
ATOM      7  C5  PXY d   1       3.388   0.546  -1.159  0.00  0.00     0.003 A 
ATOM      8  C6  PXY d   1       4.129   1.327  -2.040  0.00  0.00     0.003 A 
ENDROOT
TORSDOF 0
ENDMDL
