MODEL 1
REMARK minimizedAffinity 11.3969841
REMARK minimizedRMSD -1
REMARK  0 active torsions:
REMARK  status: ('A' for Active; 'I' for Inactive)
ROOT
ATOM      1  C4' PXY d   1       3.207  -0.388  -3.682  0.00  0.00     0.077 C 
ATOM      2  C1' PXY d   1       3.868   1.696   1.669  0.00  0.00     0.077 C 
ATOM      3  C1  PXY d   1       3.700   1.160   0.261  0.00  0.00    -0.082 A 
ATOM      4  C2  PXY d   1       2.802   0.218   0.022  0.00  0.00     0.003 A 
ATOM      5  C3  PXY d   1       2.659  -0.300  -1.239  0.00  0.00     0.003 A 
ATOM      6  C4  PXY d   1       3.405   0.189  -2.277  0.00  0.00    -0.082 A 
ATOM      7  C5  PXY d   1       4.316   1.158  -2.044  0.00  0.00     0.003 A 
ATOM      8  C6  PXY d   1       4.475   1.641  -0.749  0.00  0.00     0.003 A 
ENDROOT
TORSDOF 0
ENDMDL
