MODEL 1
REMARK minimizedAffinity 12.6373577
REMARK minimizedRMSD -1
REMARK  0 active torsions:
REMARK  status: ('A' for Active; 'I' for Inactive)
ROOT
ATOM      1  C4' PXY d   1      -0.351  -1.899  -1.091  0.00  0.00     0.077 C 
ATOM      2  C1' PXY d   1      -3.862  -3.170  -5.504  0.00  0.00     0.077 C 
ATOM      3  C1  PXY d   1      -2.944  -2.848  -4.341  0.00  0.00    -0.082 A 
ATOM      4  C2  PXY d   1      -2.685  -1.585  -4.042  0.00  0.00     0.003 A 
ATOM      5  C3  PXY d   1      -1.832  -1.277  -3.014  0.00  0.00     0.003 A 
ATOM      6  C4  PXY d   1      -1.279  -2.271  -2.250  0.00  0.00    -0.082 A 
ATOM      7  C5  PXY d   1      -1.547  -3.561  -2.543  0.00  0.00     0.003 A 
ATOM      8  C6  PXY d   1      -2.383  -3.854  -3.617  0.00  0.00     0.003 A 
ENDROOT
TORSDOF 0
ENDMDL
