MODEL 1
REMARK minimizedAffinity 17.3402309
REMARK minimizedRMSD -1
REMARK  0 active torsions:
REMARK  status: ('A' for Active; 'I' for Inactive)
ROOT
ATOM      1  C4' PXY d   1       2.441   1.559   4.575  0.00  0.00     0.077 C 
ATOM      2  C1' PXY d   1      -0.826   4.951   1.223  0.00  0.00     0.077 C 
ATOM      3  C1  PXY d   1       0.038   4.058   2.092  0.00  0.00    -0.082 A 
ATOM      4  C2  PXY d   1      -0.439   3.603   3.239  0.00  0.00     0.003 A 
ATOM      5  C3  PXY d   1       0.340   2.820   4.052  0.00  0.00     0.003 A 
ATOM      6  C4  PXY d   1       1.601   2.456   3.662  0.00  0.00    -0.082 A 
ATOM      7  C5  PXY d   1       2.090   2.907   2.487  0.00  0.00     0.003 A 
ATOM      8  C6  PXY d   1       1.299   3.734   1.696  0.00  0.00     0.003 A 
ENDROOT
TORSDOF 0
ENDMDL
