MODEL 1
REMARK minimizedAffinity 3.71113682
REMARK minimizedRMSD -1
REMARK  0 active torsions:
REMARK  status: ('A' for Active; 'I' for Inactive)
ROOT
ATOM      1  C4' PXY d   1       5.996   2.899  -2.362  0.00  0.00     0.077 C 
ATOM      2  C1' PXY d   1       2.291   0.145   1.116  0.00  0.00     0.077 C 
ATOM      3  C1  PXY d   1       3.261   0.858   0.195  0.00  0.00    -0.082 A 
ATOM      4  C2  PXY d   1       4.162   1.682   0.705  0.00  0.00     0.003 A 
ATOM      5  C3  PXY d   1       5.026   2.359  -0.116  0.00  0.00     0.003 A 
ATOM      6  C4  PXY d   1       5.003   2.150  -1.469  0.00  0.00    -0.082 A 
ATOM      7  C5  PXY d   1       4.093   1.303  -1.996  0.00  0.00     0.003 A 
ATOM      8  C6  PXY d   1       3.198   0.657  -1.149  0.00  0.00     0.003 A 
ENDROOT
TORSDOF 0
ENDMDL
