MODEL 1
REMARK minimizedAffinity 7.88780117
REMARK minimizedRMSD -1
REMARK  0 active torsions:
REMARK  status: ('A' for Active; 'I' for Inactive)
ROOT
ATOM      1  C4' PXY d   1       3.184  -0.013   1.077  0.00  0.00     0.077 C 
ATOM      2  C1' PXY d   1       6.000   2.893  -3.051  0.00  0.00     0.077 C 
ATOM      3  C1  PXY d   1       5.250   2.131  -1.976  0.00  0.00    -0.082 A 
ATOM      4  C2  PXY d   1       5.662   2.198  -0.720  0.00  0.00     0.003 A 
ATOM      5  C3  PXY d   1       5.015   1.489   0.260  0.00  0.00     0.003 A 
ATOM      6  C4  PXY d   1       3.904   0.748  -0.040  0.00  0.00    -0.082 A 
ATOM      7  C5  PXY d   1       3.472   0.684  -1.317  0.00  0.00     0.003 A 
ATOM      8  C6  PXY d   1       4.167   1.377  -2.304  0.00  0.00     0.003 A 
ENDROOT
TORSDOF 0
ENDMDL
