MODEL 1
REMARK minimizedAffinity 15.7757349
REMARK minimizedRMSD -1
REMARK  0 active torsions:
REMARK  status: ('A' for Active; 'I' for Inactive)
ROOT
ATOM      1  C4' PXY d   1       6.000   3.301  -2.619  0.00  0.00     0.077 C 
ATOM      2  C1' PXY d   1       3.030   0.760   1.640  0.00  0.00     0.077 C 
ATOM      3  C1  PXY d   1       3.804   1.417   0.515  0.00  0.00    -0.082 A 
ATOM      4  C2  PXY d   1       4.880   2.135   0.794  0.00  0.00     0.003 A 
ATOM      5  C3  PXY d   1       5.574   2.763  -0.209  0.00  0.00     0.003 A 
ATOM      6  C4  PXY d   1       5.193   2.611  -1.515  0.00  0.00    -0.082 A 
ATOM      7  C5  PXY d   1       4.102   1.871  -1.809  0.00  0.00     0.003 A 
ATOM      8  C6  PXY d   1       3.388   1.276  -0.773  0.00  0.00     0.003 A 
ENDROOT
TORSDOF 0
ENDMDL
