MODEL 1
REMARK minimizedAffinity 16.7676773
REMARK minimizedRMSD -1
REMARK  0 active torsions:
REMARK  status: ('A' for Active; 'I' for Inactive)
ROOT
ATOM      1  C4' PXY d   1       2.532  -0.220   0.554  0.00  0.00     0.077 C 
ATOM      2  C1' PXY d   1       5.997  -1.526   4.993  0.00  0.00     0.077 C 
ATOM      3  C1  PXY d   1       5.080  -1.179   3.837  0.00  0.00    -0.082 A 
ATOM      4  C2  PXY d   1       5.182  -1.844   2.698  0.00  0.00     0.003 A 
ATOM      5  C3  PXY d   1       4.382  -1.521   1.632  0.00  0.00     0.003 A 
ATOM      6  C4  PXY d   1       3.431  -0.543   1.751  0.00  0.00    -0.082 A 
ATOM      7  C5  PXY d   1       3.313   0.133   2.913  0.00  0.00     0.003 A 
ATOM      8  C6  PXY d   1       4.163  -0.182   3.970  0.00  0.00     0.003 A 
ENDROOT
TORSDOF 0
ENDMDL
