MODEL 1
REMARK minimizedAffinity 4.51946402
REMARK minimizedRMSD -1
REMARK  0 active torsions:
REMARK  status: ('A' for Active; 'I' for Inactive)
ROOT
ATOM      1  C4' PXY d   1       6.000   2.414  -3.004  0.00  0.00     0.077 C 
ATOM      2  C1' PXY d   1       2.611   0.037   1.031  0.00  0.00     0.077 C 
ATOM      3  C1  PXY d   1       3.503   0.670  -0.019  0.00  0.00    -0.082 A 
ATOM      4  C2  PXY d   1       3.306   0.393  -1.298  0.00  0.00     0.003 A 
ATOM      5  C3  PXY d   1       4.123   0.932  -2.258  0.00  0.00     0.003 A 
ATOM      6  C4  PXY d   1       5.118   1.805  -1.910  0.00  0.00    -0.082 A 
ATOM      7  C5  PXY d   1       5.319   2.101  -0.608  0.00  0.00     0.003 A 
ATOM      8  C6  PXY d   1       4.505   1.512   0.354  0.00  0.00     0.003 A 
ENDROOT
TORSDOF 0
ENDMDL
