MODEL 1
REMARK minimizedAffinity 11.4541836
REMARK minimizedRMSD -1
REMARK  0 active torsions:
REMARK  status: ('A' for Active; 'I' for Inactive)
ROOT
ATOM      1  C4' PXY d   1       2.404   0.029  -0.633  0.00  0.00     0.077 C 
ATOM      2  C1' PXY d   1       0.424   4.933   1.700  0.00  0.00     0.077 C 
ATOM      3  C1  PXY d   1       0.955   3.650   1.093  0.00  0.00    -0.082 A 
ATOM      4  C2  PXY d   1       0.307   3.085   0.087  0.00  0.00     0.003 A 
ATOM      5  C3  PXY d   1       0.756   1.907  -0.453  0.00  0.00     0.003 A 
ATOM      6  C4  PXY d   1       1.909   1.330   0.005  0.00  0.00    -0.082 A 
ATOM      7  C5  PXY d   1       2.582   1.906   1.024  0.00  0.00     0.003 A 
ATOM      8  C6  PXY d   1       2.088   3.079   1.586  0.00  0.00     0.003 A 
ENDROOT
TORSDOF 0
ENDMDL
