MODEL 1
REMARK minimizedAffinity 14.7711878
REMARK minimizedRMSD -1
REMARK  0 active torsions:
REMARK  status: ('A' for Active; 'I' for Inactive)
ROOT
ATOM      1  C4' PXY d   1      -6.000  -1.173   0.208  0.00  0.00     0.077 C 
ATOM      2  C1' PXY d   1      -1.050   1.701  -0.601  0.00  0.00     0.077 C 
ATOM      3  C1  PXY d   1      -2.353   0.958  -0.382  0.00  0.00    -0.082 A 
ATOM      4  C2  PXY d   1      -2.358  -0.365  -0.375  0.00  0.00     0.003 A 
ATOM      5  C3  PXY d   1      -3.533  -1.054  -0.211  0.00  0.00     0.003 A 
ATOM      6  C4  PXY d   1      -4.706  -0.381   0.001  0.00  0.00    -0.082 A 
ATOM      7  C5  PXY d   1      -4.708   0.969   0.005  0.00  0.00     0.003 A 
ATOM      8  C6  PXY d   1      -3.512   1.649  -0.204  0.00  0.00     0.003 A 
ENDROOT
TORSDOF 0
ENDMDL
