MODEL 1
REMARK minimizedAffinity 7.60936594
REMARK minimizedRMSD -1
REMARK  0 active torsions:
REMARK  status: ('A' for Active; 'I' for Inactive)
ROOT
ATOM      1  C4' PXY d   1       6.000   2.918  -2.626  0.00  0.00     0.077 C 
ATOM      2  C1' PXY d   1       2.760   0.346   1.412  0.00  0.00     0.077 C 
ATOM      3  C1  PXY d   1       3.614   1.029   0.362  0.00  0.00    -0.082 A 
ATOM      4  C2  PXY d   1       3.285   0.928  -0.916  0.00  0.00     0.003 A 
ATOM      5  C3  PXY d   1       4.064   1.513  -1.881  0.00  0.00     0.003 A 
ATOM      6  C4  PXY d   1       5.161   2.253  -1.531  0.00  0.00    -0.082 A 
ATOM      7  C5  PXY d   1       5.498   2.369  -0.229  0.00  0.00     0.003 A 
ATOM      8  C6  PXY d   1       4.717   1.734   0.733  0.00  0.00     0.003 A 
ENDROOT
TORSDOF 0
ENDMDL
