MODEL 1
REMARK minimizedAffinity 7.30344963
REMARK minimizedRMSD -1
REMARK  0 active torsions:
REMARK  status: ('A' for Active; 'I' for Inactive)
ROOT
ATOM      1  C4' PXY d   1       6.000   2.861  -2.378  0.00  0.00     0.077 C 
ATOM      2  C1' PXY d   1       2.707   0.022   1.432  0.00  0.00     0.077 C 
ATOM      3  C1  PXY d   1       3.568   0.758   0.424  0.00  0.00    -0.082 A 
ATOM      4  C2  PXY d   1       4.527   1.564   0.848  0.00  0.00     0.003 A 
ATOM      5  C3  PXY d   1       5.294   2.261  -0.050  0.00  0.00     0.003 A 
ATOM      6  C4  PXY d   1       5.112   2.091  -1.396  0.00  0.00    -0.082 A 
ATOM      7  C5  PXY d   1       4.143   1.262  -1.837  0.00  0.00     0.003 A 
ATOM      8  C6  PXY d   1       3.348   0.595  -0.909  0.00  0.00     0.003 A 
ENDROOT
TORSDOF 0
ENDMDL
