MODEL 1
REMARK minimizedAffinity -4.01547432
REMARK minimizedRMSD -1
REMARK  1 active torsions:
REMARK  status: ('A' for Active; 'I' for Inactive)
REMARK    1  A    between atoms: C1_2  and  C2_3 
ROOT
ATOM      1  C2  UNL d   1      -1.214   0.640  -0.804  0.00  0.00    -0.076 A 
ATOM      2  C3  UNL d   1      -1.683   1.063   0.451  0.00  0.00     0.004 A 
ATOM      3  C4  UNL d   1      -1.006   0.726   1.622  0.00  0.00    -0.003 A 
ATOM      4  C5  UNL d   1       0.153  -0.039   1.556  0.00  0.00     0.000 A 
ATOM      5  C6  UNL d   1       0.643  -0.453   0.317  0.00  0.00     0.000 A 
ATOM      6  C7  UNL d   1      -0.019  -0.108  -0.873  0.00  0.00    -0.073 A 
ATOM      7  C8  UNL d   1       0.550  -0.587  -2.181  0.00  0.00     0.078 C 
ENDROOT
BRANCH   1   8
ATOM      8  C1  UNL d   1      -2.006   1.013  -2.037  0.00  0.00     0.053 C 
ATOM      9  C   UNL d   1      -2.063   2.516  -2.260  0.00  0.00     0.018 C 
ENDBRANCH   1   8
TORSDOF 1
ENDMDL
