MODEL 1
REMARK minimizedAffinity -2.58726192
REMARK minimizedRMSD -1
REMARK  1 active torsions:
REMARK  status: ('A' for Active; 'I' for Inactive)
REMARK    1  A    between atoms: C1_2  and  C2_3 
ROOT
ATOM      1  C2  UNL d   1       0.631  -0.636   0.463  0.00  0.00    -0.076 A 
ATOM      2  C3  UNL d   1       1.582  -1.412  -0.221  0.00  0.00     0.004 A 
ATOM      3  C4  UNL d   1       2.275  -2.433   0.426  0.00  0.00    -0.003 A 
ATOM      4  C5  UNL d   1       2.027  -2.696   1.769  0.00  0.00     0.000 A 
ATOM      5  C6  UNL d   1       1.074  -1.948   2.459  0.00  0.00     0.000 A 
ATOM      6  C7  UNL d   1       0.355  -0.925   1.817  0.00  0.00    -0.073 A 
ATOM      7  C8  UNL d   1      -0.657  -0.145   2.611  0.00  0.00     0.078 C 
ENDROOT
BRANCH   1   8
ATOM      8  C1  UNL d   1      -0.070   0.477  -0.284  0.00  0.00     0.053 C 
ATOM      9  C   UNL d   1      -0.637   0.016  -1.618  0.00  0.00     0.018 C 
ENDBRANCH   1   8
TORSDOF 1
ENDMDL
