MODEL 1
REMARK minimizedAffinity 0.0640949905
REMARK minimizedRMSD -1
REMARK  1 active torsions:
REMARK  status: ('A' for Active; 'I' for Inactive)
REMARK    1  A    between atoms: C1_2  and  C2_3 
ROOT
ATOM      1  C2  UNL d   1      -0.590   1.033  -0.815  0.00  0.00    -0.076 A 
ATOM      2  C3  UNL d   1      -1.450   2.015  -1.336  0.00  0.00     0.004 A 
ATOM      3  C4  UNL d   1      -0.948   3.106  -2.043  0.00  0.00    -0.003 A 
ATOM      4  C5  UNL d   1       0.422   3.232  -2.242  0.00  0.00     0.000 A 
ATOM      5  C6  UNL d   1       1.289   2.258  -1.748  0.00  0.00     0.000 A 
ATOM      6  C7  UNL d   1       0.798   1.144  -1.047  0.00  0.00    -0.073 A 
ATOM      7  C8  UNL d   1       1.779   0.127  -0.530  0.00  0.00     0.078 C 
ENDROOT
BRANCH   1   8
ATOM      8  C1  UNL d   1      -1.189  -0.114  -0.033  0.00  0.00     0.053 C 
ATOM      9  C   UNL d   1      -1.275   0.179   1.457  0.00  0.00     0.018 C 
ENDBRANCH   1   8
TORSDOF 1
ENDMDL
