MODEL 1
REMARK minimizedAffinity -2.38564038
REMARK minimizedRMSD -1
REMARK  1 active torsions:
REMARK  status: ('A' for Active; 'I' for Inactive)
REMARK    1  A    between atoms: C1_2  and  C2_3 
ROOT
ATOM      1  C2  UNL d   1       0.206  -0.521   0.509  0.00  0.00    -0.076 A 
ATOM      2  C3  UNL d   1      -0.789  -0.386   1.492  0.00  0.00     0.004 A 
ATOM      3  C4  UNL d   1      -0.519  -0.672   2.830  0.00  0.00    -0.003 A 
ATOM      4  C5  UNL d   1       0.751  -1.095   3.205  0.00  0.00     0.000 A 
ATOM      5  C6  UNL d   1       1.755  -1.218   2.246  0.00  0.00     0.000 A 
ATOM      6  C7  UNL d   1       1.504  -0.919   0.895  0.00  0.00    -0.073 A 
ATOM      7  C8  UNL d   1       2.622  -1.074  -0.098  0.00  0.00     0.078 C 
ENDROOT
BRANCH   1   8
ATOM      8  C1  UNL d   1      -0.153  -0.224  -0.930  0.00  0.00     0.053 C 
ATOM      9  C   UNL d   1      -1.293   0.775  -1.052  0.00  0.00     0.018 C 
ENDBRANCH   1   8
TORSDOF 1
ENDMDL
