MODEL 1
REMARK minimizedAffinity -4.20967102
REMARK minimizedRMSD -1
REMARK  1 active torsions:
REMARK  status: ('A' for Active; 'I' for Inactive)
REMARK    1  A    between atoms: C1_2  and  C2_3 
ROOT
ATOM      1  C2  UNL d   1      -0.537   0.176  -0.129  0.00  0.00    -0.076 A 
ATOM      2  C3  UNL d   1       0.825  -0.172  -0.132  0.00  0.00     0.004 A 
ATOM      3  C4  UNL d   1       1.432  -0.704   1.004  0.00  0.00    -0.003 A 
ATOM      4  C5  UNL d   1       0.687  -0.897   2.162  0.00  0.00     0.000 A 
ATOM      5  C6  UNL d   1      -0.669  -0.574   2.178  0.00  0.00     0.000 A 
ATOM      6  C7  UNL d   1      -1.300  -0.052   1.036  0.00  0.00    -0.073 A 
ATOM      7  C8  UNL d   1      -2.765   0.285   1.111  0.00  0.00     0.078 C 
ENDROOT
BRANCH   1   8
ATOM      8  C1  UNL d   1      -1.134   0.775  -1.382  0.00  0.00     0.053 C 
ATOM      9  C   UNL d   1      -0.419   2.043  -1.821  0.00  0.00     0.018 C 
ENDBRANCH   1   8
TORSDOF 1
ENDMDL
