MODEL 1
REMARK minimizedAffinity -1.12844002
REMARK minimizedRMSD -1
REMARK  1 active torsions:
REMARK  status: ('A' for Active; 'I' for Inactive)
REMARK    1  A    between atoms: C1_2  and  C2_3 
ROOT
ATOM      1  C2  UNL d   1      -0.023   1.216   0.304  0.00  0.00    -0.076 A 
ATOM      2  C3  UNL d   1      -0.325   1.681   1.595  0.00  0.00     0.004 A 
ATOM      3  C4  UNL d   1      -0.426   0.799   2.670  0.00  0.00    -0.003 A 
ATOM      4  C5  UNL d   1      -0.225  -0.563   2.471  0.00  0.00     0.000 A 
ATOM      5  C6  UNL d   1       0.093  -1.039   1.199  0.00  0.00     0.000 A 
ATOM      6  C7  UNL d   1       0.214  -0.162   0.108  0.00  0.00    -0.073 A 
ATOM      7  C8  UNL d   1       0.553  -0.731  -1.242  0.00  0.00     0.078 C 
ENDROOT
BRANCH   1   8
ATOM      8  C1  UNL d   1       0.046   2.216  -0.828  0.00  0.00     0.053 C 
ATOM      9  C   UNL d   1      -1.134   2.101  -1.780  0.00  0.00     0.018 C 
ENDBRANCH   1   8
TORSDOF 1
ENDMDL
