MODEL 1
REMARK minimizedAffinity 3.43240905
REMARK minimizedRMSD -1
REMARK  1 active torsions:
REMARK  status: ('A' for Active; 'I' for Inactive)
REMARK    1  A    between atoms: C1_2  and  C2_3 
ROOT
ATOM      1  C2  UNL d   1      -0.043  -0.572   2.874  0.00  0.00    -0.076 A 
ATOM      2  C3  UNL d   1       0.980   0.393   2.882  0.00  0.00     0.004 A 
ATOM      3  C4  UNL d   1       2.322   0.016   2.856  0.00  0.00    -0.003 A 
ATOM      4  C5  UNL d   1       2.662  -1.332   2.819  0.00  0.00     0.000 A 
ATOM      5  C6  UNL d   1       1.660  -2.302   2.792  0.00  0.00     0.000 A 
ATOM      6  C7  UNL d   1       0.303  -1.938   2.802  0.00  0.00    -0.073 A 
ATOM      7  C8  UNL d   1      -0.736  -3.026   2.778  0.00  0.00     0.078 C 
ENDROOT
BRANCH   1   8
ATOM      8  C1  UNL d   1      -1.480  -0.104   2.931  0.00  0.00     0.053 C 
ATOM      9  C   UNL d   1      -2.145  -0.094   1.563  0.00  0.00     0.018 C 
ENDBRANCH   1   8
TORSDOF 1
ENDMDL
