MODEL 1
REMARK minimizedAffinity 6.98815346
REMARK minimizedRMSD -1
REMARK  0 active torsions:
REMARK  status: ('A' for Active; 'I' for Inactive)
ROOT
ATOM      1  C   UNL d   1      -1.759  -0.346  -0.662  0.00  0.00     0.020 A 
ATOM      2  C1  UNL d   1      -2.736  -1.339  -0.738  0.00  0.00     0.020 A 
ATOM      3  C2  UNL d   1      -3.370  -1.785   0.424  0.00  0.00     0.034 A 
ATOM      4  C3  UNL d   1      -3.029  -1.238   1.666  0.00  0.00     0.017 A 
ATOM      5  C4  UNL d   1      -2.049  -0.242   1.742  0.00  0.00     0.017 A 
ATOM      6  C5  UNL d   1      -1.417   0.201   0.576  0.00  0.00     0.034 A 
ATOM      7 Cl   UNL d   1      -1.575   0.480   3.239  0.00  0.00    -0.070 Cl
ATOM      8 Cl1  UNL d   1      -3.855  -1.837   3.061  0.00  0.00    -0.070 Cl
ENDROOT
TORSDOF 0
ENDMDL
