MODEL 1
REMARK minimizedAffinity -2.00255466
REMARK minimizedRMSD -1
REMARK  0 active torsions:
REMARK  status: ('A' for Active; 'I' for Inactive)
ROOT
ATOM      1  C   UNL d   1       2.138  -1.754   4.629  0.00  0.00     0.020 A 
ATOM      2  C1  UNL d   1       1.012  -1.453   5.392  0.00  0.00     0.020 A 
ATOM      3  C2  UNL d   1      -0.110  -0.882   4.787  0.00  0.00     0.034 A 
ATOM      4  C3  UNL d   1      -0.107  -0.611   3.414  0.00  0.00     0.017 A 
ATOM      5  C4  UNL d   1       1.025  -0.913   2.648  0.00  0.00     0.017 A 
ATOM      6  C5  UNL d   1       2.145  -1.485   3.259  0.00  0.00     0.034 A 
ATOM      7 Cl   UNL d   1       1.103  -0.607   0.949  0.00  0.00    -0.070 Cl
ATOM      8 Cl1  UNL d   1      -1.529   0.096   2.732  0.00  0.00    -0.070 Cl
ENDROOT
TORSDOF 0
ENDMDL
