MODEL 1
REMARK minimizedAffinity -1.02730536
REMARK minimizedRMSD -1
REMARK  0 active torsions:
REMARK  status: ('A' for Active; 'I' for Inactive)
ROOT
ATOM      1  C   UNL d   1       1.832  -1.796   4.475  0.00  0.00     0.020 A 
ATOM      2  C1  UNL d   1       0.572  -1.649   5.055  0.00  0.00     0.020 A 
ATOM      3  C2  UNL d   1      -0.486  -1.136   4.302  0.00  0.00     0.034 A 
ATOM      4  C3  UNL d   1      -0.287  -0.767   2.967  0.00  0.00     0.017 A 
ATOM      5  C4  UNL d   1       0.978  -0.915   2.387  0.00  0.00     0.017 A 
ATOM      6  C5  UNL d   1       2.034  -1.430   3.144  0.00  0.00     0.034 A 
ATOM      7 Cl   UNL d   1       1.300  -0.482   0.745  0.00  0.00    -0.070 Cl
ATOM      8 Cl1  UNL d   1      -1.641  -0.139   2.096  0.00  0.00    -0.070 Cl
ENDROOT
TORSDOF 0
ENDMDL
