MODEL 1
REMARK minimizedAffinity 3.24240828
REMARK minimizedRMSD -1
REMARK  0 active torsions:
REMARK  status: ('A' for Active; 'I' for Inactive)
ROOT
ATOM      1  C   UNL d   1       1.416  -1.495   4.946  0.00  0.00     0.020 A 
ATOM      2  C1  UNL d   1       2.580  -1.441   4.180  0.00  0.00     0.020 A 
ATOM      3  C2  UNL d   1       2.510  -1.101   2.827  0.00  0.00     0.034 A 
ATOM      4  C3  UNL d   1       1.275  -0.812   2.237  0.00  0.00     0.017 A 
ATOM      5  C4  UNL d   1       0.107  -0.866   3.006  0.00  0.00     0.017 A 
ATOM      6  C5  UNL d   1       0.183  -1.207   4.360  0.00  0.00     0.034 A 
ATOM      7 Cl   UNL d   1      -1.454  -0.523   2.348  0.00  0.00    -0.070 Cl
ATOM      8 Cl1  UNL d   1       1.263  -0.398   0.559  0.00  0.00    -0.070 Cl
ENDROOT
TORSDOF 0
ENDMDL
