MODEL 1
REMARK minimizedAffinity 3.31390381
REMARK minimizedRMSD -1
REMARK  0 active torsions:
REMARK  status: ('A' for Active; 'I' for Inactive)
ROOT
ATOM      1  C   UNL d   1       3.050  -0.633   3.922  0.00  0.00     0.020 A 
ATOM      2  C1  UNL d   1       1.784  -1.174   4.141  0.00  0.00     0.020 A 
ATOM      3  C2  UNL d   1       0.771  -0.984   3.198  0.00  0.00     0.034 A 
ATOM      4  C3  UNL d   1       1.023  -0.251   2.033  0.00  0.00     0.017 A 
ATOM      5  C4  UNL d   1       2.295   0.292   1.814  0.00  0.00     0.017 A 
ATOM      6  C5  UNL d   1       3.305   0.098   2.762  0.00  0.00     0.034 A 
ATOM      7 Cl   UNL d   1       2.681   1.207   0.400  0.00  0.00    -0.070 Cl
ATOM      8 Cl1  UNL d   1      -0.276  -0.056   0.910  0.00  0.00    -0.070 Cl
ENDROOT
TORSDOF 0
ENDMDL
