MODEL 1
REMARK minimizedAffinity 0.692697167
REMARK minimizedRMSD -1
REMARK  0 active torsions:
REMARK  status: ('A' for Active; 'I' for Inactive)
ROOT
ATOM      1  C   UNL d   1      -2.346   0.213   0.939  0.00  0.00     0.020 A 
ATOM      2  C1  UNL d   1      -2.187   0.466   2.301  0.00  0.00     0.020 A 
ATOM      3  C2  UNL d   1      -0.980   0.158   2.933  0.00  0.00     0.034 A 
ATOM      4  C3  UNL d   1       0.072  -0.405   2.202  0.00  0.00     0.017 A 
ATOM      5  C4  UNL d   1      -0.088  -0.659   0.835  0.00  0.00     0.017 A 
ATOM      6  C5  UNL d   1      -1.298  -0.348   0.208  0.00  0.00     0.034 A 
ATOM      7 Cl   UNL d   1       1.166  -1.351  -0.132  0.00  0.00    -0.070 Cl
ATOM      8 Cl1  UNL d   1       1.537  -0.760   3.048  0.00  0.00    -0.070 Cl
ENDROOT
TORSDOF 0
ENDMDL
