MODEL 1
REMARK minimizedAffinity 4.52927876
REMARK minimizedRMSD -1
REMARK  0 active torsions:
REMARK  status: ('A' for Active; 'I' for Inactive)
ROOT
ATOM      1  C   UNL d   1      -2.530   0.128   1.604  0.00  0.00     0.020 A 
ATOM      2  C1  UNL d   1      -1.824   0.255   0.408  0.00  0.00     0.020 A 
ATOM      3  C2  UNL d   1      -0.460  -0.041   0.368  0.00  0.00     0.034 A 
ATOM      4  C3  UNL d   1       0.203  -0.467   1.525  0.00  0.00     0.017 A 
ATOM      5  C4  UNL d   1      -0.507  -0.595   2.724  0.00  0.00     0.017 A 
ATOM      6  C5  UNL d   1      -1.873  -0.297   2.759  0.00  0.00     0.034 A 
ATOM      7 Cl   UNL d   1       0.241  -1.115   4.193  0.00  0.00    -0.070 Cl
ATOM      8 Cl1  UNL d   1       1.890  -0.818   1.402  0.00  0.00    -0.070 Cl
ENDROOT
TORSDOF 0
ENDMDL
