MODEL 1
REMARK minimizedAffinity 7.26111031
REMARK minimizedRMSD -1
REMARK  0 active torsions:
REMARK  status: ('A' for Active; 'I' for Inactive)
ROOT
ATOM      1  C   UNL d   1       2.294   0.552  -0.112  0.00  0.00     0.020 A 
ATOM      2  C1  UNL d   1       3.131   1.666  -0.131  0.00  0.00     0.020 A 
ATOM      3  C2  UNL d   1       3.939   1.952   0.972  0.00  0.00     0.034 A 
ATOM      4  C3  UNL d   1       3.910   1.122   2.099  0.00  0.00     0.017 A 
ATOM      5  C4  UNL d   1       3.069   0.003   2.117  0.00  0.00     0.017 A 
ATOM      6  C5  UNL d   1       2.263  -0.278   1.009  0.00  0.00     0.034 A 
ATOM      7 Cl   UNL d   1       2.980  -1.067   3.471  0.00  0.00    -0.070 Cl
ATOM      8 Cl1  UNL d   1       4.935   1.535   3.427  0.00  0.00    -0.070 Cl
ENDROOT
TORSDOF 0
ENDMDL
