MODEL 1
REMARK minimizedAffinity 12.5798635
REMARK minimizedRMSD -1
REMARK  1 active torsions:
REMARK  status: ('A' for Active; 'I' for Inactive)
REMARK    1  A    between atoms: N_2  and  C1_3 
ROOT
ATOM      1  C1  UNL d   1      -3.565  -2.682  -5.301  0.00  0.00     0.143 A 
ATOM      2  C2  UNL d   1      -3.378  -2.632  -3.916  0.00  0.00    -0.057 A 
ATOM      3  C3  UNL d   1      -2.572  -3.569  -3.258  0.00  0.00     0.033 A 
ATOM      4  C4  UNL d   1      -1.960  -4.593  -3.973  0.00  0.00    -0.042 A 
ATOM      5  C5  UNL d   1      -2.152  -4.677  -5.348  0.00  0.00     0.033 A 
ATOM      6  C6  UNL d   1      -2.953  -3.734  -6.000  0.00  0.00    -0.057 A 
ENDROOT
BRANCH   1   7
ATOM      7  N   UNL d   1      -4.433  -1.839  -6.000  0.00  0.00    -0.732 N 
ATOM      8  C   UNL d   1      -5.859  -2.085  -6.000  0.00  0.00     0.284 C 
ATOM      9  H3  UNL d   1      -4.181  -0.858  -5.906  0.00  0.00     0.395 HD
ENDBRANCH   1   7
TORSDOF 1
ENDMDL
