MODEL 1
REMARK minimizedAffinity 7.94839811
REMARK minimizedRMSD -1
REMARK  1 active torsions:
REMARK  status: ('A' for Active; 'I' for Inactive)
REMARK    1  A    between atoms: N_2  and  C1_3 
ROOT
ATOM      1  C1  UNL d   1      -2.269  -3.805  -4.583  0.00  0.00     0.143 A 
ATOM      2  C2  UNL d   1      -0.871  -3.788  -4.532  0.00  0.00    -0.057 A 
ATOM      3  C3  UNL d   1      -0.181  -4.203  -3.387  0.00  0.00     0.033 A 
ATOM      4  C4  UNL d   1      -0.880  -4.616  -2.257  0.00  0.00    -0.042 A 
ATOM      5  C5  UNL d   1      -2.271  -4.617  -2.277  0.00  0.00     0.033 A 
ATOM      6  C6  UNL d   1      -2.954  -4.207  -3.426  0.00  0.00    -0.057 A 
ENDROOT
BRANCH   1   7
ATOM      7  N   UNL d   1      -3.014  -3.312  -5.657  0.00  0.00    -0.732 N 
ATOM      8  C   UNL d   1      -4.291  -3.900  -6.000  0.00  0.00     0.284 C 
ATOM      9  H3  UNL d   1      -2.997  -2.296  -5.708  0.00  0.00     0.395 HD
ENDBRANCH   1   7
TORSDOF 1
ENDMDL
