MODEL 1
REMARK minimizedAffinity 1.42703223
REMARK minimizedRMSD -1
REMARK  1 active torsions:
REMARK  status: ('A' for Active; 'I' for Inactive)
REMARK    1  A    between atoms: N_2  and  C1_3 
ROOT
ATOM      1  C1  UNL d   1      -1.944  -3.970  -4.122  0.00  0.00     0.143 A 
ATOM      2  C2  UNL d   1      -0.547  -3.995  -4.171  0.00  0.00    -0.057 A 
ATOM      3  C3  UNL d   1       0.195  -4.833  -3.328  0.00  0.00     0.033 A 
ATOM      4  C4  UNL d   1      -0.451  -5.642  -2.399  0.00  0.00    -0.042 A 
ATOM      5  C5  UNL d   1      -1.838  -5.615  -2.316  0.00  0.00     0.033 A 
ATOM      6  C6  UNL d   1      -2.573  -4.782  -3.164  0.00  0.00    -0.057 A 
ENDROOT
BRANCH   1   7
ATOM      7  N   UNL d   1      -2.733  -3.088  -4.864  0.00  0.00    -0.732 N 
ATOM      8  C   UNL d   1      -3.532  -3.566  -5.972  0.00  0.00     0.284 C 
ATOM      9  H3  UNL d   1      -3.203  -2.401  -4.279  0.00  0.00     0.395 HD
ENDBRANCH   1   7
TORSDOF 1
ENDMDL
