MODEL 1
REMARK minimizedAffinity 9.21210003
REMARK minimizedRMSD -1
REMARK  1 active torsions:
REMARK  status: ('A' for Active; 'I' for Inactive)
REMARK    1  A    between atoms: N_2  and  C1_3 
ROOT
ATOM      1  C1  UNL d   1      -1.063   1.509   2.824  0.00  0.00     0.143 A 
ATOM      2  C2  UNL d   1      -0.803   2.225   3.998  0.00  0.00    -0.057 A 
ATOM      3  C3  UNL d   1       0.458   2.189   4.605  0.00  0.00     0.033 A 
ATOM      4  C4  UNL d   1       1.476   1.411   4.064  0.00  0.00    -0.042 A 
ATOM      5  C5  UNL d   1       1.232   0.672   2.912  0.00  0.00     0.033 A 
ATOM      6  C6  UNL d   1      -0.027   0.717   2.306  0.00  0.00    -0.057 A 
ENDROOT
BRANCH   1   7
ATOM      7  N   UNL d   1      -2.323   1.426   2.227  0.00  0.00    -0.732 N 
ATOM      8  C   UNL d   1      -3.467   0.960   2.981  0.00  0.00     0.284 C 
ATOM      9  H3  UNL d   1      -2.520   2.221   1.622  0.00  0.00     0.395 HD
ENDBRANCH   1   7
TORSDOF 1
ENDMDL
