MODEL 1
REMARK minimizedAffinity 5.12912464
REMARK minimizedRMSD -1
REMARK  1 active torsions:
REMARK  status: ('A' for Active; 'I' for Inactive)
REMARK    1  A    between atoms: N_2  and  C1_3 
ROOT
ATOM      1  C1  UNL d   1       2.090  -0.061  -3.395  0.00  0.00     0.143 A 
ATOM      2  C2  UNL d   1       1.374  -0.965  -2.603  0.00  0.00    -0.057 A 
ATOM      3  C3  UNL d   1       1.278  -0.797  -1.216  0.00  0.00     0.033 A 
ATOM      4  C4  UNL d   1       1.924   0.264  -0.591  0.00  0.00    -0.042 A 
ATOM      5  C5  UNL d   1       2.662   1.161  -1.355  0.00  0.00     0.033 A 
ATOM      6  C6  UNL d   1       2.749   0.992  -2.741  0.00  0.00    -0.057 A 
ENDROOT
BRANCH   1   7
ATOM      7  N   UNL d   1       2.305  -0.228  -4.765  0.00  0.00    -0.732 N 
ATOM      8  C   UNL d   1       3.354  -1.101  -5.246  0.00  0.00     0.284 C 
ATOM      9  H3  UNL d   1       1.435  -0.295  -5.289  0.00  0.00     0.395 HD
ENDBRANCH   1   7
TORSDOF 1
ENDMDL
