MODEL 1
REMARK minimizedAffinity 13.7885094
REMARK minimizedRMSD -1
REMARK  1 active torsions:
REMARK  status: ('A' for Active; 'I' for Inactive)
REMARK    1  A    between atoms: N_2  and  C1_3 
ROOT
ATOM      1  C1  UNL d   1      -3.749  -0.246   3.099  0.00  0.00     0.143 A 
ATOM      2  C2  UNL d   1      -3.535  -1.144   4.150  0.00  0.00    -0.057 A 
ATOM      3  C3  UNL d   1      -4.246  -2.347   4.233  0.00  0.00     0.033 A 
ATOM      4  C4  UNL d   1      -5.208  -2.661   3.279  0.00  0.00    -0.042 A 
ATOM      5  C5  UNL d   1      -5.455  -1.771   2.239  0.00  0.00     0.033 A 
ATOM      6  C6  UNL d   1      -4.737  -0.575   2.158  0.00  0.00    -0.057 A 
ENDROOT
BRANCH   1   7
ATOM      7  N   UNL d   1      -3.144   1.011   3.014  0.00  0.00    -0.732 N 
ATOM      8  C   UNL d   1      -1.768   1.140   2.586  0.00  0.00     0.284 C 
ATOM      9  H3  UNL d   1      -3.768   1.716   2.627  0.00  0.00     0.395 HD
ENDBRANCH   1   7
TORSDOF 1
ENDMDL
