MODEL 1
REMARK minimizedAffinity 8.61186218
REMARK minimizedRMSD -1
REMARK  1 active torsions:
REMARK  status: ('A' for Active; 'I' for Inactive)
REMARK    1  A    between atoms: N_2  and  C1_3 
ROOT
ATOM      1  C1  UNL d   1       2.386  -0.446  -1.654  0.00  0.00     0.143 A 
ATOM      2  C2  UNL d   1       3.006  -1.294  -0.730  0.00  0.00    -0.057 A 
ATOM      3  C3  UNL d   1       2.754  -2.672  -0.726  0.00  0.00     0.033 A 
ATOM      4  C4  UNL d   1       1.853  -3.223  -1.631  0.00  0.00    -0.042 A 
ATOM      5  C5  UNL d   1       1.206  -2.395  -2.542  0.00  0.00     0.033 A 
ATOM      6  C6  UNL d   1       1.467  -1.022  -2.546  0.00  0.00    -0.057 A 
ENDROOT
BRANCH   1   7
ATOM      7  N   UNL d   1       2.520   0.944  -1.645  0.00  0.00    -0.732 N 
ATOM      8  C   UNL d   1       3.369   1.597  -0.672  0.00  0.00     0.284 C 
ATOM      9  H3  UNL d   1       2.586   1.334  -2.583  0.00  0.00     0.395 HD
ENDBRANCH   1   7
TORSDOF 1
ENDMDL
