MODEL 1
REMARK minimizedAffinity 5.36553955
REMARK minimizedRMSD -1
REMARK  1 active torsions:
REMARK  status: ('A' for Active; 'I' for Inactive)
REMARK    1  A    between atoms: N_2  and  C1_3 
ROOT
ATOM      1  C1  UNL d   1       0.781  -3.679  -2.210  0.00  0.00     0.143 A 
ATOM      2  C2  UNL d   1       1.813  -4.065  -1.348  0.00  0.00    -0.057 A 
ATOM      3  C3  UNL d   1       2.708  -3.126  -0.820  0.00  0.00     0.033 A 
ATOM      4  C4  UNL d   1       2.604  -1.784  -1.171  0.00  0.00    -0.042 A 
ATOM      5  C5  UNL d   1       1.602  -1.381  -2.046  0.00  0.00     0.033 A 
ATOM      6  C6  UNL d   1       0.707  -2.322  -2.564  0.00  0.00    -0.057 A 
ENDROOT
BRANCH   1   7
ATOM      7  N   UNL d   1      -0.079  -4.578  -2.844  0.00  0.00    -0.732 N 
ATOM      8  C   UNL d   1      -1.507  -4.343  -2.863  0.00  0.00     0.284 C 
ATOM      9  H3  UNL d   1       0.298  -4.920  -3.725  0.00  0.00     0.395 HD
ENDBRANCH   1   7
TORSDOF 1
ENDMDL
