MODEL 1
REMARK minimizedAffinity 9.77046108
REMARK minimizedRMSD -1
REMARK  1 active torsions:
REMARK  status: ('A' for Active; 'I' for Inactive)
REMARK    1  A    between atoms: N_2  and  C1_3 
ROOT
ATOM      1  C1  UNL d   1       3.199   0.249  -0.694  0.00  0.00     0.143 A 
ATOM      2  C2  UNL d   1       2.808   0.811  -1.914  0.00  0.00    -0.057 A 
ATOM      3  C3  UNL d   1       2.131   0.055  -2.878  0.00  0.00     0.033 A 
ATOM      4  C4  UNL d   1       1.857  -1.289  -2.650  0.00  0.00    -0.042 A 
ATOM      5  C5  UNL d   1       2.257  -1.875  -1.454  0.00  0.00     0.033 A 
ATOM      6  C6  UNL d   1       2.928  -1.113  -0.493  0.00  0.00    -0.057 A 
ENDROOT
BRANCH   1   7
ATOM      7  N   UNL d   1       3.961   0.922   0.264  0.00  0.00    -0.732 N 
ATOM      8  C   UNL d   1       5.171   1.621  -0.115  0.00  0.00     0.284 C 
ATOM      9  H3  UNL d   1       3.386   1.422   0.937  0.00  0.00     0.395 HD
ENDBRANCH   1   7
TORSDOF 1
ENDMDL
