MODEL 1
REMARK minimizedAffinity 12.1277323
REMARK minimizedRMSD -1
REMARK  1 active torsions:
REMARK  status: ('A' for Active; 'I' for Inactive)
REMARK    1  A    between atoms: N_2  and  C1_3 
ROOT
ATOM      1  C1  UNL d   1      -3.573   1.531   3.784  0.00  0.00     0.143 A 
ATOM      2  C2  UNL d   1      -2.985   1.821   5.020  0.00  0.00    -0.057 A 
ATOM      3  C3  UNL d   1      -3.675   2.545   6.000  0.00  0.00     0.033 A 
ATOM      4  C4  UNL d   1      -4.959   3.017   5.750  0.00  0.00    -0.042 A 
ATOM      5  C5  UNL d   1      -5.554   2.762   4.519  0.00  0.00     0.033 A 
ATOM      6  C6  UNL d   1      -4.863   2.033   3.547  0.00  0.00    -0.057 A 
ENDROOT
BRANCH   1   7
ATOM      7  N   UNL d   1      -2.903   0.901   2.732  0.00  0.00    -0.732 N 
ATOM      8  C   UNL d   1      -1.470   1.038   2.584  0.00  0.00     0.284 C 
ATOM      9  H3  UNL d   1      -3.251  -0.039   2.557  0.00  0.00     0.395 HD
ENDBRANCH   1   7
TORSDOF 1
ENDMDL
