MODEL 1
REMARK minimizedAffinity 15.1526976
REMARK minimizedRMSD -1
REMARK  1 active torsions:
REMARK  status: ('A' for Active; 'I' for Inactive)
REMARK    1  A    between atoms: N_2  and  C1_3 
ROOT
ATOM      1  C1  UNL d   1       1.793   1.741   2.748  0.00  0.00     0.143 A 
ATOM      2  C2  UNL d   1       2.171   1.782   4.095  0.00  0.00    -0.057 A 
ATOM      3  C3  UNL d   1       1.314   1.327   5.104  0.00  0.00     0.033 A 
ATOM      4  C4  UNL d   1       0.047   0.849   4.786  0.00  0.00    -0.042 A 
ATOM      5  C5  UNL d   1      -0.360   0.823   3.456  0.00  0.00     0.033 A 
ATOM      6  C6  UNL d   1       0.503   1.272   2.452  0.00  0.00    -0.057 A 
ENDROOT
BRANCH   1   7
ATOM      7  N   UNL d   1       2.562   2.269   1.708  0.00  0.00    -0.732 N 
ATOM      8  C   UNL d   1       3.441   1.418   0.936  0.00  0.00     0.284 C 
ATOM      9  H3  UNL d   1       2.048   2.949   1.152  0.00  0.00     0.395 HD
ENDBRANCH   1   7
TORSDOF 1
ENDMDL
