MODEL 1
REMARK minimizedAffinity 10.0598898
REMARK minimizedRMSD -1
REMARK  1 active torsions:
REMARK  status: ('A' for Active; 'I' for Inactive)
REMARK    1  A    between atoms: N_2  and  C1_3 
ROOT
ATOM      1  C1  UNL d   1      -2.629  -3.858  -2.997  0.00  0.00     0.143 A 
ATOM      2  C2  UNL d   1      -2.737  -2.464  -3.042  0.00  0.00    -0.057 A 
ATOM      3  C3  UNL d   1      -1.632  -1.641  -2.790  0.00  0.00     0.033 A 
ATOM      4  C4  UNL d   1      -0.403  -2.201  -2.459  0.00  0.00    -0.042 A 
ATOM      5  C5  UNL d   1      -0.278  -3.583  -2.384  0.00  0.00     0.033 A 
ATOM      6  C6  UNL d   1      -1.383  -4.399  -2.643  0.00  0.00    -0.057 A 
ENDROOT
BRANCH   1   7
ATOM      7  N   UNL d   1      -3.713  -4.727  -3.141  0.00  0.00    -0.732 N 
ATOM      8  C   UNL d   1      -4.539  -4.686  -4.329  0.00  0.00     0.284 C 
ATOM      9  H3  UNL d   1      -3.503  -5.668  -2.813  0.00  0.00     0.395 HD
ENDBRANCH   1   7
TORSDOF 1
ENDMDL
