MODEL 1
REMARK minimizedAffinity 17.8018913
REMARK minimizedRMSD -1
REMARK  1 active torsions:
REMARK  status: ('A' for Active; 'I' for Inactive)
REMARK    1  A    between atoms: N_2  and  C1_3 
ROOT
ATOM      1  C1  UNL d   1      -3.743  -0.978   5.039  0.00  0.00     0.143 A 
ATOM      2  C2  UNL d   1      -3.968  -0.558   3.724  0.00  0.00    -0.057 A 
ATOM      3  C3  UNL d   1      -3.894   0.795   3.370  0.00  0.00     0.033 A 
ATOM      4  C4  UNL d   1      -3.622   1.758   4.336  0.00  0.00    -0.042 A 
ATOM      5  C5  UNL d   1      -3.419   1.366   5.655  0.00  0.00     0.033 A 
ATOM      6  C6  UNL d   1      -3.487   0.013   6.000  0.00  0.00    -0.057 A 
ENDROOT
BRANCH   1   7
ATOM      7  N   UNL d   1      -3.899  -2.297   5.472  0.00  0.00    -0.732 N 
ATOM      8  C   UNL d   1      -3.727  -3.400   4.552  0.00  0.00     0.284 C 
ATOM      9  H3  UNL d   1      -3.492  -2.455   6.391  0.00  0.00     0.395 HD
ENDBRANCH   1   7
TORSDOF 1
ENDMDL
