MODEL 1
REMARK minimizedAffinity 10.8942204
REMARK minimizedRMSD -1
REMARK  1 active torsions:
REMARK  status: ('A' for Active; 'I' for Inactive)
REMARK    1  A    between atoms: N_2  and  C1_3 
ROOT
ATOM      1  C1  UNL d   1       0.370   1.116   3.795  0.00  0.00     0.143 A 
ATOM      2  C2  UNL d   1       0.075  -0.168   3.324  0.00  0.00    -0.057 A 
ATOM      3  C3  UNL d   1      -1.121  -0.434   2.645  0.00  0.00     0.033 A 
ATOM      4  C4  UNL d   1      -2.058   0.575   2.452  0.00  0.00    -0.042 A 
ATOM      5  C5  UNL d   1      -1.796   1.853   2.934  0.00  0.00     0.033 A 
ATOM      6  C6  UNL d   1      -0.598   2.114   3.605  0.00  0.00    -0.057 A 
ENDROOT
BRANCH   1   7
ATOM      7  N   UNL d   1       1.497   1.422   4.563  0.00  0.00    -0.732 N 
ATOM      8  C   UNL d   1       1.485   1.232   5.998  0.00  0.00     0.284 C 
ATOM      9  H3  UNL d   1       2.363   1.136   4.113  0.00  0.00     0.395 HD
ENDBRANCH   1   7
TORSDOF 1
ENDMDL
