MODEL 1
REMARK minimizedAffinity -2.88116884
REMARK minimizedRMSD -1
REMARK  1 active torsions:
REMARK  status: ('A' for Active; 'I' for Inactive)
REMARK    1  A    between atoms: N_2  and  C1_3 
ROOT
ATOM      1  C1  UNL d   1       2.497  -3.019  -1.439  0.00  0.00     0.143 A 
ATOM      2  C2  UNL d   1       2.091  -1.680  -1.457  0.00  0.00    -0.057 A 
ATOM      3  C3  UNL d   1       2.015  -0.961  -2.656  0.00  0.00     0.033 A 
ATOM      4  C4  UNL d   1       2.373  -1.562  -3.858  0.00  0.00    -0.042 A 
ATOM      5  C5  UNL d   1       2.804  -2.884  -3.861  0.00  0.00     0.033 A 
ATOM      6  C6  UNL d   1       2.871  -3.599  -2.661  0.00  0.00    -0.057 A 
ENDROOT
BRANCH   1   7
ATOM      7  N   UNL d   1       2.687  -3.758  -0.268  0.00  0.00    -0.732 N 
ATOM      8  C   UNL d   1       3.063  -5.154  -0.331  0.00  0.00     0.284 C 
ATOM      9  H3  UNL d   1       3.175  -3.228   0.451  0.00  0.00     0.395 HD
ENDBRANCH   1   7
TORSDOF 1
ENDMDL
