MODEL 1
REMARK minimizedAffinity 4.68212795
REMARK minimizedRMSD -1
REMARK  1 active torsions:
REMARK  status: ('A' for Active; 'I' for Inactive)
REMARK    1  A    between atoms: N_2  and  C1_3 
ROOT
ATOM      1  C1  UNL d   1      -3.968  -4.273  -5.099  0.00  0.00     0.143 A 
ATOM      2  C2  UNL d   1      -3.752  -5.277  -4.149  0.00  0.00    -0.057 A 
ATOM      3  C3  UNL d   1      -2.608  -5.277  -3.341  0.00  0.00     0.033 A 
ATOM      4  C4  UNL d   1      -1.644  -4.286  -3.490  0.00  0.00    -0.042 A 
ATOM      5  C5  UNL d   1      -1.826  -3.293  -4.445  0.00  0.00     0.033 A 
ATOM      6  C6  UNL d   1      -2.973  -3.294  -5.244  0.00  0.00    -0.057 A 
ENDROOT
BRANCH   1   7
ATOM      7  N   UNL d   1      -5.036  -4.272  -6.000  0.00  0.00    -0.732 N 
ATOM      8  C   UNL d   1      -6.000  -3.192  -5.999  0.00  0.00     0.284 C 
ATOM      9  H3  UNL d   1      -4.762  -4.584  -6.928  0.00  0.00     0.395 HD
ENDBRANCH   1   7
TORSDOF 1
ENDMDL
