MODEL 1
REMARK minimizedAffinity -3.08143806
REMARK minimizedRMSD -1
REMARK  0 active torsions:
REMARK  status: ('A' for Active; 'I' for Inactive)
ROOT
ATOM      1  O1  BZF d   1       1.018  -0.509  -0.626  0.00  0.00    -0.204 OA
ATOM      2  C2  BZF d   1       0.229  -0.253  -1.731  0.00  0.00     0.174 A 
ATOM      3  C3  BZF d   1      -0.966   0.249  -1.360  0.00  0.00    -0.012 A 
ATOM      4  C3A BZF d   1      -0.887   0.398   0.061  0.00  0.00    -0.107 A 
ATOM      5  C4  BZF d   1      -1.756   0.863   1.006  0.00  0.00     0.055 A 
ATOM      6  C5  BZF d   1      -1.399   0.807   2.316  0.00  0.00    -0.016 A 
ATOM      7  C6  BZF d   1      -0.186   0.286   2.717  0.00  0.00     0.022 A 
ATOM      8  C7  BZF d   1       0.711  -0.183   1.816  0.00  0.00     0.029 A 
ATOM      9  C7A BZF d   1       0.367  -0.097   0.489  0.00  0.00     0.058 A 
ENDROOT
TORSDOF 0
ENDMDL
