MODEL 1
REMARK minimizedAffinity -1.54965365
REMARK minimizedRMSD -1
REMARK  0 active torsions:
REMARK  status: ('A' for Active; 'I' for Inactive)
ROOT
ATOM      1  O1  BZF d   1       0.836  -0.400  -1.869  0.00  0.00    -0.204 OA
ATOM      2  C2  BZF d   1       0.960   0.523  -2.889  0.00  0.00     0.174 A 
ATOM      3  C3  BZF d   1       0.141   1.575  -2.685  0.00  0.00    -0.012 A 
ATOM      4  C3A BZF d   1      -0.469   1.335  -1.413  0.00  0.00    -0.107 A 
ATOM      5  C4  BZF d   1      -1.367   2.033  -0.657  0.00  0.00     0.055 A 
ATOM      6  C5  BZF d   1      -1.816   1.488   0.504  0.00  0.00    -0.016 A 
ATOM      7  C6  BZF d   1      -1.393   0.248   0.936  0.00  0.00     0.022 A 
ATOM      8  C7  BZF d   1      -0.499  -0.479   0.222  0.00  0.00     0.029 A 
ATOM      9  C7A BZF d   1      -0.019   0.083  -0.935  0.00  0.00     0.058 A 
ENDROOT
TORSDOF 0
ENDMDL
