MODEL 1
REMARK minimizedAffinity -1.32703841
REMARK minimizedRMSD -1
REMARK  0 active torsions:
REMARK  status: ('A' for Active; 'I' for Inactive)
ROOT
ATOM      1  O1  BZF d   1       0.700   0.933  -0.522  0.00  0.00    -0.204 OA
ATOM      2  C2  BZF d   1       0.082  -0.098   0.159  0.00  0.00     0.174 A 
ATOM      3  C3  BZF d   1      -0.399  -1.019  -0.702  0.00  0.00    -0.012 A 
ATOM      4  C3A BZF d   1       0.022  -0.579  -1.997  0.00  0.00    -0.107 A 
ATOM      5  C4  BZF d   1      -0.135  -1.083  -3.256  0.00  0.00     0.055 A 
ATOM      6  C5  BZF d   1       0.334  -0.372  -4.315  0.00  0.00    -0.016 A 
ATOM      7  C6  BZF d   1       0.960   0.846  -4.152  0.00  0.00     0.022 A 
ATOM      8  C7  BZF d   1       1.143   1.385  -2.922  0.00  0.00     0.029 A 
ATOM      9  C7A BZF d   1       0.699   0.653  -1.847  0.00  0.00     0.058 A 
ENDROOT
TORSDOF 0
ENDMDL
