MODEL 1
REMARK minimizedAffinity -1.74600983
REMARK minimizedRMSD -1
REMARK  0 active torsions:
REMARK  status: ('A' for Active; 'I' for Inactive)
ROOT
ATOM      1  O1  BZF d   1      -1.703   0.621   0.284  0.00  0.00    -0.204 OA
ATOM      2  C2  BZF d   1      -1.900   0.991   1.600  0.00  0.00     0.174 A 
ATOM      3  C3  BZF d   1      -0.906   0.524   2.383  0.00  0.00    -0.012 A 
ATOM      4  C3A BZF d   1       0.016  -0.103   1.486  0.00  0.00    -0.107 A 
ATOM      5  C4  BZF d   1       1.211  -0.739   1.662  0.00  0.00     0.055 A 
ATOM      6  C5  BZF d   1       1.823  -1.305   0.588  0.00  0.00    -0.016 A 
ATOM      7  C6  BZF d   1       1.265  -1.258  -0.673  0.00  0.00     0.022 A 
ATOM      8  C7  BZF d   1       0.084  -0.634  -0.898  0.00  0.00     0.029 A 
ATOM      9  C7A BZF d   1      -0.521  -0.033   0.179  0.00  0.00     0.058 A 
ENDROOT
TORSDOF 0
ENDMDL
