MODEL 1
REMARK minimizedAffinity 5.17401648
REMARK minimizedRMSD -1
REMARK  0 active torsions:
REMARK  status: ('A' for Active; 'I' for Inactive)
ROOT
ATOM      1  O1  BZF d   1      -0.372  -1.519  -1.013  0.00  0.00    -0.204 OA
ATOM      2  C2  BZF d   1       0.633  -0.871  -0.321  0.00  0.00     0.174 A 
ATOM      3  C3  BZF d   1       0.144   0.192   0.348  0.00  0.00    -0.012 A 
ATOM      4  C3A BZF d   1      -1.270   0.156   0.131  0.00  0.00    -0.107 A 
ATOM      5  C4  BZF d   1      -2.305   0.941   0.552  0.00  0.00     0.055 A 
ATOM      6  C5  BZF d   1      -3.559   0.678   0.102  0.00  0.00    -0.016 A 
ATOM      7  C6  BZF d   1      -3.814  -0.358  -0.773  0.00  0.00     0.022 A 
ATOM      8  C7  BZF d   1      -2.821  -1.167  -1.215  0.00  0.00     0.029 A 
ATOM      9  C7A BZF d   1      -1.557  -0.924  -0.735  0.00  0.00     0.058 A 
ENDROOT
TORSDOF 0
ENDMDL
