MODEL 1
REMARK minimizedAffinity -1.88193655
REMARK minimizedRMSD -1
REMARK  0 active torsions:
REMARK  status: ('A' for Active; 'I' for Inactive)
ROOT
ATOM      1  O1  BZF d   1       1.065  -0.749  -0.048  0.00  0.00    -0.204 OA
ATOM      2  C2  BZF d   1       0.114  -0.445  -1.002  0.00  0.00     0.174 A 
ATOM      3  C3  BZF d   1      -1.002   0.045  -0.426  0.00  0.00    -0.012 A 
ATOM      4  C3A BZF d   1      -0.697   0.136   0.969  0.00  0.00    -0.107 A 
ATOM      5  C4  BZF d   1      -1.400   0.566   2.058  0.00  0.00     0.055 A 
ATOM      6  C5  BZF d   1      -0.841   0.454   3.292  0.00  0.00    -0.016 A 
ATOM      7  C6  BZF d   1       0.416  -0.086   3.473  0.00  0.00     0.022 A 
ATOM      8  C7  BZF d   1       1.153  -0.521   2.423  0.00  0.00     0.029 A 
ATOM      9  C7A BZF d   1       0.604  -0.380   1.172  0.00  0.00     0.058 A 
ENDROOT
TORSDOF 0
ENDMDL
