MODEL 1
REMARK minimizedAffinity -3.62732434
REMARK minimizedRMSD -1
REMARK  0 active torsions:
REMARK  status: ('A' for Active; 'I' for Inactive)
ROOT
ATOM      1  O1  BZF d   1       1.306  -0.863   2.319  0.00  0.00    -0.204 OA
ATOM      2  C2  BZF d   1       2.086  -1.468   1.352  0.00  0.00     0.174 A 
ATOM      3  C3  BZF d   1       1.463  -1.454   0.157  0.00  0.00    -0.012 A 
ATOM      4  C3A BZF d   1       0.254  -0.719   0.370  0.00  0.00    -0.107 A 
ATOM      5  C4  BZF d   1      -0.779  -0.352  -0.444  0.00  0.00     0.055 A 
ATOM      6  C5  BZF d   1      -1.844   0.300   0.092  0.00  0.00    -0.016 A 
ATOM      7  C6  BZF d   1      -1.911   0.596   1.437  0.00  0.00     0.022 A 
ATOM      8  C7  BZF d   1      -0.909   0.258   2.284  0.00  0.00     0.029 A 
ATOM      9  C7A BZF d   1       0.184  -0.372   1.740  0.00  0.00     0.058 A 
ENDROOT
TORSDOF 0
ENDMDL
