MODEL 1
REMARK minimizedAffinity -1.40279508
REMARK minimizedRMSD -1
REMARK  0 active torsions:
REMARK  status: ('A' for Active; 'I' for Inactive)
ROOT
ATOM      1  O1  BZF d   1       1.509   0.330  -0.498  0.00  0.00    -0.204 OA
ATOM      2  C2  BZF d   1       0.450  -0.361   0.058  0.00  0.00     0.174 A 
ATOM      3  C3  BZF d   1      -0.406  -0.775  -0.898  0.00  0.00    -0.012 A 
ATOM      4  C3A BZF d   1       0.201  -0.393  -2.137  0.00  0.00    -0.107 A 
ATOM      5  C4  BZF d   1      -0.161  -0.544  -3.445  0.00  0.00     0.055 A 
ATOM      6  C5  BZF d   1       0.617   0.007  -4.413  0.00  0.00    -0.016 A 
ATOM      7  C6  BZF d   1       1.760   0.718  -4.109  0.00  0.00     0.022 A 
ATOM      8  C7  BZF d   1       2.162   0.890  -2.826  0.00  0.00     0.029 A 
ATOM      9  C7A BZF d   1       1.395   0.306  -1.847  0.00  0.00     0.058 A 
ENDROOT
TORSDOF 0
ENDMDL
