MODEL 1
REMARK minimizedAffinity -2.13757706
REMARK minimizedRMSD -1
REMARK  0 active torsions:
REMARK  status: ('A' for Active; 'I' for Inactive)
ROOT
ATOM      1  O1  BZF d   1      -1.400  -3.062  -4.343  0.00  0.00    -0.204 OA
ATOM      2  C2  BZF d   1      -1.348  -2.857  -5.708  0.00  0.00     0.174 A 
ATOM      3  C3  BZF d   1      -0.630  -1.753  -5.999  0.00  0.00    -0.012 A 
ATOM      4  C3A BZF d   1      -0.129  -1.288  -4.742  0.00  0.00    -0.107 A 
ATOM      5  C4  BZF d   1       0.664  -0.237  -4.378  0.00  0.00     0.055 A 
ATOM      6  C5  BZF d   1       0.906  -0.018  -3.059  0.00  0.00    -0.016 A 
ATOM      7  C6  BZF d   1       0.369  -0.826  -2.078  0.00  0.00     0.022 A 
ATOM      8  C7  BZF d   1      -0.420  -1.883  -2.391  0.00  0.00     0.029 A 
ATOM      9  C7A BZF d   1      -0.640  -2.126  -3.724  0.00  0.00     0.058 A 
ENDROOT
TORSDOF 0
ENDMDL
