MODEL 1
REMARK minimizedAffinity 14.4496126
REMARK minimizedRMSD -1
REMARK  0 active torsions:
REMARK  status: ('A' for Active; 'I' for Inactive)
ROOT
ATOM      1  C   UNL d   1      -4.536   6.000   4.648  0.00  0.00    -0.002 A 
ATOM      2  C1  UNL d   1      -5.800   5.667   4.183  0.00  0.00     0.010 A 
ATOM      3  C2  UNL d   1      -5.996   5.330   2.842  0.00  0.00     0.041 A 
ATOM      4  C3  UNL d   1      -4.890   5.330   1.970  0.00  0.00    -0.075 A 
ATOM      5  S   UNL d   1      -4.893   4.950   0.288  0.00  0.00     0.015 SA
ATOM      6  C4  UNL d   1      -3.215   5.219   0.149  0.00  0.00     0.022 A 
ATOM      7  C5  UNL d   1      -2.652   5.591   1.346  0.00  0.00     0.026 A 
ATOM      8  C6  UNL d   1      -3.608   5.661   2.415  0.00  0.00    -0.082 A 
ATOM      9  C7  UNL d   1      -3.441   6.000   3.780  0.00  0.00     0.045 A 
ENDROOT
TORSDOF 0
ENDMDL
