MODEL 1
REMARK minimizedAffinity 6.67089605
REMARK minimizedRMSD -1
REMARK  0 active torsions:
REMARK  status: ('A' for Active; 'I' for Inactive)
ROOT
ATOM      1  C   UNL d   1      -2.989   5.941   1.193  0.00  0.00    -0.002 A 
ATOM      2  C1  UNL d   1      -4.329   5.932   0.833  0.00  0.00     0.010 A 
ATOM      3  C2  UNL d   1      -5.327   5.942   1.810  0.00  0.00     0.041 A 
ATOM      4  C3  UNL d   1      -4.951   5.963   3.168  0.00  0.00    -0.075 A 
ATOM      5  S   UNL d   1      -6.000   5.980   4.536  0.00  0.00     0.015 SA
ATOM      6  C4  UNL d   1      -4.693   6.000   5.631  0.00  0.00     0.022 A 
ATOM      7  C5  UNL d   1      -3.480   5.994   4.985  0.00  0.00     0.026 A 
ATOM      8  C6  UNL d   1      -3.608   5.973   3.555  0.00  0.00    -0.082 A 
ATOM      9  C7  UNL d   1      -2.620   5.962   2.541  0.00  0.00     0.045 A 
ENDROOT
TORSDOF 0
ENDMDL
