MODEL 1
REMARK minimizedAffinity 6.43298817
REMARK minimizedRMSD -1
REMARK  0 active torsions:
REMARK  status: ('A' for Active; 'I' for Inactive)
ROOT
ATOM      1  C   UNL d   1       1.143   0.427   4.972  0.00  0.00    -0.002 A 
ATOM      2  C1  UNL d   1       0.046   0.205   4.152  0.00  0.00     0.010 A 
ATOM      3  C2  UNL d   1      -0.447  -1.087   3.960  0.00  0.00     0.041 A 
ATOM      4  C3  UNL d   1       0.185  -2.162   4.616  0.00  0.00    -0.075 A 
ATOM      5  S   UNL d   1      -0.246  -3.830   4.531  0.00  0.00     0.015 SA
ATOM      6  C4  UNL d   1       1.014  -4.286   5.584  0.00  0.00     0.022 A 
ATOM      7  C5  UNL d   1       1.756  -3.205   5.999  0.00  0.00     0.026 A 
ATOM      8  C6  UNL d   1       1.290  -1.963   5.448  0.00  0.00    -0.082 A 
ATOM      9  C7  UNL d   1       1.767  -0.642   5.621  0.00  0.00     0.045 A 
ENDROOT
TORSDOF 0
ENDMDL
