MODEL 1
REMARK minimizedAffinity 2.85918498
REMARK minimizedRMSD -1
REMARK  0 active torsions:
REMARK  status: ('A' for Active; 'I' for Inactive)
ROOT
ATOM      1  C   UNL d   1      -0.753  -5.213   5.257  0.00  0.00    -0.002 A 
ATOM      2  C1  UNL d   1       0.416  -5.125   6.000  0.00  0.00     0.010 A 
ATOM      3  C2  UNL d   1       1.171  -3.951   6.000  0.00  0.00     0.041 A 
ATOM      4  C3  UNL d   1       0.726  -2.854   5.236  0.00  0.00    -0.075 A 
ATOM      5  S   UNL d   1       1.487  -1.314   5.085  0.00  0.00     0.015 SA
ATOM      6  C4  UNL d   1       0.277  -0.736   4.032  0.00  0.00     0.022 A 
ATOM      7  C5  UNL d   1      -0.691  -1.682   3.791  0.00  0.00     0.026 A 
ATOM      8  C6  UNL d   1      -0.449  -2.918   4.481  0.00  0.00    -0.082 A 
ATOM      9  C7  UNL d   1      -1.191  -4.123   4.500  0.00  0.00     0.045 A 
ENDROOT
TORSDOF 0
ENDMDL
