MODEL 1
REMARK minimizedAffinity 5.53821039
REMARK minimizedRMSD -1
REMARK  0 active torsions:
REMARK  status: ('A' for Active; 'I' for Inactive)
ROOT
ATOM      1  C   UNL d   1      -0.597  -5.976   5.600  0.00  0.00    -0.002 A 
ATOM      2  C1  UNL d   1       0.732  -5.770   5.944  0.00  0.00     0.010 A 
ATOM      3  C2  UNL d   1       1.259  -4.478   6.000  0.00  0.00     0.041 A 
ATOM      4  C3  UNL d   1       0.419  -3.386   5.705  0.00  0.00    -0.075 A 
ATOM      5  S   UNL d   1       0.845  -1.716   5.710  0.00  0.00     0.015 SA
ATOM      6  C4  UNL d   1      -0.726  -1.236   5.258  0.00  0.00     0.022 A 
ATOM      7  C5  UNL d   1      -1.569  -2.311   5.102  0.00  0.00     0.026 A 
ATOM      8  C6  UNL d   1      -0.923  -3.568   5.357  0.00  0.00    -0.082 A 
ATOM      9  C7  UNL d   1      -1.427  -4.890   5.308  0.00  0.00     0.045 A 
ENDROOT
TORSDOF 0
ENDMDL
