MODEL 1
REMARK minimizedAffinity 3.8846786
REMARK minimizedRMSD -1
REMARK  0 active torsions:
REMARK  status: ('A' for Active; 'I' for Inactive)
ROOT
ATOM      1  C   UNL d   1      -3.036   5.390   0.970  0.00  0.00    -0.002 A 
ATOM      2  C1  UNL d   1      -2.069   5.786   1.883  0.00  0.00     0.010 A 
ATOM      3  C2  UNL d   1      -2.402   5.998   3.223  0.00  0.00     0.041 A 
ATOM      4  C3  UNL d   1      -3.735   5.801   3.633  0.00  0.00    -0.075 A 
ATOM      5  S   UNL d   1      -4.374   5.999   5.222  0.00  0.00     0.015 SA
ATOM      6  C4  UNL d   1      -5.945   5.561   4.726  0.00  0.00     0.022 A 
ATOM      7  C5  UNL d   1      -5.999   5.267   3.384  0.00  0.00     0.026 A 
ATOM      8  C6  UNL d   1      -4.726   5.400   2.732  0.00  0.00    -0.082 A 
ATOM      9  C7  UNL d   1      -4.357   5.195   1.381  0.00  0.00     0.045 A 
ENDROOT
TORSDOF 0
ENDMDL
