MODEL 1
REMARK minimizedAffinity 13.7165432
REMARK minimizedRMSD -1
REMARK  0 active torsions:
REMARK  status: ('A' for Active; 'I' for Inactive)
ROOT
ATOM      1  C   UNL d   1      -0.802  -5.863   5.215  0.00  0.00    -0.002 A 
ATOM      2  C1  UNL d   1       0.379  -5.998   5.933  0.00  0.00     0.010 A 
ATOM      3  C2  UNL d   1       1.296  -4.947   5.995  0.00  0.00     0.041 A 
ATOM      4  C3  UNL d   1       1.003  -3.746   5.319  0.00  0.00    -0.075 A 
ATOM      5  S   UNL d   1       1.976  -2.324   5.256  0.00  0.00     0.015 SA
ATOM      6  C4  UNL d   1       0.848  -1.505   4.276  0.00  0.00     0.022 A 
ATOM      7  C5  UNL d   1      -0.251  -2.282   3.994  0.00  0.00     0.026 A 
ATOM      8  C6  UNL d   1      -0.180  -3.586   4.591  0.00  0.00    -0.082 A 
ATOM      9  C7  UNL d   1      -1.089  -4.670   4.546  0.00  0.00     0.045 A 
ENDROOT
TORSDOF 0
ENDMDL
