MODEL 1
REMARK minimizedAffinity 5.77048206
REMARK minimizedRMSD -1
REMARK  0 active torsions:
REMARK  status: ('A' for Active; 'I' for Inactive)
ROOT
ATOM      1  C   UNL d   1      -4.943  -0.369  -0.768  0.00  0.00    -0.002 A 
ATOM      2  C1  UNL d   1      -5.736   0.763  -0.646  0.00  0.00     0.010 A 
ATOM      3  C2  UNL d   1      -5.735   1.741  -1.643  0.00  0.00     0.041 A 
ATOM      4  C3  UNL d   1      -4.917   1.560  -2.775  0.00  0.00    -0.075 A 
ATOM      5  S   UNL d   1      -4.754   2.624  -4.121  0.00  0.00     0.015 SA
ATOM      6  C4  UNL d   1      -3.628   1.601  -4.889  0.00  0.00     0.022 A 
ATOM      7  C5  UNL d   1      -3.371   0.471  -4.151  0.00  0.00     0.026 A 
ATOM      8  C6  UNL d   1      -4.110   0.428  -2.920  0.00  0.00    -0.082 A 
ATOM      9  C7  UNL d   1      -4.132  -0.545  -1.892  0.00  0.00     0.045 A 
ENDROOT
TORSDOF 0
ENDMDL
