MODEL 1
REMARK minimizedAffinity -2.18993878
REMARK minimizedRMSD -1
REMARK  2 active torsions:
REMARK  status: ('A' for Active; 'I' for Inactive)
REMARK    1  A    between atoms: C2'_3  and  C1'_4 
REMARK    2  A    between atoms: C1'_4  and  C1_5 
ROOT
ATOM      1  C1  I4B d   1       0.209  -0.789   0.688  0.00  0.00    -0.075 A 
ATOM      2  C2  I4B d   1      -0.608  -0.203  -0.247  0.00  0.00     0.003 A 
ATOM      3  C3  I4B d   1      -0.259  -0.234  -1.618  0.00  0.00     0.002 A 
ATOM      4  C4  I4B d   1       0.933  -0.813  -2.003  0.00  0.00    -0.004 A 
ATOM      5  C5  I4B d   1       1.749  -1.427  -1.057  0.00  0.00     0.002 A 
ATOM      6  C6  I4B d   1       1.379  -1.425   0.296  0.00  0.00     0.003 A 
ENDROOT
BRANCH   1   7
ATOM      7  C1' I4B d   1      -0.175  -0.709   2.132  0.00  0.00     0.060 C 
BRANCH   7   8
ATOM      8  C2' I4B d   1       0.453  -1.888   2.847  0.00  0.00    -0.013 C 
ATOM      9  C4' I4B d   1       1.312  -1.433   3.998  0.00  0.00     0.013 C 
ATOM     10  C3' I4B d   1      -0.653  -2.785   3.318  0.00  0.00     0.013 C 
ENDBRANCH   7   8
ENDBRANCH   1   7
TORSDOF 2
ENDMDL
