MODEL 1
REMARK minimizedAffinity 9.15579033
REMARK minimizedRMSD -1
REMARK  2 active torsions:
REMARK  status: ('A' for Active; 'I' for Inactive)
REMARK    1  A    between atoms: C2'_3  and  C1'_4 
REMARK    2  A    between atoms: C1'_4  and  C1_5 
ROOT
ATOM      1  C1  I4B d   1       4.899  -4.047   2.333  0.00  0.00    -0.075 A 
ATOM      2  C2  I4B d   1       5.562  -2.983   2.892  0.00  0.00     0.003 A 
ATOM      3  C3  I4B d   1       5.921  -3.006   4.262  0.00  0.00     0.002 A 
ATOM      4  C4  I4B d   1       5.555  -4.084   5.042  0.00  0.00    -0.004 A 
ATOM      5  C5  I4B d   1       4.903  -5.172   4.468  0.00  0.00     0.002 A 
ATOM      6  C6  I4B d   1       4.584  -5.159   3.103  0.00  0.00     0.003 A 
ENDROOT
BRANCH   1   7
ATOM      7  C1' I4B d   1       4.507  -3.975   0.892  0.00  0.00     0.060 C 
BRANCH   7   8
ATOM      8  C2' I4B d   1       3.756  -2.677   0.677  0.00  0.00    -0.013 C 
ATOM      9  C4' I4B d   1       4.407  -1.841  -0.394  0.00  0.00     0.013 C 
ATOM     10  C3' I4B d   1       2.341  -3.015   0.314  0.00  0.00     0.013 C 
ENDBRANCH   7   8
ENDBRANCH   1   7
TORSDOF 2
ENDMDL
