MODEL 1
REMARK minimizedAffinity 4.99621105
REMARK minimizedRMSD -1
REMARK  2 active torsions:
REMARK  status: ('A' for Active; 'I' for Inactive)
REMARK    1  A    between atoms: C2'_3  and  C1'_4 
REMARK    2  A    between atoms: C1'_4  and  C1_5 
ROOT
ATOM      1  C1  I4B d   1       2.903   4.747   3.327  0.00  0.00    -0.075 A 
ATOM      2  C2  I4B d   1       3.569   3.572   3.084  0.00  0.00     0.003 A 
ATOM      3  C3  I4B d   1       4.886   3.593   2.563  0.00  0.00     0.002 A 
ATOM      4  C4  I4B d   1       5.475   4.802   2.255  0.00  0.00    -0.004 A 
ATOM      5  C5  I4B d   1       4.807   5.994   2.524  0.00  0.00     0.002 A 
ATOM      6  C6  I4B d   1       3.518   5.967   3.075  0.00  0.00     0.003 A 
ENDROOT
BRANCH   1   7
ATOM      7  C1' I4B d   1       1.502   4.687   3.847  0.00  0.00     0.060 C 
BRANCH   7   8
ATOM      8  C2' I4B d   1       1.250   5.943   4.656  0.00  0.00    -0.013 C 
ATOM      9  C4' I4B d   1      -0.158   5.975   5.190  0.00  0.00     0.013 C 
ATOM     10  C3' I4B d   1       2.252   5.985   5.770  0.00  0.00     0.013 C 
ENDBRANCH   7   8
ENDBRANCH   1   7
TORSDOF 2
ENDMDL
