MODEL 1
REMARK minimizedAffinity -2.40642858
REMARK minimizedRMSD -1
REMARK  0 active torsions:
REMARK  status: ('A' for Active; 'I' for Inactive)
ROOT
ATOM      1  C1  DEN d   1       3.265  -2.240   1.353  0.00  0.00     0.130 A 
ATOM      2  C2  DEN d   1       3.570  -2.135  -0.071  0.00  0.00    -0.031 A 
ATOM      3  C3  DEN d   1       2.489  -1.361  -0.713  0.00  0.00     0.027 A 
ATOM      4  C4  DEN d   1       0.385  -0.318   0.355  0.00  0.00     0.027 A 
ATOM      5  C5  DEN d   1      -0.312  -0.152   1.531  0.00  0.00    -0.003 A 
ATOM      6  C6  DEN d   1       0.113  -0.695   2.714  0.00  0.00     0.001 A 
ATOM      7  C7  DEN d   1       1.291  -1.393   2.757  0.00  0.00     0.017 A 
ATOM      8  C8  DEN d   1       1.996  -1.570   1.573  0.00  0.00    -0.094 A 
ATOM      9  C9  DEN d   1       1.556  -1.003   0.390  0.00  0.00    -0.072 A 
ENDROOT
TORSDOF 0
ENDMDL
