MODEL 1
REMARK minimizedAffinity -7.31600666
REMARK minimizedRMSD -1
REMARK  0 active torsions:
REMARK  status: ('A' for Active; 'I' for Inactive)
ROOT
ATOM      1  C1  DEN d   1       0.358  -0.125  -0.953  0.00  0.00     0.130 A 
ATOM      2  C2  DEN d   1      -1.017   0.247  -0.629  0.00  0.00    -0.031 A 
ATOM      3  C3  DEN d   1      -1.225   0.011   0.814  0.00  0.00     0.027 A 
ATOM      4  C4  DEN d   1       0.440  -0.884   2.569  0.00  0.00     0.027 A 
ATOM      5  C5  DEN d   1       1.722  -1.348   2.766  0.00  0.00    -0.003 A 
ATOM      6  C6  DEN d   1       2.621  -1.467   1.739  0.00  0.00     0.001 A 
ATOM      7  C7  DEN d   1       2.264  -1.076   0.476  0.00  0.00     0.017 A 
ATOM      8  C8  DEN d   1       0.971  -0.615   0.268  0.00  0.00    -0.094 A 
ATOM      9  C9  DEN d   1       0.081  -0.490   1.321  0.00  0.00    -0.072 A 
ENDROOT
TORSDOF 0
ENDMDL
