MODEL 1
REMARK minimizedAffinity -5.87588072
REMARK minimizedRMSD -1
REMARK  0 active torsions:
REMARK  status: ('A' for Active; 'I' for Inactive)
ROOT
ATOM      1  C1  DEN d   1       0.429  -0.215  -0.958  0.00  0.00     0.130 A 
ATOM      2  C2  DEN d   1      -0.781   0.399  -0.417  0.00  0.00    -0.031 A 
ATOM      3  C3  DEN d   1      -0.761   0.231   1.050  0.00  0.00     0.027 A 
ATOM      4  C4  DEN d   1       1.019  -0.910   2.529  0.00  0.00     0.027 A 
ATOM      5  C5  DEN d   1       2.218  -1.587   2.521  0.00  0.00    -0.003 A 
ATOM      6  C6  DEN d   1       2.883  -1.882   1.360  0.00  0.00     0.001 A 
ATOM      7  C7  DEN d   1       2.374  -1.459   0.160  0.00  0.00     0.017 A 
ATOM      8  C8  DEN d   1       1.162  -0.781   0.160  0.00  0.00    -0.094 A 
ATOM      9  C9  DEN d   1       0.512  -0.482   1.345  0.00  0.00    -0.072 A 
ENDROOT
TORSDOF 0
ENDMDL
