MODEL 1
REMARK minimizedAffinity -5.73744392
REMARK minimizedRMSD -1
REMARK  0 active torsions:
REMARK  status: ('A' for Active; 'I' for Inactive)
ROOT
ATOM      1  C1  DEN d   1       2.682  -2.157   1.510  0.00  0.00     0.130 A 
ATOM      2  C2  DEN d   1       2.993  -2.138   0.083  0.00  0.00    -0.031 A 
ATOM      3  C3  DEN d   1       1.975  -1.309  -0.595  0.00  0.00     0.027 A 
ATOM      4  C4  DEN d   1      -0.038  -0.058   0.422  0.00  0.00     0.027 A 
ATOM      5  C5  DEN d   1      -0.718   0.213   1.589  0.00  0.00    -0.003 A 
ATOM      6  C6  DEN d   1      -0.337  -0.310   2.795  0.00  0.00     0.001 A 
ATOM      7  C7  DEN d   1       0.783  -1.096   2.871  0.00  0.00     0.017 A 
ATOM      8  C8  DEN d   1       1.470  -1.380   1.698  0.00  0.00    -0.094 A 
ATOM      9  C9  DEN d   1       1.076  -0.831   0.489  0.00  0.00    -0.072 A 
ENDROOT
TORSDOF 0
ENDMDL
