MODEL 1
REMARK minimizedAffinity -5.79447937
REMARK minimizedRMSD -1
REMARK  0 active torsions:
REMARK  status: ('A' for Active; 'I' for Inactive)
ROOT
ATOM      1  C1  DEN d   1      -0.241   0.282   0.338  0.00  0.00     0.130 A 
ATOM      2  C2  DEN d   1      -0.087   0.200  -1.112  0.00  0.00    -0.031 A 
ATOM      3  C3  DEN d   1       1.082  -0.655  -1.400  0.00  0.00     0.027 A 
ATOM      4  C4  DEN d   1       2.657  -1.857   0.251  0.00  0.00     0.027 A 
ATOM      5  C5  DEN d   1       2.933  -2.076   1.582  0.00  0.00    -0.003 A 
ATOM      6  C6  DEN d   1       2.197  -1.501   2.584  0.00  0.00     0.001 A 
ATOM      7  C7  DEN d   1       1.120  -0.715   2.270  0.00  0.00     0.017 A 
ATOM      8  C8  DEN d   1       0.840  -0.484   0.930  0.00  0.00    -0.094 A 
ATOM      9  C9  DEN d   1       1.589  -1.084  -0.068  0.00  0.00    -0.072 A 
ENDROOT
TORSDOF 0
ENDMDL
