MODEL 1
REMARK minimizedAffinity -6.24287176
REMARK minimizedRMSD -1
REMARK  0 active torsions:
REMARK  status: ('A' for Active; 'I' for Inactive)
ROOT
ATOM      1  C1  DEN d   1      -0.823   0.179   0.342  0.00  0.00     0.130 A 
ATOM      2  C2  DEN d   1      -0.552   0.033  -1.086  0.00  0.00    -0.031 A 
ATOM      3  C3  DEN d   1       0.722  -0.697  -1.236  0.00  0.00     0.027 A 
ATOM      4  C4  DEN d   1       2.291  -1.616   0.593  0.00  0.00     0.027 A 
ATOM      5  C5  DEN d   1       2.488  -1.725   1.952  0.00  0.00    -0.003 A 
ATOM      6  C6  DEN d   1       1.620  -1.182   2.862  0.00  0.00     0.001 A 
ATOM      7  C7  DEN d   1       0.490  -0.544   2.424  0.00  0.00     0.017 A 
ATOM      8  C8  DEN d   1       0.288  -0.423   1.055  0.00  0.00    -0.094 A 
ATOM      9  C9  DEN d   1       1.172  -0.989   0.152  0.00  0.00    -0.072 A 
ENDROOT
TORSDOF 0
ENDMDL
