MODEL 1
REMARK minimizedAffinity -6.43327045
REMARK minimizedRMSD -1
REMARK  0 active torsions:
REMARK  status: ('A' for Active; 'I' for Inactive)
ROOT
ATOM      1  C1  DEN d   1       0.377  -0.598  -0.672  0.00  0.00     0.130 A 
ATOM      2  C2  DEN d   1      -0.811   0.200  -0.379  0.00  0.00    -0.031 A 
ATOM      3  C3  DEN d   1      -0.895   0.371   1.086  0.00  0.00     0.027 A 
ATOM      4  C4  DEN d   1       0.691  -0.514   2.917  0.00  0.00     0.027 A 
ATOM      5  C5  DEN d   1       1.830  -1.251   3.156  0.00  0.00    -0.003 A 
ATOM      6  C6  DEN d   1       2.539  -1.845   2.146  0.00  0.00     0.001 A 
ATOM      7  C7  DEN d   1       2.143  -1.675   0.846  0.00  0.00     0.017 A 
ATOM      8  C8  DEN d   1       0.991  -0.940   0.598  0.00  0.00    -0.094 A 
ATOM      9  C9  DEN d   1       0.294  -0.336   1.631  0.00  0.00    -0.072 A 
ENDROOT
TORSDOF 0
ENDMDL
