MODEL 1
REMARK minimizedAffinity -3.37308431
REMARK minimizedRMSD -1
REMARK  2 active torsions:
REMARK  status: ('A' for Active; 'I' for Inactive)
REMARK    1  A    between atoms: C2'_3  and  C1'_4 
REMARK    2  A    between atoms: C1'_4  and  C1_5 
ROOT
ATOM      1  C1  I4B d   1       0.340  -0.332  -0.987  0.00  0.00    -0.075 A 
ATOM      2  C2  I4B d   1       1.126   0.097   0.054  0.00  0.00     0.003 A 
ATOM      3  C3  I4B d   1       0.531   0.565   1.251  0.00  0.00     0.002 A 
ATOM      4  C4  I4B d   1      -0.844   0.635   1.344  0.00  0.00    -0.004 A 
ATOM      5  C5  I4B d   1      -1.639   0.179   0.297  0.00  0.00     0.002 A 
ATOM      6  C6  I4B d   1      -1.044  -0.319  -0.871  0.00  0.00     0.003 A 
ENDROOT
BRANCH   1   7
ATOM      7  C1' I4B d   1       1.001  -0.789  -2.248  0.00  0.00     0.060 C 
BRANCH   7   8
ATOM      8  C2' I4B d   1       1.086   0.397  -3.187  0.00  0.00    -0.013 C 
ATOM      9  C4' I4B d   1       2.471   0.989  -3.192  0.00  0.00     0.013 C 
ATOM     10  C3' I4B d   1       0.691  -0.068  -4.557  0.00  0.00     0.013 C 
ENDBRANCH   7   8
ENDBRANCH   1   7
TORSDOF 2
ENDMDL
