MODEL 1
REMARK minimizedAffinity -6.17669439
REMARK minimizedRMSD -1
REMARK  2 active torsions:
REMARK  status: ('A' for Active; 'I' for Inactive)
REMARK    1  A    between atoms: C2'_3  and  C1'_4 
REMARK    2  A    between atoms: C1'_4  and  C1_5 
ROOT
ATOM      1  C1  I4B d   1      -0.136   0.693   0.835  0.00  0.00    -0.075 A 
ATOM      2  C2  I4B d   1       1.075   0.530   1.459  0.00  0.00     0.003 A 
ATOM      3  C3  I4B d   1       1.130   0.236   2.844  0.00  0.00     0.002 A 
ATOM      4  C4  I4B d   1      -0.040   0.165   3.570  0.00  0.00    -0.004 A 
ATOM      5  C5  I4B d   1      -1.269   0.309   2.932  0.00  0.00     0.002 A 
ATOM      6  C6  I4B d   1      -1.318   0.562   1.553  0.00  0.00     0.003 A 
ENDROOT
BRANCH   1   7
ATOM      7  C1' I4B d   1      -0.157   1.035  -0.621  0.00  0.00     0.060 C 
BRANCH   7   8
ATOM      8  C2' I4B d   1       0.826   0.124  -1.328  0.00  0.00    -0.013 C 
ATOM      9  C4' I4B d   1       0.264  -1.264  -1.488  0.00  0.00     0.013 C 
ATOM     10  C3' I4B d   1       1.148   0.735  -2.659  0.00  0.00     0.013 C 
ENDBRANCH   7   8
ENDBRANCH   1   7
TORSDOF 2
ENDMDL
