MODEL 1
REMARK minimizedAffinity -4.93381929
REMARK minimizedRMSD -1
REMARK  2 active torsions:
REMARK  status: ('A' for Active; 'I' for Inactive)
REMARK    1  A    between atoms: C2'_3  and  C1'_4 
REMARK    2  A    between atoms: C1'_4  and  C1_5 
ROOT
ATOM      1  C1  I4B d   1       0.086   0.145  -0.133  0.00  0.00    -0.075 A 
ATOM      2  C2  I4B d   1      -1.242   0.359   0.141  0.00  0.00     0.003 A 
ATOM      3  C3  I4B d   1      -1.638   0.849   1.409  0.00  0.00     0.002 A 
ATOM      4  C4  I4B d   1      -0.685   1.063   2.383  0.00  0.00    -0.004 A 
ATOM      5  C5  I4B d   1       0.663   0.868   2.096  0.00  0.00     0.002 A 
ATOM      6  C6  I4B d   1       1.053   0.418   0.827  0.00  0.00     0.003 A 
ENDROOT
BRANCH   1   7
ATOM      7  C1' I4B d   1       0.467  -0.405  -1.471  0.00  0.00     0.060 C 
BRANCH   7   8
ATOM      8  C2' I4B d   1       0.937   0.749  -2.333  0.00  0.00    -0.013 C 
ATOM      9  C4' I4B d   1       2.439   0.780  -2.431  0.00  0.00     0.013 C 
ATOM     10  C3' I4B d   1       0.309   0.601  -3.687  0.00  0.00     0.013 C 
ENDBRANCH   7   8
ENDBRANCH   1   7
TORSDOF 2
ENDMDL
