MODEL 1
REMARK minimizedAffinity -3.93459964
REMARK minimizedRMSD -1
REMARK  2 active torsions:
REMARK  status: ('A' for Active; 'I' for Inactive)
REMARK    1  A    between atoms: C2'_3  and  C1'_4 
REMARK    2  A    between atoms: C1'_4  and  C1_5 
ROOT
ATOM      1  C1  I4B d   1       0.308  -0.229  -0.168  0.00  0.00    -0.075 A 
ATOM      2  C2  I4B d   1       1.145   0.360   0.747  0.00  0.00     0.003 A 
ATOM      3  C3  I4B d   1       0.611   1.095   1.832  0.00  0.00     0.002 A 
ATOM      4  C4  I4B d   1      -0.756   1.258   1.936  0.00  0.00    -0.004 A 
ATOM      5  C5  I4B d   1      -1.604   0.641   1.021  0.00  0.00     0.002 A 
ATOM      6  C6  I4B d   1      -1.070  -0.118  -0.031  0.00  0.00     0.003 A 
ENDROOT
BRANCH   1   7
ATOM      7  C1' I4B d   1       0.907  -0.970  -1.321  0.00  0.00     0.060 C 
BRANCH   7   8
ATOM      8  C2' I4B d   1       0.933  -0.037  -2.514  0.00  0.00    -0.013 C 
ATOM      9  C4' I4B d   1       2.343   0.358  -2.867  0.00  0.00     0.013 C 
ATOM     10  C3' I4B d   1       0.262  -0.732  -3.660  0.00  0.00     0.013 C 
ENDBRANCH   7   8
ENDBRANCH   1   7
TORSDOF 2
ENDMDL
