MODEL 1
REMARK minimizedAffinity -2.25266171
REMARK minimizedRMSD -1
REMARK  2 active torsions:
REMARK  status: ('A' for Active; 'I' for Inactive)
REMARK    1  A    between atoms: C2'_3  and  C1'_4 
REMARK    2  A    between atoms: C1'_4  and  C1_5 
ROOT
ATOM      1  C1  I4B d   1      -0.628   0.571   0.268  0.00  0.00    -0.075 A 
ATOM      2  C2  I4B d   1      -1.609  -0.119   0.936  0.00  0.00     0.003 A 
ATOM      3  C3  I4B d   1      -1.879   0.163   2.297  0.00  0.00     0.002 A 
ATOM      4  C4  I4B d   1      -1.114   1.100   2.961  0.00  0.00    -0.004 A 
ATOM      5  C5  I4B d   1      -0.135   1.814   2.277  0.00  0.00     0.002 A 
ATOM      6  C6  I4B d   1       0.102   1.557   0.919  0.00  0.00     0.003 A 
ENDROOT
BRANCH   1   7
ATOM      7  C1' I4B d   1      -0.347   0.224  -1.160  0.00  0.00     0.060 C 
BRANCH   7   8
ATOM      8  C2' I4B d   1       1.147   0.022  -1.306  0.00  0.00    -0.013 C 
ATOM      9  C4' I4B d   1       1.593  -1.250  -0.633  0.00  0.00     0.013 C 
ATOM     10  C3' I4B d   1       1.470   0.002  -2.770  0.00  0.00     0.013 C 
ENDBRANCH   7   8
ENDBRANCH   1   7
TORSDOF 2
ENDMDL
