MODEL 1
REMARK minimizedAffinity -0.00984383933
REMARK minimizedRMSD -1
REMARK  2 active torsions:
REMARK  status: ('A' for Active; 'I' for Inactive)
REMARK    1  A    between atoms: C2'_3  and  C1'_4 
REMARK    2  A    between atoms: C1'_4  and  C1_5 
ROOT
ATOM      1  C1  I4B d   1       0.295   0.980  -2.190  0.00  0.00    -0.075 A 
ATOM      2  C2  I4B d   1       1.585   1.443  -2.280  0.00  0.00     0.003 A 
ATOM      3  C3  I4B d   1       2.332   1.246  -3.467  0.00  0.00     0.002 A 
ATOM      4  C4  I4B d   1       1.772   0.542  -4.513  0.00  0.00    -0.004 A 
ATOM      5  C5  I4B d   1       0.457   0.094  -4.429  0.00  0.00     0.002 A 
ATOM      6  C6  I4B d   1      -0.291   0.325  -3.265  0.00  0.00     0.003 A 
ENDROOT
BRANCH   1   7
ATOM      7  C1' I4B d   1      -0.453   1.177  -0.910  0.00  0.00     0.060 C 
BRANCH   7   8
ATOM      8  C2' I4B d   1      -0.573  -0.171  -0.228  0.00  0.00    -0.013 C 
ATOM      9  C4' I4B d   1       0.689  -0.518   0.518  0.00  0.00     0.013 C 
ATOM     10  C3' I4B d   1      -1.752  -0.119   0.697  0.00  0.00     0.013 C 
ENDBRANCH   7   8
ENDBRANCH   1   7
TORSDOF 2
ENDMDL
