MODEL 1
REMARK minimizedAffinity -4.36412573
REMARK minimizedRMSD -1
REMARK  2 active torsions:
REMARK  status: ('A' for Active; 'I' for Inactive)
REMARK    1  A    between atoms: C2'_3  and  C1'_4 
REMARK    2  A    between atoms: C1'_4  and  C1_5 
ROOT
ATOM      1  C1  I4B d   1       0.085   0.257  -0.304  0.00  0.00    -0.075 A 
ATOM      2  C2  I4B d   1      -1.284   0.164  -0.307  0.00  0.00     0.003 A 
ATOM      3  C3  I4B d   1      -2.030   0.597   0.816  0.00  0.00     0.002 A 
ATOM      4  C4  I4B d   1      -1.367   1.066   1.932  0.00  0.00    -0.004 A 
ATOM      5  C5  I4B d   1       0.020   1.181   1.924  0.00  0.00     0.002 A 
ATOM      6  C6  I4B d   1       0.751   0.785   0.794  0.00  0.00     0.003 A 
ENDROOT
BRANCH   1   7
ATOM      7  C1' I4B d   1       0.843  -0.240  -1.494  0.00  0.00     0.060 C 
BRANCH   7   8
ATOM      8  C2' I4B d   1       0.458   0.615  -2.684  0.00  0.00    -0.013 C 
ATOM      9  C4' I4B d   1       1.584   1.533  -3.083  0.00  0.00     0.013 C 
ATOM     10  C3' I4B d   1       0.082  -0.301  -3.810  0.00  0.00     0.013 C 
ENDBRANCH   7   8
ENDBRANCH   1   7
TORSDOF 2
ENDMDL
