MODEL 1
REMARK minimizedAffinity -4.36957693
REMARK minimizedRMSD -1
REMARK  2 active torsions:
REMARK  status: ('A' for Active; 'I' for Inactive)
REMARK    1  A    between atoms: C2'_3  and  C1'_4 
REMARK    2  A    between atoms: C1'_4  and  C1_5 
ROOT
ATOM      1  C1  I4B d   1       0.017   0.226  -0.689  0.00  0.00    -0.075 A 
ATOM      2  C2  I4B d   1      -0.749   1.353  -0.853  0.00  0.00     0.003 A 
ATOM      3  C3  I4B d   1      -1.462   1.896   0.243  0.00  0.00     0.002 A 
ATOM      4  C4  I4B d   1      -1.421   1.255   1.465  0.00  0.00    -0.004 A 
ATOM      5  C5  I4B d   1      -0.626   0.126   1.635  0.00  0.00     0.002 A 
ATOM      6  C6  I4B d   1       0.108  -0.385   0.554  0.00  0.00     0.003 A 
ENDROOT
BRANCH   1   7
ATOM      7  C1' I4B d   1       0.731  -0.339  -1.876  0.00  0.00     0.060 C 
BRANCH   7   8
ATOM      8  C2' I4B d   1       0.530   0.613  -3.038  0.00  0.00    -0.013 C 
ATOM      9  C4' I4B d   1       1.837   1.214  -3.483  0.00  0.00     0.013 C 
ATOM     10  C3' I4B d   1      -0.122  -0.150  -4.153  0.00  0.00     0.013 C 
ENDBRANCH   7   8
ENDBRANCH   1   7
TORSDOF 2
ENDMDL
