MODEL 1
REMARK minimizedAffinity -5.17047262
REMARK minimizedRMSD -1
REMARK  2 active torsions:
REMARK  status: ('A' for Active; 'I' for Inactive)
REMARK    1  A    between atoms: C2'_3  and  C1'_4 
REMARK    2  A    between atoms: C1'_4  and  C1_5 
ROOT
ATOM      1  C1  I4B d   1      -0.269  -0.553  -0.054  0.00  0.00    -0.075 A 
ATOM      2  C2  I4B d   1      -1.381   0.073  -0.561  0.00  0.00     0.003 A 
ATOM      3  C3  I4B d   1      -2.356   0.611   0.313  0.00  0.00     0.002 A 
ATOM      4  C4  I4B d   1      -2.206   0.458   1.676  0.00  0.00    -0.004 A 
ATOM      5  C5  I4B d   1      -1.068  -0.157   2.189  0.00  0.00     0.002 A 
ATOM      6  C6  I4B d   1      -0.087  -0.655   1.319  0.00  0.00     0.003 A 
ENDROOT
BRANCH   1   7
ATOM      7  C1' I4B d   1       0.725  -1.139  -1.006  0.00  0.00     0.060 C 
BRANCH   7   8
ATOM      8  C2' I4B d   1       0.353  -0.689  -2.404  0.00  0.00    -0.013 C 
ATOM      9  C4' I4B d   1       1.481   0.072  -3.050  0.00  0.00     0.013 C 
ATOM     10  C3' I4B d   1      -0.005  -1.907  -3.202  0.00  0.00     0.013 C 
ENDBRANCH   7   8
ENDBRANCH   1   7
TORSDOF 2
ENDMDL
