MODEL 1
REMARK minimizedAffinity -2.68345332
REMARK minimizedRMSD -1
REMARK  2 active torsions:
REMARK  status: ('A' for Active; 'I' for Inactive)
REMARK    1  A    between atoms: C2'_3  and  C1'_4 
REMARK    2  A    between atoms: C1'_4  and  C1_5 
ROOT
ATOM      1  C1  I4B d   1       0.414  -0.661  -0.907  0.00  0.00    -0.075 A 
ATOM      2  C2  I4B d   1       1.567  -0.997  -0.241  0.00  0.00     0.003 A 
ATOM      3  C3  I4B d   1       1.915  -0.333   0.960  0.00  0.00     0.002 A 
ATOM      4  C4  I4B d   1       1.113   0.689   1.429  0.00  0.00    -0.004 A 
ATOM      5  C5  I4B d   1      -0.066   1.012   0.765  0.00  0.00     0.002 A 
ATOM      6  C6  I4B d   1      -0.425   0.325  -0.404  0.00  0.00     0.003 A 
ENDROOT
BRANCH   1   7
ATOM      7  C1' I4B d   1       0.094  -1.360  -2.190  0.00  0.00     0.060 C 
BRANCH   7   8
ATOM      8  C2' I4B d   1       0.342  -0.388  -3.326  0.00  0.00    -0.013 C 
ATOM      9  C4' I4B d   1       1.796  -0.005  -3.408  0.00  0.00     0.013 C 
ATOM     10  C3' I4B d   1      -0.120  -1.034  -4.598  0.00  0.00     0.013 C 
ENDBRANCH   7   8
ENDBRANCH   1   7
TORSDOF 2
ENDMDL
