MODEL 1
REMARK minimizedAffinity -0.268281519
REMARK minimizedRMSD -1
REMARK  2 active torsions:
REMARK  status: ('A' for Active; 'I' for Inactive)
REMARK    1  A    between atoms: C2'_3  and  C1'_4 
REMARK    2  A    between atoms: C1'_4  and  C1_5 
ROOT
ATOM      1  C1  I4B d   1      -0.343  -0.385   0.633  0.00  0.00    -0.075 A 
ATOM      2  C2  I4B d   1      -0.145   0.673  -0.219  0.00  0.00     0.003 A 
ATOM      3  C3  I4B d   1       1.169   1.094  -0.539  0.00  0.00     0.002 A 
ATOM      4  C4  I4B d   1       2.247   0.466   0.052  0.00  0.00    -0.004 A 
ATOM      5  C5  I4B d   1       2.044  -0.620   0.897  0.00  0.00     0.002 A 
ATOM      6  C6  I4B d   1       0.742  -1.057   1.181  0.00  0.00     0.003 A 
ENDROOT
BRANCH   1   7
ATOM      7  C1' I4B d   1      -1.744  -0.783   0.975  0.00  0.00     0.060 C 
BRANCH   7   8
ATOM      8  C2' I4B d   1      -2.107  -0.126   2.291  0.00  0.00    -0.013 C 
ATOM      9  C4' I4B d   1      -2.320  -1.153   3.372  0.00  0.00     0.013 C 
ATOM     10  C3' I4B d   1      -1.005   0.823   2.655  0.00  0.00     0.013 C 
ENDBRANCH   7   8
ENDBRANCH   1   7
TORSDOF 2
ENDMDL
