MODEL 1
REMARK minimizedAffinity 1.3096441
REMARK minimizedRMSD -1
REMARK  0 active torsions:
REMARK  status: ('A' for Active; 'I' for Inactive)
ROOT
ATOM      1  C   UNL d   1       1.250  -0.005  -0.681  0.00  0.00     0.124 A 
ATOM      2  C1  UNL d   1       0.268   0.711  -1.353  0.00  0.00     0.062 A 
ATOM      3  C2  UNL d   1      -0.669   1.452  -0.640  0.00  0.00     0.162 A 
ATOM      4  C3  UNL d   1      -0.630   1.483   0.754  0.00  0.00    -0.034 A 
ATOM      5  C4  UNL d   1       0.360   0.760   1.423  0.00  0.00     0.162 A 
ATOM      6  C5  UNL d   1       1.294   0.020   0.705  0.00  0.00     0.062 A 
ATOM      7  F   UNL d   1       2.242  -0.670   1.356  0.00  0.00    -0.097 F 
ATOM      8  F1  UNL d   1       0.427   0.767   2.762  0.00  0.00    -0.096 F 
ATOM      9  I   UNL d   1      -2.030   2.590   1.824  0.00  0.00    -0.060 I 
ATOM     10  F2  UNL d   1      -1.606   2.134  -1.316  0.00  0.00    -0.096 F 
ATOM     11  F3  UNL d   1       0.222   0.688  -2.693  0.00  0.00    -0.097 F 
ATOM     12  F4  UNL d   1       2.150  -0.718  -1.370  0.00  0.00    -0.092 F 
ENDROOT
TORSDOF 0
ENDMDL
