MODEL 1
REMARK minimizedAffinity 2.78233957
REMARK minimizedRMSD -1
REMARK  0 active torsions:
REMARK  status: ('A' for Active; 'I' for Inactive)
ROOT
ATOM      1  C   UNL d   1      -0.220   0.935   2.067  0.00  0.00     0.124 A 
ATOM      2  C1  UNL d   1       0.307  -0.347   1.992  0.00  0.00     0.062 A 
ATOM      3  C2  UNL d   1       0.260  -1.053   0.793  0.00  0.00     0.162 A 
ATOM      4  C3  UNL d   1      -0.315  -0.478  -0.340  0.00  0.00    -0.034 A 
ATOM      5  C4  UNL d   1      -0.844   0.811  -0.256  0.00  0.00     0.162 A 
ATOM      6  C5  UNL d   1      -0.794   1.513   0.944  0.00  0.00     0.062 A 
ATOM      7  F   UNL d   1      -1.304   2.751   1.015  0.00  0.00    -0.097 F 
ATOM      8  F1  UNL d   1      -1.404   1.393  -1.326  0.00  0.00    -0.096 F 
ATOM      9  I   UNL d   1      -0.388  -1.531  -2.134  0.00  0.00    -0.060 I 
ATOM     10  F2  UNL d   1       0.777  -2.290   0.749  0.00  0.00    -0.096 F 
ATOM     11  F3  UNL d   1       0.862  -0.907   3.076  0.00  0.00    -0.097 F 
ATOM     12  F4  UNL d   1      -0.174   1.612   3.222  0.00  0.00    -0.092 F 
ENDROOT
TORSDOF 0
ENDMDL
