MODEL 1
REMARK minimizedAffinity -2.95779586
REMARK minimizedRMSD -1
REMARK  0 active torsions:
REMARK  status: ('A' for Active; 'I' for Inactive)
ROOT
ATOM      1  C   UNL d   1      -0.260   2.307   0.863  0.00  0.00     0.124 A 
ATOM      2  C1  UNL d   1      -0.382   2.152  -0.511  0.00  0.00     0.062 A 
ATOM      3  C2  UNL d   1      -0.301   0.886  -1.082  0.00  0.00     0.162 A 
ATOM      4  C3  UNL d   1      -0.097  -0.237  -0.280  0.00  0.00    -0.034 A 
ATOM      5  C4  UNL d   1       0.025  -0.074   1.101  0.00  0.00     0.162 A 
ATOM      6  C5  UNL d   1      -0.057   1.194   1.668  0.00  0.00     0.062 A 
ATOM      7  F   UNL d   1       0.061   1.341   2.995  0.00  0.00    -0.097 F 
ATOM      8  F1  UNL d   1       0.221  -1.132   1.902  0.00  0.00    -0.096 F 
ATOM      9  I   UNL d   1       0.025  -2.132  -1.131  0.00  0.00    -0.060 I 
ATOM     10  F2  UNL d   1      -0.422   0.766  -2.413  0.00  0.00    -0.096 F 
ATOM     11  F3  UNL d   1      -0.578   3.225  -1.290  0.00  0.00    -0.097 F 
ATOM     12  F4  UNL d   1      -0.338   3.526   1.411  0.00  0.00    -0.092 F 
ENDROOT
TORSDOF 0
ENDMDL
