MODEL 1
REMARK minimizedAffinity -4.69502592
REMARK minimizedRMSD -1
REMARK  0 active torsions:
REMARK  status: ('A' for Active; 'I' for Inactive)
ROOT
ATOM      1  C   UNL d   1      -0.742   2.566   0.672  0.00  0.00     0.124 A 
ATOM      2  C1  UNL d   1      -0.506   1.500   1.529  0.00  0.00     0.062 A 
ATOM      3  C2  UNL d   1      -0.066   0.280   1.025  0.00  0.00     0.162 A 
ATOM      4  C3  UNL d   1       0.142   0.119  -0.345  0.00  0.00    -0.034 A 
ATOM      5  C4  UNL d   1      -0.099   1.195  -1.201  0.00  0.00     0.162 A 
ATOM      6  C5  UNL d   1      -0.539   2.412  -0.692  0.00  0.00     0.062 A 
ATOM      7  F   UNL d   1      -0.766   3.441  -1.522  0.00  0.00    -0.097 F 
ATOM      8  F1  UNL d   1       0.090   1.074  -2.524  0.00  0.00    -0.096 F 
ATOM      9  I   UNL d   1       0.799  -1.704  -1.104  0.00  0.00    -0.060 I 
ATOM     10  F2  UNL d   1       0.154  -0.732   1.876  0.00  0.00    -0.096 F 
ATOM     11  F3  UNL d   1      -0.703   1.646   2.848  0.00  0.00    -0.097 F 
ATOM     12  F4  UNL d   1      -1.166   3.739   1.160  0.00  0.00    -0.092 F 
ENDROOT
TORSDOF 0
ENDMDL
