MODEL 1
REMARK minimizedAffinity -3.83863425
REMARK minimizedRMSD -1
REMARK  0 active torsions:
REMARK  status: ('A' for Active; 'I' for Inactive)
ROOT
ATOM      1  C   UNL d   1      -0.645   2.890   0.981  0.00  0.00     0.124 A 
ATOM      2  C1  UNL d   1      -0.197   1.814   1.735  0.00  0.00     0.062 A 
ATOM      3  C2  UNL d   1       0.126   0.611   1.114  0.00  0.00     0.162 A 
ATOM      4  C3  UNL d   1       0.002   0.477  -0.268  0.00  0.00    -0.034 A 
ATOM      5  C4  UNL d   1      -0.451   1.563  -1.020  0.00  0.00     0.162 A 
ATOM      6  C5  UNL d   1      -0.772   2.763  -0.395  0.00  0.00     0.062 A 
ATOM      7  F   UNL d   1      -1.205   3.802  -1.124  0.00  0.00    -0.097 F 
ATOM      8  F1  UNL d   1      -0.582   1.468  -2.351  0.00  0.00    -0.096 F 
ATOM      9  I   UNL d   1       0.483  -1.321  -1.200  0.00  0.00    -0.060 I 
ATOM     10  F2  UNL d   1       0.557  -0.412   1.868  0.00  0.00    -0.096 F 
ATOM     11  F3  UNL d   1      -0.074   1.934   3.065  0.00  0.00    -0.097 F 
ATOM     12  F4  UNL d   1      -0.956   4.046   1.581  0.00  0.00    -0.092 F 
ENDROOT
TORSDOF 0
ENDMDL
