MODEL 1
REMARK minimizedAffinity -5.09856606
REMARK minimizedRMSD -1
REMARK  0 active torsions:
REMARK  status: ('A' for Active; 'I' for Inactive)
ROOT
ATOM      1  C   UNL d   1      -0.836   2.835   1.409  0.00  0.00     0.124 A 
ATOM      2  C1  UNL d   1      -1.018   2.735   0.037  0.00  0.00     0.062 A 
ATOM      3  C2  UNL d   1      -0.673   1.565  -0.632  0.00  0.00     0.162 A 
ATOM      4  C3  UNL d   1      -0.143   0.483   0.071  0.00  0.00    -0.034 A 
ATOM      5  C4  UNL d   1       0.038   0.590   1.451  0.00  0.00     0.162 A 
ATOM      6  C5  UNL d   1      -0.308   1.763   2.115  0.00  0.00     0.062 A 
ATOM      7  F   UNL d   1      -0.132   1.857   3.441  0.00  0.00    -0.097 F 
ATOM      8  F1  UNL d   1       0.545  -0.431   2.157  0.00  0.00    -0.096 F 
ATOM      9  I   UNL d   1       0.374  -1.270  -0.926  0.00  0.00    -0.060 I 
ATOM     10  F2  UNL d   1      -0.860   1.497  -1.959  0.00  0.00    -0.096 F 
ATOM     11  F3  UNL d   1      -1.527   3.770  -0.647  0.00  0.00    -0.097 F 
ATOM     12  F4  UNL d   1      -1.168   3.963   2.050  0.00  0.00    -0.092 F 
ENDROOT
TORSDOF 0
ENDMDL
