MODEL 1
REMARK minimizedAffinity -3.60447669
REMARK minimizedRMSD -1
REMARK  0 active torsions:
REMARK  status: ('A' for Active; 'I' for Inactive)
ROOT
ATOM      1  C   UNL d   1      -0.929   2.778   0.846  0.00  0.00     0.124 A 
ATOM      2  C1  UNL d   1      -0.879   2.694  -0.539  0.00  0.00     0.062 A 
ATOM      3  C2  UNL d   1      -0.428   1.530  -1.154  0.00  0.00     0.162 A 
ATOM      4  C3  UNL d   1      -0.023   0.439  -0.385  0.00  0.00    -0.034 A 
ATOM      5  C4  UNL d   1      -0.075   0.531   1.007  0.00  0.00     0.162 A 
ATOM      6  C5  UNL d   1      -0.527   1.696   1.617  0.00  0.00     0.062 A 
ATOM      7  F   UNL d   1      -0.575   1.775   2.955  0.00  0.00    -0.097 F 
ATOM      8  F1  UNL d   1       0.306  -0.500   1.776  0.00  0.00    -0.096 F 
ATOM      9  I   UNL d   1       0.653  -1.303  -1.302  0.00  0.00    -0.060 I 
ATOM     10  F2  UNL d   1      -0.390   1.478  -2.494  0.00  0.00    -0.096 F 
ATOM     11  F3  UNL d   1      -1.266   3.738  -1.286  0.00  0.00    -0.097 F 
ATOM     12  F4  UNL d   1      -1.363   3.899   1.436  0.00  0.00    -0.092 F 
ENDROOT
TORSDOF 0
ENDMDL
