MODEL 1
REMARK minimizedAffinity -4.05366945
REMARK minimizedRMSD -1
REMARK  0 active torsions:
REMARK  status: ('A' for Active; 'I' for Inactive)
ROOT
ATOM      1  C   UNL d   1      -0.375   2.981   1.082  0.00  0.00     0.124 A 
ATOM      2  C1  UNL d   1      -0.571   2.890  -0.289  0.00  0.00     0.062 A 
ATOM      3  C2  UNL d   1      -0.302   1.699  -0.957  0.00  0.00     0.162 A 
ATOM      4  C3  UNL d   1       0.165   0.588  -0.255  0.00  0.00    -0.034 A 
ATOM      5  C4  UNL d   1       0.360   0.688   1.124  0.00  0.00     0.162 A 
ATOM      6  C5  UNL d   1       0.090   1.880   1.787  0.00  0.00     0.062 A 
ATOM      7  F   UNL d   1       0.280   1.966   3.111  0.00  0.00    -0.097 F 
ATOM      8  F1  UNL d   1       0.808  -0.361   1.830  0.00  0.00    -0.096 F 
ATOM      9  I   UNL d   1       0.568  -1.194  -1.250  0.00  0.00    -0.060 I 
ATOM     10  F2  UNL d   1      -0.500   1.640  -2.283  0.00  0.00    -0.096 F 
ATOM     11  F3  UNL d   1      -1.020   3.953  -0.973  0.00  0.00    -0.097 F 
ATOM     12  F4  UNL d   1      -0.634   4.129   1.722  0.00  0.00    -0.092 F 
ENDROOT
TORSDOF 0
ENDMDL
