MODEL 1
REMARK minimizedAffinity -4.39384699
REMARK minimizedRMSD -1
REMARK  1 active torsions:
REMARK  status: ('A' for Active; 'I' for Inactive)
REMARK    1  A    between atoms: N_2  and  C1_3 
ROOT
ATOM      1  C1  UNL d   1       0.635  -0.956   0.551  0.00  0.00     0.143 A 
ATOM      2  C2  UNL d   1       1.494   0.147   0.584  0.00  0.00    -0.057 A 
ATOM      3  C3  UNL d   1       2.795   0.039   1.089  0.00  0.00     0.033 A 
ATOM      4  C4  UNL d   1       3.251  -1.173   1.600  0.00  0.00    -0.042 A 
ATOM      5  C5  UNL d   1       2.405  -2.276   1.600  0.00  0.00     0.033 A 
ATOM      6  C6  UNL d   1       1.109  -2.163   1.088  0.00  0.00    -0.057 A 
ENDROOT
BRANCH   1   7
ATOM      7  N   UNL d   1      -0.703  -0.889   0.151  0.00  0.00    -0.732 N 
ATOM      8  C   UNL d   1      -1.357   0.391  -0.018  0.00  0.00     0.284 C 
ATOM      9  H3  UNL d   1      -0.927  -1.569  -0.571  0.00  0.00     0.395 HD
ENDBRANCH   1   7
TORSDOF 1
ENDMDL
