MODEL 1
REMARK minimizedAffinity -4.47359324
REMARK minimizedRMSD -1
REMARK  1 active torsions:
REMARK  status: ('A' for Active; 'I' for Inactive)
REMARK    1  A    between atoms: N_2  and  C1_3 
ROOT
ATOM      1  C1  UNL d   1       1.243  -0.110   0.079  0.00  0.00     0.143 A 
ATOM      2  C2  UNL d   1       0.229  -1.065  -0.051  0.00  0.00    -0.057 A 
ATOM      3  C3  UNL d   1      -1.106  -0.686  -0.237  0.00  0.00     0.033 A 
ATOM      4  C4  UNL d   1      -1.455   0.660  -0.268  0.00  0.00    -0.042 A 
ATOM      5  C5  UNL d   1      -0.467   1.626  -0.116  0.00  0.00     0.033 A 
ATOM      6  C6  UNL d   1       0.865   1.242   0.063  0.00  0.00    -0.057 A 
ENDROOT
BRANCH   1   7
ATOM      7  N   UNL d   1       2.574  -0.423   0.364  0.00  0.00    -0.732 N 
ATOM      8  C   UNL d   1       3.214   0.095   1.554  0.00  0.00     0.284 C 
ATOM      9  H3  UNL d   1       2.797  -1.395   0.162  0.00  0.00     0.395 HD
ENDBRANCH   1   7
TORSDOF 1
ENDMDL
