MODEL 1
REMARK minimizedAffinity -2.43266511
REMARK minimizedRMSD -1
REMARK  1 active torsions:
REMARK  status: ('A' for Active; 'I' for Inactive)
REMARK    1  A    between atoms: N_2  and  C1_3 
ROOT
ATOM      1  C1  UNL d   1      -2.026   0.047  -0.996  0.00  0.00     0.143 A 
ATOM      2  C2  UNL d   1      -2.812   1.131  -1.404  0.00  0.00    -0.057 A 
ATOM      3  C3  UNL d   1      -3.468   1.128  -2.641  0.00  0.00     0.033 A 
ATOM      4  C4  UNL d   1      -3.325   0.049  -3.508  0.00  0.00    -0.042 A 
ATOM      5  C5  UNL d   1      -2.529  -1.028  -3.134  0.00  0.00     0.033 A 
ATOM      6  C6  UNL d   1      -1.882  -1.022  -1.895  0.00  0.00    -0.057 A 
ENDROOT
BRANCH   1   7
ATOM      7  N   UNL d   1      -1.270   0.033   0.178  0.00  0.00    -0.732 N 
ATOM      8  C   UNL d   1       0.115   0.451   0.168  0.00  0.00     0.284 C 
ATOM      9  H3  UNL d   1      -1.798   0.362   0.984  0.00  0.00     0.395 HD
ENDBRANCH   1   7
TORSDOF 1
ENDMDL
