MODEL 1
REMARK minimizedAffinity -5.65757847
REMARK minimizedRMSD -1
REMARK  1 active torsions:
REMARK  status: ('A' for Active; 'I' for Inactive)
REMARK    1  A    between atoms: N_2  and  C1_3 
ROOT
ATOM      1  C1  UNL d   1       1.167  -1.738   1.666  0.00  0.00     0.143 A 
ATOM      2  C2  UNL d   1       0.733  -0.799   0.723  0.00  0.00    -0.057 A 
ATOM      3  C3  UNL d   1       1.623   0.111   0.142  0.00  0.00     0.033 A 
ATOM      4  C4  UNL d   1       2.963   0.118   0.515  0.00  0.00    -0.042 A 
ATOM      5  C5  UNL d   1       3.412  -0.789   1.468  0.00  0.00     0.033 A 
ATOM      6  C6  UNL d   1       2.519  -1.700   2.041  0.00  0.00    -0.057 A 
ENDROOT
BRANCH   1   7
ATOM      7  N   UNL d   1       0.312  -2.603   2.352  0.00  0.00    -0.732 N 
ATOM      8  C   UNL d   1       0.505  -4.036   2.284  0.00  0.00     0.284 C 
ATOM      9  H3  UNL d   1       0.074  -2.259   3.279  0.00  0.00     0.395 HD
ENDBRANCH   1   7
TORSDOF 1
ENDMDL
