MODEL 1
REMARK minimizedAffinity -3.34913063
REMARK minimizedRMSD -1
REMARK  1 active torsions:
REMARK  status: ('A' for Active; 'I' for Inactive)
REMARK    1  A    between atoms: N_2  and  C1_3 
ROOT
ATOM      1  C1  UNL d   1      -1.721  -0.075  -1.372  0.00  0.00     0.143 A 
ATOM      2  C2  UNL d   1      -1.854   1.109  -2.106  0.00  0.00    -0.057 A 
ATOM      3  C3  UNL d   1      -2.497   1.124  -3.349  0.00  0.00     0.033 A 
ATOM      4  C4  UNL d   1      -2.995  -0.054  -3.896  0.00  0.00    -0.042 A 
ATOM      5  C5  UNL d   1      -2.852  -1.247  -3.196  0.00  0.00     0.033 A 
ATOM      6  C6  UNL d   1      -2.215  -1.254  -1.951  0.00  0.00    -0.057 A 
ENDROOT
BRANCH   1   7
ATOM      7  N   UNL d   1      -1.006  -0.173  -0.176  0.00  0.00    -0.732 N 
ATOM      8  C   UNL d   1       0.186   0.621   0.037  0.00  0.00     0.284 C 
ATOM      9  H3  UNL d   1      -1.614  -0.235   0.637  0.00  0.00     0.395 HD
ENDBRANCH   1   7
TORSDOF 1
ENDMDL
