MODEL 1
REMARK minimizedAffinity 12.9247599
REMARK minimizedRMSD -1
REMARK  1 active torsions:
REMARK  status: ('A' for Active; 'I' for Inactive)
REMARK    1  A    between atoms: C1_2  and  C2_3 
ROOT
ATOM      1  C2  UNL d   1       4.696   1.504  -1.185  0.00  0.00    -0.073 A 
ATOM      2  C3  UNL d   1       5.208   0.505  -0.349  0.00  0.00    -0.002 A 
ATOM      3  C4  UNL d   1       4.347  -0.388   0.291  0.00  0.00     0.004 A 
ATOM      4  C5  UNL d   1       2.969  -0.298   0.095  0.00  0.00    -0.004 A 
ATOM      5  C6  UNL d   1       2.439   0.686  -0.747  0.00  0.00    -0.075 A 
ATOM      6  C7  UNL d   1       0.959   0.798  -0.966  0.00  0.00     0.076 C 
ATOM      7  C8  UNL d   1       3.310   1.581  -1.383  0.00  0.00     0.001 A 
ENDROOT
BRANCH   1   8
ATOM      8  C1  UNL d   1       5.622   2.467  -1.883  0.00  0.00     0.053 C 
ATOM      9  C   UNL d   1       5.997   3.642  -0.993  0.00  0.00     0.018 C 
ENDBRANCH   1   8
TORSDOF 1
ENDMDL
