MODEL 1
REMARK minimizedAffinity 11.3725138
REMARK minimizedRMSD -1
REMARK  1 active torsions:
REMARK  status: ('A' for Active; 'I' for Inactive)
REMARK    1  A    between atoms: C1_2  and  C2_3 
ROOT
ATOM      1  C2  UNL d   1       3.849   1.154  -0.126  0.00  0.00    -0.073 A 
ATOM      2  C3  UNL d   1       2.798   2.029   0.172  0.00  0.00    -0.002 A 
ATOM      3  C4  UNL d   1       1.486   1.556   0.244  0.00  0.00     0.004 A 
ATOM      4  C5  UNL d   1       1.214   0.206   0.026  0.00  0.00    -0.004 A 
ATOM      5  C6  UNL d   1       2.252  -0.686  -0.262  0.00  0.00    -0.075 A 
ATOM      6  C7  UNL d   1       1.976  -2.141  -0.501  0.00  0.00     0.076 C 
ATOM      7  C8  UNL d   1       3.566  -0.203  -0.335  0.00  0.00     0.001 A 
ENDROOT
BRANCH   1   8
ATOM      8  C1  UNL d   1       5.267   1.658  -0.198  0.00  0.00     0.053 C 
ATOM      9  C   UNL d   1       5.604   2.217  -1.572  0.00  0.00     0.018 C 
ENDBRANCH   1   8
TORSDOF 1
ENDMDL
