MODEL 1
REMARK minimizedAffinity 7.60125923
REMARK minimizedRMSD -1
REMARK  1 active torsions:
REMARK  status: ('A' for Active; 'I' for Inactive)
REMARK    1  A    between atoms: C1_2  and  C2_3 
ROOT
ATOM      1  C2  UNL d   1      -0.340  -4.229   4.923  0.00  0.00    -0.073 A 
ATOM      2  C3  UNL d   1       0.690  -4.516   5.826  0.00  0.00    -0.002 A 
ATOM      3  C4  UNL d   1       1.745  -3.619   6.000  0.00  0.00     0.004 A 
ATOM      4  C5  UNL d   1       1.777  -2.425   5.280  0.00  0.00    -0.004 A 
ATOM      5  C6  UNL d   1       0.751  -2.115   4.381  0.00  0.00    -0.075 A 
ATOM      6  C7  UNL d   1       0.773  -0.836   3.597  0.00  0.00     0.076 C 
ATOM      7  C8  UNL d   1      -0.303  -3.022   4.210  0.00  0.00     0.001 A 
ENDROOT
BRANCH   1   8
ATOM      8  C1  UNL d   1      -1.485  -5.191   4.736  0.00  0.00     0.053 C 
ATOM      9  C   UNL d   1      -1.772  -5.987   5.999  0.00  0.00     0.018 C 
ENDBRANCH   1   8
TORSDOF 1
ENDMDL
