MODEL 1
REMARK minimizedAffinity 4.78957224
REMARK minimizedRMSD -1
REMARK  1 active torsions:
REMARK  status: ('A' for Active; 'I' for Inactive)
REMARK    1  A    between atoms: C1_2  and  C2_3 
ROOT
ATOM      1  C2  UNL d   1      -4.030   5.162   2.148  0.00  0.00    -0.073 A 
ATOM      2  C3  UNL d   1      -4.884   4.109   1.801  0.00  0.00    -0.002 A 
ATOM      3  C4  UNL d   1      -5.856   3.665   2.699  0.00  0.00     0.004 A 
ATOM      4  C5  UNL d   1      -5.989   4.273   3.947  0.00  0.00    -0.004 A 
ATOM      5  C6  UNL d   1      -5.153   5.335   4.308  0.00  0.00    -0.075 A 
ATOM      6  C7  UNL d   1      -5.281   5.998   5.647  0.00  0.00     0.076 C 
ATOM      7  C8  UNL d   1      -4.177   5.773   3.402  0.00  0.00     0.001 A 
ENDROOT
BRANCH   1   8
ATOM      8  C1  UNL d   1      -2.983   5.649   1.180  0.00  0.00     0.053 C 
ATOM      9  C   UNL d   1      -1.670   5.970   1.875  0.00  0.00     0.018 C 
ENDBRANCH   1   8
TORSDOF 1
ENDMDL
