MODEL 1
REMARK minimizedAffinity 2.31652713
REMARK minimizedRMSD -1
REMARK  1 active torsions:
REMARK  status: ('A' for Active; 'I' for Inactive)
REMARK    1  A    between atoms: C1_2  and  C2_3 
ROOT
ATOM      1  C2  UNL d   1      -0.361  -4.489   5.191  0.00  0.00    -0.073 A 
ATOM      2  C3  UNL d   1       0.745  -4.773   6.000  0.00  0.00    -0.002 A 
ATOM      3  C4  UNL d   1       1.869  -3.946   5.974  0.00  0.00     0.004 A 
ATOM      4  C5  UNL d   1       1.896  -2.825   5.145  0.00  0.00    -0.004 A 
ATOM      5  C6  UNL d   1       0.796  -2.518   4.338  0.00  0.00    -0.075 A 
ATOM      6  C7  UNL d   1       0.810  -1.316   3.439  0.00  0.00     0.076 C 
ATOM      7  C8  UNL d   1      -0.328  -3.355   4.368  0.00  0.00     0.001 A 
ENDROOT
BRANCH   1   8
ATOM      8  C1  UNL d   1      -1.579  -5.376   5.221  0.00  0.00     0.053 C 
ATOM      9  C   UNL d   1      -1.988  -5.829   3.828  0.00  0.00     0.018 C 
ENDBRANCH   1   8
TORSDOF 1
ENDMDL
