MODEL 1
REMARK minimizedAffinity -3.35413766
REMARK minimizedRMSD -1
REMARK  0 active torsions:
REMARK  status: ('A' for Active; 'I' for Inactive)
ROOT
ATOM      1  C   UNL d   1       1.329   2.388   0.248  0.00  0.00     0.124 A 
ATOM      2  C1  UNL d   1       2.103   1.263   0.493  0.00  0.00     0.062 A 
ATOM      3  C2  UNL d   1       1.557  -0.009   0.344  0.00  0.00     0.162 A 
ATOM      4  C3  UNL d   1       0.229  -0.162  -0.054  0.00  0.00    -0.034 A 
ATOM      5  C4  UNL d   1      -0.543   0.975  -0.298  0.00  0.00     0.162 A 
ATOM      6  C5  UNL d   1       0.007   2.243  -0.148  0.00  0.00     0.062 A 
ATOM      7  F   UNL d   1      -0.743   3.330  -0.385  0.00  0.00    -0.097 F 
ATOM      8  F1  UNL d   1      -1.824   0.864  -0.683  0.00  0.00    -0.096 F 
ATOM      9  I   UNL d   1      -0.591  -2.061  -0.278  0.00  0.00    -0.060 I 
ATOM     10  F2  UNL d   1       2.329  -1.078   0.588  0.00  0.00    -0.096 F 
ATOM     11  F3  UNL d   1       3.381   1.400   0.876  0.00  0.00    -0.097 F 
ATOM     12  F4  UNL d   1       1.857   3.611   0.393  0.00  0.00    -0.092 F 
ENDROOT
TORSDOF 0
ENDMDL
