MODEL 1
REMARK minimizedAffinity 9.1610651
REMARK minimizedRMSD -1
REMARK  0 active torsions:
REMARK  status: ('A' for Active; 'I' for Inactive)
ROOT
ATOM      1  C   UNL d   1      -1.731   1.669  -0.447  0.00  0.00     0.124 A 
ATOM      2  C1  UNL d   1      -0.941   0.947   0.437  0.00  0.00     0.062 A 
ATOM      3  C2  UNL d   1      -0.884  -0.441   0.350  0.00  0.00     0.162 A 
ATOM      4  C3  UNL d   1      -1.618  -1.117  -0.625  0.00  0.00    -0.034 A 
ATOM      5  C4  UNL d   1      -2.411  -0.383  -1.509  0.00  0.00     0.162 A 
ATOM      6  C5  UNL d   1      -2.464   1.004  -1.419  0.00  0.00     0.062 A 
ATOM      7  F   UNL d   1      -3.228   1.700  -2.274  0.00  0.00    -0.097 F 
ATOM      8  F1  UNL d   1      -3.129  -1.001  -2.459  0.00  0.00    -0.096 F 
ATOM      9  I   UNL d   1      -1.535  -3.192  -0.757  0.00  0.00    -0.060 I 
ATOM     10  F2  UNL d   1      -0.112  -1.114   1.217  0.00  0.00    -0.096 F 
ATOM     11  F3  UNL d   1      -0.232   1.587   1.377  0.00  0.00    -0.097 F 
ATOM     12  F4  UNL d   1      -1.784   3.004  -0.361  0.00  0.00    -0.092 F 
ENDROOT
TORSDOF 0
ENDMDL
