MODEL 1
REMARK minimizedAffinity 0.666026592
REMARK minimizedRMSD -1
REMARK  0 active torsions:
REMARK  status: ('A' for Active; 'I' for Inactive)
ROOT
ATOM      1  C   UNL d   1       1.208   1.951   0.828  0.00  0.00     0.124 A 
ATOM      2  C1  UNL d   1       1.855   0.915   0.168  0.00  0.00     0.062 A 
ATOM      3  C2  UNL d   1       1.125  -0.157  -0.338  0.00  0.00     0.162 A 
ATOM      4  C3  UNL d   1      -0.261  -0.197  -0.188  0.00  0.00    -0.034 A 
ATOM      5  C4  UNL d   1      -0.905   0.848   0.477  0.00  0.00     0.162 A 
ATOM      6  C5  UNL d   1      -0.170   1.917   0.981  0.00  0.00     0.062 A 
ATOM      7  F   UNL d   1      -0.797   2.917   1.618  0.00  0.00    -0.097 F 
ATOM      8  F1  UNL d   1      -2.236   0.841   0.639  0.00  0.00    -0.096 F 
ATOM      9  I   UNL d   1      -1.357  -1.797  -0.943  0.00  0.00    -0.060 I 
ATOM     10  F2  UNL d   1       1.776  -1.144  -0.970  0.00  0.00    -0.096 F 
ATOM     11  F3  UNL d   1       3.187   0.945   0.019  0.00  0.00    -0.097 F 
ATOM     12  F4  UNL d   1       1.914   2.980   1.314  0.00  0.00    -0.092 F 
ENDROOT
TORSDOF 0
ENDMDL
