MODEL 1
REMARK minimizedAffinity 2.15399742
REMARK minimizedRMSD -1
REMARK  0 active torsions:
REMARK  status: ('A' for Active; 'I' for Inactive)
ROOT
ATOM      1  C   UNL d   1       0.668   2.251   0.894  0.00  0.00     0.124 A 
ATOM      2  C1  UNL d   1       1.600   1.224   0.863  0.00  0.00     0.062 A 
ATOM      3  C2  UNL d   1       1.206  -0.068   0.526  0.00  0.00     0.162 A 
ATOM      4  C3  UNL d   1      -0.126  -0.340   0.217  0.00  0.00    -0.034 A 
ATOM      5  C4  UNL d   1      -1.058   0.699   0.252  0.00  0.00     0.162 A 
ATOM      6  C5  UNL d   1      -0.660   1.988   0.589  0.00  0.00     0.062 A 
ATOM      7  F   UNL d   1      -1.562   2.980   0.619  0.00  0.00    -0.097 F 
ATOM      8  F1  UNL d   1      -2.348   0.473  -0.039  0.00  0.00    -0.096 F 
ATOM      9  I   UNL d   1      -0.719  -2.270  -0.287  0.00  0.00    -0.060 I 
ATOM     10  F2  UNL d   1       2.129  -1.042   0.503  0.00  0.00    -0.096 F 
ATOM     11  F3  UNL d   1       2.884   1.475   1.158  0.00  0.00    -0.097 F 
ATOM     12  F4  UNL d   1       1.049   3.493   1.220  0.00  0.00    -0.092 F 
ENDROOT
TORSDOF 0
ENDMDL
