MODEL 1
REMARK minimizedAffinity -4.07799482
REMARK minimizedRMSD -1
REMARK  0 active torsions:
REMARK  status: ('A' for Active; 'I' for Inactive)
ROOT
ATOM      1  C   UNL d   1       1.266   2.850   0.184  0.00  0.00     0.124 A 
ATOM      2  C1  UNL d   1      -0.049   2.704  -0.236  0.00  0.00     0.062 A 
ATOM      3  C2  UNL d   1      -0.628   1.440  -0.297  0.00  0.00     0.162 A 
ATOM      4  C3  UNL d   1       0.107   0.311   0.064  0.00  0.00    -0.034 A 
ATOM      5  C4  UNL d   1       1.429   0.466   0.485  0.00  0.00     0.162 A 
ATOM      6  C5  UNL d   1       2.004   1.731   0.544  0.00  0.00     0.062 A 
ATOM      7  F   UNL d   1       3.274   1.870   0.950  0.00  0.00    -0.097 F 
ATOM      8  F1  UNL d   1       2.164  -0.599   0.839  0.00  0.00    -0.096 F 
ATOM      9  I   UNL d   1      -0.756  -1.581  -0.025  0.00  0.00    -0.060 I 
ATOM     10  F2  UNL d   1      -1.901   1.329  -0.706  0.00  0.00    -0.096 F 
ATOM     11  F3  UNL d   1      -0.763   3.784  -0.585  0.00  0.00    -0.097 F 
ATOM     12  F4  UNL d   1       1.821   4.068   0.240  0.00  0.00    -0.092 F 
ENDROOT
TORSDOF 0
ENDMDL
