MODEL 1
REMARK minimizedAffinity 1.06738639
REMARK minimizedRMSD -1
REMARK  0 active torsions:
REMARK  status: ('A' for Active; 'I' for Inactive)
ROOT
ATOM      1  C   UNL d   1       0.051   1.666   0.429  0.00  0.00     0.124 A 
ATOM      2  C1  UNL d   1      -1.186   1.461  -0.167  0.00  0.00     0.062 A 
ATOM      3  C2  UNL d   1      -1.421   0.311  -0.915  0.00  0.00     0.162 A 
ATOM      4  C3  UNL d   1      -0.417  -0.644  -1.070  0.00  0.00    -0.034 A 
ATOM      5  C4  UNL d   1       0.824  -0.432  -0.469  0.00  0.00     0.162 A 
ATOM      6  C5  UNL d   1       1.054   0.719   0.278  0.00  0.00     0.062 A 
ATOM      7  F   UNL d   1       2.250   0.915   0.853  0.00  0.00    -0.097 F 
ATOM      8  F1  UNL d   1       1.812  -1.330  -0.598  0.00  0.00    -0.096 F 
ATOM      9  I   UNL d   1      -0.765  -2.365  -2.188  0.00  0.00    -0.060 I 
ATOM     10  F2  UNL d   1      -2.626   0.140  -1.480  0.00  0.00    -0.096 F 
ATOM     11  F3  UNL d   1      -2.157   2.375  -0.023  0.00  0.00    -0.097 F 
ATOM     12  F4  UNL d   1       0.275   2.774   1.148  0.00  0.00    -0.092 F 
ENDROOT
TORSDOF 0
ENDMDL
