MODEL 1
REMARK minimizedAffinity -4.30245638
REMARK minimizedRMSD -1
REMARK  0 active torsions:
REMARK  status: ('A' for Active; 'I' for Inactive)
ROOT
ATOM      1  C   UNL d   1       1.448   3.016   0.320  0.00  0.00     0.124 A 
ATOM      2  C1  UNL d   1       0.112   2.724   0.558  0.00  0.00     0.062 A 
ATOM      3  C2  UNL d   1      -0.325   1.403   0.560  0.00  0.00     0.162 A 
ATOM      4  C3  UNL d   1       0.574   0.363   0.325  0.00  0.00    -0.034 A 
ATOM      5  C4  UNL d   1       1.916   0.665   0.085  0.00  0.00     0.162 A 
ATOM      6  C5  UNL d   1       2.348   1.987   0.084  0.00  0.00     0.062 A 
ATOM      7  F   UNL d   1       3.639   2.267  -0.147  0.00  0.00    -0.097 F 
ATOM      8  F1  UNL d   1       2.807  -0.311  -0.145  0.00  0.00    -0.096 F 
ATOM      9  I   UNL d   1      -0.077  -1.614   0.328  0.00  0.00    -0.060 I 
ATOM     10  F2  UNL d   1      -1.622   1.150   0.793  0.00  0.00    -0.096 F 
ATOM     11  F3  UNL d   1      -0.760   3.717   0.785  0.00  0.00    -0.097 F 
ATOM     12  F4  UNL d   1       1.866   4.289   0.317  0.00  0.00    -0.092 F 
ENDROOT
TORSDOF 0
ENDMDL
