MODEL 1
REMARK minimizedAffinity -4.72095013
REMARK minimizedRMSD -1
REMARK  0 active torsions:
REMARK  status: ('A' for Active; 'I' for Inactive)
ROOT
ATOM      1  C   UNL d   1       0.765   2.380   0.386  0.00  0.00     0.124 A 
ATOM      2  C1  UNL d   1       1.647   1.315   0.512  0.00  0.00     0.062 A 
ATOM      3  C2  UNL d   1       1.184   0.007   0.408  0.00  0.00     0.162 A 
ATOM      4  C3  UNL d   1      -0.168  -0.245   0.176  0.00  0.00    -0.034 A 
ATOM      5  C4  UNL d   1      -1.049   0.831   0.051  0.00  0.00     0.162 A 
ATOM      6  C5  UNL d   1      -0.582   2.137   0.155  0.00  0.00     0.062 A 
ATOM      7  F   UNL d   1      -1.435   3.164   0.033  0.00  0.00    -0.097 F 
ATOM      8  F1  UNL d   1      -2.355   0.625  -0.173  0.00  0.00    -0.096 F 
ATOM      9  I   UNL d   1      -0.864  -2.200   0.020  0.00  0.00    -0.060 I 
ATOM     10  F2  UNL d   1       2.058  -1.002   0.535  0.00  0.00    -0.096 F 
ATOM     11  F3  UNL d   1       2.948   1.547   0.736  0.00  0.00    -0.097 F 
ATOM     12  F4  UNL d   1       1.213   3.638   0.487  0.00  0.00    -0.092 F 
ENDROOT
TORSDOF 0
ENDMDL
