MODEL 1
REMARK minimizedAffinity -6.1290803
REMARK minimizedRMSD -1
REMARK  0 active torsions:
REMARK  status: ('A' for Active; 'I' for Inactive)
ROOT
ATOM      1  C   UNL d   1       1.298   2.383   0.248  0.00  0.00     0.124 A 
ATOM      2  C1  UNL d   1      -0.036   2.253  -0.112  0.00  0.00     0.062 A 
ATOM      3  C2  UNL d   1      -0.610   0.991  -0.229  0.00  0.00     0.162 A 
ATOM      4  C3  UNL d   1       0.150  -0.153   0.015  0.00  0.00    -0.034 A 
ATOM      5  C4  UNL d   1       1.492  -0.015   0.376  0.00  0.00     0.162 A 
ATOM      6  C5  UNL d   1       2.061   1.249   0.492  0.00  0.00     0.062 A 
ATOM      7  F   UNL d   1       3.350   1.373   0.840  0.00  0.00    -0.097 F 
ATOM      8  F1  UNL d   1       2.251  -1.093   0.618  0.00  0.00    -0.096 F 
ATOM      9  I   UNL d   1      -0.704  -2.043  -0.159  0.00  0.00    -0.060 I 
ATOM     10  F2  UNL d   1      -1.901   0.895  -0.578  0.00  0.00    -0.096 F 
ATOM     11  F3  UNL d   1      -0.775   3.347  -0.348  0.00  0.00    -0.097 F 
ATOM     12  F4  UNL d   1       1.848   3.599   0.359  0.00  0.00    -0.092 F 
ENDROOT
TORSDOF 0
ENDMDL
