MODEL 1
REMARK minimizedAffinity -1.97377419
REMARK minimizedRMSD -1
REMARK  0 active torsions:
REMARK  status: ('A' for Active; 'I' for Inactive)
ROOT
ATOM      1  C   UNL d   1       1.306   2.485   0.920  0.00  0.00     0.124 A 
ATOM      2  C1  UNL d   1       2.129   1.385   1.117  0.00  0.00     0.062 A 
ATOM      3  C2  UNL d   1       1.652   0.101   0.867  0.00  0.00     0.162 A 
ATOM      4  C3  UNL d   1       0.346  -0.089   0.416  0.00  0.00    -0.034 A 
ATOM      5  C4  UNL d   1      -0.476   1.023   0.221  0.00  0.00     0.162 A 
ATOM      6  C5  UNL d   1       0.005   2.304   0.473  0.00  0.00     0.062 A 
ATOM      7  F   UNL d   1      -0.790   3.366   0.282  0.00  0.00    -0.097 F 
ATOM      8  F1  UNL d   1      -1.737   0.876  -0.211  0.00  0.00    -0.096 F 
ATOM      9  I   UNL d   1      -0.371  -2.006   0.041  0.00  0.00    -0.060 I 
ATOM     10  F2  UNL d   1       2.469  -0.944   1.065  0.00  0.00    -0.096 F 
ATOM     11  F3  UNL d   1       3.386   1.557   1.550  0.00  0.00    -0.097 F 
ATOM     12  F4  UNL d   1       1.768   3.719   1.162  0.00  0.00    -0.092 F 
ENDROOT
TORSDOF 0
ENDMDL
