MODEL 1
REMARK minimizedAffinity -3.77517319
REMARK minimizedRMSD -1
REMARK  0 active torsions:
REMARK  status: ('A' for Active; 'I' for Inactive)
ROOT
ATOM      1  C   UNL d   1       0.962   2.438   0.822  0.00  0.00     0.124 A 
ATOM      2  C1  UNL d   1       1.855   1.378   0.749  0.00  0.00     0.062 A 
ATOM      3  C2  UNL d   1       1.387   0.079   0.577  0.00  0.00     0.162 A 
ATOM      4  C3  UNL d   1       0.018  -0.168   0.478  0.00  0.00    -0.034 A 
ATOM      5  C4  UNL d   1      -0.875   0.903   0.554  0.00  0.00     0.162 A 
ATOM      6  C5  UNL d   1      -0.401   2.199   0.725  0.00  0.00     0.062 A 
ATOM      7  F   UNL d   1      -1.266   3.222   0.796  0.00  0.00    -0.097 F 
ATOM      8  F1  UNL d   1      -2.197   0.701   0.462  0.00  0.00    -0.096 F 
ATOM      9  I   UNL d   1      -0.687  -2.110   0.222  0.00  0.00    -0.060 I 
ATOM     10  F2  UNL d   1       2.273  -0.926   0.510  0.00  0.00    -0.096 F 
ATOM     11  F3  UNL d   1       3.173   1.606   0.844  0.00  0.00    -0.097 F 
ATOM     12  F4  UNL d   1       1.415   3.687   0.988  0.00  0.00    -0.092 F 
ENDROOT
TORSDOF 0
ENDMDL
