MODEL 1
REMARK minimizedAffinity -4.3107934
REMARK minimizedRMSD -1
REMARK  0 active torsions:
REMARK  status: ('A' for Active; 'I' for Inactive)
ROOT
ATOM      1  C   UNL d   1       0.860   2.345   0.486  0.00  0.00     0.124 A 
ATOM      2  C1  UNL d   1       1.773   1.307   0.355  0.00  0.00     0.062 A 
ATOM      3  C2  UNL d   1       1.356   0.062  -0.106  0.00  0.00     0.162 A 
ATOM      4  C3  UNL d   1       0.019  -0.153  -0.440  0.00  0.00    -0.034 A 
ATOM      5  C4  UNL d   1      -0.894   0.895  -0.305  0.00  0.00     0.162 A 
ATOM      6  C5  UNL d   1      -0.472   2.138   0.156  0.00  0.00     0.062 A 
ATOM      7  F   UNL d   1      -1.355   3.139   0.282  0.00  0.00    -0.097 F 
ATOM      8  F1  UNL d   1      -2.187   0.723  -0.618  0.00  0.00    -0.096 F 
ATOM      9  I   UNL d   1      -0.609  -2.013  -1.130  0.00  0.00    -0.060 I 
ATOM     10  F2  UNL d   1       2.259  -0.922  -0.222  0.00  0.00    -0.096 F 
ATOM     11  F3  UNL d   1       3.060   1.504   0.675  0.00  0.00    -0.097 F 
ATOM     12  F4  UNL d   1       1.264   3.542   0.931  0.00  0.00    -0.092 F 
ENDROOT
TORSDOF 0
ENDMDL
