MODEL 1
REMARK minimizedAffinity -1.61655581
REMARK minimizedRMSD -1
REMARK  0 active torsions:
REMARK  status: ('A' for Active; 'I' for Inactive)
ROOT
ATOM      1  C   UNL d   1       1.203   2.647   1.412  0.00  0.00     0.124 A 
ATOM      2  C1  UNL d   1      -0.092   2.574   0.916  0.00  0.00     0.062 A 
ATOM      3  C2  UNL d   1      -0.570   1.384   0.376  0.00  0.00     0.162 A 
ATOM      4  C3  UNL d   1       0.248   0.254   0.331  0.00  0.00    -0.034 A 
ATOM      5  C4  UNL d   1       1.549   0.335   0.830  0.00  0.00     0.162 A 
ATOM      6  C5  UNL d   1       2.021   1.527   1.368  0.00  0.00     0.062 A 
ATOM      7  F   UNL d   1       3.272   1.595   1.847  0.00  0.00    -0.097 F 
ATOM      8  F1  UNL d   1       2.361  -0.732   0.802  0.00  0.00    -0.096 F 
ATOM      9  I   UNL d   1      -0.463  -1.528  -0.475  0.00  0.00    -0.060 I 
ATOM     10  F2  UNL d   1      -1.825   1.343  -0.095  0.00  0.00    -0.096 F 
ATOM     11  F3  UNL d   1      -0.885   3.655   0.956  0.00  0.00    -0.097 F 
ATOM     12  F4  UNL d   1       1.660   3.794   1.929  0.00  0.00    -0.092 F 
ENDROOT
TORSDOF 0
ENDMDL
