MODEL 1
REMARK minimizedAffinity -3.57581854
REMARK minimizedRMSD -1
REMARK  0 active torsions:
REMARK  status: ('A' for Active; 'I' for Inactive)
ROOT
ATOM      1  C   UNL d   1       0.725   2.277   0.382  0.00  0.00     0.124 A 
ATOM      2  C1  UNL d   1       1.753   1.387   0.103  0.00  0.00     0.062 A 
ATOM      3  C2  UNL d   1       1.485   0.029  -0.041  0.00  0.00     0.162 A 
ATOM      4  C3  UNL d   1       0.181  -0.448   0.094  0.00  0.00    -0.034 A 
ATOM      5  C4  UNL d   1      -0.848   0.452   0.376  0.00  0.00     0.162 A 
ATOM      6  C5  UNL d   1      -0.574   1.808   0.519  0.00  0.00     0.062 A 
ATOM      7  F   UNL d   1      -1.569   2.666   0.789  0.00  0.00    -0.097 F 
ATOM      8  F1  UNL d   1      -2.113   0.027   0.512  0.00  0.00    -0.096 F 
ATOM      9  I   UNL d   1      -0.225  -2.478  -0.120  0.00  0.00    -0.060 I 
ATOM     10  F2  UNL d   1       2.498  -0.807  -0.311  0.00  0.00    -0.096 F 
ATOM     11  F3  UNL d   1       3.010   1.837  -0.029  0.00  0.00    -0.097 F 
ATOM     12  F4  UNL d   1       0.986   3.583   0.521  0.00  0.00    -0.092 F 
ENDROOT
TORSDOF 0
ENDMDL
