MODEL 1
REMARK minimizedAffinity -1.59355855
REMARK minimizedRMSD -1
REMARK  0 active torsions:
REMARK  status: ('A' for Active; 'I' for Inactive)
ROOT
ATOM      1  C   UNL d   1       0.086   2.583   1.043  0.00  0.00     0.124 A 
ATOM      2  C1  UNL d   1      -0.376   1.275   0.984  0.00  0.00     0.062 A 
ATOM      3  C2  UNL d   1       0.514   0.227   0.767  0.00  0.00     0.162 A 
ATOM      4  C3  UNL d   1       1.877   0.483   0.609  0.00  0.00    -0.034 A 
ATOM      5  C4  UNL d   1       2.333   1.801   0.669  0.00  0.00     0.162 A 
ATOM      6  C5  UNL d   1       1.439   2.844   0.886  0.00  0.00     0.062 A 
ATOM      7  F   UNL d   1       1.887   4.107   0.943  0.00  0.00    -0.097 F 
ATOM      8  F1  UNL d   1       3.636   2.082   0.521  0.00  0.00    -0.096 F 
ATOM      9  I   UNL d   1       3.211  -1.080   0.285  0.00  0.00    -0.060 I 
ATOM     10  F2  UNL d   1       0.040  -1.026   0.714  0.00  0.00    -0.096 F 
ATOM     11  F3  UNL d   1      -1.684   1.020   1.135  0.00  0.00    -0.097 F 
ATOM     12  F4  UNL d   1      -0.774   3.589   1.251  0.00  0.00    -0.092 F 
ENDROOT
TORSDOF 0
ENDMDL
