MODEL 1
REMARK minimizedAffinity -6.81475544
REMARK minimizedRMSD -1
REMARK  0 active torsions:
REMARK  status: ('A' for Active; 'I' for Inactive)
ROOT
ATOM      1  C   UNL d   1      -0.069  -0.420   0.420  0.00  0.00     0.124 A 
ATOM      2  C1  UNL d   1       1.263  -0.179   0.114  0.00  0.00     0.062 A 
ATOM      3  C2  UNL d   1       1.739   1.126   0.038  0.00  0.00     0.162 A 
ATOM      4  C3  UNL d   1       0.882   2.202   0.269  0.00  0.00    -0.034 A 
ATOM      5  C4  UNL d   1      -0.457   1.953   0.575  0.00  0.00     0.162 A 
ATOM      6  C5  UNL d   1      -0.928   0.646   0.650  0.00  0.00     0.062 A 
ATOM      7  F   UNL d   1      -2.216   0.415   0.945  0.00  0.00    -0.097 F 
ATOM      8  F1  UNL d   1      -1.308   2.964   0.802  0.00  0.00    -0.096 F 
ATOM      9  I   UNL d   1       1.590   4.156   0.156  0.00  0.00    -0.060 I 
ATOM     10  F2  UNL d   1       3.031   1.329  -0.259  0.00  0.00    -0.096 F 
ATOM     11  F3  UNL d   1       2.094  -1.207  -0.109  0.00  0.00    -0.097 F 
ATOM     12  F4  UNL d   1      -0.525  -1.677   0.491  0.00  0.00    -0.092 F 
ENDROOT
TORSDOF 0
ENDMDL
