MODEL 1
REMARK minimizedAffinity 3.8356595
REMARK minimizedRMSD -1
REMARK  0 active torsions:
REMARK  status: ('A' for Active; 'I' for Inactive)
ROOT
ATOM      1  C4' PXY d   1       4.948   4.643   3.079  0.00  0.00     0.077 C 
ATOM      2  C1' PXY d   1       4.936  -0.171  -0.121  0.00  0.00     0.077 C 
ATOM      3  C1  PXY d   1       4.930   1.097   0.711  0.00  0.00    -0.082 A 
ATOM      4  C2  PXY d   1       6.000   1.419   1.419  0.00  0.00     0.003 A 
ATOM      5  C3  PXY d   1       6.000   2.545   2.202  0.00  0.00     0.003 A 
ATOM      6  C4  PXY d   1       4.913   3.378   2.218  0.00  0.00    -0.082 A 
ATOM      7  C5  PXY d   1       3.821   3.061   1.490  0.00  0.00     0.003 A 
ATOM      8  C6  PXY d   1       3.826   1.892   0.734  0.00  0.00     0.003 A 
ENDROOT
TORSDOF 0
ENDMDL
