MODEL 1
REMARK minimizedAffinity 11.1529722
REMARK minimizedRMSD -1
REMARK  0 active torsions:
REMARK  status: ('A' for Active; 'I' for Inactive)
ROOT
ATOM      1  C4' PXY d   1       5.998  -1.300   0.253  0.00  0.00     0.077 C 
ATOM      2  C1' PXY d   1       4.025   4.110   0.755  0.00  0.00     0.077 C 
ATOM      3  C1  PXY d   1       4.531   2.688   0.618  0.00  0.00    -0.082 A 
ATOM      4  C2  PXY d   1       5.508   2.263   1.402  0.00  0.00     0.003 A 
ATOM      5  C3  PXY d   1       5.999   0.990   1.270  0.00  0.00     0.003 A 
ATOM      6  C4  PXY d   1       5.449   0.125   0.362  0.00  0.00    -0.082 A 
ATOM      7  C5  PXY d   1       4.444   0.548  -0.434  0.00  0.00     0.003 A 
ATOM      8  C6  PXY d   1       3.987   1.857  -0.313  0.00  0.00     0.003 A 
ENDROOT
TORSDOF 0
ENDMDL
