MODEL 1
REMARK minimizedAffinity 1.99163043
REMARK minimizedRMSD -1
REMARK  0 active torsions:
REMARK  status: ('A' for Active; 'I' for Inactive)
ROOT
ATOM      1  C4' PXY d   1       5.425  -4.778   1.429  0.00  0.00     0.077 C 
ATOM      2  C1' PXY d   1       0.052  -3.078   2.714  0.00  0.00     0.077 C 
ATOM      3  C1  PXY d   1       1.465  -3.521   2.389  0.00  0.00    -0.082 A 
ATOM      4  C2  PXY d   1       1.863  -3.563   1.128  0.00  0.00     0.003 A 
ATOM      5  C3  PXY d   1       3.128  -3.991   0.814  0.00  0.00     0.003 A 
ATOM      6  C4  PXY d   1       4.011  -4.329   1.805  0.00  0.00    -0.082 A 
ATOM      7  C5  PXY d   1       3.615  -4.278   3.094  0.00  0.00     0.003 A 
ATOM      8  C6  PXY d   1       2.314  -3.880   3.389  0.00  0.00     0.003 A 
ENDROOT
TORSDOF 0
ENDMDL
