MODEL 1
REMARK minimizedAffinity -0.885813355
REMARK minimizedRMSD -1
REMARK  0 active torsions:
REMARK  status: ('A' for Active; 'I' for Inactive)
ROOT
ATOM      1  C4' PXY d   1       1.511  -3.533   1.171  0.00  0.00     0.077 C 
ATOM      2  C1' PXY d   1      -1.332   1.498   1.056  0.00  0.00     0.077 C 
ATOM      3  C1  PXY d   1      -0.585   0.180   1.099  0.00  0.00    -0.082 A 
ATOM      4  C2  PXY d   1      -0.003  -0.278   0.002  0.00  0.00     0.003 A 
ATOM      5  C3  PXY d   1       0.649  -1.484   0.015  0.00  0.00     0.003 A 
ATOM      6  C4  PXY d   1       0.754  -2.203   1.176  0.00  0.00    -0.082 A 
ATOM      7  C5  PXY d   1       0.173  -1.737   2.302  0.00  0.00     0.003 A 
ATOM      8  C6  PXY d   1      -0.521  -0.530   2.258  0.00  0.00     0.003 A 
ENDROOT
TORSDOF 0
ENDMDL
