MODEL 1
REMARK minimizedAffinity 0.29556787
REMARK minimizedRMSD -1
REMARK  0 active torsions:
REMARK  status: ('A' for Active; 'I' for Inactive)
ROOT
ATOM      1  C4' PXY d   1       2.221  -3.047   0.771  0.00  0.00     0.077 C 
ATOM      2  C1' PXY d   1      -1.745   0.873   2.292  0.00  0.00     0.077 C 
ATOM      3  C1  PXY d   1      -0.710  -0.155   1.881  0.00  0.00    -0.082 A 
ATOM      4  C2  PXY d   1      -0.137  -0.911   2.804  0.00  0.00     0.003 A 
ATOM      5  C3  PXY d   1       0.824  -1.824   2.453  0.00  0.00     0.003 A 
ATOM      6  C4  PXY d   1       1.164  -2.002   1.139  0.00  0.00    -0.082 A 
ATOM      7  C5  PXY d   1       0.577  -1.242   0.191  0.00  0.00     0.003 A 
ATOM      8  C6  PXY d   1      -0.367  -0.292   0.572  0.00  0.00     0.003 A 
ENDROOT
TORSDOF 0
ENDMDL
