MODEL 1
REMARK minimizedAffinity -0.5252617
REMARK minimizedRMSD -1
REMARK  0 active torsions:
REMARK  status: ('A' for Active; 'I' for Inactive)
ROOT
ATOM      1  C4' PXY d   1       1.831  -2.550   0.658  0.00  0.00     0.077 C 
ATOM      2  C1' PXY d   1      -2.533   0.681   2.641  0.00  0.00     0.077 C 
ATOM      3  C1  PXY d   1      -1.394  -0.165   2.109  0.00  0.00    -0.082 A 
ATOM      4  C2  PXY d   1      -0.777  -1.014   2.916  0.00  0.00     0.003 A 
ATOM      5  C3  PXY d   1       0.277  -1.763   2.459  0.00  0.00     0.003 A 
ATOM      6  C4  PXY d   1       0.669  -1.682   1.150  0.00  0.00    -0.082 A 
ATOM      7  C5  PXY d   1       0.037  -0.827   0.318  0.00  0.00     0.003 A 
ATOM      8  C6  PXY d   1      -1.003  -0.045   0.811  0.00  0.00     0.003 A 
ENDROOT
TORSDOF 0
ENDMDL
