MODEL 1
REMARK minimizedAffinity -3.35604763
REMARK minimizedRMSD -1
REMARK  0 active torsions:
REMARK  status: ('A' for Active; 'I' for Inactive)
ROOT
ATOM      1  C4' PXY d   1       4.712  -2.507   5.080  0.00  0.00     0.077 C 
ATOM      2  C1' PXY d   1       1.765  -2.279   0.112  0.00  0.00     0.077 C 
ATOM      3  C1  PXY d   1       2.543  -2.351   1.411  0.00  0.00    -0.082 A 
ATOM      4  C2  PXY d   1       2.125  -1.664   2.462  0.00  0.00     0.003 A 
ATOM      5  C3  PXY d   1       2.834  -1.692   3.635  0.00  0.00     0.003 A 
ATOM      6  C4  PXY d   1       3.953  -2.472   3.750  0.00  0.00    -0.082 A 
ATOM      7  C5  PXY d   1       4.380  -3.185   2.686  0.00  0.00     0.003 A 
ATOM      8  C6  PXY d   1       3.669  -3.110   1.492  0.00  0.00     0.003 A 
ENDROOT
TORSDOF 0
ENDMDL
