MODEL 1
REMARK minimizedAffinity 11.4274111
REMARK minimizedRMSD -1
REMARK  0 active torsions:
REMARK  status: ('A' for Active; 'I' for Inactive)
ROOT
ATOM      1  C4' PXY d   1       4.231   2.207   1.467  0.00  0.00     0.077 C 
ATOM      2  C1' PXY d   1      -1.056   4.497   1.939  0.00  0.00     0.077 C 
ATOM      3  C1  PXY d   1       0.333   3.900   1.828  0.00  0.00    -0.082 A 
ATOM      4  C2  PXY d   1       0.881   3.738   0.634  0.00  0.00     0.003 A 
ATOM      5  C3  PXY d   1       2.124   3.171   0.513  0.00  0.00     0.003 A 
ATOM      6  C4  PXY d   1       2.834   2.814   1.628  0.00  0.00    -0.082 A 
ATOM      7  C5  PXY d   1       2.286   2.986   2.849  0.00  0.00     0.003 A 
ATOM      8  C6  PXY d   1       1.007   3.526   2.949  0.00  0.00     0.003 A 
ENDROOT
TORSDOF 0
ENDMDL
