MODEL 1
REMARK minimizedAffinity 2.20010448
REMARK minimizedRMSD -1
REMARK  0 active torsions:
REMARK  status: ('A' for Active; 'I' for Inactive)
ROOT
ATOM      1  C4' PXY d   1       4.889  -2.264   6.000  0.00  0.00     0.077 C 
ATOM      2  C1' PXY d   1       4.266  -3.517   0.391  0.00  0.00     0.077 C 
ATOM      3  C1  PXY d   1       4.420  -3.197   1.865  0.00  0.00    -0.082 A 
ATOM      4  C2  PXY d   1       4.927  -2.031   2.232  0.00  0.00     0.003 A 
ATOM      5  C3  PXY d   1       5.103  -1.738   3.560  0.00  0.00     0.003 A 
ATOM      6  C4  PXY d   1       4.706  -2.626   4.524  0.00  0.00    -0.082 A 
ATOM      7  C5  PXY d   1       4.178  -3.813   4.158  0.00  0.00     0.003 A 
ATOM      8  C6  PXY d   1       4.046  -4.108   2.804  0.00  0.00     0.003 A 
ENDROOT
TORSDOF 0
ENDMDL
