MODEL 1
REMARK minimizedAffinity -3.99261665
REMARK minimizedRMSD -1
REMARK  0 active torsions:
REMARK  status: ('A' for Active; 'I' for Inactive)
ROOT
ATOM      1  C4' PXY d   1       4.450   0.016  -5.249  0.00  0.00     0.077 C 
ATOM      2  C1' PXY d   1       4.493   5.759  -5.907  0.00  0.00     0.077 C 
ATOM      3  C1  PXY d   1       4.495   4.252  -5.736  0.00  0.00    -0.082 A 
ATOM      4  C2  PXY d   1       3.396   3.563  -5.999  0.00  0.00     0.003 A 
ATOM      5  C3  PXY d   1       3.371   2.204  -5.819  0.00  0.00     0.003 A 
ATOM      6  C4  PXY d   1       4.497   1.537  -5.416  0.00  0.00    -0.082 A 
ATOM      7  C5  PXY d   1       5.624   2.232  -5.156  0.00  0.00     0.003 A 
ATOM      8  C6  PXY d   1       5.618   3.616  -5.305  0.00  0.00     0.003 A 
ENDROOT
TORSDOF 0
ENDMDL
