MODEL 1
REMARK minimizedAffinity 9.60723495
REMARK minimizedRMSD -1
REMARK  0 active torsions:
REMARK  status: ('A' for Active; 'I' for Inactive)
ROOT
ATOM      1  C4' PXY d   1       4.845  -5.874   1.142  0.00  0.00     0.077 C 
ATOM      2  C1' PXY d   1       1.096  -1.526   1.815  0.00  0.00     0.077 C 
ATOM      3  C1  PXY d   1       2.087  -2.660   1.646  0.00  0.00    -0.082 A 
ATOM      4  C2  PXY d   1       2.025  -3.430   0.571  0.00  0.00     0.003 A 
ATOM      5  C3  PXY d   1       2.893  -4.479   0.418  0.00  0.00     0.003 A 
ATOM      6  C4  PXY d   1       3.870  -4.711   1.349  0.00  0.00    -0.082 A 
ATOM      7  C5  PXY d   1       3.948  -3.924   2.443  0.00  0.00     0.003 A 
ATOM      8  C6  PXY d   1       3.030  -2.889   2.600  0.00  0.00     0.003 A 
ENDROOT
TORSDOF 0
ENDMDL
