MODEL 1
REMARK minimizedAffinity -2.88552356
REMARK minimizedRMSD -1
REMARK  0 active torsions:
REMARK  status: ('A' for Active; 'I' for Inactive)
ROOT
ATOM      1  C   UNL d   1       1.047  -0.578   0.784  0.00  0.00     0.077 C 
ATOM      2  C1  UNL d   1       0.041  -1.077  -0.210  0.00  0.00    -0.074 A 
ATOM      3  C2  UNL d   1      -0.884  -0.206  -0.795  0.00  0.00    -0.005 A 
ATOM      4  C3  UNL d   1      -1.808  -0.683  -1.725  0.00  0.00     0.006 A 
ATOM      5  C4  UNL d   1      -1.814  -2.032  -2.081  0.00  0.00    -0.005 A 
ATOM      6  C5  UNL d   1      -0.896  -2.917  -1.508  0.00  0.00    -0.074 A 
ATOM      7  C6  UNL d   1      -0.883  -4.368  -1.886  0.00  0.00     0.077 C 
ATOM      8  C7  UNL d   1       0.033  -2.429  -0.579  0.00  0.00    -0.001 A 
ENDROOT
TORSDOF 0
ENDMDL
