MODEL 1
REMARK minimizedAffinity -3.06353736
REMARK minimizedRMSD -1
REMARK  0 active torsions:
REMARK  status: ('A' for Active; 'I' for Inactive)
ROOT
ATOM      1  C   UNL d   1       2.084  -0.447   0.161  0.00  0.00     0.077 C 
ATOM      2  C1  UNL d   1       1.683   0.073  -1.188  0.00  0.00    -0.074 A 
ATOM      3  C2  UNL d   1       0.335   0.250  -1.518  0.00  0.00    -0.005 A 
ATOM      4  C3  UNL d   1      -0.023   0.743  -2.772  0.00  0.00     0.006 A 
ATOM      5  C4  UNL d   1       0.962   1.065  -3.708  0.00  0.00    -0.005 A 
ATOM      6  C5  UNL d   1       2.314   0.896  -3.395  0.00  0.00    -0.074 A 
ATOM      7  C6  UNL d   1       3.385   1.246  -4.385  0.00  0.00     0.077 C 
ATOM      8  C7  UNL d   1       2.666   0.406  -2.130  0.00  0.00    -0.001 A 
ENDROOT
TORSDOF 0
ENDMDL
