MODEL 1
REMARK minimizedAffinity -0.190366507
REMARK minimizedRMSD -1
REMARK  0 active torsions:
REMARK  status: ('A' for Active; 'I' for Inactive)
ROOT
ATOM      1  C   UNL d   1      -0.022  -1.563  -0.412  0.00  0.00     0.077 C 
ATOM      2  C1  UNL d   1       0.657  -0.660   0.575  0.00  0.00    -0.074 A 
ATOM      3  C2  UNL d   1       1.855  -0.014   0.252  0.00  0.00    -0.005 A 
ATOM      4  C3  UNL d   1       2.470   0.830   1.177  0.00  0.00     0.006 A 
ATOM      5  C4  UNL d   1       1.895   1.036   2.432  0.00  0.00    -0.005 A 
ATOM      6  C5  UNL d   1       0.698   0.398   2.772  0.00  0.00    -0.074 A 
ATOM      7  C6  UNL d   1       0.061   0.616   4.113  0.00  0.00     0.077 C 
ATOM      8  C7  UNL d   1       0.082  -0.443   1.835  0.00  0.00    -0.001 A 
ENDROOT
TORSDOF 0
ENDMDL
