MODEL 1
REMARK minimizedAffinity 1.10909986
REMARK minimizedRMSD -1
REMARK  0 active torsions:
REMARK  status: ('A' for Active; 'I' for Inactive)
ROOT
ATOM      1  C   UNL d   1       1.035  -1.261  -0.084  0.00  0.00     0.077 C 
ATOM      2  C1  UNL d   1      -0.108  -1.819  -0.879  0.00  0.00    -0.074 A 
ATOM      3  C2  UNL d   1      -1.270  -1.070  -1.091  0.00  0.00    -0.005 A 
ATOM      4  C3  UNL d   1      -2.321  -1.598  -1.841  0.00  0.00     0.006 A 
ATOM      5  C4  UNL d   1      -2.220  -2.879  -2.385  0.00  0.00    -0.005 A 
ATOM      6  C5  UNL d   1      -1.066  -3.643  -2.184  0.00  0.00    -0.074 A 
ATOM      7  C6  UNL d   1      -0.938  -5.017  -2.771  0.00  0.00     0.077 C 
ATOM      8  C7  UNL d   1      -0.012  -3.102  -1.436  0.00  0.00    -0.001 A 
ENDROOT
TORSDOF 0
ENDMDL
