MODEL 1
REMARK minimizedAffinity 6.72491312
REMARK minimizedRMSD -1
REMARK  0 active torsions:
REMARK  status: ('A' for Active; 'I' for Inactive)
ROOT
ATOM      1  C   UNL d   1       1.926   2.595   1.692  0.00  0.00     0.077 C 
ATOM      2  C1  UNL d   1       1.869   1.225   1.085  0.00  0.00    -0.074 A 
ATOM      3  C2  UNL d   1       0.675   0.496   1.066  0.00  0.00    -0.005 A 
ATOM      4  C3  UNL d   1       0.635  -0.773   0.490  0.00  0.00     0.006 A 
ATOM      5  C4  UNL d   1       1.787  -1.327  -0.072  0.00  0.00    -0.005 A 
ATOM      6  C5  UNL d   1       2.989  -0.613  -0.063  0.00  0.00    -0.074 A 
ATOM      7  C6  UNL d   1       4.234  -1.189  -0.671  0.00  0.00     0.077 C 
ATOM      8  C7  UNL d   1       3.020   0.665   0.512  0.00  0.00    -0.001 A 
ENDROOT
TORSDOF 0
ENDMDL
