MODEL 1
REMARK minimizedAffinity 5.4715519
REMARK minimizedRMSD -1
REMARK  0 active torsions:
REMARK  status: ('A' for Active; 'I' for Inactive)
ROOT
ATOM      1  C   UNL d   1       1.746   1.833   2.542  0.00  0.00     0.077 C 
ATOM      2  C1  UNL d   1       3.198   2.210   2.547  0.00  0.00    -0.074 A 
ATOM      3  C2  UNL d   1       3.860   2.537   1.360  0.00  0.00    -0.005 A 
ATOM      4  C3  UNL d   1       5.208   2.895   1.382  0.00  0.00     0.006 A 
ATOM      5  C4  UNL d   1       5.906   2.929   2.589  0.00  0.00    -0.005 A 
ATOM      6  C5  UNL d   1       5.261   2.606   3.787  0.00  0.00    -0.074 A 
ATOM      7  C6  UNL d   1       5.994   2.647   5.095  0.00  0.00     0.077 C 
ATOM      8  C7  UNL d   1       3.904   2.254   3.757  0.00  0.00    -0.001 A 
ENDROOT
TORSDOF 0
ENDMDL
