MODEL 1
REMARK minimizedAffinity 1.12563288
REMARK minimizedRMSD -1
REMARK  0 active torsions:
REMARK  status: ('A' for Active; 'I' for Inactive)
ROOT
ATOM      1  C   UNL d   1       3.153   4.686  -0.257  0.00  0.00     0.077 C 
ATOM      2  C1  UNL d   1       2.691   3.472  -1.006  0.00  0.00    -0.074 A 
ATOM      3  C2  UNL d   1       2.831   3.388  -2.395  0.00  0.00    -0.005 A 
ATOM      4  C3  UNL d   1       2.406   2.248  -3.077  0.00  0.00     0.006 A 
ATOM      5  C4  UNL d   1       1.838   1.182  -2.379  0.00  0.00    -0.005 A 
ATOM      6  C5  UNL d   1       1.691   1.247  -0.989  0.00  0.00    -0.074 A 
ATOM      7  C6  UNL d   1       1.092   0.106  -0.222  0.00  0.00     0.077 C 
ATOM      8  C7  UNL d   1       2.127   2.393  -0.310  0.00  0.00    -0.001 A 
ENDROOT
TORSDOF 0
ENDMDL
