MODEL 1
REMARK minimizedAffinity 11.6652508
REMARK minimizedRMSD -1
REMARK  0 active torsions:
REMARK  status: ('A' for Active; 'I' for Inactive)
ROOT
ATOM      1  C   UNL d   1      -0.520  -1.371  -5.996  0.00  0.00     0.077 C 
ATOM      2  C1  UNL d   1      -0.788  -2.836  -5.816  0.00  0.00    -0.074 A 
ATOM      3  C2  UNL d   1      -2.078  -3.354  -5.966  0.00  0.00    -0.005 A 
ATOM      4  C3  UNL d   1      -2.311  -4.719  -5.805  0.00  0.00     0.006 A 
ATOM      5  C4  UNL d   1      -1.257  -5.580  -5.494  0.00  0.00    -0.005 A 
ATOM      6  C5  UNL d   1       0.040  -5.080  -5.342  0.00  0.00    -0.074 A 
ATOM      7  C6  UNL d   1       1.186  -5.992  -5.017  0.00  0.00     0.077 C 
ATOM      8  C7  UNL d   1       0.267  -3.707  -5.512  0.00  0.00    -0.001 A 
ENDROOT
TORSDOF 0
ENDMDL
