MODEL 1
REMARK minimizedAffinity 14.8124142
REMARK minimizedRMSD -1
REMARK  0 active torsions:
REMARK  status: ('A' for Active; 'I' for Inactive)
ROOT
ATOM      1  C   UNL d   1       0.275  -0.522  -5.214  0.00  0.00     0.077 C 
ATOM      2  C1  UNL d   1       1.484   0.027  -4.516  0.00  0.00    -0.074 A 
ATOM      3  C2  UNL d   1       2.157   1.147  -5.017  0.00  0.00    -0.005 A 
ATOM      4  C3  UNL d   1       3.273   1.652  -4.351  0.00  0.00     0.006 A 
ATOM      5  C4  UNL d   1       3.728   1.044  -3.180  0.00  0.00    -0.005 A 
ATOM      6  C5  UNL d   1       3.068  -0.076  -2.664  0.00  0.00    -0.074 A 
ATOM      7  C6  UNL d   1       3.537  -0.735  -1.401  0.00  0.00     0.077 C 
ATOM      8  C7  UNL d   1       1.942  -0.573  -3.335  0.00  0.00    -0.001 A 
ENDROOT
TORSDOF 0
ENDMDL
