MODEL 1
REMARK minimizedAffinity 2.66346288
REMARK minimizedRMSD -1
REMARK  0 active torsions:
REMARK  status: ('A' for Active; 'I' for Inactive)
ROOT
ATOM      1  C   UNL d   1       3.436  -0.815  -0.957  0.00  0.00     0.077 C 
ATOM      2  C1  UNL d   1       2.067  -0.768  -0.346  0.00  0.00    -0.074 A 
ATOM      3  C2  UNL d   1       0.948  -1.217  -1.054  0.00  0.00    -0.005 A 
ATOM      4  C3  UNL d   1      -0.318  -1.177  -0.469  0.00  0.00     0.006 A 
ATOM      5  C4  UNL d   1      -0.477  -0.687   0.828  0.00  0.00    -0.005 A 
ATOM      6  C5  UNL d   1       0.631  -0.234   1.552  0.00  0.00    -0.074 A 
ATOM      7  C6  UNL d   1       0.479   0.286   2.951  0.00  0.00     0.077 C 
ATOM      8  C7  UNL d   1       1.900  -0.285   0.960  0.00  0.00    -0.001 A 
ENDROOT
TORSDOF 0
ENDMDL
