MODEL 1
REMARK minimizedAffinity 4.8067317
REMARK minimizedRMSD -1
REMARK  0 active torsions:
REMARK  status: ('A' for Active; 'I' for Inactive)
ROOT
ATOM      1  C   UNL d   1       1.583   1.637   3.405  0.00  0.00     0.077 C 
ATOM      2  C1  UNL d   1       1.824   1.097   2.027  0.00  0.00    -0.074 A 
ATOM      3  C2  UNL d   1       2.857   1.598   1.229  0.00  0.00    -0.005 A 
ATOM      4  C3  UNL d   1       3.075   1.078  -0.047  0.00  0.00     0.006 A 
ATOM      5  C4  UNL d   1       2.263   0.054  -0.537  0.00  0.00    -0.005 A 
ATOM      6  C5  UNL d   1       1.226  -0.459   0.247  0.00  0.00    -0.074 A 
ATOM      7  C6  UNL d   1       0.350  -1.566  -0.261  0.00  0.00     0.077 C 
ATOM      8  C7  UNL d   1       1.017   0.063   1.531  0.00  0.00    -0.001 A 
ENDROOT
TORSDOF 0
ENDMDL
