MODEL 1
REMARK minimizedAffinity 7.58800554
REMARK minimizedRMSD -1
REMARK  0 active torsions:
REMARK  status: ('A' for Active; 'I' for Inactive)
ROOT
ATOM      1  C   UNL d   1       2.192  -0.109   3.579  0.00  0.00     0.020 A 
ATOM      2  C1  UNL d   1       1.332  -0.504   4.603  0.00  0.00     0.020 A 
ATOM      3  C2  UNL d   1       0.104   0.139   4.770  0.00  0.00     0.034 A 
ATOM      4  C3  UNL d   1      -0.268   1.181   3.913  0.00  0.00     0.017 A 
ATOM      5  C4  UNL d   1       0.596   1.577   2.885  0.00  0.00     0.017 A 
ATOM      6  C5  UNL d   1       1.824   0.930   2.722  0.00  0.00     0.034 A 
ATOM      7 Cl   UNL d   1       0.206   2.854   1.787  0.00  0.00    -0.070 Cl
ATOM      8 Cl1  UNL d   1      -1.802   1.931   4.178  0.00  0.00    -0.070 Cl
ENDROOT
TORSDOF 0
ENDMDL
