MODEL 1
REMARK minimizedAffinity 13.5284891
REMARK minimizedRMSD -1
REMARK  0 active torsions:
REMARK  status: ('A' for Active; 'I' for Inactive)
ROOT
ATOM      1  C   UNL d   1       2.549  -1.201   3.384  0.00  0.00     0.020 A 
ATOM      2  C1  UNL d   1       2.522  -1.257   1.991  0.00  0.00     0.020 A 
ATOM      3  C2  UNL d   1       1.358  -1.653   1.330  0.00  0.00     0.034 A 
ATOM      4  C3  UNL d   1       0.214  -1.994   2.062  0.00  0.00     0.017 A 
ATOM      5  C4  UNL d   1       0.242  -1.937   3.460  0.00  0.00     0.017 A 
ATOM      6  C5  UNL d   1       1.411  -1.540   4.117  0.00  0.00     0.034 A 
ATOM      7 Cl   UNL d   1      -1.129  -2.343   4.431  0.00  0.00    -0.070 Cl
ATOM      8 Cl1  UNL d   1      -1.191  -2.475   1.179  0.00  0.00    -0.070 Cl
ENDROOT
TORSDOF 0
ENDMDL
