MODEL 1
REMARK minimizedAffinity 2.78906727
REMARK minimizedRMSD -1
REMARK  0 active torsions:
REMARK  status: ('A' for Active; 'I' for Inactive)
ROOT
ATOM      1  C   UNL d   1      -5.914   3.591  -4.764  0.00  0.00     0.020 A 
ATOM      2  C1  UNL d   1      -5.864   2.892  -5.970  0.00  0.00     0.020 A 
ATOM      3  C2  UNL d   1      -5.372   1.586  -6.000  0.00  0.00     0.034 A 
ATOM      4  C3  UNL d   1      -4.929   0.973  -4.822  0.00  0.00     0.017 A 
ATOM      5  C4  UNL d   1      -4.980   1.674  -3.612  0.00  0.00     0.017 A 
ATOM      6  C5  UNL d   1      -5.473   2.983  -3.588  0.00  0.00     0.034 A 
ATOM      7 Cl   UNL d   1      -4.451   0.985  -2.118  0.00  0.00    -0.070 Cl
ATOM      8 Cl1  UNL d   1      -4.334  -0.646  -4.933  0.00  0.00    -0.070 Cl
ENDROOT
TORSDOF 0
ENDMDL
