MODEL 1
REMARK minimizedAffinity 9.9756279
REMARK minimizedRMSD -1
REMARK  0 active torsions:
REMARK  status: ('A' for Active; 'I' for Inactive)
ROOT
ATOM      1  C   UNL d   1      -1.470  -4.430  -1.857  0.00  0.00     0.020 A 
ATOM      2  C1  UNL d   1      -0.559  -4.311  -0.808  0.00  0.00     0.020 A 
ATOM      3  C2  UNL d   1      -0.343  -3.067  -0.210  0.00  0.00     0.034 A 
ATOM      4  C3  UNL d   1      -1.038  -1.939  -0.661  0.00  0.00     0.017 A 
ATOM      5  C4  UNL d   1      -1.951  -2.060  -1.714  0.00  0.00     0.017 A 
ATOM      6  C5  UNL d   1      -2.164  -3.308  -2.310  0.00  0.00     0.034 A 
ATOM      7 Cl   UNL d   1      -2.845  -0.713  -2.326  0.00  0.00    -0.070 Cl
ATOM      8 Cl1  UNL d   1      -0.721  -0.433   0.125  0.00  0.00    -0.070 Cl
ENDROOT
TORSDOF 0
ENDMDL
