MODEL 1
REMARK minimizedAffinity 12.8496542
REMARK minimizedRMSD -1
REMARK  0 active torsions:
REMARK  status: ('A' for Active; 'I' for Inactive)
ROOT
ATOM      1  C   UNL d   1      -1.538   1.124   0.381  0.00  0.00     0.020 A 
ATOM      2  C1  UNL d   1      -1.042  -0.167   0.200  0.00  0.00     0.020 A 
ATOM      3  C2  UNL d   1       0.099  -0.579   0.891  0.00  0.00     0.034 A 
ATOM      4  C3  UNL d   1       0.749   0.300   1.765  0.00  0.00     0.017 A 
ATOM      5  C4  UNL d   1       0.251   1.595   1.946  0.00  0.00     0.017 A 
ATOM      6  C5  UNL d   1      -0.893   2.003   1.252  0.00  0.00     0.034 A 
ATOM      7 Cl   UNL d   1       0.998   2.736   3.007  0.00  0.00    -0.070 Cl
ATOM      8 Cl1  UNL d   1       2.155  -0.277   2.587  0.00  0.00    -0.070 Cl
ENDROOT
TORSDOF 0
ENDMDL
