MODEL 1
REMARK minimizedAffinity 1.12333763
REMARK minimizedRMSD -1
REMARK  0 active torsions:
REMARK  status: ('A' for Active; 'I' for Inactive)
ROOT
ATOM      1  C   UNL d   1      -1.130  -3.856  -1.152  0.00  0.00     0.020 A 
ATOM      2  C1  UNL d   1      -1.367  -3.412   0.149  0.00  0.00     0.020 A 
ATOM      3  C2  UNL d   1      -1.448  -2.043   0.415  0.00  0.00     0.034 A 
ATOM      4  C3  UNL d   1      -1.292  -1.114  -0.620  0.00  0.00     0.017 A 
ATOM      5  C4  UNL d   1      -1.054  -1.561  -1.925  0.00  0.00     0.017 A 
ATOM      6  C5  UNL d   1      -0.974  -2.932  -2.186  0.00  0.00     0.034 A 
ATOM      7 Cl   UNL d   1      -0.852  -0.475  -3.254  0.00  0.00    -0.070 Cl
ATOM      8 Cl1  UNL d   1      -1.405   0.563  -0.218  0.00  0.00    -0.070 Cl
ENDROOT
TORSDOF 0
ENDMDL
