MODEL 1
REMARK minimizedAffinity 6.90465069
REMARK minimizedRMSD -1
REMARK  0 active torsions:
REMARK  status: ('A' for Active; 'I' for Inactive)
ROOT
ATOM      1  C   UNL d   1      -1.148   1.429   0.162  0.00  0.00     0.020 A 
ATOM      2  C1  UNL d   1      -1.083   1.580   1.547  0.00  0.00     0.020 A 
ATOM      3  C2  UNL d   1      -0.097   0.912   2.276  0.00  0.00     0.034 A 
ATOM      4  C3  UNL d   1       0.827   0.090   1.622  0.00  0.00     0.017 A 
ATOM      5  C4  UNL d   1       0.761  -0.061   0.232  0.00  0.00     0.017 A 
ATOM      6  C5  UNL d   1      -0.228   0.610  -0.494  0.00  0.00     0.034 A 
ATOM      7 Cl   UNL d   1       1.866  -1.058  -0.646  0.00  0.00    -0.070 Cl
ATOM      8 Cl1  UNL d   1       2.019  -0.706   2.587  0.00  0.00    -0.070 Cl
ENDROOT
TORSDOF 0
ENDMDL
