MODEL 1
REMARK minimizedAffinity 5.11504745
REMARK minimizedRMSD -1
REMARK  0 active torsions:
REMARK  status: ('A' for Active; 'I' for Inactive)
ROOT
ATOM      1  C   UNL d   1      -1.854   0.882  -0.715  0.00  0.00     0.020 A 
ATOM      2  C1  UNL d   1      -0.646   1.573  -0.628  0.00  0.00     0.020 A 
ATOM      3  C2  UNL d   1       0.482   0.943  -0.099  0.00  0.00     0.034 A 
ATOM      4  C3  UNL d   1       0.406  -0.382   0.345  0.00  0.00     0.017 A 
ATOM      5  C4  UNL d   1      -0.807  -1.075   0.257  0.00  0.00     0.017 A 
ATOM      6  C5  UNL d   1      -1.934  -0.439  -0.273  0.00  0.00     0.034 A 
ATOM      7 Cl   UNL d   1      -0.979  -2.712   0.785  0.00  0.00    -0.070 Cl
ATOM      8 Cl1  UNL d   1       1.841  -1.098   0.987  0.00  0.00    -0.070 Cl
ENDROOT
TORSDOF 0
ENDMDL
