MODEL 1
REMARK minimizedAffinity 4.23145008
REMARK minimizedRMSD -1
REMARK  0 active torsions:
REMARK  status: ('A' for Active; 'I' for Inactive)
ROOT
ATOM      1  C   UNL d   1      -0.329  -0.250  -0.314  0.00  0.00     0.020 A 
ATOM      2  C1  UNL d   1      -1.236  -0.026  -1.348  0.00  0.00     0.020 A 
ATOM      3  C2  UNL d   1      -1.681  -1.095  -2.130  0.00  0.00     0.034 A 
ATOM      4  C3  UNL d   1      -1.217  -2.391  -1.879  0.00  0.00     0.017 A 
ATOM      5  C4  UNL d   1      -0.306  -2.614  -0.840  0.00  0.00     0.017 A 
ATOM      6  C5  UNL d   1       0.136  -1.541  -0.060  0.00  0.00     0.034 A 
ATOM      7 Cl   UNL d   1       0.311  -4.186  -0.469  0.00  0.00    -0.070 Cl
ATOM      8 Cl1  UNL d   1      -1.809  -3.665  -2.884  0.00  0.00    -0.070 Cl
ENDROOT
TORSDOF 0
ENDMDL
