MODEL 1
REMARK minimizedAffinity 3.30166292
REMARK minimizedRMSD -1
REMARK  2 active torsions:
REMARK  status: ('A' for Active; 'I' for Inactive)
REMARK    1  A    between atoms: C2'_3  and  C1'_4 
REMARK    2  A    between atoms: C1'_4  and  C1_5 
ROOT
ATOM      1  C1  I4B d   1       3.453   1.483   5.086  0.00  0.00    -0.075 A 
ATOM      2  C2  I4B d   1       2.657   2.128   5.999  0.00  0.00     0.003 A 
ATOM      3  C3  I4B d   1       2.440   3.524   5.896  0.00  0.00     0.002 A 
ATOM      4  C4  I4B d   1       3.074   4.238   4.900  0.00  0.00    -0.004 A 
ATOM      5  C5  I4B d   1       3.862   3.579   3.961  0.00  0.00     0.002 A 
ATOM      6  C6  I4B d   1       4.044   2.191   4.047  0.00  0.00     0.003 A 
ENDROOT
BRANCH   1   7
ATOM      7  C1' I4B d   1       3.688   0.014   5.245  0.00  0.00     0.060 C 
BRANCH   7   8
ATOM      8  C2' I4B d   1       2.548  -0.717   4.567  0.00  0.00    -0.013 C 
ATOM      9  C4' I4B d   1       2.910  -1.103   3.157  0.00  0.00     0.013 C 
ATOM     10  C3' I4B d   1       2.216  -1.924   5.391  0.00  0.00     0.013 C 
ENDBRANCH   7   8
ENDBRANCH   1   7
TORSDOF 2
ENDMDL
