MODEL 1
REMARK minimizedAffinity 0.317019165
REMARK minimizedRMSD -1
REMARK  2 active torsions:
REMARK  status: ('A' for Active; 'I' for Inactive)
REMARK    1  A    between atoms: C2'_3  and  C1'_4 
REMARK    2  A    between atoms: C1'_4  and  C1_5 
ROOT
ATOM      1  C1  I4B d   1       1.188  -2.368   5.037  0.00  0.00    -0.075 A 
ATOM      2  C2  I4B d   1       0.170  -2.216   4.129  0.00  0.00     0.003 A 
ATOM      3  C3  I4B d   1      -0.942  -3.092   4.151  0.00  0.00     0.002 A 
ATOM      4  C4  I4B d   1      -0.971  -4.130   5.060  0.00  0.00    -0.004 A 
ATOM      5  C5  I4B d   1       0.050  -4.268   5.995  0.00  0.00     0.002 A 
ATOM      6  C6  I4B d   1       1.131  -3.375   5.992  0.00  0.00     0.003 A 
ENDROOT
BRANCH   1   7
ATOM      7  C1' I4B d   1       2.363  -1.445   4.964  0.00  0.00     0.060 C 
BRANCH   7   8
ATOM      8  C2' I4B d   1       2.167  -0.356   5.999  0.00  0.00    -0.013 C 
ATOM      9  C4' I4B d   1       3.042   0.835   5.710  0.00  0.00     0.013 C 
ATOM     10  C3' I4B d   1       0.716   0.026   5.999  0.00  0.00     0.013 C 
ENDBRANCH   7   8
ENDBRANCH   1   7
TORSDOF 2
ENDMDL
