MODEL 1
REMARK minimizedAffinity 1.70516694
REMARK minimizedRMSD -1
REMARK  2 active torsions:
REMARK  status: ('A' for Active; 'I' for Inactive)
REMARK    1  A    between atoms: C2'_3  and  C1'_4 
REMARK    2  A    between atoms: C1'_4  and  C1_5 
ROOT
ATOM      1  C1  I4B d   1       2.723   3.086   5.999  0.00  0.00    -0.075 A 
ATOM      2  C2  I4B d   1       4.089   3.218   5.996  0.00  0.00     0.003 A 
ATOM      3  C3  I4B d   1       4.681   4.504   5.964  0.00  0.00     0.002 A 
ATOM      4  C4  I4B d   1       3.874   5.621   5.885  0.00  0.00    -0.004 A 
ATOM      5  C5  I4B d   1       2.489   5.486   5.911  0.00  0.00     0.002 A 
ATOM      6  C6  I4B d   1       1.910   4.211   5.981  0.00  0.00     0.003 A 
ENDROOT
BRANCH   1   7
ATOM      7  C1' I4B d   1       2.133   1.711   6.000  0.00  0.00     0.060 C 
BRANCH   7   8
ATOM      8  C2' I4B d   1       3.270   0.714   5.912  0.00  0.00    -0.013 C 
ATOM      9  C4' I4B d   1       2.756  -0.701   5.915  0.00  0.00     0.013 C 
ATOM     10  C3' I4B d   1       4.046   1.006   4.662  0.00  0.00     0.013 C 
ENDBRANCH   7   8
ENDBRANCH   1   7
TORSDOF 2
ENDMDL
