MODEL 1
REMARK minimizedAffinity 1.70007491
REMARK minimizedRMSD -1
REMARK  2 active torsions:
REMARK  status: ('A' for Active; 'I' for Inactive)
REMARK    1  A    between atoms: C2'_3  and  C1'_4 
REMARK    2  A    between atoms: C1'_4  and  C1_5 
ROOT
ATOM      1  C1  I4B d   1       0.204  -3.302   4.777  0.00  0.00    -0.075 A 
ATOM      2  C2  I4B d   1      -0.414  -2.091   4.590  0.00  0.00     0.003 A 
ATOM      3  C3  I4B d   1       0.158  -1.124   3.727  0.00  0.00     0.002 A 
ATOM      4  C4  I4B d   1       1.367  -1.390   3.116  0.00  0.00    -0.004 A 
ATOM      5  C5  I4B d   1       1.980  -2.627   3.289  0.00  0.00     0.002 A 
ATOM      6  C6  I4B d   1       1.389  -3.594   4.115  0.00  0.00     0.003 A 
ENDROOT
BRANCH   1   7
ATOM      7  C1' I4B d   1      -0.411  -4.287   5.720  0.00  0.00     0.060 C 
BRANCH   7   8
ATOM      8  C2' I4B d   1      -1.633  -4.878   5.047  0.00  0.00    -0.013 C 
ATOM      9  C4' I4B d   1      -1.268  -5.549   3.748  0.00  0.00     0.013 C 
ATOM     10  C3' I4B d   1      -2.262  -5.850   6.000  0.00  0.00     0.013 C 
ENDBRANCH   7   8
ENDBRANCH   1   7
TORSDOF 2
ENDMDL
