MODEL 1
REMARK minimizedAffinity 6.32116508
REMARK minimizedRMSD -1
REMARK  2 active torsions:
REMARK  status: ('A' for Active; 'I' for Inactive)
REMARK    1  A    between atoms: C2'_3  and  C1'_4 
REMARK    2  A    between atoms: C1'_4  and  C1_5 
ROOT
ATOM      1  C1  I4B d   1       2.874   3.404   5.929  0.00  0.00    -0.075 A 
ATOM      2  C2  I4B d   1       1.508   3.528   5.986  0.00  0.00     0.003 A 
ATOM      3  C3  I4B d   1       0.908   4.810   5.996  0.00  0.00     0.002 A 
ATOM      4  C4  I4B d   1       1.708   5.935   5.998  0.00  0.00    -0.004 A 
ATOM      5  C5  I4B d   1       3.091   5.808   5.916  0.00  0.00     0.002 A 
ATOM      6  C6  I4B d   1       3.678   4.535   5.869  0.00  0.00     0.003 A 
ENDROOT
BRANCH   1   7
ATOM      7  C1' I4B d   1       3.476   2.035   5.954  0.00  0.00     0.060 C 
BRANCH   7   8
ATOM      8  C2' I4B d   1       4.752   2.071   5.137  0.00  0.00    -0.013 C 
ATOM      9  C4' I4B d   1       4.554   2.830   3.851  0.00  0.00     0.013 C 
ATOM     10  C3' I4B d   1       5.822   2.700   5.978  0.00  0.00     0.013 C 
ENDBRANCH   7   8
ENDBRANCH   1   7
TORSDOF 2
ENDMDL
