MODEL 1
REMARK minimizedAffinity 6.64415836
REMARK minimizedRMSD -1
REMARK  2 active torsions:
REMARK  status: ('A' for Active; 'I' for Inactive)
REMARK    1  A    between atoms: C2'_3  and  C1'_4 
REMARK    2  A    between atoms: C1'_4  and  C1_5 
ROOT
ATOM      1  C1  I4B d   1       2.113   4.621   5.937  0.00  0.00    -0.075 A 
ATOM      2  C2  I4B d   1       3.391   5.121   5.903  0.00  0.00     0.003 A 
ATOM      3  C3  I4B d   1       4.501   4.241   5.901  0.00  0.00     0.002 A 
ATOM      4  C4  I4B d   1       4.290   2.880   5.985  0.00  0.00    -0.004 A 
ATOM      5  C5  I4B d   1       2.993   2.374   5.997  0.00  0.00     0.002 A 
ATOM      6  C6  I4B d   1       1.898   3.249   5.960  0.00  0.00     0.003 A 
ENDROOT
BRANCH   1   7
ATOM      7  C1' I4B d   1       0.965   5.579   5.971  0.00  0.00     0.060 C 
BRANCH   7   8
ATOM      8  C2' I4B d   1       0.053   5.256   4.805  0.00  0.00    -0.013 C 
ATOM      9  C4' I4B d   1      -1.374   5.628   5.110  0.00  0.00     0.013 C 
ATOM     10  C3' I4B d   1       0.560   5.993   3.602  0.00  0.00     0.013 C 
ENDBRANCH   7   8
ENDBRANCH   1   7
TORSDOF 2
ENDMDL
