MODEL 1
REMARK minimizedAffinity 2.1122036
REMARK minimizedRMSD -1
REMARK  2 active torsions:
REMARK  status: ('A' for Active; 'I' for Inactive)
REMARK    1  A    between atoms: C2'_3  and  C1'_4 
REMARK    2  A    between atoms: C1'_4  and  C1_5 
ROOT
ATOM      1  C1  I4B d   1       3.393   1.186   4.915  0.00  0.00    -0.075 A 
ATOM      2  C2  I4B d   1       3.783   1.998   3.880  0.00  0.00     0.003 A 
ATOM      3  C3  I4B d   1       3.460   3.377   3.895  0.00  0.00     0.002 A 
ATOM      4  C4  I4B d   1       2.707   3.887   4.933  0.00  0.00    -0.004 A 
ATOM      5  C5  I4B d   1       2.333   3.067   5.993  0.00  0.00     0.002 A 
ATOM      6  C6  I4B d   1       2.688   1.710   5.991  0.00  0.00     0.003 A 
ENDROOT
BRANCH   1   7
ATOM      7  C1' I4B d   1       3.723  -0.272   4.851  0.00  0.00     0.060 C 
BRANCH   7   8
ATOM      8  C2' I4B d   1       2.482  -1.012   4.397  0.00  0.00    -0.013 C 
ATOM      9  C4' I4B d   1       2.651  -1.556   3.003  0.00  0.00     0.013 C 
ATOM     10  C3' I4B d   1       2.213  -2.113   5.380  0.00  0.00     0.013 C 
ENDBRANCH   7   8
ENDBRANCH   1   7
TORSDOF 2
ENDMDL
