MODEL 1
REMARK minimizedAffinity 7.16157293
REMARK minimizedRMSD -1
REMARK  2 active torsions:
REMARK  status: ('A' for Active; 'I' for Inactive)
REMARK    1  A    between atoms: C2'_3  and  C1'_4 
REMARK    2  A    between atoms: C1'_4  and  C1_5 
ROOT
ATOM      1  C1  I4B d   1      -3.956   0.352  -2.251  0.00  0.00    -0.075 A 
ATOM      2  C2  I4B d   1      -2.901   0.334  -3.130  0.00  0.00     0.003 A 
ATOM      3  C3  I4B d   1      -3.102   0.667  -4.491  0.00  0.00     0.002 A 
ATOM      4  C4  I4B d   1      -4.374   0.959  -4.939  0.00  0.00    -0.004 A 
ATOM      5  C5  I4B d   1      -5.438   0.999  -4.043  0.00  0.00     0.002 A 
ATOM      6  C6  I4B d   1      -5.226   0.705  -2.688  0.00  0.00     0.003 A 
ENDROOT
BRANCH   1   7
ATOM      7  C1' I4B d   1      -3.714  -0.037  -0.827  0.00  0.00     0.060 C 
BRANCH   7   8
ATOM      8  C2' I4B d   1      -4.793   0.605   0.021  0.00  0.00    -0.013 C 
ATOM      9  C4' I4B d   1      -5.994  -0.295   0.147  0.00  0.00     0.013 C 
ATOM     10  C3' I4B d   1      -4.204   0.912   1.365  0.00  0.00     0.013 C 
ENDBRANCH   7   8
ENDBRANCH   1   7
TORSDOF 2
ENDMDL
