MODEL 1
REMARK minimizedAffinity 4.69018269
REMARK minimizedRMSD -1
REMARK  2 active torsions:
REMARK  status: ('A' for Active; 'I' for Inactive)
REMARK    1  A    between atoms: C2'_3  and  C1'_4 
REMARK    2  A    between atoms: C1'_4  and  C1_5 
ROOT
ATOM      1  C1  I4B d   1       0.100  -4.835   3.477  0.00  0.00    -0.075 A 
ATOM      2  C2  I4B d   1      -0.384  -5.773   4.354  0.00  0.00     0.003 A 
ATOM      3  C3  I4B d   1       0.183  -5.902   5.645  0.00  0.00     0.002 A 
ATOM      4  C4  I4B d   1       1.258  -5.112   5.997  0.00  0.00    -0.004 A 
ATOM      5  C5  I4B d   1       1.733  -4.146   5.115  0.00  0.00     0.002 A 
ATOM      6  C6  I4B d   1       1.143  -3.997   3.851  0.00  0.00     0.003 A 
ENDROOT
BRANCH   1   7
ATOM      7  C1' I4B d   1      -0.501  -4.748   2.110  0.00  0.00     0.060 C 
BRANCH   7   8
ATOM      8  C2' I4B d   1       0.547  -5.193   1.110  0.00  0.00    -0.013 C 
ATOM      9  C4' I4B d   1      -0.033  -5.305  -0.275  0.00  0.00     0.013 C 
ATOM     10  C3' I4B d   1       1.673  -4.203   1.147  0.00  0.00     0.013 C 
ENDBRANCH   7   8
ENDBRANCH   1   7
TORSDOF 2
ENDMDL
