MODEL 1
REMARK minimizedAffinity -2.26024389
REMARK minimizedRMSD -1
REMARK  0 active torsions:
REMARK  status: ('A' for Active; 'I' for Inactive)
ROOT
ATOM      1  C   UNL d   1      -0.669   1.075   0.026  0.00  0.00     0.023 A 
ATOM      2  C1  UNL d   1      -1.287   0.208   0.927  0.00  0.00     0.003 A 
ATOM      3  C2  UNL d   1      -0.638  -0.960   1.332  0.00  0.00     0.048 A 
ATOM      4  C3  UNL d   1       0.630  -1.255   0.832  0.00  0.00     0.023 A 
ATOM      5  C4  UNL d   1       1.252  -0.391  -0.070  0.00  0.00     0.048 A 
ATOM      6  C5  UNL d   1       0.599   0.776  -0.472  0.00  0.00     0.003 A 
ATOM      7  I   UNL d   1       1.598  -2.993   1.433  0.00  0.00    -0.146 I 
ENDROOT
TORSDOF 0
ENDMDL
