MODEL 1
REMARK minimizedAffinity -4.27074099
REMARK minimizedRMSD -1
REMARK  0 active torsions:
REMARK  status: ('A' for Active; 'I' for Inactive)
ROOT
ATOM      1  C   UNL d   1       1.757  -2.619   1.319  0.00  0.00     0.023 A 
ATOM      2  C1  UNL d   1       0.497  -2.369   1.862  0.00  0.00     0.003 A 
ATOM      3  C2  UNL d   1      -0.190  -1.201   1.528  0.00  0.00     0.048 A 
ATOM      4  C3  UNL d   1       0.388  -0.286   0.648  0.00  0.00     0.023 A 
ATOM      5  C4  UNL d   1       1.648  -0.532   0.101  0.00  0.00     0.048 A 
ATOM      6  C5  UNL d   1       2.332  -1.701   0.439  0.00  0.00     0.003 A 
ATOM      7  I   UNL d   1      -0.633   1.454   0.149  0.00  0.00    -0.146 I 
ENDROOT
TORSDOF 0
ENDMDL
