MODEL 1
REMARK minimizedAffinity -4.42381477
REMARK minimizedRMSD -1
REMARK  0 active torsions:
REMARK  status: ('A' for Active; 'I' for Inactive)
ROOT
ATOM      1  C   UNL d   1       0.726  -2.306   2.367  0.00  0.00     0.023 A 
ATOM      2  C1  UNL d   1      -0.456  -1.628   2.667  0.00  0.00     0.003 A 
ATOM      3  C2  UNL d   1      -0.935  -0.641   1.803  0.00  0.00     0.048 A 
ATOM      4  C3  UNL d   1      -0.229  -0.338   0.640  0.00  0.00     0.023 A 
ATOM      5  C4  UNL d   1       0.953  -1.015   0.334  0.00  0.00     0.048 A 
ATOM      6  C5  UNL d   1       1.429  -1.999   1.202  0.00  0.00     0.003 A 
ATOM      7  I   UNL d   1      -0.941   1.129  -0.648  0.00  0.00    -0.146 I 
ENDROOT
TORSDOF 0
ENDMDL
