MODEL 1
REMARK minimizedAffinity -4.61564398
REMARK minimizedRMSD -1
REMARK  0 active torsions:
REMARK  status: ('A' for Active; 'I' for Inactive)
ROOT
ATOM      1  C   UNL d   1       1.025  -2.957   1.671  0.00  0.00     0.023 A 
ATOM      2  C1  UNL d   1       1.562  -2.415   0.504  0.00  0.00     0.003 A 
ATOM      3  C2  UNL d   1       1.042  -1.231  -0.022  0.00  0.00     0.048 A 
ATOM      4  C3  UNL d   1      -0.016  -0.593   0.625  0.00  0.00     0.023 A 
ATOM      5  C4  UNL d   1      -0.556  -1.131   1.794  0.00  0.00     0.048 A 
ATOM      6  C5  UNL d   1      -0.033  -2.315   2.316  0.00  0.00     0.003 A 
ATOM      7  I   UNL d   1      -0.793   1.170  -0.156  0.00  0.00    -0.146 I 
ENDROOT
TORSDOF 0
ENDMDL
