MODEL 1
REMARK minimizedAffinity -2.98755121
REMARK minimizedRMSD -1
REMARK  0 active torsions:
REMARK  status: ('A' for Active; 'I' for Inactive)
ROOT
ATOM      1  C   UNL d   1       1.102  -2.611   1.640  0.00  0.00     0.023 A 
ATOM      2  C1  UNL d   1       1.858  -1.836   0.760  0.00  0.00     0.003 A 
ATOM      3  C2  UNL d   1       1.293  -0.712   0.155  0.00  0.00     0.048 A 
ATOM      4  C3  UNL d   1      -0.029  -0.367   0.435  0.00  0.00     0.023 A 
ATOM      5  C4  UNL d   1      -0.789  -1.139   1.315  0.00  0.00     0.048 A 
ATOM      6  C5  UNL d   1      -0.220  -2.262   1.917  0.00  0.00     0.003 A 
ATOM      7  I   UNL d   1      -0.872   1.305  -0.465  0.00  0.00    -0.146 I 
ENDROOT
TORSDOF 0
ENDMDL
