MODEL 1
REMARK minimizedAffinity -4.08657026
REMARK minimizedRMSD -1
REMARK  0 active torsions:
REMARK  status: ('A' for Active; 'I' for Inactive)
ROOT
ATOM      1  C   UNL d   1       1.457  -2.871   1.507  0.00  0.00     0.023 A 
ATOM      2  C1  UNL d   1       1.970  -2.259   0.364  0.00  0.00     0.003 A 
ATOM      3  C2  UNL d   1       1.352  -1.119  -0.156  0.00  0.00     0.048 A 
ATOM      4  C3  UNL d   1       0.223  -0.597   0.474  0.00  0.00     0.023 A 
ATOM      5  C4  UNL d   1      -0.293  -1.206   1.619  0.00  0.00     0.048 A 
ATOM      6  C5  UNL d   1       0.328  -2.345   2.134  0.00  0.00     0.003 A 
ATOM      7  I   UNL d   1      -0.698   1.099  -0.298  0.00  0.00    -0.146 I 
ENDROOT
TORSDOF 0
ENDMDL
