MODEL 1
REMARK minimizedAffinity -3.81006646
REMARK minimizedRMSD -1
REMARK  0 active torsions:
REMARK  status: ('A' for Active; 'I' for Inactive)
ROOT
ATOM      1  C   UNL d   1       1.076  -2.907   1.859  0.00  0.00     0.023 A 
ATOM      2  C1  UNL d   1       1.835  -2.051   1.061  0.00  0.00     0.003 A 
ATOM      3  C2  UNL d   1       1.245  -0.924   0.486  0.00  0.00     0.048 A 
ATOM      4  C3  UNL d   1      -0.105  -0.658   0.714  0.00  0.00     0.023 A 
ATOM      5  C4  UNL d   1      -0.868  -1.511   1.512  0.00  0.00     0.048 A 
ATOM      6  C5  UNL d   1      -0.274  -2.637   2.084  0.00  0.00     0.003 A 
ATOM      7  I   UNL d   1      -0.986   1.019  -0.141  0.00  0.00    -0.146 I 
ENDROOT
TORSDOF 0
ENDMDL
