MODEL 1
REMARK minimizedAffinity -4.64264011
REMARK minimizedRMSD -1
REMARK  0 active torsions:
REMARK  status: ('A' for Active; 'I' for Inactive)
ROOT
ATOM      1  C   UNL d   1       1.111  -2.743   1.982  0.00  0.00     0.023 A 
ATOM      2  C1  UNL d   1      -0.134  -2.239   2.358  0.00  0.00     0.003 A 
ATOM      3  C2  UNL d   1      -0.654  -1.111   1.721  0.00  0.00     0.048 A 
ATOM      4  C3  UNL d   1       0.076  -0.491   0.707  0.00  0.00     0.023 A 
ATOM      5  C4  UNL d   1       1.322  -0.993   0.326  0.00  0.00     0.048 A 
ATOM      6  C5  UNL d   1       1.838  -2.121   0.967  0.00  0.00     0.003 A 
ATOM      7  I   UNL d   1      -0.696   1.188  -0.243  0.00  0.00    -0.146 I 
ENDROOT
TORSDOF 0
ENDMDL
