MODEL 1
REMARK minimizedAffinity -4.50664568
REMARK minimizedRMSD -1
REMARK  0 active torsions:
REMARK  status: ('A' for Active; 'I' for Inactive)
ROOT
ATOM      1  C   UNL d   1      -0.310   1.253  -0.329  0.00  0.00     0.023 A 
ATOM      2  C1  UNL d   1      -1.043   0.705   0.724  0.00  0.00     0.003 A 
ATOM      3  C2  UNL d   1      -0.530  -0.376   1.444  0.00  0.00     0.048 A 
ATOM      4  C3  UNL d   1       0.717  -0.902   1.108  0.00  0.00     0.023 A 
ATOM      5  C4  UNL d   1       1.454  -0.356   0.057  0.00  0.00     0.048 A 
ATOM      6  C5  UNL d   1       0.937   0.724  -0.662  0.00  0.00     0.003 A 
ATOM      7  I   UNL d   1       1.482  -2.510   2.180  0.00  0.00    -0.146 I 
ENDROOT
TORSDOF 0
ENDMDL
