MODEL 1
REMARK minimizedAffinity -5.12672329
REMARK minimizedRMSD -1
REMARK  0 active torsions:
REMARK  status: ('A' for Active; 'I' for Inactive)
ROOT
ATOM      1  C   UNL d   1       0.843  -2.635   2.555  0.00  0.00     0.023 A 
ATOM      2  C1  UNL d   1      -0.152  -1.776   3.022  0.00  0.00     0.003 A 
ATOM      3  C2  UNL d   1      -0.568  -0.696   2.240  0.00  0.00     0.048 A 
ATOM      4  C3  UNL d   1       0.014  -0.483   0.991  0.00  0.00     0.023 A 
ATOM      5  C4  UNL d   1       1.009  -1.340   0.519  0.00  0.00     0.048 A 
ATOM      6  C5  UNL d   1       1.423  -2.417   1.305  0.00  0.00     0.003 A 
ATOM      7  I   UNL d   1      -0.604   1.123  -0.175  0.00  0.00    -0.146 I 
ENDROOT
TORSDOF 0
ENDMDL
