MODEL 1
REMARK minimizedAffinity -3.9521215
REMARK minimizedRMSD -1
REMARK  0 active torsions:
REMARK  status: ('A' for Active; 'I' for Inactive)
ROOT
ATOM      1  C   UNL d   1      -0.409  -2.322   2.254  0.00  0.00     0.023 A 
ATOM      2  C1  UNL d   1       0.544  -2.984   1.481  0.00  0.00     0.003 A 
ATOM      3  C2  UNL d   1       1.266  -2.286   0.511  0.00  0.00     0.048 A 
ATOM      4  C3  UNL d   1       1.030  -0.925   0.319  0.00  0.00     0.023 A 
ATOM      5  C4  UNL d   1       0.077  -0.258   1.091  0.00  0.00     0.048 A 
ATOM      6  C5  UNL d   1      -0.643  -0.961   2.059  0.00  0.00     0.003 A 
ATOM      7  I   UNL d   1       2.103   0.117  -1.124  0.00  0.00    -0.146 I 
ENDROOT
TORSDOF 0
ENDMDL
