MODEL 1
REMARK minimizedAffinity 16.6719856
REMARK minimizedRMSD -1
REMARK  1 active torsions:
REMARK  status: ('A' for Active; 'I' for Inactive)
REMARK    1  A    between atoms: C1_2  and  C2_3 
ROOT
ATOM      1  C2  UNL d   1      -0.022   1.281  -3.409  0.00  0.00    -0.077 A 
ATOM      2  C3  UNL d   1      -1.397   1.157  -3.161  0.00  0.00     0.002 A 
ATOM      3  C4  UNL d   1      -2.300   2.064  -3.719  0.00  0.00     0.002 A 
ATOM      4  C5  UNL d   1      -1.839   3.099  -4.530  0.00  0.00    -0.004 A 
ATOM      5  C6  UNL d   1      -0.474   3.232  -4.780  0.00  0.00     0.002 A 
ATOM      6  C7  UNL d   1       0.430   2.327  -4.223  0.00  0.00     0.002 A 
ENDROOT
BRANCH   1   7
ATOM      7  C1  UNL d   1       0.949   0.275  -2.849  0.00  0.00     0.055 C 
ATOM      8  C   UNL d   1       1.965   0.938  -1.930  0.00  0.00     0.019 C 
ENDBRANCH   1   7
TORSDOF 1
ENDMDL
