MODEL 1
REMARK minimizedAffinity 9.66488743
REMARK minimizedRMSD -1
REMARK  1 active torsions:
REMARK  status: ('A' for Active; 'I' for Inactive)
REMARK    1  A    between atoms: C1_2  and  C2_3 
ROOT
ATOM      1  C2  UNL d   1       0.067   0.718  -3.773  0.00  0.00    -0.077 A 
ATOM      2  C3  UNL d   1      -1.313   0.647  -3.541  0.00  0.00     0.002 A 
ATOM      3  C4  UNL d   1      -2.134   1.740  -3.822  0.00  0.00     0.002 A 
ATOM      4  C5  UNL d   1      -1.585   2.911  -4.341  0.00  0.00    -0.004 A 
ATOM      5  C6  UNL d   1      -0.212   2.992  -4.573  0.00  0.00     0.002 A 
ATOM      6  C7  UNL d   1       0.610   1.901  -4.292  0.00  0.00     0.002 A 
ENDROOT
BRANCH   1   7
ATOM      7  C1  UNL d   1       0.947  -0.478  -3.517  0.00  0.00     0.055 C 
ATOM      8  C   UNL d   1       2.298  -0.060  -2.953  0.00  0.00     0.019 C 
ENDBRANCH   1   7
TORSDOF 1
ENDMDL
