MODEL 1
REMARK minimizedAffinity 17.3992252
REMARK minimizedRMSD -1
REMARK  1 active torsions:
REMARK  status: ('A' for Active; 'I' for Inactive)
REMARK    1  A    between atoms: C1_2  and  C2_3 
ROOT
ATOM      1  C2  UNL d   1       4.187   3.597  -0.160  0.00  0.00    -0.077 A 
ATOM      2  C3  UNL d   1       4.475   2.894   1.018  0.00  0.00     0.002 A 
ATOM      3  C4  UNL d   1       3.755   1.744   1.348  0.00  0.00     0.002 A 
ATOM      4  C5  UNL d   1       2.747   1.285   0.504  0.00  0.00    -0.004 A 
ATOM      5  C6  UNL d   1       2.452   1.978  -0.669  0.00  0.00     0.002 A 
ATOM      6  C7  UNL d   1       3.169   3.128  -1.000  0.00  0.00     0.002 A 
ENDROOT
BRANCH   1   7
ATOM      7  C1  UNL d   1       4.995   4.810  -0.542  0.00  0.00     0.055 C 
ATOM      8  C   UNL d   1       4.661   6.000   0.345  0.00  0.00     0.019 C 
ENDBRANCH   1   7
TORSDOF 1
ENDMDL
