MODEL 1
REMARK minimizedAffinity 16.1131077
REMARK minimizedRMSD -1
REMARK  1 active torsions:
REMARK  status: ('A' for Active; 'I' for Inactive)
REMARK    1  A    between atoms: C1_2  and  C2_3 
ROOT
ATOM      1  C2  UNL d   1      -0.761   0.831  -3.458  0.00  0.00    -0.077 A 
ATOM      2  C3  UNL d   1      -2.131   1.068  -3.280  0.00  0.00     0.002 A 
ATOM      3  C4  UNL d   1      -2.707   2.257  -3.734  0.00  0.00     0.002 A 
ATOM      4  C5  UNL d   1      -1.921   3.214  -4.371  0.00  0.00    -0.004 A 
ATOM      5  C6  UNL d   1      -0.557   2.989  -4.551  0.00  0.00     0.002 A 
ATOM      6  C7  UNL d   1       0.021   1.802  -4.097  0.00  0.00     0.002 A 
ENDROOT
BRANCH   1   7
ATOM      7  C1  UNL d   1      -0.147  -0.471  -3.013  0.00  0.00     0.055 C 
ATOM      8  C   UNL d   1      -1.157  -1.334  -2.271  0.00  0.00     0.019 C 
ENDBRANCH   1   7
TORSDOF 1
ENDMDL
