MODEL 1
REMARK minimizedAffinity 15.765851
REMARK minimizedRMSD -1
REMARK  1 active torsions:
REMARK  status: ('A' for Active; 'I' for Inactive)
REMARK    1  A    between atoms: C1_2  and  C2_3 
ROOT
ATOM      1  C2  UNL d   1      -1.913   1.074  -3.830  0.00  0.00    -0.077 A 
ATOM      2  C3  UNL d   1      -0.516   1.035  -3.945  0.00  0.00     0.002 A 
ATOM      3  C4  UNL d   1       0.178   2.115  -4.493  0.00  0.00     0.002 A 
ATOM      4  C5  UNL d   1      -0.516   3.243  -4.927  0.00  0.00    -0.004 A 
ATOM      5  C6  UNL d   1      -1.905   3.290  -4.820  0.00  0.00     0.002 A 
ATOM      6  C7  UNL d   1      -2.601   2.211  -4.272  0.00  0.00     0.002 A 
ENDROOT
BRANCH   1   7
ATOM      7  C1  UNL d   1      -2.659  -0.070  -3.193  0.00  0.00     0.055 C 
ATOM      8  C   UNL d   1      -1.724  -1.224  -2.861  0.00  0.00     0.019 C 
ENDBRANCH   1   7
TORSDOF 1
ENDMDL
