MODEL 1
REMARK minimizedAffinity 2.38702941
REMARK minimizedRMSD -1
REMARK  1 active torsions:
REMARK  status: ('A' for Active; 'I' for Inactive)
REMARK    1  A    between atoms: C1_2  and  C2_3 
ROOT
ATOM      1  C2  UNL d   1      -3.657   4.091  -4.759  0.00  0.00    -0.077 A 
ATOM      2  C3  UNL d   1      -3.891   5.200  -3.934  0.00  0.00     0.002 A 
ATOM      3  C4  UNL d   1      -5.030   5.987  -4.116  0.00  0.00     0.002 A 
ATOM      4  C5  UNL d   1      -5.945   5.671  -5.118  0.00  0.00    -0.004 A 
ATOM      5  C6  UNL d   1      -5.720   4.571  -5.945  0.00  0.00     0.002 A 
ATOM      6  C7  UNL d   1      -4.581   3.784  -5.766  0.00  0.00     0.002 A 
ENDROOT
BRANCH   1   7
ATOM      7  C1  UNL d   1      -2.454   3.212  -4.534  0.00  0.00     0.055 C 
ATOM      8  C   UNL d   1      -1.459   3.332  -5.678  0.00  0.00     0.019 C 
ENDBRANCH   1   7
TORSDOF 1
ENDMDL
