MODEL 1
REMARK minimizedAffinity 2.50765419
REMARK minimizedRMSD -1
REMARK  1 active torsions:
REMARK  status: ('A' for Active; 'I' for Inactive)
REMARK    1  A    between atoms: C1_2  and  C2_3 
ROOT
ATOM      1  C2  UNL d   1      -3.500   4.156  -5.070  0.00  0.00    -0.077 A 
ATOM      2  C3  UNL d   1      -3.767   5.379  -4.438  0.00  0.00     0.002 A 
ATOM      3  C4  UNL d   1      -5.012   5.993  -4.587  0.00  0.00     0.002 A 
ATOM      4  C5  UNL d   1      -6.000   5.390  -5.362  0.00  0.00    -0.004 A 
ATOM      5  C6  UNL d   1      -5.743   4.175  -5.996  0.00  0.00     0.002 A 
ATOM      6  C7  UNL d   1      -4.499   3.560  -5.850  0.00  0.00     0.002 A 
ENDROOT
BRANCH   1   7
ATOM      7  C1  UNL d   1      -2.175   3.467  -4.871  0.00  0.00     0.055 C 
ATOM      8  C   UNL d   1      -2.255   2.421  -3.769  0.00  0.00     0.019 C 
ENDBRANCH   1   7
TORSDOF 1
ENDMDL
