MODEL 1
REMARK minimizedAffinity 9.31087399
REMARK minimizedRMSD -1
REMARK  1 active torsions:
REMARK  status: ('A' for Active; 'I' for Inactive)
REMARK    1  A    between atoms: C1_2  and  C2_3 
ROOT
ATOM      1  C2  UNL d   1      -1.226  -3.946   0.901  0.00  0.00    -0.077 A 
ATOM      2  C3  UNL d   1      -2.171  -3.711   1.911  0.00  0.00     0.002 A 
ATOM      3  C4  UNL d   1      -2.971  -2.568   1.877  0.00  0.00     0.002 A 
ATOM      4  C5  UNL d   1      -2.838  -1.653   0.835  0.00  0.00    -0.004 A 
ATOM      5  C6  UNL d   1      -1.900  -1.876  -0.172  0.00  0.00     0.002 A 
ATOM      6  C7  UNL d   1      -1.099  -3.018  -0.140  0.00  0.00     0.002 A 
ENDROOT
BRANCH   1   7
ATOM      7  C1  UNL d   1      -0.396  -5.203   0.909  0.00  0.00     0.055 C 
ATOM      8  C   UNL d   1      -0.608  -5.998   2.190  0.00  0.00     0.019 C 
ENDBRANCH   1   7
TORSDOF 1
ENDMDL
