MODEL 1
REMARK minimizedAffinity 6.46029663
REMARK minimizedRMSD -1
REMARK  1 active torsions:
REMARK  status: ('A' for Active; 'I' for Inactive)
REMARK    1  A    between atoms: C1_2  and  C2_3 
ROOT
ATOM      1  C2  UNL d   1      -2.285  -2.906   1.979  0.00  0.00    -0.077 A 
ATOM      2  C3  UNL d   1      -1.434  -3.974   1.659  0.00  0.00     0.002 A 
ATOM      3  C4  UNL d   1      -0.819  -4.036   0.407  0.00  0.00     0.002 A 
ATOM      4  C5  UNL d   1      -1.044  -3.032  -0.532  0.00  0.00    -0.004 A 
ATOM      5  C6  UNL d   1      -1.890  -1.967  -0.224  0.00  0.00     0.002 A 
ATOM      6  C7  UNL d   1      -2.507  -1.904   1.026  0.00  0.00     0.002 A 
ENDROOT
BRANCH   1   7
ATOM      7  C1  UNL d   1      -2.910  -2.812   3.346  0.00  0.00     0.055 C 
ATOM      8  C   UNL d   1      -1.963  -2.163   4.345  0.00  0.00     0.019 C 
ENDBRANCH   1   7
TORSDOF 1
ENDMDL
