MODEL 1
REMARK minimizedAffinity 7.18583441
REMARK minimizedRMSD -1
REMARK  1 active torsions:
REMARK  status: ('A' for Active; 'I' for Inactive)
REMARK    1  A    between atoms: C1_2  and  C2_3 
ROOT
ATOM      1  C2  UNL d   1      -1.508  -2.060  -1.144  0.00  0.00    -0.077 A 
ATOM      2  C3  UNL d   1      -0.801  -3.269  -1.078  0.00  0.00     0.002 A 
ATOM      3  C4  UNL d   1      -0.835  -4.045   0.081  0.00  0.00     0.002 A 
ATOM      4  C5  UNL d   1      -1.577  -3.624   1.182  0.00  0.00    -0.004 A 
ATOM      5  C6  UNL d   1      -2.282  -2.422   1.128  0.00  0.00     0.002 A 
ATOM      6  C7  UNL d   1      -2.249  -1.644  -0.030  0.00  0.00     0.002 A 
ENDROOT
BRANCH   1   7
ATOM      7  C1  UNL d   1      -1.513  -1.246  -2.411  0.00  0.00     0.055 C 
ATOM      8  C   UNL d   1      -1.516  -2.139  -3.643  0.00  0.00     0.019 C 
ENDBRANCH   1   7
TORSDOF 1
ENDMDL
