MODEL 1
REMARK minimizedAffinity -3.34476829
REMARK minimizedRMSD -1
REMARK  0 active torsions:
REMARK  status: ('A' for Active; 'I' for Inactive)
ROOT
ATOM      1  C1  BNZ d   1      -0.769   2.125   1.224  0.00  0.00     0.000 A 
ATOM      2  C2  BNZ d   1      -0.548   1.185   2.194  0.00  0.00     0.000 A 
ATOM      3  C3  BNZ d   1      -0.025  -0.038   1.878  0.00  0.00     0.000 A 
ATOM      4  C4  BNZ d   1       0.239  -0.333   0.589  0.00  0.00     0.000 A 
ATOM      5  C5  BNZ d   1       0.012   0.602  -0.402  0.00  0.00     0.000 A 
ATOM      6  C6  BNZ d   1      -0.478   1.845  -0.076  0.00  0.00     0.000 A 
ENDROOT
TORSDOF 0
ENDMDL
