MODEL 1
REMARK minimizedAffinity -1.57738805
REMARK minimizedRMSD -1
REMARK  0 active torsions:
REMARK  status: ('A' for Active; 'I' for Inactive)
ROOT
ATOM      1  C1  BNZ d   1      -1.710   2.430   0.199  0.00  0.00     0.000 A 
ATOM      2  C2  BNZ d   1      -1.539   2.696   1.532  0.00  0.00     0.000 A 
ATOM      3  C3  BNZ d   1      -0.860   1.826   2.338  0.00  0.00     0.000 A 
ATOM      4  C4  BNZ d   1      -0.387   0.674   1.820  0.00  0.00     0.000 A 
ATOM      5  C5  BNZ d   1      -0.559   0.386   0.481  0.00  0.00     0.000 A 
ATOM      6  C6  BNZ d   1      -1.210   1.283  -0.336  0.00  0.00     0.000 A 
ENDROOT
TORSDOF 0
ENDMDL
