MODEL 1
REMARK minimizedAffinity 1.59869277
REMARK minimizedRMSD -1
REMARK  0 active torsions:
REMARK  status: ('A' for Active; 'I' for Inactive)
ROOT
ATOM      1  C1  BNZ d   1       0.005   2.240   0.232  0.00  0.00     0.000 A 
ATOM      2  C2  BNZ d   1      -1.291   2.099   0.649  0.00  0.00     0.000 A 
ATOM      3  C3  BNZ d   1      -2.257   1.646  -0.206  0.00  0.00     0.000 A 
ATOM      4  C4  BNZ d   1      -1.933   1.374  -1.487  0.00  0.00     0.000 A 
ATOM      5  C5  BNZ d   1      -0.632   1.520  -1.925  0.00  0.00     0.000 A 
ATOM      6  C6  BNZ d   1       0.345   1.939  -1.051  0.00  0.00     0.000 A 
ENDROOT
TORSDOF 0
ENDMDL
