MODEL 1
REMARK minimizedAffinity -4.63414907
REMARK minimizedRMSD -1
REMARK  0 active torsions:
REMARK  status: ('A' for Active; 'I' for Inactive)
ROOT
ATOM      1  C1  BNZ d   1      -0.980   0.855  -0.324  0.00  0.00     0.000 A 
ATOM      2  C2  BNZ d   1      -0.222  -0.250  -0.605  0.00  0.00     0.000 A 
ATOM      3  C3  BNZ d   1       0.196  -1.085   0.394  0.00  0.00     0.000 A 
ATOM      4  C4  BNZ d   1      -0.110  -0.792   1.674  0.00  0.00     0.000 A 
ATOM      5  C5  BNZ d   1      -0.865   0.324   1.975  0.00  0.00     0.000 A 
ATOM      6  C6  BNZ d   1      -1.317   1.141   0.964  0.00  0.00     0.000 A 
ENDROOT
TORSDOF 0
ENDMDL
