MODEL 1
REMARK minimizedAffinity -4.14959526
REMARK minimizedRMSD -1
REMARK  0 active torsions:
REMARK  status: ('A' for Active; 'I' for Inactive)
ROOT
ATOM      1  C1  BNZ d   1      -0.778   1.509  -0.159  0.00  0.00     0.000 A 
ATOM      2  C2  BNZ d   1       0.148   1.405  -1.163  0.00  0.00     0.000 A 
ATOM      3  C3  BNZ d   1       0.970   0.316  -1.247  0.00  0.00     0.000 A 
ATOM      4  C4  BNZ d   1       0.893  -0.647  -0.307  0.00  0.00     0.000 A 
ATOM      5  C5  BNZ d   1      -0.028  -0.552   0.717  0.00  0.00     0.000 A 
ATOM      6  C6  BNZ d   1      -0.881   0.526   0.777  0.00  0.00     0.000 A 
ENDROOT
TORSDOF 0
ENDMDL
