MODEL 1
REMARK minimizedAffinity -3.26070666
REMARK minimizedRMSD -1
REMARK  0 active torsions:
REMARK  status: ('A' for Active; 'I' for Inactive)
ROOT
ATOM      1  C1  BNZ d   1       0.233   1.197  -0.517  0.00  0.00     0.000 A 
ATOM      2  C2  BNZ d   1      -0.815   1.319   0.356  0.00  0.00     0.000 A 
ATOM      3  C3  BNZ d   1      -1.530   0.222   0.749  0.00  0.00     0.000 A 
ATOM      4  C4  BNZ d   1      -1.222  -0.988   0.238  0.00  0.00     0.000 A 
ATOM      5  C5  BNZ d   1      -0.173  -1.125  -0.650  0.00  0.00     0.000 A 
ATOM      6  C6  BNZ d   1       0.569  -0.025  -1.013  0.00  0.00     0.000 A 
ENDROOT
TORSDOF 0
ENDMDL
