MODEL 1
REMARK minimizedAffinity -4.09864712
REMARK minimizedRMSD -1
REMARK  0 active torsions:
REMARK  status: ('A' for Active; 'I' for Inactive)
ROOT
ATOM      1  C1  BNZ d   1      -1.618   1.986   0.408  0.00  0.00     0.000 A 
ATOM      2  C2  BNZ d   1      -0.997   0.899  -0.150  0.00  0.00     0.000 A 
ATOM      3  C3  BNZ d   1      -0.372  -0.029   0.635  0.00  0.00     0.000 A 
ATOM      4  C4  BNZ d   1      -0.334   0.150   1.971  0.00  0.00     0.000 A 
ATOM      5  C5  BNZ d   1      -0.946   1.245   2.548  0.00  0.00     0.000 A 
ATOM      6  C6  BNZ d   1      -1.608   2.157   1.758  0.00  0.00     0.000 A 
ENDROOT
TORSDOF 0
ENDMDL
