MODEL 1
REMARK minimizedAffinity -4.06510639
REMARK minimizedRMSD -1
REMARK  0 active torsions:
REMARK  status: ('A' for Active; 'I' for Inactive)
ROOT
ATOM      1  C1  BNZ d   1      -1.172   0.731   1.735  0.00  0.00     0.000 A 
ATOM      2  C2  BNZ d   1      -0.216  -0.199   1.426  0.00  0.00     0.000 A 
ATOM      3  C3  BNZ d   1       0.413  -0.180   0.212  0.00  0.00     0.000 A 
ATOM      4  C4  BNZ d   1       0.057   0.742  -0.705  0.00  0.00     0.000 A 
ATOM      5  C5  BNZ d   1      -0.912   1.681  -0.412  0.00  0.00     0.000 A 
ATOM      6  C6  BNZ d   1      -1.515   1.684   0.825  0.00  0.00     0.000 A 
ENDROOT
TORSDOF 0
ENDMDL
