MODEL 1
REMARK minimizedAffinity -3.6134665
REMARK minimizedRMSD -1
REMARK  0 active torsions:
REMARK  status: ('A' for Active; 'I' for Inactive)
ROOT
ATOM      1  C1  BNZ d   1       1.217  -1.432   0.461  0.00  0.00     0.000 A 
ATOM      2  C2  BNZ d   1       0.734  -1.307   1.736  0.00  0.00     0.000 A 
ATOM      3  C3  BNZ d   1      -0.361  -0.531   1.997  0.00  0.00     0.000 A 
ATOM      4  C4  BNZ d   1      -0.945   0.150   0.990  0.00  0.00     0.000 A 
ATOM      5  C5  BNZ d   1      -0.464   0.042  -0.299  0.00  0.00     0.000 A 
ATOM      6  C6  BNZ d   1       0.614  -0.771  -0.564  0.00  0.00     0.000 A 
ENDROOT
TORSDOF 0
ENDMDL
