MODEL 1
REMARK minimizedAffinity -3.19357467
REMARK minimizedRMSD -1
REMARK  0 active torsions:
REMARK  status: ('A' for Active; 'I' for Inactive)
ROOT
ATOM      1  C1  BNZ d   1      -1.115   1.490   0.080  0.00  0.00     0.000 A 
ATOM      2  C2  BNZ d   1      -0.307   0.462  -0.326  0.00  0.00     0.000 A 
ATOM      3  C3  BNZ d   1       0.250  -0.392   0.584  0.00  0.00     0.000 A 
ATOM      4  C4  BNZ d   1       0.030  -0.194   1.900  0.00  0.00     0.000 A 
ATOM      5  C5  BNZ d   1      -0.775   0.844   2.326  0.00  0.00     0.000 A 
ATOM      6  C6  BNZ d   1      -1.365   1.679   1.404  0.00  0.00     0.000 A 
ENDROOT
TORSDOF 0
ENDMDL
