MODEL 1
REMARK minimizedAffinity -4.58977079
REMARK minimizedRMSD -1
REMARK  0 active torsions:
REMARK  status: ('A' for Active; 'I' for Inactive)
ROOT
ATOM      1  C1  BNZ d   1      -0.620   1.033   3.138  0.00  0.00     0.000 A 
ATOM      2  C2  BNZ d   1      -1.281   1.781   2.200  0.00  0.00     0.000 A 
ATOM      3  C3  BNZ d   1      -1.309   1.395   0.889  0.00  0.00     0.000 A 
ATOM      4  C4  BNZ d   1      -0.644   0.285   0.511  0.00  0.00     0.000 A 
ATOM      5  C5  BNZ d   1       0.035  -0.475   1.442  0.00  0.00     0.000 A 
ATOM      6  C6  BNZ d   1       0.029  -0.105   2.767  0.00  0.00     0.000 A 
ENDROOT
TORSDOF 0
ENDMDL
