MODEL 1
REMARK minimizedAffinity -4.76184893
REMARK minimizedRMSD -1
REMARK  0 active torsions:
REMARK  status: ('A' for Active; 'I' for Inactive)
ROOT
ATOM      1  C1  BNZ d   1      -0.471  -0.566   1.603  0.00  0.00     0.000 A 
ATOM      2  C2  BNZ d   1      -1.309   0.400   2.093  0.00  0.00     0.000 A 
ATOM      3  C3  BNZ d   1      -1.736   1.425   1.297  0.00  0.00     0.000 A 
ATOM      4  C4  BNZ d   1      -1.294   1.506   0.026  0.00  0.00     0.000 A 
ATOM      5  C5  BNZ d   1      -0.441   0.546  -0.480  0.00  0.00     0.000 A 
ATOM      6  C6  BNZ d   1      -0.044  -0.507   0.312  0.00  0.00     0.000 A 
ENDROOT
TORSDOF 0
ENDMDL
