MODEL 1
REMARK minimizedAffinity -4.6715827
REMARK minimizedRMSD -1
REMARK  0 active torsions:
REMARK  status: ('A' for Active; 'I' for Inactive)
ROOT
ATOM      1  C1  BNZ d   1      -0.412   1.148  -0.406  0.00  0.00     0.000 A 
ATOM      2  C2  BNZ d   1      -1.376   1.947   0.150  0.00  0.00     0.000 A 
ATOM      3  C3  BNZ d   1      -1.805   1.738   1.431  0.00  0.00     0.000 A 
ATOM      4  C4  BNZ d   1      -1.300   0.708   2.139  0.00  0.00     0.000 A 
ATOM      5  C5  BNZ d   1      -0.334  -0.112   1.589  0.00  0.00     0.000 A 
ATOM      6  C6  BNZ d   1       0.123   0.125   0.314  0.00  0.00     0.000 A 
ENDROOT
TORSDOF 0
ENDMDL
