MODEL 1
REMARK minimizedAffinity -3.88055801
REMARK minimizedRMSD -1
REMARK  0 active torsions:
REMARK  status: ('A' for Active; 'I' for Inactive)
ROOT
ATOM      1  C1  BNZ d   1       1.169  -4.523  -1.415  0.00  0.00     0.000 A 
ATOM      2  C2  BNZ d   1       0.439  -4.023  -2.460  0.00  0.00     0.000 A 
ATOM      3  C3  BNZ d   1       0.285  -2.675  -2.625  0.00  0.00     0.000 A 
ATOM      4  C4  BNZ d   1       0.825  -1.831  -1.723  0.00  0.00     0.000 A 
ATOM      5  C5  BNZ d   1       1.556  -2.320  -0.658  0.00  0.00     0.000 A 
ATOM      6  C6  BNZ d   1       1.742  -3.676  -0.517  0.00  0.00     0.000 A 
ENDROOT
TORSDOF 0
ENDMDL
