MODEL 1
REMARK minimizedAffinity -5.01593399
REMARK minimizedRMSD -1
REMARK  0 active torsions:
REMARK  status: ('A' for Active; 'I' for Inactive)
ROOT
ATOM      1  C1  BNZ d   1      -0.890   0.803  -0.117  0.00  0.00     0.000 A 
ATOM      2  C2  BNZ d   1      -1.477   1.920   0.414  0.00  0.00     0.000 A 
ATOM      3  C3  BNZ d   1      -1.592   2.075   1.767  0.00  0.00     0.000 A 
ATOM      4  C4  BNZ d   1      -1.157   1.095   2.585  0.00  0.00     0.000 A 
ATOM      5  C5  BNZ d   1      -0.572  -0.042   2.065  0.00  0.00     0.000 A 
ATOM      6  C6  BNZ d   1      -0.422  -0.177   0.704  0.00  0.00     0.000 A 
ENDROOT
TORSDOF 0
ENDMDL
