MODEL 1
REMARK minimizedAffinity -4.87245655
REMARK minimizedRMSD -1
REMARK  0 active torsions:
REMARK  status: ('A' for Active; 'I' for Inactive)
ROOT
ATOM      1  C1  BNZ d   1      -0.185  -0.505   1.854  0.00  0.00     0.000 A 
ATOM      2  C2  BNZ d   1      -1.095   0.488   2.103  0.00  0.00     0.000 A 
ATOM      3  C3  BNZ d   1      -1.494   1.336   1.108  0.00  0.00     0.000 A 
ATOM      4  C4  BNZ d   1      -0.953   1.218  -0.121  0.00  0.00     0.000 A 
ATOM      5  C5  BNZ d   1      -0.027   0.228  -0.385  0.00  0.00     0.000 A 
ATOM      6  C6  BNZ d   1       0.343  -0.649   0.608  0.00  0.00     0.000 A 
ENDROOT
TORSDOF 0
ENDMDL
