MODEL 1
REMARK minimizedAffinity -1.334764
REMARK minimizedRMSD -1
REMARK  0 active torsions:
REMARK  status: ('A' for Active; 'I' for Inactive)
ROOT
ATOM      1  C1  BNZ d   1       1.217  -4.193  -1.545  0.00  0.00     0.000 A 
ATOM      2  C2  BNZ d   1       0.548  -3.815  -2.678  0.00  0.00     0.000 A 
ATOM      3  C3  BNZ d   1       0.253  -2.500  -2.910  0.00  0.00     0.000 A 
ATOM      4  C4  BNZ d   1       0.592  -1.572  -1.992  0.00  0.00     0.000 A 
ATOM      5  C5  BNZ d   1       1.259  -1.939  -0.841  0.00  0.00     0.000 A 
ATOM      6  C6  BNZ d   1       1.589  -3.258  -0.628  0.00  0.00     0.000 A 
ENDROOT
TORSDOF 0
ENDMDL
