MODEL 1
REMARK minimizedAffinity 6.19878006
REMARK minimizedRMSD -1
REMARK  0 active torsions:
REMARK  status: ('A' for Active; 'I' for Inactive)
ROOT
ATOM      1  O1  BZF d   1       1.201  -0.455  -1.629  0.00  0.00    -0.204 OA
ATOM      2  C2  BZF d   1      -0.008  -0.769  -2.221  0.00  0.00     0.174 A 
ATOM      3  C3  BZF d   1      -0.264  -2.089  -2.112  0.00  0.00    -0.012 A 
ATOM      4  C3A BZF d   1       0.809  -2.618  -1.328  0.00  0.00    -0.107 A 
ATOM      5  C4  BZF d   1       1.107  -3.868  -0.866  0.00  0.00     0.055 A 
ATOM      6  C5  BZF d   1       2.270  -4.062  -0.190  0.00  0.00    -0.016 A 
ATOM      7  C6  BZF d   1       3.159  -3.032   0.038  0.00  0.00     0.022 A 
ATOM      8  C7  BZF d   1       2.904  -1.773  -0.396  0.00  0.00     0.029 A 
ATOM      9  C7A BZF d   1       1.714  -1.567  -1.051  0.00  0.00     0.058 A 
ENDROOT
TORSDOF 0
ENDMDL
