MODEL 1
REMARK minimizedAffinity 9.69379711
REMARK minimizedRMSD -1
REMARK  0 active torsions:
REMARK  status: ('A' for Active; 'I' for Inactive)
ROOT
ATOM      1  O1  BZF d   1      -0.617   4.159  -1.706  0.00  0.00    -0.204 OA
ATOM      2  C2  BZF d   1      -0.914   5.361  -1.093  0.00  0.00     0.174 A 
ATOM      3  C3  BZF d   1      -1.160   5.180   0.221  0.00  0.00    -0.012 A 
ATOM      4  C3A BZF d   1      -0.917   3.791   0.461  0.00  0.00    -0.107 A 
ATOM      5  C4  BZF d   1      -0.978   3.007   1.578  0.00  0.00     0.055 A 
ATOM      6  C5  BZF d   1      -0.752   1.672   1.461  0.00  0.00    -0.016 A 
ATOM      7  C6  BZF d   1      -0.470   1.087   0.243  0.00  0.00     0.022 A 
ATOM      8  C7  BZF d   1      -0.394   1.825  -0.891  0.00  0.00     0.029 A 
ATOM      9  C7A BZF d   1      -0.589   3.179  -0.771  0.00  0.00     0.058 A 
ENDROOT
TORSDOF 0
ENDMDL
