MODEL 1
REMARK minimizedAffinity 12.8252878
REMARK minimizedRMSD -1
REMARK  0 active torsions:
REMARK  status: ('A' for Active; 'I' for Inactive)
ROOT
ATOM      1  O1  BZF d   1      -3.217  -1.102  -2.007  0.00  0.00    -0.204 OA
ATOM      2  C2  BZF d   1      -3.697  -0.003  -1.321  0.00  0.00     0.174 A 
ATOM      3  C3  BZF d   1      -2.683   0.789  -0.919  0.00  0.00    -0.012 A 
ATOM      4  C3A BZF d   1      -1.501   0.194  -1.462  0.00  0.00    -0.107 A 
ATOM      5  C4  BZF d   1      -0.178   0.528  -1.422  0.00  0.00     0.055 A 
ATOM      6  C5  BZF d   1       0.732  -0.305  -1.994  0.00  0.00    -0.016 A 
ATOM      7  C6  BZF d   1       0.353  -1.480  -2.609  0.00  0.00     0.022 A 
ATOM      8  C7  BZF d   1      -0.948  -1.852  -2.678  0.00  0.00     0.029 A 
ATOM      9  C7A BZF d   1      -1.872  -0.996  -2.130  0.00  0.00     0.058 A 
ENDROOT
TORSDOF 0
ENDMDL
