MODEL 1
REMARK minimizedAffinity 10.8743105
REMARK minimizedRMSD -1
REMARK  0 active torsions:
REMARK  status: ('A' for Active; 'I' for Inactive)
ROOT
ATOM      1  O1  BZF d   1       1.051  -3.770  -3.938  0.00  0.00    -0.204 OA
ATOM      2  C2  BZF d   1       0.782  -3.082  -5.106  0.00  0.00     0.174 A 
ATOM      3  C3  BZF d   1       1.835  -3.135  -5.946  0.00  0.00    -0.012 A 
ATOM      4  C3A BZF d   1       2.790  -3.982  -5.299  0.00  0.00    -0.107 A 
ATOM      5  C4  BZF d   1       4.033  -4.429  -5.645  0.00  0.00     0.055 A 
ATOM      6  C5  BZF d   1       4.733  -5.184  -4.757  0.00  0.00    -0.016 A 
ATOM      7  C6  BZF d   1       4.224  -5.506  -3.516  0.00  0.00     0.022 A 
ATOM      8  C7  BZF d   1       2.993  -5.089  -3.131  0.00  0.00     0.029 A 
ATOM      9  C7A BZF d   1       2.270  -4.353  -4.038  0.00  0.00     0.058 A 
ENDROOT
TORSDOF 0
ENDMDL
