MODEL 1
REMARK minimizedAffinity -1.18992174
REMARK minimizedRMSD -1
REMARK  0 active torsions:
REMARK  status: ('A' for Active; 'I' for Inactive)
ROOT
ATOM      1  O1  BZF d   1      -3.670  -1.044  -0.908  0.00  0.00    -0.204 OA
ATOM      2  C2  BZF d   1      -4.277   0.195  -0.843  0.00  0.00     0.174 A 
ATOM      3  C3  BZF d   1      -3.358   1.181  -0.892  0.00  0.00    -0.012 A 
ATOM      4  C3A BZF d   1      -2.105   0.518  -1.088  0.00  0.00    -0.107 A 
ATOM      5  C4  BZF d   1      -0.821   0.961  -1.232  0.00  0.00     0.055 A 
ATOM      6  C5  BZF d   1       0.183   0.051  -1.333  0.00  0.00    -0.016 A 
ATOM      7  C6  BZF d   1      -0.059  -1.306  -1.288  0.00  0.00     0.022 A 
ATOM      8  C7  BZF d   1      -1.317  -1.793  -1.152  0.00  0.00     0.029 A 
ATOM      9  C7A BZF d   1      -2.337  -0.877  -1.083  0.00  0.00     0.058 A 
ENDROOT
TORSDOF 0
ENDMDL
