MODEL 1
REMARK minimizedAffinity 12.2043924
REMARK minimizedRMSD -1
REMARK  0 active torsions:
REMARK  status: ('A' for Active; 'I' for Inactive)
ROOT
ATOM      1  O1  BZF d   1      -3.815   0.944  -0.880  0.00  0.00    -0.204 OA
ATOM      2  C2  BZF d   1      -4.840   0.643  -0.003  0.00  0.00     0.174 A 
ATOM      3  C3  BZF d   1      -4.415   0.721   1.274  0.00  0.00    -0.012 A 
ATOM      4  C3A BZF d   1      -3.064   1.184   1.194  0.00  0.00    -0.107 A 
ATOM      5  C4  BZF d   1      -2.113   1.474   2.131  0.00  0.00     0.055 A 
ATOM      6  C5  BZF d   1      -0.869   1.834   1.720  0.00  0.00    -0.016 A 
ATOM      7  C6  BZF d   1      -0.539   1.909   0.382  0.00  0.00     0.022 A 
ATOM      8  C7  BZF d   1      -1.450   1.636  -0.584  0.00  0.00     0.029 A 
ATOM      9  C7A BZF d   1      -2.718   1.304  -0.172  0.00  0.00     0.058 A 
ENDROOT
TORSDOF 0
ENDMDL
