MODEL 1
REMARK minimizedAffinity 5.51678419
REMARK minimizedRMSD -1
REMARK  0 active torsions:
REMARK  status: ('A' for Active; 'I' for Inactive)
ROOT
ATOM      1  O1  BZF d   1      -4.175   0.345  -2.031  0.00  0.00    -0.204 OA
ATOM      2  C2  BZF d   1      -3.031  -0.427  -2.092  0.00  0.00     0.174 A 
ATOM      3  C3  BZF d   1      -2.635  -0.793  -0.856  0.00  0.00    -0.012 A 
ATOM      4  C3A BZF d   1      -3.643  -0.292   0.027  0.00  0.00    -0.107 A 
ATOM      5  C4  BZF d   1      -3.820  -0.350   1.380  0.00  0.00     0.055 A 
ATOM      6  C5  BZF d   1      -4.872   0.305   1.937  0.00  0.00    -0.016 A 
ATOM      7  C6  BZF d   1      -5.762   1.031   1.173  0.00  0.00     0.022 A 
ATOM      8  C7  BZF d   1      -5.631   1.113  -0.173  0.00  0.00     0.029 A 
ATOM      9  C7A BZF d   1      -4.588   0.425  -0.743  0.00  0.00     0.058 A 
ENDROOT
TORSDOF 0
ENDMDL
