MODEL 1
REMARK minimizedAffinity -6.50724649
REMARK minimizedRMSD -1
REMARK  0 active torsions:
REMARK  status: ('A' for Active; 'I' for Inactive)
ROOT
ATOM      1  N1  IND d   1       0.687  -0.442   1.087  0.00  0.00    -0.196 N 
ATOM      2  C2  IND d   1       0.973   0.248  -0.058  0.00  0.00     0.054 A 
ATOM      3  C3  IND d   1      -0.119   0.314  -0.852  0.00  0.00    -0.031 A 
ATOM      4  C4  IND d   1      -2.506  -0.551  -0.427  0.00  0.00     0.051 A 
ATOM      5  C5  IND d   1      -3.245  -1.279   0.462  0.00  0.00    -0.031 A 
ATOM      6  C6  IND d   1      -2.702  -1.773   1.631  0.00  0.00     0.015 A 
ATOM      7  C7  IND d   1      -1.395  -1.546   1.960  0.00  0.00    -0.016 A 
ATOM      8  C8  IND d   1      -0.639  -0.814   1.055  0.00  0.00    -0.047 A 
ATOM      9  C9  IND d   1      -1.174  -0.347  -0.152  0.00  0.00    -0.096 A 
ATOM     10  HN1 IND d   1       1.242  -0.616   1.721  0.00  0.00     0.298 HD
ENDROOT
TORSDOF 0
ENDMDL
