MODEL 1
REMARK minimizedAffinity -4.67026711
REMARK minimizedRMSD -1
REMARK  0 active torsions:
REMARK  status: ('A' for Active; 'I' for Inactive)
ROOT
ATOM      1  N1  IND d   1       0.206  -0.582   0.803  0.00  0.00    -0.196 N 
ATOM      2  C2  IND d   1       0.475   0.399  -0.110  0.00  0.00     0.054 A 
ATOM      3  C3  IND d   1      -0.489   0.436  -1.058  0.00  0.00    -0.031 A 
ATOM      4  C4  IND d   1      -2.650  -0.950  -1.248  0.00  0.00     0.051 A 
ATOM      5  C5  IND d   1      -3.314  -1.995  -0.669  0.00  0.00    -0.031 A 
ATOM      6  C6  IND d   1      -2.831  -2.633   0.455  0.00  0.00     0.015 A 
ATOM      7  C7  IND d   1      -1.665  -2.241   1.051  0.00  0.00    -0.016 A 
ATOM      8  C8  IND d   1      -0.985  -1.185   0.461  0.00  0.00    -0.047 A 
ATOM      9  C9  IND d   1      -1.449  -0.561  -0.704  0.00  0.00    -0.096 A 
ATOM     10  HN1 IND d   1       0.697  -0.788   1.478  0.00  0.00     0.298 HD
ENDROOT
TORSDOF 0
ENDMDL
