MODEL 1
REMARK minimizedAffinity -5.34315586
REMARK minimizedRMSD -1
REMARK  0 active torsions:
REMARK  status: ('A' for Active; 'I' for Inactive)
ROOT
ATOM      1  N1  IND d   1       0.486  -0.669   0.721  0.00  0.00    -0.196 N 
ATOM      2  C2  IND d   1       0.457   0.320  -0.223  0.00  0.00     0.054 A 
ATOM      3  C3  IND d   1      -0.754   0.361  -0.824  0.00  0.00    -0.031 A 
ATOM      4  C4  IND d   1      -2.866  -1.031  -0.346  0.00  0.00     0.051 A 
ATOM      5  C5  IND d   1      -3.316  -2.083   0.403  0.00  0.00    -0.031 A 
ATOM      6  C6  IND d   1      -2.507  -2.728   1.315  0.00  0.00     0.015 A 
ATOM      7  C7  IND d   1      -1.215  -2.336   1.523  0.00  0.00    -0.016 A 
ATOM      8  C8  IND d   1      -0.752  -1.274   0.760  0.00  0.00    -0.047 A 
ATOM      9  C9  IND d   1      -1.555  -0.643  -0.198  0.00  0.00    -0.096 A 
ATOM     10  HN1 IND d   1       1.163  -0.878   1.208  0.00  0.00     0.298 HD
ENDROOT
TORSDOF 0
ENDMDL
