MODEL 1
REMARK minimizedAffinity -4.00681305
REMARK minimizedRMSD -1
REMARK  0 active torsions:
REMARK  status: ('A' for Active; 'I' for Inactive)
ROOT
ATOM      1  N1  IND d   1       0.665  -0.586   0.509  0.00  0.00    -0.196 N 
ATOM      2  C2  IND d   1       0.836   0.380  -0.443  0.00  0.00     0.054 A 
ATOM      3  C3  IND d   1      -0.257   0.458  -1.236  0.00  0.00    -0.031 A 
ATOM      4  C4  IND d   1      -2.479  -0.833  -1.089  0.00  0.00     0.051 A 
ATOM      5  C5  IND d   1      -3.093  -1.846  -0.409  0.00  0.00    -0.031 A 
ATOM      6  C6  IND d   1      -2.474  -2.503   0.635  0.00  0.00     0.015 A 
ATOM      7  C7  IND d   1      -1.217  -2.162   1.047  0.00  0.00    -0.016 A 
ATOM      8  C8  IND d   1      -0.588  -1.138   0.353  0.00  0.00    -0.047 A 
ATOM      9  C9  IND d   1      -1.194  -0.496  -0.734  0.00  0.00    -0.096 A 
ATOM     10  HN1 IND d   1       1.243  -0.812   1.104  0.00  0.00     0.298 HD
ENDROOT
TORSDOF 0
ENDMDL
