MODEL 1
REMARK minimizedAffinity -5.45251703
REMARK minimizedRMSD -1
REMARK  0 active torsions:
REMARK  status: ('A' for Active; 'I' for Inactive)
ROOT
ATOM      1  N1  IND d   1       0.991  -0.696   0.560  0.00  0.00    -0.196 N 
ATOM      2  C2  IND d   1       1.113   0.324  -0.342  0.00  0.00     0.054 A 
ATOM      3  C3  IND d   1      -0.106   0.718  -0.774  0.00  0.00    -0.031 A 
ATOM      4  C4  IND d   1      -2.439  -0.101  -0.057  0.00  0.00     0.051 A 
ATOM      5  C5  IND d   1      -3.060  -1.043   0.714  0.00  0.00    -0.031 A 
ATOM      6  C6  IND d   1      -2.348  -1.934   1.491  0.00  0.00     0.015 A 
ATOM      7  C7  IND d   1      -0.983  -1.908   1.535  0.00  0.00    -0.016 A 
ATOM      8  C8  IND d   1      -0.349  -0.957   0.748  0.00  0.00    -0.047 A 
ATOM      9  C9  IND d   1      -1.064  -0.078  -0.076  0.00  0.00    -0.096 A 
ATOM     10  HN1 IND d   1       1.641  -1.105   0.946  0.00  0.00     0.298 HD
ENDROOT
TORSDOF 0
ENDMDL
