MODEL 1
REMARK minimizedAffinity -5.57397556
REMARK minimizedRMSD -1
REMARK  0 active torsions:
REMARK  status: ('A' for Active; 'I' for Inactive)
ROOT
ATOM      1  N1  IND d   1       0.904  -0.609   0.532  0.00  0.00    -0.196 N 
ATOM      2  C2  IND d   1       1.080   0.277  -0.495  0.00  0.00     0.054 A 
ATOM      3  C3  IND d   1      -0.076   0.445  -1.175  0.00  0.00    -0.031 A 
ATOM      4  C4  IND d   1      -2.404  -0.554  -0.717  0.00  0.00     0.051 A 
ATOM      5  C5  IND d   1      -3.053  -1.446   0.089  0.00  0.00    -0.031 A 
ATOM      6  C6  IND d   1      -2.405  -2.116   1.107  0.00  0.00     0.015 A 
ATOM      7  C7  IND d   1      -1.079  -1.910   1.364  0.00  0.00    -0.016 A 
ATOM      8  C8  IND d   1      -0.414  -1.010   0.543  0.00  0.00    -0.047 A 
ATOM      9  C9  IND d   1      -1.057  -0.358  -0.518  0.00  0.00    -0.096 A 
ATOM     10  HN1 IND d   1       1.513  -0.871   1.079  0.00  0.00     0.298 HD
ENDROOT
TORSDOF 0
ENDMDL
