MODEL 1
REMARK minimizedAffinity -6.23121738
REMARK minimizedRMSD -1
REMARK  0 active torsions:
REMARK  status: ('A' for Active; 'I' for Inactive)
ROOT
ATOM      1  N1  IND d   1       0.628  -0.653   0.767  0.00  0.00    -0.196 N 
ATOM      2  C2  IND d   1       0.896  -0.024  -0.417  0.00  0.00     0.054 A 
ATOM      3  C3  IND d   1      -0.242   0.148  -1.127  0.00  0.00    -0.031 A 
ATOM      4  C4  IND d   1      -2.668  -0.432  -0.493  0.00  0.00     0.051 A 
ATOM      5  C5  IND d   1      -3.411  -1.052   0.473  0.00  0.00    -0.031 A 
ATOM      6  C6  IND d   1      -2.833  -1.579   1.610  0.00  0.00     0.015 A 
ATOM      7  C7  IND d   1      -1.488  -1.495   1.831  0.00  0.00    -0.016 A 
ATOM      8  C8  IND d   1      -0.730  -0.872   0.849  0.00  0.00    -0.047 A 
ATOM      9  C9  IND d   1      -1.305  -0.374  -0.327  0.00  0.00    -0.096 A 
ATOM     10  HN1 IND d   1       1.209  -0.874   1.361  0.00  0.00     0.298 HD
ENDROOT
TORSDOF 0
ENDMDL
