MODEL 1
REMARK minimizedAffinity 1.16522789
REMARK minimizedRMSD -1
REMARK  0 active torsions:
REMARK  status: ('A' for Active; 'I' for Inactive)
ROOT
ATOM      1  N1  IND d   1       0.039  -2.328   0.528  0.00  0.00    -0.196 N 
ATOM      2  C2  IND d   1       0.579  -1.998   1.740  0.00  0.00     0.054 A 
ATOM      3  C3  IND d   1       0.917  -0.689   1.764  0.00  0.00    -0.031 A 
ATOM      4  C4  IND d   1       0.581   1.120  -0.037  0.00  0.00     0.051 A 
ATOM      5  C5  IND d   1       0.162   1.291  -1.326  0.00  0.00    -0.031 A 
ATOM      6  C6  IND d   1      -0.332   0.245  -2.078  0.00  0.00     0.015 A 
ATOM      7  C7  IND d   1      -0.437  -1.016  -1.562  0.00  0.00    -0.016 A 
ATOM      8  C8  IND d   1      -0.005  -1.195  -0.255  0.00  0.00    -0.047 A 
ATOM      9  C9  IND d   1       0.537  -0.146   0.498  0.00  0.00    -0.096 A 
ATOM     10  HN1 IND d   1      -0.229  -3.111   0.295  0.00  0.00     0.298 HD
ENDROOT
TORSDOF 0
ENDMDL
