MODEL 1
REMARK minimizedAffinity -0.611151993
REMARK minimizedRMSD -1
REMARK  0 active torsions:
REMARK  status: ('A' for Active; 'I' for Inactive)
ROOT
ATOM      1  N1  IND d   1      -0.925  -2.364   0.957  0.00  0.00    -0.196 N 
ATOM      2  C2  IND d   1       0.234  -2.190   1.661  0.00  0.00     0.054 A 
ATOM      3  C3  IND d   1       0.947  -1.163   1.146  0.00  0.00    -0.031 A 
ATOM      4  C4  IND d   1       0.357   0.432  -0.786  0.00  0.00     0.051 A 
ATOM      5  C5  IND d   1      -0.580   0.647  -1.758  0.00  0.00    -0.031 A 
ATOM      6  C6  IND d   1      -1.703  -0.146  -1.875  0.00  0.00     0.015 A 
ATOM      7  C7  IND d   1      -1.939  -1.180  -1.014  0.00  0.00    -0.016 A 
ATOM      8  C8  IND d   1      -0.986  -1.405  -0.030  0.00  0.00    -0.047 A 
ATOM      9  C9  IND d   1       0.177  -0.631   0.068  0.00  0.00    -0.096 A 
ATOM     10  HN1 IND d   1      -1.516  -2.971   1.105  0.00  0.00     0.298 HD
ENDROOT
TORSDOF 0
ENDMDL
