MODEL 1
REMARK minimizedAffinity 1.41306543
REMARK minimizedRMSD -1
REMARK  0 active torsions:
REMARK  status: ('A' for Active; 'I' for Inactive)
ROOT
ATOM      1  N1  IND d   1       0.169   0.532   1.669  0.00  0.00    -0.196 N 
ATOM      2  C2  IND d   1       0.146  -0.299   0.583  0.00  0.00     0.054 A 
ATOM      3  C3  IND d   1       1.010   0.138  -0.361  0.00  0.00    -0.031 A 
ATOM      4  C4  IND d   1       2.636   2.133  -0.294  0.00  0.00     0.051 A 
ATOM      5  C5  IND d   1       2.993   3.206   0.474  0.00  0.00    -0.031 A 
ATOM      6  C6  IND d   1       2.417   3.446   1.705  0.00  0.00     0.015 A 
ATOM      7  C7  IND d   1       1.467   2.611   2.221  0.00  0.00    -0.016 A 
ATOM      8  C8  IND d   1       1.097   1.525   1.442  0.00  0.00    -0.047 A 
ATOM      9  C9  IND d   1       1.647   1.300   0.174  0.00  0.00    -0.096 A 
ATOM     10  HN1 IND d   1      -0.315   0.448   2.375  0.00  0.00     0.298 HD
ENDROOT
TORSDOF 0
ENDMDL
