MODEL 1
REMARK minimizedAffinity -3.27245665
REMARK minimizedRMSD -1
REMARK  0 active torsions:
REMARK  status: ('A' for Active; 'I' for Inactive)
ROOT
ATOM      1  N1  IND d   1       0.400  -0.737   0.906  0.00  0.00    -0.196 N 
ATOM      2  C2  IND d   1       0.833   0.103  -0.082  0.00  0.00     0.054 A 
ATOM      3  C3  IND d   1      -0.124   0.251  -1.025  0.00  0.00    -0.031 A 
ATOM      4  C4  IND d   1      -2.511  -0.710  -1.099  0.00  0.00     0.051 A 
ATOM      5  C5  IND d   1      -3.350  -1.563  -0.438  0.00  0.00    -0.031 A 
ATOM      6  C6  IND d   1      -2.975  -2.195   0.730  0.00  0.00     0.015 A 
ATOM      7  C7  IND d   1      -1.746  -1.987   1.289  0.00  0.00    -0.016 A 
ATOM      8  C8  IND d   1      -0.889  -1.128   0.617  0.00  0.00    -0.047 A 
ATOM      9  C9  IND d   1      -1.248  -0.517  -0.591  0.00  0.00    -0.096 A 
ATOM     10  HN1 IND d   1       0.857  -0.981   1.593  0.00  0.00     0.298 HD
ENDROOT
TORSDOF 0
ENDMDL
