MODEL 1
REMARK minimizedAffinity -2.78873444
REMARK minimizedRMSD -1
REMARK  0 active torsions:
REMARK  status: ('A' for Active; 'I' for Inactive)
ROOT
ATOM      1  N1  IND d   1      -0.780  -2.645   1.198  0.00  0.00    -0.196 N 
ATOM      2  C2  IND d   1      -1.851  -3.427   0.866  0.00  0.00     0.054 A 
ATOM      3  C3  IND d   1      -2.494  -2.913  -0.207  0.00  0.00    -0.031 A 
ATOM      4  C4  IND d   1      -1.905  -0.855  -1.636  0.00  0.00     0.051 A 
ATOM      5  C5  IND d   1      -1.036   0.198  -1.701  0.00  0.00    -0.031 A 
ATOM      6  C6  IND d   1      -0.015   0.359  -0.787  0.00  0.00     0.015 A 
ATOM      7  C7  IND d   1       0.182  -0.537   0.225  0.00  0.00    -0.016 A 
ATOM      8  C8  IND d   1      -0.702  -1.604   0.299  0.00  0.00    -0.047 A 
ATOM      9  C9  IND d   1      -1.766  -1.750  -0.601  0.00  0.00    -0.096 A 
ATOM     10  HN1 IND d   1      -0.245  -2.780   1.857  0.00  0.00     0.298 HD
ENDROOT
TORSDOF 0
ENDMDL
