MODEL 1
REMARK minimizedAffinity -3.83905816
REMARK minimizedRMSD -1
REMARK  0 active torsions:
REMARK  status: ('A' for Active; 'I' for Inactive)
ROOT
ATOM      1  N1  IND d   1      -2.234  -0.542  -1.038  0.00  0.00    -0.196 N 
ATOM      2  C2  IND d   1      -3.107  -1.590  -0.946  0.00  0.00     0.054 A 
ATOM      3  C3  IND d   1      -2.667  -2.491  -0.039  0.00  0.00    -0.031 A 
ATOM      4  C4  IND d   1      -0.592  -2.399   1.483  0.00  0.00     0.051 A 
ATOM      5  C5  IND d   1       0.527  -1.657   1.734  0.00  0.00    -0.031 A 
ATOM      6  C6  IND d   1       0.788  -0.480   1.062  0.00  0.00     0.015 A 
ATOM      7  C7  IND d   1      -0.072   0.007   0.118  0.00  0.00    -0.016 A 
ATOM      8  C8  IND d   1      -1.206  -0.748  -0.145  0.00  0.00    -0.047 A 
ATOM      9  C9  IND d   1      -1.454  -1.965   0.503  0.00  0.00    -0.096 A 
ATOM     10  HN1 IND d   1      -2.313   0.132  -1.566  0.00  0.00     0.298 HD
ENDROOT
TORSDOF 0
ENDMDL
