MODEL 1
REMARK minimizedAffinity -5.69575405
REMARK minimizedRMSD -1
REMARK  0 active torsions:
REMARK  status: ('A' for Active; 'I' for Inactive)
ROOT
ATOM      1  N1  IND d   1       0.109  -0.826   0.538  0.00  0.00    -0.196 N 
ATOM      2  C2  IND d   1       0.602   0.087  -0.352  0.00  0.00     0.054 A 
ATOM      3  C3  IND d   1      -0.358   0.453  -1.230  0.00  0.00    -0.031 A 
ATOM      4  C4  IND d   1      -2.834  -0.243  -1.331  0.00  0.00     0.051 A 
ATOM      5  C5  IND d   1      -3.741  -1.085  -0.751  0.00  0.00    -0.031 A 
ATOM      6  C6  IND d   1      -3.405  -1.898   0.312  0.00  0.00     0.015 A 
ATOM      7  C7  IND d   1      -2.146  -1.891   0.844  0.00  0.00    -0.016 A 
ATOM      8  C8  IND d   1      -1.221  -1.042   0.253  0.00  0.00    -0.047 A 
ATOM      9  C9  IND d   1      -1.545  -0.246  -0.853  0.00  0.00    -0.096 A 
ATOM     10  HN1 IND d   1       0.555  -1.202   1.170  0.00  0.00     0.298 HD
ENDROOT
TORSDOF 0
ENDMDL
