MODEL 1
REMARK minimizedAffinity -3.62273574
REMARK minimizedRMSD -1
REMARK  0 active torsions:
REMARK  status: ('A' for Active; 'I' for Inactive)
ROOT
ATOM      1  N1  IND d   1      -0.165  -0.359  -1.537  0.00  0.00    -0.196 N 
ATOM      2  C2  IND d   1       0.557   0.197  -0.518  0.00  0.00     0.054 A 
ATOM      3  C3  IND d   1      -0.075   0.011   0.662  0.00  0.00    -0.031 A 
ATOM      4  C4  IND d   1      -2.253  -1.266   1.167  0.00  0.00     0.051 A 
ATOM      5  C5  IND d   1      -3.288  -1.914   0.554  0.00  0.00    -0.031 A 
ATOM      6  C6  IND d   1      -3.335  -2.083  -0.814  0.00  0.00     0.015 A 
ATOM      7  C7  IND d   1      -2.338  -1.617  -1.624  0.00  0.00    -0.016 A 
ATOM      8  C8  IND d   1      -1.288  -0.952  -1.006  0.00  0.00    -0.047 A 
ATOM      9  C9  IND d   1      -1.256  -0.741   0.379  0.00  0.00    -0.096 A 
ATOM     10  HN1 IND d   1       0.048  -0.340  -2.370  0.00  0.00     0.298 HD
ENDROOT
TORSDOF 0
ENDMDL
