MODEL 1
REMARK minimizedAffinity -1.01566744
REMARK minimizedRMSD -1
REMARK  0 active torsions:
REMARK  status: ('A' for Active; 'I' for Inactive)
ROOT
ATOM      1  N1  IND d   1      -2.088  -0.603  -1.315  0.00  0.00    -0.196 N 
ATOM      2  C2  IND d   1      -2.820  -1.298  -0.393  0.00  0.00     0.054 A 
ATOM      3  C3  IND d   1      -2.121  -1.434   0.756  0.00  0.00    -0.031 A 
ATOM      4  C4  IND d   1       0.199  -0.509   1.379  0.00  0.00     0.051 A 
ATOM      5  C5  IND d   1       1.270   0.158   0.853  0.00  0.00    -0.031 A 
ATOM      6  C6  IND d   1       1.275   0.617  -0.449  0.00  0.00     0.015 A 
ATOM      7  C7  IND d   1       0.200   0.435  -1.272  0.00  0.00    -0.016 A 
ATOM      8  C8  IND d   1      -0.886  -0.248  -0.743  0.00  0.00    -0.047 A 
ATOM      9  C9  IND d   1      -0.880  -0.753   0.563  0.00  0.00    -0.096 A 
ATOM     10  HN1 IND d   1      -2.336  -0.419  -2.117  0.00  0.00     0.298 HD
ENDROOT
TORSDOF 0
ENDMDL
