MODEL 1
REMARK minimizedAffinity -1.94568992
REMARK minimizedRMSD -1
REMARK  0 active torsions:
REMARK  status: ('A' for Active; 'I' for Inactive)
ROOT
ATOM      1  N1  IND d   1      -2.112   0.085  -1.108  0.00  0.00    -0.196 N 
ATOM      2  C2  IND d   1      -3.055  -0.887  -0.925  0.00  0.00     0.054 A 
ATOM      3  C3  IND d   1      -2.608  -1.816  -0.049  0.00  0.00    -0.031 A 
ATOM      4  C4  IND d   1      -0.405  -1.884   1.281  0.00  0.00     0.051 A 
ATOM      5  C5  IND d   1       0.788  -1.233   1.422  0.00  0.00    -0.031 A 
ATOM      6  C6  IND d   1       1.081  -0.085   0.714  0.00  0.00     0.015 A 
ATOM      7  C7  IND d   1       0.182   0.464  -0.156  0.00  0.00    -0.016 A 
ATOM      8  C8  IND d   1      -1.028  -0.198  -0.307  0.00  0.00    -0.047 A 
ATOM      9  C9  IND d   1      -1.314  -1.387   0.377  0.00  0.00    -0.096 A 
ATOM     10  HN1 IND d   1      -2.184   0.761  -1.636  0.00  0.00     0.298 HD
ENDROOT
TORSDOF 0
ENDMDL
