MODEL 1
REMARK minimizedAffinity -2.94766092
REMARK minimizedRMSD -1
REMARK  1 active torsions:
REMARK  status: ('A' for Active; 'I' for Inactive)
REMARK    1  A    between atoms: C1_2  and  C2_3 
ROOT
ATOM      1  C2  UNL d   1       0.040  -0.206   0.071  0.00  0.00    -0.077 A 
ATOM      2  C3  UNL d   1       0.467  -1.340  -0.634  0.00  0.00     0.002 A 
ATOM      3  C4  UNL d   1       1.760  -1.837  -0.456  0.00  0.00     0.002 A 
ATOM      4  C5  UNL d   1       2.634  -1.209   0.428  0.00  0.00    -0.004 A 
ATOM      5  C6  UNL d   1       2.219  -0.079   1.132  0.00  0.00     0.002 A 
ATOM      6  C7  UNL d   1       0.928   0.420   0.955  0.00  0.00     0.002 A 
ENDROOT
BRANCH   1   7
ATOM      7  C1  UNL d   1      -1.370   0.303  -0.083  0.00  0.00     0.055 C 
ATOM      8  C   UNL d   1      -2.207  -0.008   1.150  0.00  0.00     0.019 C 
ENDBRANCH   1   7
TORSDOF 1
ENDMDL
