MODEL 1
REMARK minimizedAffinity -4.32530689
REMARK minimizedRMSD -1
REMARK  1 active torsions:
REMARK  status: ('A' for Active; 'I' for Inactive)
REMARK    1  A    between atoms: C1_2  and  C2_3 
ROOT
ATOM      1  C2  UNL d   1       0.733  -1.568   0.212  0.00  0.00    -0.077 A 
ATOM      2  C3  UNL d   1       0.397  -0.263  -0.174  0.00  0.00     0.002 A 
ATOM      3  C4  UNL d   1      -0.596   0.442   0.509  0.00  0.00     0.002 A 
ATOM      4  C5  UNL d   1      -1.258  -0.148   1.584  0.00  0.00    -0.004 A 
ATOM      5  C6  UNL d   1      -0.932  -1.446   1.974  0.00  0.00     0.002 A 
ATOM      6  C7  UNL d   1       0.059  -2.153   1.292  0.00  0.00     0.002 A 
ENDROOT
BRANCH   1   7
ATOM      7  C1  UNL d   1       1.837  -2.312  -0.492  0.00  0.00     0.055 C 
ATOM      8  C   UNL d   1       3.180  -2.082   0.186  0.00  0.00     0.019 C 
ENDBRANCH   1   7
TORSDOF 1
ENDMDL
