MODEL 1
REMARK minimizedAffinity -1.69191563
REMARK minimizedRMSD -1
REMARK  1 active torsions:
REMARK  status: ('A' for Active; 'I' for Inactive)
REMARK    1  A    between atoms: C1_2  and  C2_3 
ROOT
ATOM      1  C2  UNL d   1      -4.850   0.352   0.908  0.00  0.00    -0.077 A 
ATOM      2  C3  UNL d   1      -5.101   1.149   2.034  0.00  0.00     0.002 A 
ATOM      3  C4  UNL d   1      -4.049   1.572   2.848  0.00  0.00     0.002 A 
ATOM      4  C5  UNL d   1      -2.739   1.207   2.543  0.00  0.00    -0.004 A 
ATOM      5  C6  UNL d   1      -2.480   0.414   1.426  0.00  0.00     0.002 A 
ATOM      6  C7  UNL d   1      -3.530  -0.011   0.612  0.00  0.00     0.002 A 
ENDROOT
BRANCH   1   7
ATOM      7  C1  UNL d   1      -5.979  -0.064   0.001  0.00  0.00     0.055 C 
ATOM      8  C   UNL d   1      -5.603  -1.286  -0.824  0.00  0.00     0.019 C 
ENDBRANCH   1   7
TORSDOF 1
ENDMDL
