MODEL 1
REMARK minimizedAffinity -3.56711411
REMARK minimizedRMSD -1
REMARK  1 active torsions:
REMARK  status: ('A' for Active; 'I' for Inactive)
REMARK    1  A    between atoms: C1_2  and  C2_3 
ROOT
ATOM      1  C2  UNL d   1      -3.133   0.335  -0.341  0.00  0.00    -0.077 A 
ATOM      2  C3  UNL d   1      -4.300  -0.370  -0.668  0.00  0.00     0.002 A 
ATOM      3  C4  UNL d   1      -5.451  -0.231   0.109  0.00  0.00     0.002 A 
ATOM      4  C5  UNL d   1      -5.448   0.615   1.216  0.00  0.00    -0.004 A 
ATOM      5  C6  UNL d   1      -4.292   1.319   1.551  0.00  0.00     0.002 A 
ATOM      6  C7  UNL d   1      -3.140   1.181   0.776  0.00  0.00     0.002 A 
ENDROOT
BRANCH   1   7
ATOM      7  C1  UNL d   1      -1.906   0.224  -1.207  0.00  0.00     0.055 C 
ATOM      8  C   UNL d   1      -0.653   0.638  -0.448  0.00  0.00     0.019 C 
ENDBRANCH   1   7
TORSDOF 1
ENDMDL
