MODEL 1
REMARK minimizedAffinity -1.21199107
REMARK minimizedRMSD -1
REMARK  1 active torsions:
REMARK  status: ('A' for Active; 'I' for Inactive)
REMARK    1  A    between atoms: C1_2  and  C2_3 
ROOT
ATOM      1  C2  UNL d   1       0.153   0.428   0.299  0.00  0.00    -0.077 A 
ATOM      2  C3  UNL d   1       0.717   1.699   0.121  0.00  0.00     0.002 A 
ATOM      3  C4  UNL d   1       1.957   2.007   0.684  0.00  0.00     0.002 A 
ATOM      4  C5  UNL d   1       2.645   1.049   1.425  0.00  0.00    -0.004 A 
ATOM      5  C6  UNL d   1       2.091  -0.218   1.610  0.00  0.00     0.002 A 
ATOM      6  C7  UNL d   1       0.851  -0.527   1.049  0.00  0.00     0.002 A 
ENDROOT
BRANCH   1   7
ATOM      7  C1  UNL d   1      -1.161   0.079  -0.348  0.00  0.00     0.055 C 
ATOM      8  C   UNL d   1      -2.331   0.364   0.583  0.00  0.00     0.019 C 
ENDBRANCH   1   7
TORSDOF 1
ENDMDL
