MODEL 1
REMARK minimizedAffinity -4.63469505
REMARK minimizedRMSD -1
REMARK  1 active torsions:
REMARK  status: ('A' for Active; 'I' for Inactive)
REMARK    1  A    between atoms: C1_2  and  C2_3 
ROOT
ATOM      1  C2  UNL d   1       1.311  -0.311  -0.685  0.00  0.00    -0.081 A 
ATOM      2  C3  UNL d   1       0.754   0.970  -0.590  0.00  0.00     0.006 A 
ATOM      3  C4  UNL d   1      -0.492   1.158   0.014  0.00  0.00     0.002 A 
ATOM      4  C5  UNL d   1      -1.197   0.070   0.539  0.00  0.00    -0.080 A 
ATOM      5  C6  UNL d   1      -2.521   0.261   1.217  0.00  0.00     0.076 C 
ATOM      6  C7  UNL d   1      -0.648  -1.213   0.429  0.00  0.00     0.002 A 
ATOM      7  C8  UNL d   1       0.597  -1.401  -0.175  0.00  0.00     0.006 A 
ENDROOT
BRANCH   1   8
ATOM      8  C1  UNL d   1       2.683  -0.508  -1.277  0.00  0.00     0.054 C 
ATOM      9  C   UNL d   1       2.935   0.461  -2.423  0.00  0.00     0.018 C 
ENDBRANCH   1   8
TORSDOF 1
ENDMDL
