MODEL 1
REMARK minimizedAffinity -4.50980902
REMARK minimizedRMSD -1
REMARK  1 active torsions:
REMARK  status: ('A' for Active; 'I' for Inactive)
REMARK    1  A    between atoms: C1_2  and  C2_3 
ROOT
ATOM      1  C2  UNL d   1       1.143   0.697  -1.198  0.00  0.00    -0.081 A 
ATOM      2  C3  UNL d   1       1.066  -0.331  -0.250  0.00  0.00     0.006 A 
ATOM      3  C4  UNL d   1      -0.013  -0.400   0.634  0.00  0.00     0.002 A 
ATOM      4  C5  UNL d   1      -1.036   0.553   0.581  0.00  0.00    -0.080 A 
ATOM      5  C6  UNL d   1      -2.215   0.474   1.505  0.00  0.00     0.076 C 
ATOM      6  C7  UNL d   1      -0.950   1.591  -0.353  0.00  0.00     0.002 A 
ATOM      7  C8  UNL d   1       0.129   1.660  -1.238  0.00  0.00     0.006 A 
ENDROOT
BRANCH   1   8
ATOM      8  C1  UNL d   1       2.272   0.736  -2.195  0.00  0.00     0.054 C 
ATOM      9  C   UNL d   1       2.828  -0.656  -2.458  0.00  0.00     0.018 C 
ENDBRANCH   1   8
TORSDOF 1
ENDMDL
