MODEL 1
REMARK minimizedAffinity -5.50649405
REMARK minimizedRMSD -1
REMARK  1 active torsions:
REMARK  status: ('A' for Active; 'I' for Inactive)
REMARK    1  A    between atoms: C1_2  and  C2_3 
ROOT
ATOM      1  C2  UNL d   1      -0.481   0.117   0.209  0.00  0.00    -0.081 A 
ATOM      2  C3  UNL d   1       0.145   1.140  -0.515  0.00  0.00     0.006 A 
ATOM      3  C4  UNL d   1       1.348   0.900  -1.183  0.00  0.00     0.002 A 
ATOM      4  C5  UNL d   1       1.940  -0.367  -1.146  0.00  0.00    -0.080 A 
ATOM      5  C6  UNL d   1       3.215  -0.646  -1.885  0.00  0.00     0.076 C 
ATOM      6  C7  UNL d   1       1.324  -1.384  -0.409  0.00  0.00     0.002 A 
ATOM      7  C8  UNL d   1       0.121  -1.144   0.260  0.00  0.00     0.006 A 
ENDROOT
BRANCH   1   8
ATOM      8  C1  UNL d   1      -1.811   0.355   0.877  0.00  0.00     0.054 C 
ATOM      9  C   UNL d   1      -1.644   1.107   2.190  0.00  0.00     0.018 C 
ENDBRANCH   1   8
TORSDOF 1
ENDMDL
