MODEL 1
REMARK minimizedAffinity -5.76209736
REMARK minimizedRMSD -1
REMARK  1 active torsions:
REMARK  status: ('A' for Active; 'I' for Inactive)
REMARK    1  A    between atoms: C1_2  and  C2_3 
ROOT
ATOM      1  C2  UNL d   1      -0.221   0.182   0.505  0.00  0.00    -0.081 A 
ATOM      2  C3  UNL d   1       0.577  -0.949   0.717  0.00  0.00     0.006 A 
ATOM      3  C4  UNL d   1       1.732  -1.152  -0.042  0.00  0.00     0.002 A 
ATOM      4  C5  UNL d   1       2.113  -0.225  -1.018  0.00  0.00    -0.080 A 
ATOM      5  C6  UNL d   1       3.367  -0.416  -1.818  0.00  0.00     0.076 C 
ATOM      6  C7  UNL d   1       1.307   0.896  -1.241  0.00  0.00     0.002 A 
ATOM      7  C8  UNL d   1       0.151   1.100  -0.484  0.00  0.00     0.006 A 
ENDROOT
BRANCH   1   8
ATOM      8  C1  UNL d   1      -1.432   0.437   1.366  0.00  0.00     0.054 C 
ATOM      9  C   UNL d   1      -1.052   1.136   2.663  0.00  0.00     0.018 C 
ENDBRANCH   1   8
TORSDOF 1
ENDMDL
