MODEL 1
REMARK minimizedAffinity -3.40906072
REMARK minimizedRMSD -1
REMARK  1 active torsions:
REMARK  status: ('A' for Active; 'I' for Inactive)
REMARK    1  A    between atoms: C1_2  and  C2_3 
ROOT
ATOM      1  C2  UNL d   1      -0.753   0.209   1.058  0.00  0.00    -0.081 A 
ATOM      2  C3  UNL d   1       0.423  -0.084   1.760  0.00  0.00     0.006 A 
ATOM      3  C4  UNL d   1       1.600  -0.391   1.073  0.00  0.00     0.002 A 
ATOM      4  C5  UNL d   1       1.623  -0.401  -0.325  0.00  0.00    -0.080 A 
ATOM      5  C6  UNL d   1       2.888  -0.698  -1.075  0.00  0.00     0.076 C 
ATOM      6  C7  UNL d   1       0.445  -0.125  -1.027  0.00  0.00     0.002 A 
ATOM      7  C8  UNL d   1      -0.733   0.181  -0.340  0.00  0.00     0.006 A 
ENDROOT
BRANCH   1   8
ATOM      8  C1  UNL d   1      -2.007   0.603   1.795  0.00  0.00     0.054 C 
ATOM      9  C   UNL d   1      -1.693   1.502   2.982  0.00  0.00     0.018 C 
ENDBRANCH   1   8
TORSDOF 1
ENDMDL
