MODEL 1
REMARK minimizedAffinity 0.219253376
REMARK minimizedRMSD -1
REMARK  1 active torsions:
REMARK  status: ('A' for Active; 'I' for Inactive)
REMARK    1  A    between atoms: C1_2  and  C2_3 
ROOT
ATOM      1  C2  UNL d   1       1.265  -0.651  -1.172  0.00  0.00    -0.081 A 
ATOM      2  C3  UNL d   1       0.946   0.712  -1.213  0.00  0.00     0.006 A 
ATOM      3  C4  UNL d   1      -0.142   1.207  -0.489  0.00  0.00     0.002 A 
ATOM      4  C5  UNL d   1      -0.923   0.350   0.293  0.00  0.00    -0.080 A 
ATOM      5  C6  UNL d   1      -2.075   0.873   1.098  0.00  0.00     0.076 C 
ATOM      6  C7  UNL d   1      -0.614  -1.015   0.320  0.00  0.00     0.002 A 
ATOM      7  C8  UNL d   1       0.472  -1.510  -0.403  0.00  0.00     0.006 A 
ENDROOT
BRANCH   1   8
ATOM      8  C1  UNL d   1       2.476  -1.176  -1.899  0.00  0.00     0.054 C 
ATOM      9  C   UNL d   1       2.759  -0.370  -3.159  0.00  0.00     0.018 C 
ENDBRANCH   1   8
TORSDOF 1
ENDMDL
