MODEL 1
REMARK minimizedAffinity -4.88237286
REMARK minimizedRMSD -1
REMARK  1 active torsions:
REMARK  status: ('A' for Active; 'I' for Inactive)
REMARK    1  A    between atoms: C1_2  and  C2_3 
ROOT
ATOM      1  C2  UNL d   1      -0.795   0.119   0.499  0.00  0.00    -0.081 A 
ATOM      2  C3  UNL d   1      -0.344  -1.204   0.415  0.00  0.00     0.006 A 
ATOM      3  C4  UNL d   1       0.826  -1.510  -0.283  0.00  0.00     0.002 A 
ATOM      4  C5  UNL d   1       1.569  -0.499  -0.902  0.00  0.00    -0.080 A 
ATOM      5  C6  UNL d   1       2.844  -0.811  -1.629  0.00  0.00     0.076 C 
ATOM      6  C7  UNL d   1       1.109   0.821  -0.833  0.00  0.00     0.002 A 
ATOM      7  C8  UNL d   1      -0.061   1.128  -0.136  0.00  0.00     0.006 A 
ENDROOT
BRANCH   1   8
ATOM      8  C1  UNL d   1      -2.022   0.462   1.305  0.00  0.00     0.054 C 
ATOM      9  C   UNL d   1      -1.745   1.600   2.277  0.00  0.00     0.018 C 
ENDBRANCH   1   8
TORSDOF 1
ENDMDL
