MODEL 1
REMARK minimizedAffinity -5.29120111
REMARK minimizedRMSD -1
REMARK  1 active torsions:
REMARK  status: ('A' for Active; 'I' for Inactive)
REMARK    1  A    between atoms: C1_2  and  C2_3 
ROOT
ATOM      1  C2  UNL d   1      -0.035  -0.020   0.093  0.00  0.00    -0.081 A 
ATOM      2  C3  UNL d   1       0.425   1.138  -0.545  0.00  0.00     0.006 A 
ATOM      3  C4  UNL d   1       1.628   1.126  -1.255  0.00  0.00     0.002 A 
ATOM      4  C5  UNL d   1       2.385  -0.047  -1.347  0.00  0.00    -0.080 A 
ATOM      5  C6  UNL d   1       3.663  -0.082  -2.132  0.00  0.00     0.076 C 
ATOM      6  C7  UNL d   1       1.934  -1.200  -0.696  0.00  0.00     0.002 A 
ATOM      7  C8  UNL d   1       0.732  -1.187   0.016  0.00  0.00     0.006 A 
ENDROOT
BRANCH   1   8
ATOM      8  C1  UNL d   1      -1.363  -0.027   0.805  0.00  0.00     0.054 C 
ATOM      9  C   UNL d   1      -1.433   1.073   1.855  0.00  0.00     0.018 C 
ENDBRANCH   1   8
TORSDOF 1
ENDMDL
