MODEL 1
REMARK minimizedAffinity -3.47728634
REMARK minimizedRMSD -1
REMARK  1 active torsions:
REMARK  status: ('A' for Active; 'I' for Inactive)
REMARK    1  A    between atoms: C1_2  and  C2_3 
ROOT
ATOM      1  C2  UNL d   1      -0.510  -0.020   0.412  0.00  0.00    -0.081 A 
ATOM      2  C3  UNL d   1      -0.001  -1.309   0.214  0.00  0.00     0.006 A 
ATOM      3  C4  UNL d   1       1.228  -1.495  -0.423  0.00  0.00     0.002 A 
ATOM      4  C5  UNL d   1       1.972  -0.395  -0.865  0.00  0.00    -0.080 A 
ATOM      5  C6  UNL d   1       3.307  -0.579  -1.524  0.00  0.00     0.076 C 
ATOM      6  C7  UNL d   1       1.455   0.892  -0.683  0.00  0.00     0.002 A 
ATOM      7  C8  UNL d   1       0.226   1.078  -0.047  0.00  0.00     0.006 A 
ENDROOT
BRANCH   1   8
ATOM      8  C1  UNL d   1      -1.804   0.187   1.157  0.00  0.00     0.054 C 
ATOM      9  C   UNL d   1      -1.569   0.868   2.497  0.00  0.00     0.018 C 
ENDBRANCH   1   8
TORSDOF 1
ENDMDL
