MODEL 1
REMARK minimizedAffinity -4.72994471
REMARK minimizedRMSD -1
REMARK  1 active torsions:
REMARK  status: ('A' for Active; 'I' for Inactive)
REMARK    1  A    between atoms: C1_2  and  C2_3 
ROOT
ATOM      1  C2  UNL d   1       1.028   0.329  -1.698  0.00  0.00    -0.081 A 
ATOM      2  C3  UNL d   1       0.038   1.311  -1.579  0.00  0.00     0.006 A 
ATOM      3  C4  UNL d   1      -0.925   1.227  -0.570  0.00  0.00     0.002 A 
ATOM      4  C5  UNL d   1      -0.909   0.165   0.340  0.00  0.00    -0.080 A 
ATOM      5  C6  UNL d   1      -1.918   0.079   1.446  0.00  0.00     0.076 C 
ATOM      6  C7  UNL d   1       0.070  -0.826   0.210  0.00  0.00     0.002 A 
ATOM      7  C8  UNL d   1       1.033  -0.743  -0.798  0.00  0.00     0.006 A 
ENDROOT
BRANCH   1   8
ATOM      8  C1  UNL d   1       2.107   0.451  -2.744  0.00  0.00     0.054 C 
ATOM      9  C   UNL d   1       1.578   1.111  -4.010  0.00  0.00     0.018 C 
ENDBRANCH   1   8
TORSDOF 1
ENDMDL
