MODEL 1
REMARK minimizedAffinity -3.10949016
REMARK minimizedRMSD -1
REMARK  1 active torsions:
REMARK  status: ('A' for Active; 'I' for Inactive)
REMARK    1  A    between atoms: C1_2  and  C2_3 
ROOT
ATOM      1  C2  UNL d   1       0.433  -0.371   0.170  0.00  0.00    -0.081 A 
ATOM      2  C3  UNL d   1       1.154  -1.558  -0.016  0.00  0.00     0.006 A 
ATOM      3  C4  UNL d   1       2.288  -1.577  -0.831  0.00  0.00     0.002 A 
ATOM      4  C5  UNL d   1       2.726  -0.410  -1.466  0.00  0.00    -0.080 A 
ATOM      5  C6  UNL d   1       3.959  -0.410  -2.319  0.00  0.00     0.076 C 
ATOM      6  C7  UNL d   1       1.996   0.771  -1.294  0.00  0.00     0.002 A 
ATOM      7  C8  UNL d   1       0.862   0.791  -0.481  0.00  0.00     0.006 A 
ENDROOT
BRANCH   1   8
ATOM      8  C1  UNL d   1      -0.753  -0.332   1.099  0.00  0.00     0.054 C 
ATOM      9  C   UNL d   1      -0.577   0.729   2.176  0.00  0.00     0.018 C 
ENDBRANCH   1   8
TORSDOF 1
ENDMDL
