MODEL 1
REMARK minimizedAffinity -3.31431246
REMARK minimizedRMSD -1
REMARK  0 active torsions:
REMARK  status: ('A' for Active; 'I' for Inactive)
ROOT
ATOM      1  C2' OXE d   1      -0.467  -1.513  -0.077  0.00  0.00     0.078 C 
ATOM      2  C1' OXE d   1       2.200  -0.807   0.442  0.00  0.00     0.078 C 
ATOM      3  C1  OXE d   1       1.172   0.297   0.416  0.00  0.00    -0.078 A 
ATOM      4  C2  OXE d   1      -0.122  -0.052   0.115  0.00  0.00    -0.078 A 
ATOM      5  C3  OXE d   1      -1.119   0.919   0.131  0.00  0.00     0.003 A 
ATOM      6  C4  OXE d   1      -0.791   2.270   0.300  0.00  0.00    -0.002 A 
ATOM      7  C5  OXE d   1       0.528   2.651   0.568  0.00  0.00    -0.002 A 
ATOM      8  C6  OXE d   1       1.513   1.675   0.672  0.00  0.00     0.003 A 
ENDROOT
TORSDOF 0
ENDMDL
