MODEL 1
REMARK minimizedAffinity -5.72010279
REMARK minimizedRMSD -1
REMARK  0 active torsions:
REMARK  status: ('A' for Active; 'I' for Inactive)
ROOT
ATOM      1  C2' OXE d   1      -1.763   0.745   0.172  0.00  0.00     0.078 C 
ATOM      2  C1' OXE d   1      -0.020   2.941   0.037  0.00  0.00     0.078 C 
ATOM      3  C1  OXE d   1       0.589   1.567   0.170  0.00  0.00    -0.078 A 
ATOM      4  C2  OXE d   1      -0.273   0.502   0.282  0.00  0.00    -0.078 A 
ATOM      5  C3  OXE d   1       0.235  -0.792   0.352  0.00  0.00     0.003 A 
ATOM      6  C4  OXE d   1       1.614  -1.006   0.464  0.00  0.00    -0.002 A 
ATOM      7  C5  OXE d   1       2.508   0.068   0.392  0.00  0.00    -0.002 A 
ATOM      8  C6  OXE d   1       2.014   1.354   0.202  0.00  0.00     0.003 A 
ENDROOT
TORSDOF 0
ENDMDL
