MODEL 1
REMARK minimizedAffinity -6.02638292
REMARK minimizedRMSD -1
REMARK  0 active torsions:
REMARK  status: ('A' for Active; 'I' for Inactive)
ROOT
ATOM      1  C2' OXE d   1       0.076  -1.256  -0.291  0.00  0.00     0.078 C 
ATOM      2  C1' OXE d   1      -1.935   0.055   1.165  0.00  0.00     0.078 C 
ATOM      3  C1  OXE d   1      -0.803   0.890   0.620  0.00  0.00    -0.078 A 
ATOM      4  C2  OXE d   1       0.200   0.234  -0.051  0.00  0.00    -0.078 A 
ATOM      5  C3  OXE d   1       1.240   0.963  -0.620  0.00  0.00     0.003 A 
ATOM      6  C4  OXE d   1       1.353   2.338  -0.385  0.00  0.00    -0.002 A 
ATOM      7  C5  OXE d   1       0.363   3.020   0.330  0.00  0.00    -0.002 A 
ATOM      8  C6  OXE d   1      -0.742   2.319   0.802  0.00  0.00     0.003 A 
ENDROOT
TORSDOF 0
ENDMDL
