MODEL 1
REMARK minimizedAffinity -4.95333624
REMARK minimizedRMSD -1
REMARK  0 active torsions:
REMARK  status: ('A' for Active; 'I' for Inactive)
ROOT
ATOM      1  C2' OXE d   1      -2.218   0.211   0.975  0.00  0.00     0.078 C 
ATOM      2  C1' OXE d   1      -0.027  -1.146  -0.137  0.00  0.00     0.078 C 
ATOM      3  C1  OXE d   1       0.044   0.359  -0.058  0.00  0.00    -0.078 A 
ATOM      4  C2  OXE d   1      -1.053   1.017   0.444  0.00  0.00    -0.078 A 
ATOM      5  C3  OXE d   1      -1.018   2.401   0.589  0.00  0.00     0.003 A 
ATOM      6  C4  OXE d   1       0.059   3.140   0.087  0.00  0.00    -0.002 A 
ATOM      7  C5  OXE d   1       1.169   2.492  -0.465  0.00  0.00    -0.002 A 
ATOM      8  C6  OXE d   1       1.195   1.102  -0.506  0.00  0.00     0.003 A 
ENDROOT
TORSDOF 0
ENDMDL
