MODEL 1
REMARK minimizedAffinity -4.9021287
REMARK minimizedRMSD -1
REMARK  0 active torsions:
REMARK  status: ('A' for Active; 'I' for Inactive)
ROOT
ATOM      1  C2' OXE d   1       2.824   1.419   0.259  0.00  0.00     0.078 C 
ATOM      2  C1' OXE d   1       0.491   2.978   0.178  0.00  0.00     0.078 C 
ATOM      3  C1  OXE d   1       0.333   1.479   0.237  0.00  0.00    -0.078 A 
ATOM      4  C2  OXE d   1       1.480   0.723   0.229  0.00  0.00    -0.078 A 
ATOM      5  C3  OXE d   1       1.393  -0.662   0.337  0.00  0.00     0.003 A 
ATOM      6  C4  OXE d   1       0.147  -1.300   0.299  0.00  0.00    -0.002 A 
ATOM      7  C5  OXE d   1      -1.033  -0.549   0.267  0.00  0.00    -0.002 A 
ATOM      8  C6  OXE d   1      -0.958   0.839   0.278  0.00  0.00     0.003 A 
ENDROOT
TORSDOF 0
ENDMDL
