MODEL 1
REMARK minimizedAffinity -5.76624632
REMARK minimizedRMSD -1
REMARK  0 active torsions:
REMARK  status: ('A' for Active; 'I' for Inactive)
ROOT
ATOM      1  C2' OXE d   1       0.042  -0.932   0.001  0.00  0.00     0.078 C 
ATOM      2  C1' OXE d   1       2.710  -0.280   0.581  0.00  0.00     0.078 C 
ATOM      3  C1  OXE d   1       1.692   0.832   0.611  0.00  0.00    -0.078 A 
ATOM      4  C2  OXE d   1       0.397   0.512   0.280  0.00  0.00    -0.078 A 
ATOM      5  C3  OXE d   1      -0.592   1.490   0.345  0.00  0.00     0.003 A 
ATOM      6  C4  OXE d   1      -0.254   2.825   0.595  0.00  0.00    -0.002 A 
ATOM      7  C5  OXE d   1       1.066   3.179   0.895  0.00  0.00    -0.002 A 
ATOM      8  C6  OXE d   1       2.041   2.189   0.949  0.00  0.00     0.003 A 
ENDROOT
TORSDOF 0
ENDMDL
