MODEL 1
REMARK minimizedAffinity -3.90516353
REMARK minimizedRMSD -1
REMARK  0 active torsions:
REMARK  status: ('A' for Active; 'I' for Inactive)
ROOT
ATOM      1  C2' OXE d   1       1.514  -1.524   1.363  0.00  0.00     0.078 C 
ATOM      2  C1' OXE d   1      -0.519  -1.749  -0.560  0.00  0.00     0.078 C 
ATOM      3  C1  OXE d   1       0.288  -0.475  -0.534  0.00  0.00    -0.078 A 
ATOM      4  C2  OXE d   1       1.249  -0.354   0.440  0.00  0.00    -0.078 A 
ATOM      5  C3  OXE d   1       2.059   0.778   0.473  0.00  0.00     0.003 A 
ATOM      6  C4  OXE d   1       1.800   1.859  -0.377  0.00  0.00    -0.002 A 
ATOM      7  C5  OXE d   1       0.799   1.774  -1.351  0.00  0.00    -0.002 A 
ATOM      8  C6  OXE d   1       0.064   0.600  -1.470  0.00  0.00     0.003 A 
ENDROOT
TORSDOF 0
ENDMDL
