MODEL 1
REMARK minimizedAffinity -3.76299405
REMARK minimizedRMSD -1
REMARK  0 active torsions:
REMARK  status: ('A' for Active; 'I' for Inactive)
ROOT
ATOM      1  C2' OXE d   1      -2.425   0.765   0.378  0.00  0.00     0.078 C 
ATOM      2  C1' OXE d   1      -0.327  -1.069   0.042  0.00  0.00     0.078 C 
ATOM      3  C1  OXE d   1      -0.003   0.400  -0.076  0.00  0.00    -0.078 A 
ATOM      4  C2  OXE d   1      -1.045   1.288   0.043  0.00  0.00    -0.078 A 
ATOM      5  C3  OXE d   1      -0.793   2.656  -0.003  0.00  0.00     0.003 A 
ATOM      6  C4  OXE d   1       0.484   3.131  -0.324  0.00  0.00    -0.002 A 
ATOM      7  C5  OXE d   1       1.552   2.242  -0.489  0.00  0.00    -0.002 A 
ATOM      8  C6  OXE d   1       1.334   0.878  -0.326  0.00  0.00     0.003 A 
ENDROOT
TORSDOF 0
ENDMDL
