MODEL 1
REMARK minimizedAffinity -5.0257268
REMARK minimizedRMSD -1
REMARK  0 active torsions:
REMARK  status: ('A' for Active; 'I' for Inactive)
ROOT
ATOM      1  C2' OXE d   1      -1.863   1.345   0.266  0.00  0.00     0.078 C 
ATOM      2  C1' OXE d   1       0.235   3.092  -0.391  0.00  0.00     0.078 C 
ATOM      3  C1  OXE d   1       0.587   1.665  -0.053  0.00  0.00    -0.078 A 
ATOM      4  C2  OXE d   1      -0.441   0.829   0.313  0.00  0.00    -0.078 A 
ATOM      5  C3  OXE d   1      -0.178  -0.511   0.582  0.00  0.00     0.003 A 
ATOM      6  C4  OXE d   1       1.141  -0.978   0.633  0.00  0.00    -0.002 A 
ATOM      7  C5  OXE d   1       2.207  -0.133   0.303  0.00  0.00    -0.002 A 
ATOM      8  C6  OXE d   1       1.944   1.176  -0.083  0.00  0.00     0.003 A 
ENDROOT
TORSDOF 0
ENDMDL
