MODEL 1
REMARK minimizedAffinity -3.85374427
REMARK minimizedRMSD -1
REMARK  0 active torsions:
REMARK  status: ('A' for Active; 'I' for Inactive)
ROOT
ATOM      1  C2' OXE d   1       2.353   0.644  -0.513  0.00  0.00     0.078 C 
ATOM      2  C1' OXE d   1       0.217  -1.141  -0.154  0.00  0.00     0.078 C 
ATOM      3  C1  OXE d   1      -0.079   0.336  -0.070  0.00  0.00    -0.078 A 
ATOM      4  C2  OXE d   1       0.981   1.201  -0.201  0.00  0.00    -0.078 A 
ATOM      5  C3  OXE d   1       0.755   2.574  -0.186  0.00  0.00     0.003 A 
ATOM      6  C4  OXE d   1      -0.515   3.081   0.114  0.00  0.00    -0.002 A 
ATOM      7  C5  OXE d   1      -1.601   2.216   0.290  0.00  0.00    -0.002 A 
ATOM      8  C6  OXE d   1      -1.408   0.845   0.160  0.00  0.00     0.003 A 
ENDROOT
TORSDOF 0
ENDMDL
