MODEL 1
REMARK minimizedAffinity -2.51421881
REMARK minimizedRMSD -1
REMARK  0 active torsions:
REMARK  status: ('A' for Active; 'I' for Inactive)
ROOT
ATOM      1  C2' OXE d   1      -1.812  -0.312   1.454  0.00  0.00     0.078 C 
ATOM      2  C1' OXE d   1       0.194  -1.464  -0.136  0.00  0.00     0.078 C 
ATOM      3  C1  OXE d   1       0.067   0.039  -0.143  0.00  0.00    -0.078 A 
ATOM      4  C2  OXE d   1      -0.947   0.591   0.602  0.00  0.00    -0.078 A 
ATOM      5  C3  OXE d   1      -1.074   1.976   0.675  0.00  0.00     0.003 A 
ATOM      6  C4  OXE d   1      -0.277   2.804  -0.124  0.00  0.00    -0.002 A 
ATOM      7  C5  OXE d   1       0.736   2.259  -0.921  0.00  0.00    -0.002 A 
ATOM      8  C6  OXE d   1       0.949   0.885  -0.909  0.00  0.00     0.003 A 
ENDROOT
TORSDOF 0
ENDMDL
