MODEL 1
REMARK minimizedAffinity -5.05992699
REMARK minimizedRMSD -1
REMARK  0 active torsions:
REMARK  status: ('A' for Active; 'I' for Inactive)
ROOT
ATOM      1  C2' OXE d   1       0.232  -1.428   0.392  0.00  0.00     0.078 C 
ATOM      2  C1' OXE d   1       2.399   0.354   0.285  0.00  0.00     0.078 C 
ATOM      3  C1  OXE d   1       1.012   0.921   0.110  0.00  0.00    -0.078 A 
ATOM      4  C2  OXE d   1      -0.039   0.036   0.117  0.00  0.00    -0.078 A 
ATOM      5  C3  OXE d   1      -1.342   0.512   0.014  0.00  0.00     0.003 A 
ATOM      6  C4  OXE d   1      -1.584   1.866  -0.250  0.00  0.00    -0.002 A 
ATOM      7  C5  OXE d   1      -0.525   2.779  -0.301  0.00  0.00    -0.002 A 
ATOM      8  C6  OXE d   1       0.773   2.330  -0.081  0.00  0.00     0.003 A 
ENDROOT
TORSDOF 0
ENDMDL
