MODEL 1
REMARK minimizedAffinity -4.87756586
REMARK minimizedRMSD -1
REMARK  0 active torsions:
REMARK  status: ('A' for Active; 'I' for Inactive)
ROOT
ATOM      1  C2' OXE d   1       0.604   3.582  -0.093  0.00  0.00     0.078 C 
ATOM      2  C1' OXE d   1       2.488   1.510  -0.280  0.00  0.00     0.078 C 
ATOM      3  C1  OXE d   1       1.043   1.130  -0.074  0.00  0.00    -0.078 A 
ATOM      4  C2  OXE d   1       0.134   2.152   0.063  0.00  0.00    -0.078 A 
ATOM      5  C3  OXE d   1      -1.219   1.857   0.201  0.00  0.00     0.003 A 
ATOM      6  C4  OXE d   1      -1.644   0.532   0.354  0.00  0.00    -0.002 A 
ATOM      7  C5  OXE d   1      -0.730  -0.522   0.258  0.00  0.00    -0.002 A 
ATOM      8  C6  OXE d   1       0.608  -0.243   0.002  0.00  0.00     0.003 A 
ENDROOT
TORSDOF 0
ENDMDL
