MODEL 1
REMARK minimizedAffinity -3.45110464
REMARK minimizedRMSD -1
REMARK  0 active torsions:
REMARK  status: ('A' for Active; 'I' for Inactive)
ROOT
ATOM      1  C2' OXE d   1       0.377  -1.570  -0.118  0.00  0.00     0.078 C 
ATOM      2  C1' OXE d   1       2.539   0.220  -0.194  0.00  0.00     0.078 C 
ATOM      3  C1  OXE d   1       1.149   0.799  -0.099  0.00  0.00    -0.078 A 
ATOM      4  C2  OXE d   1       0.095  -0.083  -0.109  0.00  0.00    -0.078 A 
ATOM      5  C3  OXE d   1      -1.205   0.395   0.031  0.00  0.00     0.003 A 
ATOM      6  C4  OXE d   1      -1.458   1.773   0.029  0.00  0.00    -0.002 A 
ATOM      7  C5  OXE d   1      -0.401   2.688   0.000  0.00  0.00    -0.002 A 
ATOM      8  C6  OXE d   1       0.908   2.218  -0.020  0.00  0.00     0.003 A 
ENDROOT
TORSDOF 0
ENDMDL
