MODEL 1
REMARK minimizedAffinity -4.05192137
REMARK minimizedRMSD -1
REMARK  0 active torsions:
REMARK  status: ('A' for Active; 'I' for Inactive)
ROOT
ATOM      1  C2' OXE d   1      -2.134   0.133   0.910  0.00  0.00     0.078 C 
ATOM      2  C1' OXE d   1       0.172  -1.338   0.277  0.00  0.00     0.078 C 
ATOM      3  C1  OXE d   1       0.263   0.167   0.232  0.00  0.00    -0.078 A 
ATOM      4  C2  OXE d   1      -0.883   0.878   0.498  0.00  0.00    -0.078 A 
ATOM      5  C3  OXE d   1      -0.841   2.269   0.524  0.00  0.00     0.003 A 
ATOM      6  C4  OXE d   1       0.318   2.950   0.132  0.00  0.00    -0.002 A 
ATOM      7  C5  OXE d   1       1.485   2.245  -0.181  0.00  0.00    -0.002 A 
ATOM      8  C6  OXE d   1       1.486   0.857  -0.095  0.00  0.00     0.003 A 
ENDROOT
TORSDOF 0
ENDMDL
