MODEL 1
REMARK minimizedAffinity -3.06035233
REMARK minimizedRMSD -1
REMARK  0 active torsions:
REMARK  status: ('A' for Active; 'I' for Inactive)
ROOT
ATOM      1  C2' OXE d   1      -2.182   0.269   1.176  0.00  0.00     0.078 C 
ATOM      2  C1' OXE d   1      -0.113  -1.107  -0.129  0.00  0.00     0.078 C 
ATOM      3  C1  OXE d   1      -0.038   0.399  -0.084  0.00  0.00    -0.078 A 
ATOM      4  C2  OXE d   1      -1.078   1.066   0.516  0.00  0.00    -0.078 A 
ATOM      5  C3  OXE d   1      -1.032   2.453   0.633  0.00  0.00     0.003 A 
ATOM      6  C4  OXE d   1      -0.013   3.183   0.010  0.00  0.00    -0.002 A 
ATOM      7  C5  OXE d   1       1.036   2.525  -0.640  0.00  0.00    -0.002 A 
ATOM      8  C6  OXE d   1       1.061   1.135  -0.660  0.00  0.00     0.003 A 
ENDROOT
TORSDOF 0
ENDMDL
