MODEL 1
REMARK minimizedAffinity -3.86103654
REMARK minimizedRMSD -1
REMARK  0 active torsions:
REMARK  status: ('A' for Active; 'I' for Inactive)
ROOT
ATOM      1  C2' OXE d   1       0.372  -1.501   0.089  0.00  0.00     0.078 C 
ATOM      2  C1' OXE d   1       2.600   0.202  -0.045  0.00  0.00     0.078 C 
ATOM      3  C1  OXE d   1       1.231   0.834  -0.029  0.00  0.00    -0.078 A 
ATOM      4  C2  OXE d   1       0.145  -0.008  -0.010  0.00  0.00    -0.078 A 
ATOM      5  C3  OXE d   1      -1.139   0.524   0.061  0.00  0.00     0.003 A 
ATOM      6  C4  OXE d   1      -1.341   1.906  -0.042  0.00  0.00    -0.002 A 
ATOM      7  C5  OXE d   1      -0.250   2.780  -0.102  0.00  0.00    -0.002 A 
ATOM      8  C6  OXE d   1       1.040   2.264  -0.053  0.00  0.00     0.003 A 
ENDROOT
TORSDOF 0
ENDMDL
