MODEL 1
REMARK minimizedAffinity -3.13376856
REMARK minimizedRMSD -1
REMARK  0 active torsions:
REMARK  status: ('A' for Active; 'I' for Inactive)
ROOT
ATOM      1  C2' OXE d   1      -2.306   0.251   0.666  0.00  0.00     0.078 C 
ATOM      2  C1' OXE d   1       0.007  -1.034  -0.270  0.00  0.00     0.078 C 
ATOM      3  C1  OXE d   1       0.057   0.463  -0.093  0.00  0.00    -0.078 A 
ATOM      4  C2  OXE d   1      -1.094   1.089   0.321  0.00  0.00    -0.078 A 
ATOM      5  C3  OXE d   1      -1.086   2.462   0.553  0.00  0.00     0.003 A 
ATOM      6  C4  OXE d   1       0.036   3.231   0.221  0.00  0.00    -0.002 A 
ATOM      7  C5  OXE d   1       1.206   2.617  -0.240  0.00  0.00    -0.002 A 
ATOM      8  C6  OXE d   1       1.247   1.233  -0.362  0.00  0.00     0.003 A 
ENDROOT
TORSDOF 0
ENDMDL
