MODEL 1
REMARK minimizedAffinity -3.55689764
REMARK minimizedRMSD -1
REMARK  0 active torsions:
REMARK  status: ('A' for Active; 'I' for Inactive)
ROOT
ATOM      1  C2' OXE d   1      -0.369  -0.574  -1.091  0.00  0.00     0.078 C 
ATOM      2  C1' OXE d   1      -1.151  -0.060   1.556  0.00  0.00     0.078 C 
ATOM      3  C1  OXE d   1      -0.549   1.075   0.767  0.00  0.00    -0.078 A 
ATOM      4  C2  OXE d   1      -0.126   0.803  -0.512  0.00  0.00    -0.078 A 
ATOM      5  C3  OXE d   1       0.386   1.828  -1.302  0.00  0.00     0.003 A 
ATOM      6  C4  OXE d   1       0.617   3.096  -0.755  0.00  0.00    -0.002 A 
ATOM      7  C5  OXE d   1       0.230   3.385   0.558  0.00  0.00    -0.002 A 
ATOM      8  C6  OXE d   1      -0.392   2.399   1.317  0.00  0.00     0.003 A 
ENDROOT
TORSDOF 0
ENDMDL
