MODEL 1
REMARK minimizedAffinity 1.51086915
REMARK minimizedRMSD -1
REMARK  1 active torsions:
REMARK  status: ('A' for Active; 'I' for Inactive)
REMARK    1  A    between atoms: N_2  and  C1_3 
ROOT
ATOM      1  C1  UNL d   1      -0.307  -5.520  -5.110  0.00  0.00     0.143 A 
ATOM      2  C2  UNL d   1       0.706  -5.149  -6.000  0.00  0.00    -0.057 A 
ATOM      3  C3  UNL d   1       1.901  -4.580  -5.543  0.00  0.00     0.033 A 
ATOM      4  C4  UNL d   1       2.092  -4.344  -4.186  0.00  0.00    -0.042 A 
ATOM      5  C5  UNL d   1       1.088  -4.682  -3.285  0.00  0.00     0.033 A 
ATOM      6  C6  UNL d   1      -0.100  -5.256  -3.747  0.00  0.00    -0.057 A 
ENDROOT
BRANCH   1   7
ATOM      7  N   UNL d   1      -1.557  -6.000  -5.510  0.00  0.00    -0.732 N 
ATOM      8  C   UNL d   1      -2.676  -5.998  -4.592  0.00  0.00     0.284 C 
ATOM      9  H3  UNL d   1      -1.796  -5.717  -6.457  0.00  0.00     0.395 HD
ENDBRANCH   1   7
TORSDOF 1
ENDMDL
