MODEL 1
REMARK minimizedAffinity -2.02838302
REMARK minimizedRMSD -1
REMARK  1 active torsions:
REMARK  status: ('A' for Active; 'I' for Inactive)
REMARK    1  A    between atoms: N_2  and  C1_3 
ROOT
ATOM      1  C1  UNL d   1       2.533  -0.677   1.690  0.00  0.00     0.143 A 
ATOM      2  C2  UNL d   1       1.345  -0.686   2.429  0.00  0.00    -0.057 A 
ATOM      3  C3  UNL d   1       1.358  -0.791   3.825  0.00  0.00     0.033 A 
ATOM      4  C4  UNL d   1       2.564  -0.919   4.507  0.00  0.00    -0.042 A 
ATOM      5  C5  UNL d   1       3.756  -0.938   3.792  0.00  0.00     0.033 A 
ATOM      6  C6  UNL d   1       3.736  -0.825   2.398  0.00  0.00    -0.057 A 
ENDROOT
BRANCH   1   7
ATOM      7  N   UNL d   1       2.581  -0.674   0.294  0.00  0.00    -0.732 N 
ATOM      8  C   UNL d   1       1.685   0.166  -0.473  0.00  0.00     0.284 C 
ATOM      9  H3  UNL d   1       3.534  -0.699  -0.062  0.00  0.00     0.395 HD
ENDBRANCH   1   7
TORSDOF 1
ENDMDL
