MODEL 1
REMARK minimizedAffinity -3.57524467
REMARK minimizedRMSD -1
REMARK  1 active torsions:
REMARK  status: ('A' for Active; 'I' for Inactive)
REMARK    1  A    between atoms: N_2  and  C1_3 
ROOT
ATOM      1  C1  UNL d   1       1.688  -1.388   2.048  0.00  0.00     0.143 A 
ATOM      2  C2  UNL d   1       0.689  -0.515   1.605  0.00  0.00    -0.057 A 
ATOM      3  C3  UNL d   1       0.832   0.209   0.414  0.00  0.00     0.033 A 
ATOM      4  C4  UNL d   1       1.994   0.093  -0.341  0.00  0.00    -0.042 A 
ATOM      5  C5  UNL d   1       3.011  -0.750   0.093  0.00  0.00     0.033 A 
ATOM      6  C6  UNL d   1       2.859  -1.475   1.279  0.00  0.00    -0.057 A 
ENDROOT
BRANCH   1   7
ATOM      7  N   UNL d   1       1.647  -2.060   3.272  0.00  0.00    -0.732 N 
ATOM      8  C   UNL d   1       1.352  -1.345   4.495  0.00  0.00     0.284 C 
ATOM      9  H3  UNL d   1       1.194  -2.968   3.202  0.00  0.00     0.395 HD
ENDBRANCH   1   7
TORSDOF 1
ENDMDL
