MODEL 1
REMARK minimizedAffinity 2.3717382
REMARK minimizedRMSD -1
REMARK  1 active torsions:
REMARK  status: ('A' for Active; 'I' for Inactive)
REMARK    1  A    between atoms: N_2  and  C1_3 
ROOT
ATOM      1  C1  UNL d   1      -4.408   0.184  -1.755  0.00  0.00     0.143 A 
ATOM      2  C2  UNL d   1      -3.377  -0.117  -0.859  0.00  0.00    -0.057 A 
ATOM      3  C3  UNL d   1      -3.600  -0.138   0.524  0.00  0.00     0.033 A 
ATOM      4  C4  UNL d   1      -4.855   0.172   1.037  0.00  0.00    -0.042 A 
ATOM      5  C5  UNL d   1      -5.888   0.500   0.166  0.00  0.00     0.033 A 
ATOM      6  C6  UNL d   1      -5.661   0.512  -1.213  0.00  0.00    -0.057 A 
ENDROOT
BRANCH   1   7
ATOM      7  N   UNL d   1      -4.227   0.317  -3.134  0.00  0.00    -0.732 N 
ATOM      8  C   UNL d   1      -3.895   1.602  -3.713  0.00  0.00     0.284 C 
ATOM      9  H3  UNL d   1      -3.714  -0.464  -3.535  0.00  0.00     0.395 HD
ENDBRANCH   1   7
TORSDOF 1
ENDMDL
