MODEL 1
REMARK minimizedAffinity -3.16513395
REMARK minimizedRMSD -1
REMARK  1 active torsions:
REMARK  status: ('A' for Active; 'I' for Inactive)
REMARK    1  A    between atoms: N_2  and  C1_3 
ROOT
ATOM      1  C1  UNL d   1      -1.364  -5.668  -4.444  0.00  0.00     0.143 A 
ATOM      2  C2  UNL d   1      -0.569  -5.636  -3.293  0.00  0.00    -0.057 A 
ATOM      3  C3  UNL d   1      -1.127  -5.810  -2.021  0.00  0.00     0.033 A 
ATOM      4  C4  UNL d   1      -2.498  -5.990  -1.874  0.00  0.00    -0.042 A 
ATOM      5  C5  UNL d   1      -3.311  -6.000  -3.002  0.00  0.00     0.033 A 
ATOM      6  C6  UNL d   1      -2.748  -5.832  -4.271  0.00  0.00    -0.057 A 
ENDROOT
BRANCH   1   7
ATOM      7  N   UNL d   1      -0.884  -5.403  -5.729  0.00  0.00    -0.732 N 
ATOM      8  C   UNL d   1       0.534  -5.240  -5.966  0.00  0.00     0.284 C 
ATOM      9  H3  UNL d   1      -1.365  -5.945  -6.443  0.00  0.00     0.395 HD
ENDBRANCH   1   7
TORSDOF 1
ENDMDL
