MODEL 1
REMARK minimizedAffinity -1.55255091
REMARK minimizedRMSD -1
REMARK  1 active torsions:
REMARK  status: ('A' for Active; 'I' for Inactive)
REMARK    1  A    between atoms: N_2  and  C1_3 
ROOT
ATOM      1  C1  UNL d   1      -1.132  -5.483  -5.164  0.00  0.00     0.143 A 
ATOM      2  C2  UNL d   1      -1.126  -5.245  -3.785  0.00  0.00    -0.057 A 
ATOM      3  C3  UNL d   1      -2.285  -5.407  -3.016  0.00  0.00     0.033 A 
ATOM      4  C4  UNL d   1      -3.481  -5.783  -3.619  0.00  0.00    -0.042 A 
ATOM      5  C5  UNL d   1      -3.516  -6.000  -4.992  0.00  0.00     0.033 A 
ATOM      6  C6  UNL d   1      -2.354  -5.843  -5.754  0.00  0.00    -0.057 A 
ENDROOT
BRANCH   1   7
ATOM      7  N   UNL d   1      -0.037  -5.244  -5.999  0.00  0.00    -0.732 N 
ATOM      8  C   UNL d   1       1.187  -6.000  -5.843  0.00  0.00     0.284 C 
ATOM      9  H3  UNL d   1      -0.313  -5.093  -6.967  0.00  0.00     0.395 HD
ENDBRANCH   1   7
TORSDOF 1
ENDMDL
