MODEL 1
REMARK minimizedAffinity -0.465179205
REMARK minimizedRMSD -1
REMARK  1 active torsions:
REMARK  status: ('A' for Active; 'I' for Inactive)
REMARK    1  A    between atoms: N_2  and  C1_3 
ROOT
ATOM      1  C1  UNL d   1      -4.740  -5.676   1.733  0.00  0.00     0.143 A 
ATOM      2  C2  UNL d   1      -4.503  -6.000   0.393  0.00  0.00    -0.057 A 
ATOM      3  C3  UNL d   1      -3.320  -5.614  -0.249  0.00  0.00     0.033 A 
ATOM      4  C4  UNL d   1      -2.362  -4.871   0.433  0.00  0.00    -0.042 A 
ATOM      5  C5  UNL d   1      -2.587  -4.517   1.758  0.00  0.00     0.033 A 
ATOM      6  C6  UNL d   1      -3.768  -4.910   2.396  0.00  0.00    -0.057 A 
ENDROOT
BRANCH   1   7
ATOM      7  N   UNL d   1      -5.938  -5.946   2.398  0.00  0.00    -0.732 N 
ATOM      8  C   UNL d   1      -5.997  -5.938   3.844  0.00  0.00     0.284 C 
ATOM      9  H3  UNL d   1      -6.739  -5.509   1.947  0.00  0.00     0.395 HD
ENDBRANCH   1   7
TORSDOF 1
ENDMDL
