MODEL 1
REMARK minimizedAffinity -3.78890038
REMARK minimizedRMSD -1
REMARK  1 active torsions:
REMARK  status: ('A' for Active; 'I' for Inactive)
REMARK    1  A    between atoms: N_2  and  C1_3 
ROOT
ATOM      1  C1  UNL d   1      -4.569  -5.920   0.770  0.00  0.00     0.143 A 
ATOM      2  C2  UNL d   1      -3.389  -5.947   0.019  0.00  0.00    -0.057 A 
ATOM      3  C3  UNL d   1      -3.421  -5.972  -1.381  0.00  0.00     0.033 A 
ATOM      4  C4  UNL d   1      -4.637  -6.000  -2.055  0.00  0.00    -0.042 A 
ATOM      5  C5  UNL d   1      -5.822  -5.999  -1.328  0.00  0.00     0.033 A 
ATOM      6  C6  UNL d   1      -5.784  -5.967   0.070  0.00  0.00    -0.057 A 
ENDROOT
BRANCH   1   7
ATOM      7  N   UNL d   1      -4.604  -5.994   2.165  0.00  0.00    -0.732 N 
ATOM      8  C   UNL d   1      -3.386  -5.899   2.940  0.00  0.00     0.284 C 
ATOM      9  H3  UNL d   1      -5.390  -5.483   2.561  0.00  0.00     0.395 HD
ENDBRANCH   1   7
TORSDOF 1
ENDMDL
