MODEL 1
REMARK minimizedAffinity 1.89815736
REMARK minimizedRMSD -1
REMARK  1 active torsions:
REMARK  status: ('A' for Active; 'I' for Inactive)
REMARK    1  A    between atoms: N_2  and  C1_3 
ROOT
ATOM      1  C1  UNL d   1      -1.470  -5.484  -3.619  0.00  0.00     0.143 A 
ATOM      2  C2  UNL d   1      -0.157  -5.002  -3.638  0.00  0.00    -0.057 A 
ATOM      3  C3  UNL d   1       0.595  -4.991  -4.819  0.00  0.00     0.033 A 
ATOM      4  C4  UNL d   1       0.055  -5.491  -6.000  0.00  0.00    -0.042 A 
ATOM      5  C5  UNL d   1      -1.240  -5.998  -5.999  0.00  0.00     0.033 A 
ATOM      6  C6  UNL d   1      -1.988  -6.000  -4.818  0.00  0.00    -0.057 A 
ENDROOT
BRANCH   1   7
ATOM      7  N   UNL d   1      -2.234  -5.613  -2.457  0.00  0.00    -0.732 N 
ATOM      8  C   UNL d   1      -1.813  -4.982  -1.224  0.00  0.00     0.284 C 
ATOM      9  H3  UNL d   1      -3.233  -5.545  -2.639  0.00  0.00     0.395 HD
ENDBRANCH   1   7
TORSDOF 1
ENDMDL
