MODEL 1
REMARK minimizedAffinity 1.91133654
REMARK minimizedRMSD -1
REMARK  1 active torsions:
REMARK  status: ('A' for Active; 'I' for Inactive)
REMARK    1  A    between atoms: N_2  and  C1_3 
ROOT
ATOM      1  C1  UNL d   1      -2.408   2.547  -3.424  0.00  0.00     0.143 A 
ATOM      2  C2  UNL d   1      -1.199   2.060  -2.916  0.00  0.00    -0.057 A 
ATOM      3  C3  UNL d   1       0.018   2.685  -3.213  0.00  0.00     0.033 A 
ATOM      4  C4  UNL d   1       0.050   3.795  -4.052  0.00  0.00    -0.042 A 
ATOM      5  C5  UNL d   1      -1.136   4.281  -4.589  0.00  0.00     0.033 A 
ATOM      6  C6  UNL d   1      -2.349   3.656  -4.283  0.00  0.00    -0.057 A 
ENDROOT
BRANCH   1   7
ATOM      7  N   UNL d   1      -3.639   1.912  -3.245  0.00  0.00    -0.732 N 
ATOM      8  C   UNL d   1      -3.874   1.072  -2.090  0.00  0.00     0.284 C 
ATOM      9  H3  UNL d   1      -4.425   2.510  -3.490  0.00  0.00     0.395 HD
ENDBRANCH   1   7
TORSDOF 1
ENDMDL
