MODEL 1
REMARK minimizedAffinity -0.838695586
REMARK minimizedRMSD -1
REMARK  1 active torsions:
REMARK  status: ('A' for Active; 'I' for Inactive)
REMARK    1  A    between atoms: N_2  and  C1_3 
ROOT
ATOM      1  C1  UNL d   1       0.744  -0.270   0.870  0.00  0.00     0.143 A 
ATOM      2  C2  UNL d   1       1.188  -0.873   2.051  0.00  0.00    -0.057 A 
ATOM      3  C3  UNL d   1       2.488  -1.380   2.164  0.00  0.00     0.033 A 
ATOM      4  C4  UNL d   1       3.360  -1.320   1.082  0.00  0.00    -0.042 A 
ATOM      5  C5  UNL d   1       2.932  -0.747  -0.111  0.00  0.00     0.033 A 
ATOM      6  C6  UNL d   1       1.635  -0.237  -0.214  0.00  0.00    -0.057 A 
ENDROOT
BRANCH   1   7
ATOM      7  N   UNL d   1      -0.568   0.164   0.663  0.00  0.00    -0.732 N 
ATOM      8  C   UNL d   1      -1.598  -0.768   0.257  0.00  0.00     0.284 C 
ATOM      9  H3  UNL d   1      -0.869   0.837   1.365  0.00  0.00     0.395 HD
ENDBRANCH   1   7
TORSDOF 1
ENDMDL
