MODEL 1
REMARK minimizedAffinity -1.67275429
REMARK minimizedRMSD -1
REMARK  1 active torsions:
REMARK  status: ('A' for Active; 'I' for Inactive)
REMARK    1  A    between atoms: N_2  and  C1_3 
ROOT
ATOM      1  C1  UNL d   1       2.719  -0.952   1.921  0.00  0.00     0.143 A 
ATOM      2  C2  UNL d   1       3.036  -0.796   0.568  0.00  0.00    -0.057 A 
ATOM      3  C3  UNL d   1       2.052  -0.481  -0.377  0.00  0.00     0.033 A 
ATOM      4  C4  UNL d   1       0.724  -0.343   0.013  0.00  0.00    -0.042 A 
ATOM      5  C5  UNL d   1       0.382  -0.518   1.349  0.00  0.00     0.033 A 
ATOM      6  C6  UNL d   1       1.370  -0.826   2.289  0.00  0.00    -0.057 A 
ENDROOT
BRANCH   1   7
ATOM      7  N   UNL d   1       3.635  -1.362   2.893  0.00  0.00    -0.732 N 
ATOM      8  C   UNL d   1       5.033  -1.000   2.787  0.00  0.00     0.284 C 
ATOM      9  H3  UNL d   1       3.258  -1.294   3.835  0.00  0.00     0.395 HD
ENDBRANCH   1   7
TORSDOF 1
ENDMDL
