MODEL 1
REMARK minimizedAffinity 5.39201689
REMARK minimizedRMSD -1
REMARK  1 active torsions:
REMARK  status: ('A' for Active; 'I' for Inactive)
REMARK    1  A    between atoms: N_2  and  C1_3 
ROOT
ATOM      1  C1  UNL d   1      -0.582  -1.184  -0.180  0.00  0.00     0.143 A 
ATOM      2  C2  UNL d   1      -1.979  -1.120  -0.188  0.00  0.00    -0.057 A 
ATOM      3  C3  UNL d   1      -2.759  -2.241   0.121  0.00  0.00     0.033 A 
ATOM      4  C4  UNL d   1      -2.153  -3.458   0.415  0.00  0.00    -0.042 A 
ATOM      5  C5  UNL d   1      -0.766  -3.551   0.404  0.00  0.00     0.033 A 
ATOM      6  C6  UNL d   1       0.008  -2.426   0.101  0.00  0.00    -0.057 A 
ENDROOT
BRANCH   1   7
ATOM      7  N   UNL d   1       0.247  -0.131  -0.574  0.00  0.00    -0.732 N 
ATOM      8  C   UNL d   1       1.316   0.328   0.287  0.00  0.00     0.284 C 
ATOM      9  H3  UNL d   1       0.499  -0.182  -1.559  0.00  0.00     0.395 HD
ENDBRANCH   1   7
TORSDOF 1
ENDMDL
