MODEL 1
REMARK minimizedAffinity 2.17073417
REMARK minimizedRMSD -1
REMARK  1 active torsions:
REMARK  status: ('A' for Active; 'I' for Inactive)
REMARK    1  A    between atoms: N_2  and  C1_3 
ROOT
ATOM      1  C1  UNL d   1      -0.024   1.257  -0.803  0.00  0.00     0.143 A 
ATOM      2  C2  UNL d   1       0.131   2.550  -0.290  0.00  0.00    -0.057 A 
ATOM      3  C3  UNL d   1      -0.180   3.678  -1.059  0.00  0.00     0.033 A 
ATOM      4  C4  UNL d   1      -0.626   3.533  -2.369  0.00  0.00    -0.042 A 
ATOM      5  C5  UNL d   1      -0.764   2.258  -2.907  0.00  0.00     0.033 A 
ATOM      6  C6  UNL d   1      -0.458   1.136  -2.132  0.00  0.00    -0.057 A 
ENDROOT
BRANCH   1   7
ATOM      7  N   UNL d   1       0.362   0.100  -0.122  0.00  0.00    -0.732 N 
ATOM      8  C   UNL d   1       1.530  -0.646  -0.540  0.00  0.00     0.284 C 
ATOM      9  H3  UNL d   1       0.266   0.192   0.886  0.00  0.00     0.395 HD
ENDBRANCH   1   7
TORSDOF 1
ENDMDL
