MODEL 1
REMARK minimizedAffinity -2.52826905
REMARK minimizedRMSD -1
REMARK  0 active torsions:
REMARK  status: ('A' for Active; 'I' for Inactive)
ROOT
ATOM      1  N1  IND d   1       0.605  -0.681   0.276  0.00  0.00    -0.196 N 
ATOM      2  C2  IND d   1      -0.762  -0.657   0.248  0.00  0.00     0.054 A 
ATOM      3  C3  IND d   1      -1.213   0.608   0.400  0.00  0.00    -0.031 A 
ATOM      4  C4  IND d   1       0.113   2.805   0.606  0.00  0.00     0.051 A 
ATOM      5  C5  IND d   1       1.387   3.287   0.719  0.00  0.00    -0.031 A 
ATOM      6  C6  IND d   1       2.487   2.455   0.685  0.00  0.00     0.015 A 
ATOM      7  C7  IND d   1       2.355   1.105   0.527  0.00  0.00    -0.016 A 
ATOM      8  C8  IND d   1       1.063   0.610   0.420  0.00  0.00    -0.047 A 
ATOM      9  C9  IND d   1      -0.060   1.445   0.495  0.00  0.00    -0.096 A 
ATOM     10  HN1 IND d   1       1.096  -1.384   0.213  0.00  0.00     0.298 HD
ENDROOT
TORSDOF 0
ENDMDL
