MODEL 1
REMARK minimizedAffinity 0.38961944
REMARK minimizedRMSD -1
REMARK  0 active torsions:
REMARK  status: ('A' for Active; 'I' for Inactive)
ROOT
ATOM      1  N1  IND d   1       0.459  -0.062  -0.462  0.00  0.00    -0.196 N 
ATOM      2  C2  IND d   1      -0.221   0.246   0.683  0.00  0.00     0.054 A 
ATOM      3  C3  IND d   1      -1.038  -0.772   1.034  0.00  0.00    -0.031 A 
ATOM      4  C4  IND d   1      -1.340  -3.080  -0.067  0.00  0.00     0.051 A 
ATOM      5  C5  IND d   1      -0.961  -3.811  -1.157  0.00  0.00    -0.031 A 
ATOM      6  C6  IND d   1      -0.068  -3.322  -2.089  0.00  0.00     0.015 A 
ATOM      7  C7  IND d   1       0.489  -2.081  -1.958  0.00  0.00    -0.016 A 
ATOM      8  C8  IND d   1       0.100  -1.333  -0.856  0.00  0.00    -0.047 A 
ATOM      9  C9  IND d   1      -0.837  -1.808   0.070  0.00  0.00    -0.096 A 
ATOM     10  HN1 IND d   1       1.017   0.451  -0.868  0.00  0.00     0.298 HD
ENDROOT
TORSDOF 0
ENDMDL
