MODEL 1
REMARK minimizedAffinity -5.04594278
REMARK minimizedRMSD -1
REMARK  0 active torsions:
REMARK  status: ('A' for Active; 'I' for Inactive)
ROOT
ATOM      1  N1  IND d   1       2.126  -0.826   0.551  0.00  0.00    -0.196 N 
ATOM      2  C2  IND d   1       1.296  -1.845   0.175  0.00  0.00     0.054 A 
ATOM      3  C3  IND d   1       0.040  -1.383  -0.013  0.00  0.00    -0.031 A 
ATOM      4  C4  IND d   1      -0.858   1.025   0.140  0.00  0.00     0.051 A 
ATOM      5  C5  IND d   1      -0.485   2.293   0.486  0.00  0.00    -0.031 A 
ATOM      6  C6  IND d   1       0.804   2.594   0.876  0.00  0.00     0.015 A 
ATOM      7  C7  IND d   1       1.775   1.634   0.925  0.00  0.00    -0.016 A 
ATOM      8  C8  IND d   1       1.399   0.344   0.581  0.00  0.00    -0.047 A 
ATOM      9  C9  IND d   1       0.082   0.025   0.225  0.00  0.00    -0.096 A 
ATOM     10  HN1 IND d   1       2.962  -0.902   0.738  0.00  0.00     0.298 HD
ENDROOT
TORSDOF 0
ENDMDL
