MODEL 1
REMARK minimizedAffinity -5.70826769
REMARK minimizedRMSD -1
REMARK  0 active torsions:
REMARK  status: ('A' for Active; 'I' for Inactive)
ROOT
ATOM      1  N1  IND d   1       1.890  -0.079   0.678  0.00  0.00    -0.196 N 
ATOM      2  C2  IND d   1       1.024  -1.127   0.823  0.00  0.00     0.054 A 
ATOM      3  C3  IND d   1      -0.248  -0.718   0.613  0.00  0.00    -0.031 A 
ATOM      4  C4  IND d   1      -1.128   1.600  -0.078  0.00  0.00     0.051 A 
ATOM      5  C5  IND d   1      -0.720   2.886  -0.295  0.00  0.00    -0.031 A 
ATOM      6  C6  IND d   1       0.605   3.257  -0.200  0.00  0.00     0.015 A 
ATOM      7  C7  IND d   1       1.579   2.348   0.107  0.00  0.00    -0.016 A 
ATOM      8  C8  IND d   1       1.168   1.043   0.335  0.00  0.00    -0.047 A 
ATOM      9  C9  IND d   1      -0.182   0.669   0.281  0.00  0.00    -0.096 A 
ATOM     10  HN1 IND d   1       2.743  -0.114   0.784  0.00  0.00     0.298 HD
ENDROOT
TORSDOF 0
ENDMDL
