MODEL 1
REMARK minimizedAffinity -5.86062098
REMARK minimizedRMSD -1
REMARK  0 active torsions:
REMARK  status: ('A' for Active; 'I' for Inactive)
ROOT
ATOM      1  N1  IND d   1       1.271  -0.361   0.400  0.00  0.00    -0.196 N 
ATOM      2  C2  IND d   1      -0.017  -0.677   0.733  0.00  0.00     0.054 A 
ATOM      3  C3  IND d   1      -0.760   0.446   0.858  0.00  0.00    -0.031 A 
ATOM      4  C4  IND d   1      -0.092   2.901   0.462  0.00  0.00     0.051 A 
ATOM      5  C5  IND d   1       0.986   3.692   0.180  0.00  0.00    -0.031 A 
ATOM      6  C6  IND d   1       2.239   3.161  -0.051  0.00  0.00     0.015 A 
ATOM      7  C7  IND d   1       2.459   1.813  -0.019  0.00  0.00    -0.016 A 
ATOM      8  C8  IND d   1       1.368   1.008   0.275  0.00  0.00    -0.047 A 
ATOM      9  C9  IND d   1       0.103   1.543   0.552  0.00  0.00    -0.096 A 
ATOM     10  HN1 IND d   1       1.912  -0.922   0.288  0.00  0.00     0.298 HD
ENDROOT
TORSDOF 0
ENDMDL
