MODEL 1
REMARK minimizedAffinity -5.40259218
REMARK minimizedRMSD -1
REMARK  0 active torsions:
REMARK  status: ('A' for Active; 'I' for Inactive)
ROOT
ATOM      1  N1  IND d   1       0.451  -1.105   0.388  0.00  0.00    -0.196 N 
ATOM      2  C2  IND d   1      -0.910  -1.224   0.424  0.00  0.00     0.054 A 
ATOM      3  C3  IND d   1      -1.488  -0.004   0.484  0.00  0.00    -0.031 A 
ATOM      4  C4  IND d   1      -0.396   2.327   0.432  0.00  0.00     0.051 A 
ATOM      5  C5  IND d   1       0.822   2.947   0.440  0.00  0.00    -0.031 A 
ATOM      6  C6  IND d   1       2.003   2.233   0.428  0.00  0.00     0.015 A 
ATOM      7  C7  IND d   1       2.009   0.867   0.396  0.00  0.00    -0.016 A 
ATOM      8  C8  IND d   1       0.774   0.234   0.395  0.00  0.00    -0.047 A 
ATOM      9  C9  IND d   1      -0.427   0.953   0.450  0.00  0.00    -0.096 A 
ATOM     10  HN1 IND d   1       1.012  -1.756   0.365  0.00  0.00     0.298 HD
ENDROOT
TORSDOF 0
ENDMDL
