MODEL 1
REMARK minimizedAffinity -4.65756845
REMARK minimizedRMSD -1
REMARK  0 active torsions:
REMARK  status: ('A' for Active; 'I' for Inactive)
ROOT
ATOM      1  N1  IND d   1       1.383  -0.903   0.219  0.00  0.00    -0.196 N 
ATOM      2  C2  IND d   1       0.070  -1.154  -0.066  0.00  0.00     0.054 A 
ATOM      3  C3  IND d   1      -0.590   0.002  -0.300  0.00  0.00    -0.031 A 
ATOM      4  C4  IND d   1       0.309   2.414  -0.368  0.00  0.00     0.051 A 
ATOM      5  C5  IND d   1       1.437   3.150  -0.136  0.00  0.00    -0.031 A 
ATOM      6  C6  IND d   1       2.630   2.560   0.230  0.00  0.00     0.015 A 
ATOM      7  C7  IND d   1       2.742   1.206   0.368  0.00  0.00    -0.016 A 
ATOM      8  C8  IND d   1       1.597   0.456   0.141  0.00  0.00    -0.047 A 
ATOM      9  C9  IND d   1       0.373   1.052  -0.190  0.00  0.00    -0.096 A 
ATOM     10  HN1 IND d   1       1.976  -1.494   0.415  0.00  0.00     0.298 HD
ENDROOT
TORSDOF 0
ENDMDL
