MODEL 1
REMARK minimizedAffinity -6.30374193
REMARK minimizedRMSD -1
REMARK  0 active torsions:
REMARK  status: ('A' for Active; 'I' for Inactive)
ROOT
ATOM      1  N1  IND d   1       0.643  -0.931   0.251  0.00  0.00    -0.196 N 
ATOM      2  C2  IND d   1      -0.701  -1.152   0.131  0.00  0.00     0.054 A 
ATOM      3  C3  IND d   1      -1.366   0.023   0.063  0.00  0.00    -0.031 A 
ATOM      4  C4  IND d   1      -0.443   2.426   0.030  0.00  0.00     0.051 A 
ATOM      5  C5  IND d   1       0.719   3.136   0.153  0.00  0.00    -0.031 A 
ATOM      6  C6  IND d   1       1.939   2.513   0.316  0.00  0.00     0.015 A 
ATOM      7  C7  IND d   1       2.046   1.152   0.351  0.00  0.00    -0.016 A 
ATOM      8  C8  IND d   1       0.867   0.428   0.233  0.00  0.00    -0.047 A 
ATOM      9  C9  IND d   1      -0.379   1.055   0.110  0.00  0.00    -0.096 A 
ATOM     10  HN1 IND d   1       1.246  -1.539   0.327  0.00  0.00     0.298 HD
ENDROOT
TORSDOF 0
ENDMDL
