MODEL 1
REMARK minimizedAffinity -3.74577975
REMARK minimizedRMSD -1
REMARK  0 active torsions:
REMARK  status: ('A' for Active; 'I' for Inactive)
ROOT
ATOM      1  N1  IND d   1       1.442   0.082   0.559  0.00  0.00    -0.196 N 
ATOM      2  C2  IND d   1       1.173  -1.251   0.419  0.00  0.00     0.054 A 
ATOM      3  C3  IND d   1      -0.162  -1.460   0.373  0.00  0.00    -0.031 A 
ATOM      4  C4  IND d   1      -2.086   0.250   0.409  0.00  0.00     0.051 A 
ATOM      5  C5  IND d   1      -2.339   1.584   0.562  0.00  0.00    -0.031 A 
ATOM      6  C6  IND d   1      -1.324   2.505   0.723  0.00  0.00     0.015 A 
ATOM      7  C7  IND d   1      -0.011   2.125   0.725  0.00  0.00    -0.016 A 
ATOM      8  C8  IND d   1       0.249   0.770   0.576  0.00  0.00    -0.047 A 
ATOM      9  C9  IND d   1      -0.779  -0.174   0.456  0.00  0.00    -0.096 A 
ATOM     10  HN1 IND d   1       2.225   0.431   0.626  0.00  0.00     0.298 HD
ENDROOT
TORSDOF 0
ENDMDL
