MODEL 1
REMARK minimizedAffinity -4.5834074
REMARK minimizedRMSD -1
REMARK  0 active torsions:
REMARK  status: ('A' for Active; 'I' for Inactive)
ROOT
ATOM      1  N1  IND d   1       0.958  -0.912   0.361  0.00  0.00    -0.196 N 
ATOM      2  C2  IND d   1      -0.316  -1.394   0.482  0.00  0.00     0.054 A 
ATOM      3  C3  IND d   1      -1.172  -0.392   0.783  0.00  0.00    -0.031 A 
ATOM      4  C4  IND d   1      -0.717   2.131   1.021  0.00  0.00     0.051 A 
ATOM      5  C5  IND d   1       0.298   3.046   1.035  0.00  0.00    -0.031 A 
ATOM      6  C6  IND d   1       1.611   2.681   0.817  0.00  0.00     0.015 A 
ATOM      7  C7  IND d   1       1.958   1.384   0.566  0.00  0.00    -0.016 A 
ATOM      8  C8  IND d   1       0.931   0.451   0.558  0.00  0.00    -0.047 A 
ATOM      9  C9  IND d   1      -0.398   0.809   0.821  0.00  0.00    -0.096 A 
ATOM     10  HN1 IND d   1       1.658  -1.381   0.190  0.00  0.00     0.298 HD
ENDROOT
TORSDOF 0
ENDMDL
