MODEL 1
REMARK minimizedAffinity -5.50734758
REMARK minimizedRMSD -1
REMARK  0 active torsions:
REMARK  status: ('A' for Active; 'I' for Inactive)
ROOT
ATOM      1  N1  IND d   1       1.058  -0.492  -0.149  0.00  0.00    -0.196 N 
ATOM      2  C2  IND d   1      -0.250  -0.885  -0.094  0.00  0.00     0.054 A 
ATOM      3  C3  IND d   1      -1.063   0.194  -0.038  0.00  0.00    -0.031 A 
ATOM      4  C4  IND d   1      -0.467   2.697  -0.129  0.00  0.00     0.051 A 
ATOM      5  C5  IND d   1       0.600   3.550  -0.143  0.00  0.00    -0.031 A 
ATOM      6  C6  IND d   1       1.901   3.091  -0.163  0.00  0.00     0.015 A 
ATOM      7  C7  IND d   1       2.184   1.754  -0.181  0.00  0.00    -0.016 A 
ATOM      8  C8  IND d   1       1.102   0.885  -0.160  0.00  0.00    -0.047 A 
ATOM      9  C9  IND d   1      -0.219   1.345  -0.096  0.00  0.00    -0.096 A 
ATOM     10  HN1 IND d   1       1.739  -1.017  -0.172  0.00  0.00     0.298 HD
ENDROOT
TORSDOF 0
ENDMDL
