MODEL 1
REMARK minimizedAffinity -3.61600447
REMARK minimizedRMSD -1
REMARK  0 active torsions:
REMARK  status: ('A' for Active; 'I' for Inactive)
ROOT
ATOM      1  N1  IND d   1      -1.661  -2.115  -2.422  0.00  0.00    -0.196 N 
ATOM      2  C2  IND d   1      -1.000  -3.302  -2.277  0.00  0.00     0.054 A 
ATOM      3  C3  IND d   1      -0.133  -3.234  -1.242  0.00  0.00    -0.031 A 
ATOM      4  C4  IND d   1       0.290  -1.308   0.413  0.00  0.00     0.051 A 
ATOM      5  C5  IND d   1      -0.050  -0.008   0.662  0.00  0.00    -0.031 A 
ATOM      6  C6  IND d   1      -0.965   0.669  -0.118  0.00  0.00     0.015 A 
ATOM      7  C7  IND d   1      -1.585   0.065  -1.174  0.00  0.00    -0.016 A 
ATOM      8  C8  IND d   1      -1.237  -1.253  -1.435  0.00  0.00    -0.047 A 
ATOM      9  C9  IND d   1      -0.278  -1.932  -0.673  0.00  0.00    -0.096 A 
ATOM     10  HN1 IND d   1      -2.245  -1.937  -3.029  0.00  0.00     0.298 HD
ENDROOT
TORSDOF 0
ENDMDL
