MODEL 1
REMARK minimizedAffinity -6.83590937
REMARK minimizedRMSD -1
REMARK  0 active torsions:
REMARK  status: ('A' for Active; 'I' for Inactive)
ROOT
ATOM      1  N1  IND d   1       0.725   0.175  -0.030  0.00  0.00    -0.196 N 
ATOM      2  C2  IND d   1       1.934  -0.419   0.205  0.00  0.00     0.054 A 
ATOM      3  C3  IND d   1       2.898   0.518   0.349  0.00  0.00    -0.031 A 
ATOM      4  C4  IND d   1       2.698   3.085   0.338  0.00  0.00     0.051 A 
ATOM      5  C5  IND d   1       1.802   4.095   0.124  0.00  0.00    -0.031 A 
ATOM      6  C6  IND d   1       0.474   3.845  -0.155  0.00  0.00     0.015 A 
ATOM      7  C7  IND d   1      -0.012   2.569  -0.220  0.00  0.00    -0.016 A 
ATOM      8  C8  IND d   1       0.896   1.541  -0.010  0.00  0.00    -0.047 A 
ATOM      9  C9  IND d   1       2.254   1.788   0.232  0.00  0.00    -0.096 A 
ATOM     10  HN1 IND d   1      -0.018  -0.237  -0.167  0.00  0.00     0.298 HD
ENDROOT
TORSDOF 0
ENDMDL
