MODEL 1
REMARK minimizedAffinity -4.42873859
REMARK minimizedRMSD -1
REMARK  0 active torsions:
REMARK  status: ('A' for Active; 'I' for Inactive)
ROOT
ATOM      1  N1  IND d   1       0.695  -0.625   0.304  0.00  0.00    -0.196 N 
ATOM      2  C2  IND d   1      -0.230  -0.236  -0.624  0.00  0.00     0.054 A 
ATOM      3  C3  IND d   1      -1.251   0.418  -0.026  0.00  0.00    -0.031 A 
ATOM      4  C4  IND d   1      -1.560   1.051   2.450  0.00  0.00     0.051 A 
ATOM      5  C5  IND d   1      -0.996   0.881   3.684  0.00  0.00    -0.031 A 
ATOM      6  C6  IND d   1       0.185   0.189   3.857  0.00  0.00     0.015 A 
ATOM      7  C7  IND d   1       0.856  -0.351   2.797  0.00  0.00    -0.016 A 
ATOM      8  C8  IND d   1       0.283  -0.187   1.544  0.00  0.00    -0.047 A 
ATOM      9  C9  IND d   1      -0.937   0.477   1.367  0.00  0.00    -0.096 A 
ATOM     10  HN1 IND d   1       1.414  -1.068   0.142  0.00  0.00     0.298 HD
ENDROOT
TORSDOF 0
ENDMDL
