MODEL 1
REMARK minimizedAffinity -4.49712849
REMARK minimizedRMSD -1
REMARK  0 active torsions:
REMARK  status: ('A' for Active; 'I' for Inactive)
ROOT
ATOM      1  N1  IND d   1       0.467   1.001  -0.480  0.00  0.00    -0.196 N 
ATOM      2  C2  IND d   1       0.287  -0.194   0.158  0.00  0.00     0.054 A 
ATOM      3  C3  IND d   1       0.327  -1.212  -0.731  0.00  0.00    -0.031 A 
ATOM      4  C4  IND d   1       0.780  -1.154  -3.265  0.00  0.00     0.051 A 
ATOM      5  C5  IND d   1       0.967  -0.289  -4.306  0.00  0.00    -0.031 A 
ATOM      6  C6  IND d   1       1.000   1.078  -4.121  0.00  0.00     0.015 A 
ATOM      7  C7  IND d   1       0.859   1.633  -2.880  0.00  0.00    -0.016 A 
ATOM      8  C8  IND d   1       0.661   0.758  -1.822  0.00  0.00    -0.047 A 
ATOM      9  C9  IND d   1       0.584  -0.628  -2.009  0.00  0.00    -0.096 A 
ATOM     10  HN1 IND d   1       0.460   1.775  -0.106  0.00  0.00     0.298 HD
ENDROOT
TORSDOF 0
ENDMDL
