MODEL 1
REMARK minimizedAffinity -4.02972078
REMARK minimizedRMSD -1
REMARK  0 active torsions:
REMARK  status: ('A' for Active; 'I' for Inactive)
ROOT
ATOM      1  N1  IND d   1       1.403   0.074  -2.470  0.00  0.00    -0.196 N 
ATOM      2  C2  IND d   1       1.385   1.336  -2.994  0.00  0.00     0.054 A 
ATOM      3  C3  IND d   1       0.448   2.089  -2.375  0.00  0.00    -0.031 A 
ATOM      4  C4  IND d   1      -1.098   1.483  -0.407  0.00  0.00     0.051 A 
ATOM      5  C5  IND d   1      -1.471   0.435   0.386  0.00  0.00    -0.031 A 
ATOM      6  C6  IND d   1      -0.892  -0.812   0.267  0.00  0.00     0.015 A 
ATOM      7  C7  IND d   1       0.095  -1.055  -0.646  0.00  0.00    -0.016 A 
ATOM      8  C8  IND d   1       0.472   0.005  -1.458  0.00  0.00    -0.047 A 
ATOM      9  C9  IND d   1      -0.143   1.261  -1.371  0.00  0.00    -0.096 A 
ATOM     10  HN1 IND d   1       1.911  -0.570  -2.729  0.00  0.00     0.298 HD
ENDROOT
TORSDOF 0
ENDMDL
