MODEL 1
REMARK minimizedAffinity -1.21050727
REMARK minimizedRMSD -1
REMARK  0 active torsions:
REMARK  status: ('A' for Active; 'I' for Inactive)
ROOT
ATOM      1  N1  IND d   1       1.024  -1.169  -0.175  0.00  0.00    -0.196 N 
ATOM      2  C2  IND d   1      -0.203  -0.947  -0.736  0.00  0.00     0.054 A 
ATOM      3  C3  IND d   1      -1.098  -0.596   0.215  0.00  0.00    -0.031 A 
ATOM      4  C4  IND d   1      -0.743  -0.225   2.737  0.00  0.00     0.051 A 
ATOM      5  C5  IND d   1       0.198  -0.341   3.722  0.00  0.00    -0.031 A 
ATOM      6  C6  IND d   1       1.490  -0.745   3.451  0.00  0.00     0.015 A 
ATOM      7  C7  IND d   1       1.893  -1.037   2.179  0.00  0.00    -0.016 A 
ATOM      8  C8  IND d   1       0.938  -0.927   1.178  0.00  0.00    -0.047 A 
ATOM      9  C9  IND d   1      -0.386  -0.559   1.453  0.00  0.00    -0.096 A 
ATOM     10  HN1 IND d   1       1.731  -1.417  -0.597  0.00  0.00     0.298 HD
ENDROOT
TORSDOF 0
ENDMDL
