MODEL 1
REMARK minimizedAffinity 5.60348463
REMARK minimizedRMSD -1
REMARK  2 active torsions:
REMARK  status: ('A' for Active; 'I' for Inactive)
REMARK    1  A    between atoms: C1_2  and  C2_3 
REMARK    2  A    between atoms: C2_3  and  C3_4 
ROOT
ATOM      1  C3  UNL d   1      -0.534  -1.826  -1.810  0.00  0.00    -0.075 A 
ATOM      2  C4  UNL d   1      -0.616  -0.635  -1.075  0.00  0.00     0.002 A 
ATOM      3  C5  UNL d   1      -0.218  -0.598   0.261  0.00  0.00     0.002 A 
ATOM      4  C6  UNL d   1       0.256  -1.752   0.882  0.00  0.00    -0.004 A 
ATOM      5  C7  UNL d   1       0.326  -2.945   0.166  0.00  0.00     0.002 A 
ATOM      6  C8  UNL d   1      -0.067  -2.983  -1.173  0.00  0.00     0.002 A 
ENDROOT
BRANCH   1   7
ATOM      7  C2  UNL d   1      -0.936  -1.866  -3.265  0.00  0.00     0.056 C 
BRANCH   7   8
ATOM      8  C1  UNL d   1      -1.200  -3.277  -3.801  0.00  0.00     0.007 C 
ATOM      9  C   UNL d   1      -2.481  -3.378  -4.619  0.00  0.00     0.009 C 
ENDBRANCH   7   8
ENDBRANCH   1   7
TORSDOF 2
ENDMDL
