MODEL 1
REMARK minimizedAffinity 2.41225076
REMARK minimizedRMSD -1
REMARK  2 active torsions:
REMARK  status: ('A' for Active; 'I' for Inactive)
REMARK    1  A    between atoms: C1_2  and  C2_3 
REMARK    2  A    between atoms: C2_3  and  C3_4 
ROOT
ATOM      1  C3  UNL d   1       2.635  -0.250  -0.648  0.00  0.00    -0.075 A 
ATOM      2  C4  UNL d   1       3.813   0.470  -0.899  0.00  0.00     0.002 A 
ATOM      3  C5  UNL d   1       4.048   1.688  -0.261  0.00  0.00     0.002 A 
ATOM      4  C6  UNL d   1       3.107   2.206   0.627  0.00  0.00    -0.004 A 
ATOM      5  C7  UNL d   1       1.926   1.507   0.871  0.00  0.00     0.002 A 
ATOM      6  C8  UNL d   1       1.691   0.286   0.237  0.00  0.00     0.002 A 
ENDROOT
BRANCH   1   7
ATOM      7  C2  UNL d   1       2.389  -1.583  -1.312  0.00  0.00     0.056 C 
BRANCH   7   8
ATOM      8  C1  UNL d   1       1.839  -2.659  -0.369  0.00  0.00     0.007 C 
ATOM      9  C   UNL d   1       0.334  -2.853  -0.492  0.00  0.00     0.009 C 
ENDBRANCH   7   8
ENDBRANCH   1   7
TORSDOF 2
ENDMDL
