MODEL 1
REMARK minimizedAffinity 3.09386802
REMARK minimizedRMSD -1
REMARK  2 active torsions:
REMARK  status: ('A' for Active; 'I' for Inactive)
REMARK    1  A    between atoms: C1_2  and  C2_3 
REMARK    2  A    between atoms: C2_3  and  C3_4 
ROOT
ATOM      1  C3  UNL d   1       0.919  -1.526  -0.113  0.00  0.00    -0.075 A 
ATOM      2  C4  UNL d   1      -0.249  -1.862  -0.813  0.00  0.00     0.002 A 
ATOM      3  C5  UNL d   1      -1.177  -0.878  -1.157  0.00  0.00     0.002 A 
ATOM      4  C6  UNL d   1      -0.955   0.449  -0.797  0.00  0.00    -0.004 A 
ATOM      5  C7  UNL d   1       0.194   0.792  -0.087  0.00  0.00     0.002 A 
ATOM      6  C8  UNL d   1       1.126  -0.190   0.255  0.00  0.00     0.002 A 
ENDROOT
BRANCH   1   7
ATOM      7  C2  UNL d   1       1.941  -2.582   0.236  0.00  0.00     0.056 C 
BRANCH   7   8
ATOM      8  C1  UNL d   1       3.053  -2.741  -0.806  0.00  0.00     0.007 C 
ATOM      9  C   UNL d   1       3.541  -1.414  -1.372  0.00  0.00     0.009 C 
ENDBRANCH   7   8
ENDBRANCH   1   7
TORSDOF 2
ENDMDL
