MODEL 1
REMARK minimizedAffinity -2.34172297
REMARK minimizedRMSD -1
REMARK  2 active torsions:
REMARK  status: ('A' for Active; 'I' for Inactive)
REMARK    1  A    between atoms: C1_2  and  C2_3 
REMARK    2  A    between atoms: C2_3  and  C3_4 
ROOT
ATOM      1  C3  UNL d   1       2.863  -0.297  -0.590  0.00  0.00    -0.075 A 
ATOM      2  C4  UNL d   1       3.664  -0.431  -1.733  0.00  0.00     0.002 A 
ATOM      3  C5  UNL d   1       3.622  -1.599  -2.496  0.00  0.00     0.002 A 
ATOM      4  C6  UNL d   1       2.787  -2.650  -2.120  0.00  0.00    -0.004 A 
ATOM      5  C7  UNL d   1       1.999  -2.534  -0.977  0.00  0.00     0.002 A 
ATOM      6  C8  UNL d   1       2.036  -1.365  -0.215  0.00  0.00     0.002 A 
ENDROOT
BRANCH   1   7
ATOM      7  C2  UNL d   1       2.882   0.975   0.222  0.00  0.00     0.056 C 
BRANCH   7   8
ATOM      8  C1  UNL d   1       1.706   1.113   1.194  0.00  0.00     0.007 C 
ATOM      9  C   UNL d   1       0.355   1.181   0.496  0.00  0.00     0.009 C 
ENDBRANCH   7   8
ENDBRANCH   1   7
TORSDOF 2
ENDMDL
