MODEL 1
REMARK minimizedAffinity -2.4320147
REMARK minimizedRMSD -1
REMARK  2 active torsions:
REMARK  status: ('A' for Active; 'I' for Inactive)
REMARK    1  A    between atoms: C1_2  and  C2_3 
REMARK    2  A    between atoms: C2_3  and  C3_4 
ROOT
ATOM      1  C3  UNL d   1      -1.131   0.525   0.216  0.00  0.00    -0.075 A 
ATOM      2  C4  UNL d   1      -0.470   1.349   1.139  0.00  0.00     0.002 A 
ATOM      3  C5  UNL d   1      -1.187   2.016   2.132  0.00  0.00     0.002 A 
ATOM      4  C6  UNL d   1      -2.571   1.878   2.209  0.00  0.00    -0.004 A 
ATOM      5  C7  UNL d   1      -3.240   1.075   1.287  0.00  0.00     0.002 A 
ATOM      6  C8  UNL d   1      -2.524   0.403   0.295  0.00  0.00     0.002 A 
ENDROOT
BRANCH   1   7
ATOM      7  C2  UNL d   1      -0.358  -0.223  -0.843  0.00  0.00     0.056 C 
BRANCH   7   8
ATOM      8  C1  UNL d   1      -0.475  -1.748  -0.741  0.00  0.00     0.007 C 
ATOM      9  C   UNL d   1       0.803  -2.416  -0.250  0.00  0.00     0.009 C 
ENDBRANCH   7   8
ENDBRANCH   1   7
TORSDOF 2
ENDMDL
