MODEL 1
REMARK minimizedAffinity -3.31216049
REMARK minimizedRMSD -1
REMARK  2 active torsions:
REMARK  status: ('A' for Active; 'I' for Inactive)
REMARK    1  A    between atoms: C1_2  and  C2_3 
REMARK    2  A    between atoms: C2_3  and  C3_4 
ROOT
ATOM      1  C3  UNL d   1       1.415  -0.955  -0.330  0.00  0.00    -0.075 A 
ATOM      2  C4  UNL d   1       1.321   0.443  -0.263  0.00  0.00     0.002 A 
ATOM      3  C5  UNL d   1       0.103   1.057   0.029  0.00  0.00     0.002 A 
ATOM      4  C6  UNL d   1      -1.036   0.285   0.248  0.00  0.00    -0.004 A 
ATOM      5  C7  UNL d   1      -0.957  -1.104   0.168  0.00  0.00     0.002 A 
ATOM      6  C8  UNL d   1       0.261  -1.721  -0.120  0.00  0.00     0.002 A 
ENDROOT
BRANCH   1   7
ATOM      7  C2  UNL d   1       2.737  -1.627  -0.617  0.00  0.00     0.056 C 
BRANCH   7   8
ATOM      8  C1  UNL d   1       3.917  -1.040   0.164  0.00  0.00     0.007 C 
ATOM      9  C   UNL d   1       4.401   0.293  -0.391  0.00  0.00     0.009 C 
ENDBRANCH   7   8
ENDBRANCH   1   7
TORSDOF 2
ENDMDL
