MODEL 1
REMARK minimizedAffinity 1.33369172
REMARK minimizedRMSD -1
REMARK  2 active torsions:
REMARK  status: ('A' for Active; 'I' for Inactive)
REMARK    1  A    between atoms: C1_2  and  C2_3 
REMARK    2  A    between atoms: C2_3  and  C3_4 
ROOT
ATOM      1  C3  UNL d   1       0.368   0.301   0.065  0.00  0.00    -0.075 A 
ATOM      2  C4  UNL d   1      -0.598   0.693  -0.874  0.00  0.00     0.002 A 
ATOM      3  C5  UNL d   1      -1.091  -0.220  -1.807  0.00  0.00     0.002 A 
ATOM      4  C6  UNL d   1      -0.619  -1.530  -1.820  0.00  0.00    -0.004 A 
ATOM      5  C7  UNL d   1       0.352  -1.927  -0.903  0.00  0.00     0.002 A 
ATOM      6  C8  UNL d   1       0.844  -1.017   0.035  0.00  0.00     0.002 A 
ENDROOT
BRANCH   1   7
ATOM      7  C2  UNL d   1       0.884   1.276   1.096  0.00  0.00     0.056 C 
BRANCH   7   8
ATOM      8  C1  UNL d   1       1.236   0.633   2.441  0.00  0.00     0.007 C 
ATOM      9  C   UNL d   1       2.220   1.457   3.261  0.00  0.00     0.009 C 
ENDBRANCH   7   8
ENDBRANCH   1   7
TORSDOF 2
ENDMDL
