MODEL 1
REMARK minimizedAffinity 0.687425256
REMARK minimizedRMSD -1
REMARK  2 active torsions:
REMARK  status: ('A' for Active; 'I' for Inactive)
REMARK    1  A    between atoms: C1_2  and  C2_3 
REMARK    2  A    between atoms: C2_3  and  C3_4 
ROOT
ATOM      1  C3  UNL d   1       1.528  -2.291  -1.655  0.00  0.00    -0.075 A 
ATOM      2  C4  UNL d   1       0.423  -2.716  -2.407  0.00  0.00     0.002 A 
ATOM      3  C5  UNL d   1      -0.872  -2.380  -2.014  0.00  0.00     0.002 A 
ATOM      4  C6  UNL d   1      -1.081  -1.626  -0.861  0.00  0.00    -0.004 A 
ATOM      5  C7  UNL d   1       0.009  -1.213  -0.097  0.00  0.00     0.002 A 
ATOM      6  C8  UNL d   1       1.307  -1.543  -0.490  0.00  0.00     0.002 A 
ENDROOT
BRANCH   1   7
ATOM      7  C2  UNL d   1       2.935  -2.625  -2.091  0.00  0.00     0.056 C 
BRANCH   7   8
ATOM      8  C1  UNL d   1       4.020  -1.823  -1.366  0.00  0.00     0.007 C 
ATOM      9  C   UNL d   1       4.827  -0.927  -2.296  0.00  0.00     0.009 C 
ENDBRANCH   7   8
ENDBRANCH   1   7
TORSDOF 2
ENDMDL
