MODEL 1
REMARK minimizedAffinity -4.8987751
REMARK minimizedRMSD -1
REMARK  0 active torsions:
REMARK  status: ('A' for Active; 'I' for Inactive)
ROOT
ATOM      1  C   UNL d   1      -3.072   0.833   1.477  0.00  0.00     0.078 C 
ATOM      2  C1  UNL d   1      -1.598   0.559   1.463  0.00  0.00    -0.077 A 
ATOM      3  C2  UNL d   1      -0.896   0.325   2.652  0.00  0.00    -0.001 A 
ATOM      4  C3  UNL d   1       0.478   0.080   2.624  0.00  0.00     0.003 A 
ATOM      5  C4  UNL d   1       1.162   0.069   1.411  0.00  0.00    -0.005 A 
ATOM      6  C5  UNL d   1       0.473   0.303   0.222  0.00  0.00     0.003 A 
ATOM      7  C6  UNL d   1      -0.901   0.547   0.248  0.00  0.00    -0.001 A 
ENDROOT
TORSDOF 0
ENDMDL
