MODEL 1
REMARK minimizedAffinity -2.45936871
REMARK minimizedRMSD -1
REMARK  0 active torsions:
REMARK  status: ('A' for Active; 'I' for Inactive)
ROOT
ATOM      1  C   UNL d   1      -3.120   0.843   1.486  0.00  0.00     0.078 C 
ATOM      2  C1  UNL d   1      -1.647   0.569   1.452  0.00  0.00    -0.077 A 
ATOM      3  C2  UNL d   1      -0.912   0.429   2.636  0.00  0.00    -0.001 A 
ATOM      4  C3  UNL d   1       0.462   0.184   2.589  0.00  0.00     0.003 A 
ATOM      5  C4  UNL d   1       1.112   0.077   1.362  0.00  0.00    -0.005 A 
ATOM      6  C5  UNL d   1       0.389   0.216   0.179  0.00  0.00     0.003 A 
ATOM      7  C6  UNL d   1      -0.984   0.462   0.223  0.00  0.00    -0.001 A 
ENDROOT
TORSDOF 0
ENDMDL
