MODEL 1
REMARK minimizedAffinity 0.240766734
REMARK minimizedRMSD -1
REMARK  0 active torsions:
REMARK  status: ('A' for Active; 'I' for Inactive)
ROOT
ATOM      1  C   UNL d   1      -3.233   0.580   0.396  0.00  0.00     0.078 C 
ATOM      2  C1  UNL d   1      -1.765   0.400   0.146  0.00  0.00    -0.077 A 
ATOM      3  C2  UNL d   1      -0.856   0.330   1.209  0.00  0.00    -0.001 A 
ATOM      4  C3  UNL d   1       0.509   0.173   0.961  0.00  0.00     0.003 A 
ATOM      5  C4  UNL d   1       0.976   0.084  -0.349  0.00  0.00    -0.005 A 
ATOM      6  C5  UNL d   1       0.079   0.155  -1.413  0.00  0.00     0.003 A 
ATOM      7  C6  UNL d   1      -1.286   0.313  -1.167  0.00  0.00    -0.001 A 
ENDROOT
TORSDOF 0
ENDMDL
