MODEL 1
REMARK minimizedAffinity -1.43834555
REMARK minimizedRMSD -1
REMARK  0 active torsions:
REMARK  status: ('A' for Active; 'I' for Inactive)
ROOT
ATOM      1  C   UNL d   1       0.380   0.210  -1.745  0.00  0.00     0.078 C 
ATOM      2  C1  UNL d   1       0.370   0.171  -0.246  0.00  0.00    -0.077 A 
ATOM      3  C2  UNL d   1       1.534  -0.118   0.476  0.00  0.00    -0.001 A 
ATOM      4  C3  UNL d   1       1.507  -0.162   1.871  0.00  0.00     0.003 A 
ATOM      5  C4  UNL d   1       0.318   0.082   2.556  0.00  0.00    -0.005 A 
ATOM      6  C5  UNL d   1      -0.846   0.368   1.845  0.00  0.00     0.003 A 
ATOM      7  C6  UNL d   1      -0.821   0.412   0.451  0.00  0.00    -0.001 A 
ENDROOT
TORSDOF 0
ENDMDL
