MODEL 1
REMARK minimizedAffinity -2.11503577
REMARK minimizedRMSD -1
REMARK  0 active torsions:
REMARK  status: ('A' for Active; 'I' for Inactive)
ROOT
ATOM      1  C   UNL d   1       1.111  -1.329  -3.490  0.00  0.00     0.078 C 
ATOM      2  C1  UNL d   1       0.544  -0.793  -2.210  0.00  0.00    -0.077 A 
ATOM      3  C2  UNL d   1       1.014  -1.242  -0.969  0.00  0.00    -0.001 A 
ATOM      4  C3  UNL d   1       0.471  -0.741   0.215  0.00  0.00     0.003 A 
ATOM      5  C4  UNL d   1      -0.547   0.210   0.170  0.00  0.00    -0.005 A 
ATOM      6  C5  UNL d   1      -1.023   0.661  -1.059  0.00  0.00     0.003 A 
ATOM      7  C6  UNL d   1      -0.480   0.161  -2.244  0.00  0.00    -0.001 A 
ENDROOT
TORSDOF 0
ENDMDL
