MODEL 1
REMARK minimizedAffinity -3.06391549
REMARK minimizedRMSD -1
REMARK  0 active torsions:
REMARK  status: ('A' for Active; 'I' for Inactive)
ROOT
ATOM      1  C   UNL d   1       0.672  -0.135  -0.111  0.00  0.00     0.078 C 
ATOM      2  C1  UNL d   1       0.975  -0.670  -1.479  0.00  0.00    -0.077 A 
ATOM      3  C2  UNL d   1       1.277  -2.023  -1.673  0.00  0.00    -0.001 A 
ATOM      4  C3  UNL d   1       1.567  -2.505  -2.950  0.00  0.00     0.003 A 
ATOM      5  C4  UNL d   1       1.557  -1.641  -4.043  0.00  0.00    -0.005 A 
ATOM      6  C5  UNL d   1       1.259  -0.292  -3.859  0.00  0.00     0.003 A 
ATOM      7  C6  UNL d   1       0.970   0.192  -2.583  0.00  0.00    -0.001 A 
ENDROOT
TORSDOF 0
ENDMDL
