MODEL 1
REMARK minimizedAffinity -1.74775362
REMARK minimizedRMSD -1
REMARK  0 active torsions:
REMARK  status: ('A' for Active; 'I' for Inactive)
ROOT
ATOM      1  C   UNL d   1       0.933  -1.142  -3.068  0.00  0.00     0.078 C 
ATOM      2  C1  UNL d   1       0.742  -0.735  -1.637  0.00  0.00    -0.077 A 
ATOM      3  C2  UNL d   1       0.582   0.611  -1.286  0.00  0.00    -0.001 A 
ATOM      4  C3  UNL d   1       0.415   0.976   0.051  0.00  0.00     0.003 A 
ATOM      5  C4  UNL d   1       0.408   0.002   1.047  0.00  0.00    -0.005 A 
ATOM      6  C5  UNL d   1       0.568  -1.340   0.707  0.00  0.00     0.003 A 
ATOM      7  C6  UNL d   1       0.736  -1.707  -0.629  0.00  0.00    -0.001 A 
ENDROOT
TORSDOF 0
ENDMDL
