MODEL 1
REMARK minimizedAffinity -3.99705052
REMARK minimizedRMSD -1
REMARK  0 active torsions:
REMARK  status: ('A' for Active; 'I' for Inactive)
ROOT
ATOM      1  C   UNL d   1      -2.869   1.138   2.165  0.00  0.00     0.078 C 
ATOM      2  C1  UNL d   1      -1.507   0.722   1.694  0.00  0.00    -0.077 A 
ATOM      3  C2  UNL d   1      -1.242   0.536   0.331  0.00  0.00    -0.001 A 
ATOM      4  C3  UNL d   1       0.027   0.139  -0.093  0.00  0.00     0.003 A 
ATOM      5  C4  UNL d   1       1.041  -0.075   0.839  0.00  0.00    -0.005 A 
ATOM      6  C5  UNL d   1       0.786   0.106   2.197  0.00  0.00     0.003 A 
ATOM      7  C6  UNL d   1      -0.483   0.502   2.623  0.00  0.00    -0.001 A 
ENDROOT
TORSDOF 0
ENDMDL
