MODEL 1
REMARK minimizedAffinity -4.96739101
REMARK minimizedRMSD -1
REMARK  0 active torsions:
REMARK  status: ('A' for Active; 'I' for Inactive)
ROOT
ATOM      1  C   UNL d   1       1.482  -1.298  -3.765  0.00  0.00     0.078 C 
ATOM      2  C1  UNL d   1       1.230  -0.877  -2.348  0.00  0.00    -0.077 A 
ATOM      3  C2  UNL d   1       1.983  -1.407  -1.294  0.00  0.00    -0.001 A 
ATOM      4  C3  UNL d   1       1.732  -1.014   0.021  0.00  0.00     0.003 A 
ATOM      5  C4  UNL d   1       0.726  -0.089   0.295  0.00  0.00    -0.005 A 
ATOM      6  C5  UNL d   1      -0.030   0.443  -0.748  0.00  0.00     0.003 A 
ATOM      7  C6  UNL d   1       0.220   0.051  -2.064  0.00  0.00    -0.001 A 
ENDROOT
TORSDOF 0
ENDMDL
