MODEL 1
REMARK minimizedAffinity -1.3058666
REMARK minimizedRMSD -1
REMARK  0 active torsions:
REMARK  status: ('A' for Active; 'I' for Inactive)
ROOT
ATOM      1  C   UNL d   1       1.092  -0.277  -2.695  0.00  0.00     0.078 C 
ATOM      2  C1  UNL d   1       0.686  -0.043  -1.270  0.00  0.00    -0.077 A 
ATOM      3  C2  UNL d   1       1.623  -0.117  -0.232  0.00  0.00    -0.001 A 
ATOM      4  C3  UNL d   1       1.230   0.093   1.090  0.00  0.00     0.003 A 
ATOM      5  C4  UNL d   1      -0.101   0.378   1.387  0.00  0.00    -0.005 A 
ATOM      6  C5  UNL d   1      -1.041   0.452   0.361  0.00  0.00     0.003 A 
ATOM      7  C6  UNL d   1      -0.650   0.241  -0.962  0.00  0.00    -0.001 A 
ENDROOT
TORSDOF 0
ENDMDL
