MODEL 1
REMARK minimizedAffinity -3.87203097
REMARK minimizedRMSD -1
REMARK  0 active torsions:
REMARK  status: ('A' for Active; 'I' for Inactive)
ROOT
ATOM      1  C   UNL d   1       3.836   0.216  -4.399  0.00  0.00     0.078 C 
ATOM      2  C1  UNL d   1       2.466  -0.246  -4.002  0.00  0.00    -0.077 A 
ATOM      3  C2  UNL d   1       1.748  -1.144  -4.801  0.00  0.00    -0.001 A 
ATOM      4  C3  UNL d   1       0.470  -1.559  -4.424  0.00  0.00     0.003 A 
ATOM      5  C4  UNL d   1      -0.102  -1.080  -3.247  0.00  0.00    -0.005 A 
ATOM      6  C5  UNL d   1       0.604  -0.184  -2.446  0.00  0.00     0.003 A 
ATOM      7  C6  UNL d   1       1.882   0.231  -2.822  0.00  0.00    -0.001 A 
ENDROOT
TORSDOF 0
ENDMDL
