MODEL 1
REMARK minimizedAffinity -3.08656716
REMARK minimizedRMSD -1
REMARK  0 active torsions:
REMARK  status: ('A' for Active; 'I' for Inactive)
ROOT
ATOM      1  C   UNL d   1       1.871  -1.725  -2.683  0.00  0.00     0.078 C 
ATOM      2  C1  UNL d   1       0.923  -0.917  -1.846  0.00  0.00    -0.077 A 
ATOM      3  C2  UNL d   1       0.852  -1.098  -0.459  0.00  0.00    -0.001 A 
ATOM      4  C3  UNL d   1      -0.041  -0.346   0.305  0.00  0.00     0.003 A 
ATOM      5  C4  UNL d   1      -0.871   0.591  -0.308  0.00  0.00    -0.005 A 
ATOM      6  C5  UNL d   1      -0.809   0.776  -1.687  0.00  0.00     0.003 A 
ATOM      7  C6  UNL d   1       0.084   0.025  -2.454  0.00  0.00    -0.001 A 
ENDROOT
TORSDOF 0
ENDMDL
