MODEL 1
REMARK minimizedAffinity -2.19027901
REMARK minimizedRMSD -1
REMARK  0 active torsions:
REMARK  status: ('A' for Active; 'I' for Inactive)
ROOT
ATOM      1  C   UNL d   1       0.745   0.290  -1.965  0.00  0.00     0.078 C 
ATOM      2  C1  UNL d   1       0.841   0.069  -0.485  0.00  0.00    -0.077 A 
ATOM      3  C2  UNL d   1       0.707   1.134   0.414  0.00  0.00    -0.001 A 
ATOM      4  C3  UNL d   1       0.809   0.914   1.789  0.00  0.00     0.003 A 
ATOM      5  C4  UNL d   1       1.046  -0.369   2.276  0.00  0.00    -0.005 A 
ATOM      6  C5  UNL d   1       1.183  -1.435   1.389  0.00  0.00     0.003 A 
ATOM      7  C6  UNL d   1       1.081  -1.217   0.014  0.00  0.00    -0.001 A 
ENDROOT
TORSDOF 0
ENDMDL
