MODEL 1
REMARK minimizedAffinity 7.86992502
REMARK minimizedRMSD -1
REMARK  2 active torsions:
REMARK  status: ('A' for Active; 'I' for Inactive)
REMARK    1  A    between atoms: C2'_3  and  C1'_4 
REMARK    2  A    between atoms: C1'_4  and  C1_5 
ROOT
ATOM      1  C1  I4B d   1       2.010   4.746   2.992  0.00  0.00    -0.075 A 
ATOM      2  C2  I4B d   1       1.909   3.439   2.585  0.00  0.00     0.003 A 
ATOM      3  C3  I4B d   1       1.091   2.531   3.301  0.00  0.00     0.002 A 
ATOM      4  C4  I4B d   1       0.436   2.958   4.438  0.00  0.00    -0.004 A 
ATOM      5  C5  I4B d   1       0.521   4.289   4.835  0.00  0.00     0.002 A 
ATOM      6  C6  I4B d   1       1.303   5.192   4.101  0.00  0.00     0.003 A 
ENDROOT
BRANCH   1   7
ATOM      7  C1' I4B d   1       2.909   5.670   2.232  0.00  0.00     0.060 C 
BRANCH   7   8
ATOM      8  C2' I4B d   1       4.325   5.451   2.724  0.00  0.00    -0.013 C 
ATOM      9  C4' I4B d   1       4.410   5.586   4.221  0.00  0.00     0.013 C 
ATOM     10  C3' I4B d   1       4.765   4.089   2.277  0.00  0.00     0.013 C 
ENDBRANCH   7   8
ENDBRANCH   1   7
TORSDOF 2
ENDMDL
