MODEL 1
REMARK minimizedAffinity 9.19866943
REMARK minimizedRMSD -1
REMARK  2 active torsions:
REMARK  status: ('A' for Active; 'I' for Inactive)
REMARK    1  A    between atoms: C2'_3  and  C1'_4 
REMARK    2  A    between atoms: C1'_4  and  C1_5 
ROOT
ATOM      1  C1  I4B d   1       3.888   0.370   0.514  0.00  0.00    -0.075 A 
ATOM      2  C2  I4B d   1       4.882   1.255   0.178  0.00  0.00     0.003 A 
ATOM      3  C3  I4B d   1       5.087   1.616  -1.176  0.00  0.00     0.002 A 
ATOM      4  C4  I4B d   1       4.313   1.035  -2.159  0.00  0.00    -0.004 A 
ATOM      5  C5  I4B d   1       3.291   0.155  -1.814  0.00  0.00     0.002 A 
ATOM      6  C6  I4B d   1       3.069  -0.170  -0.468  0.00  0.00     0.003 A 
ENDROOT
BRANCH   1   7
ATOM      7  C1' I4B d   1       3.722  -0.015   1.950  0.00  0.00     0.060 C 
BRANCH   7   8
ATOM      8  C2' I4B d   1       4.925  -0.842   2.354  0.00  0.00    -0.013 C 
ATOM      9  C4' I4B d   1       5.325  -0.563   3.779  0.00  0.00     0.013 C 
ATOM     10  C3' I4B d   1       4.578  -2.289   2.164  0.00  0.00     0.013 C 
ENDBRANCH   7   8
ENDBRANCH   1   7
TORSDOF 2
ENDMDL
