MODEL 1
REMARK minimizedAffinity 5.81013393
REMARK minimizedRMSD -1
REMARK  2 active torsions:
REMARK  status: ('A' for Active; 'I' for Inactive)
REMARK    1  A    between atoms: C2'_3  and  C1'_4 
REMARK    2  A    between atoms: C1'_4  and  C1_5 
ROOT
ATOM      1  C1  I4B d   1       3.814   1.040  -1.650  0.00  0.00    -0.075 A 
ATOM      2  C2  I4B d   1       4.883   1.811  -1.267  0.00  0.00     0.003 A 
ATOM      3  C3  I4B d   1       5.179   1.988   0.107  0.00  0.00     0.002 A 
ATOM      4  C4  I4B d   1       4.355   1.420   1.058  0.00  0.00    -0.004 A 
ATOM      5  C5  I4B d   1       3.286   0.620   0.667  0.00  0.00     0.002 A 
ATOM      6  C6  I4B d   1       3.020   0.418  -0.695  0.00  0.00     0.003 A 
ENDROOT
BRANCH   1   7
ATOM      7  C1' I4B d   1       3.511   0.901  -3.108  0.00  0.00     0.060 C 
BRANCH   7   8
ATOM      8  C2' I4B d   1       3.991  -0.464  -3.557  0.00  0.00    -0.013 C 
ATOM      9  C4' I4B d   1       2.832  -1.374  -3.869  0.00  0.00     0.013 C 
ATOM     10  C3' I4B d   1       4.869  -0.273  -4.758  0.00  0.00     0.013 C 
ENDBRANCH   7   8
ENDBRANCH   1   7
TORSDOF 2
ENDMDL
