MODEL 1
REMARK minimizedAffinity 17.6619377
REMARK minimizedRMSD -1
REMARK  2 active torsions:
REMARK  status: ('A' for Active; 'I' for Inactive)
REMARK    1  A    between atoms: C2'_3  and  C1'_4 
REMARK    2  A    between atoms: C1'_4  and  C1_5 
ROOT
ATOM      1  C1  I4B d   1      -4.979  -0.528  -0.767  0.00  0.00    -0.075 A 
ATOM      2  C2  I4B d   1      -3.649  -0.780  -0.994  0.00  0.00     0.003 A 
ATOM      3  C3  I4B d   1      -2.663   0.121  -0.525  0.00  0.00     0.002 A 
ATOM      4  C4  I4B d   1      -3.051   1.279   0.118  0.00  0.00    -0.004 A 
ATOM      5  C5  I4B d   1      -4.399   1.521   0.367  0.00  0.00     0.002 A 
ATOM      6  C6  I4B d   1      -5.369   0.606  -0.067  0.00  0.00     0.003 A 
ENDROOT
BRANCH   1   7
ATOM      7  C1' I4B d   1      -5.996  -1.485  -1.305  0.00  0.00     0.060 C 
BRANCH   7   8
ATOM      8  C2' I4B d   1      -5.996  -1.365  -2.816  0.00  0.00    -0.013 C 
ATOM      9  C4' I4B d   1      -4.841  -0.526  -3.296  0.00  0.00     0.013 C 
ATOM     10  C3' I4B d   1      -5.935  -2.749  -3.390  0.00  0.00     0.013 C 
ENDBRANCH   7   8
ENDBRANCH   1   7
TORSDOF 2
ENDMDL
