MODEL 1
REMARK minimizedAffinity 8.74181652
REMARK minimizedRMSD -1
REMARK  2 active torsions:
REMARK  status: ('A' for Active; 'I' for Inactive)
REMARK    1  A    between atoms: C2'_3  and  C1'_4 
REMARK    2  A    between atoms: C1'_4  and  C1_5 
ROOT
ATOM      1  C1  I4B d   1       3.911   1.098  -0.293  0.00  0.00    -0.075 A 
ATOM      2  C2  I4B d   1       4.971   1.642   0.390  0.00  0.00     0.003 A 
ATOM      3  C3  I4B d   1       6.000   2.316  -0.312  0.00  0.00     0.002 A 
ATOM      4  C4  I4B d   1       5.955   2.377  -1.690  0.00  0.00    -0.004 A 
ATOM      5  C5  I4B d   1       4.869   1.845  -2.378  0.00  0.00     0.002 A 
ATOM      6  C6  I4B d   1       3.834   1.212  -1.675  0.00  0.00     0.003 A 
ENDROOT
BRANCH   1   7
ATOM      7  C1' I4B d   1       2.859   0.365   0.477  0.00  0.00     0.060 C 
BRANCH   7   8
ATOM      8  C2' I4B d   1       3.451  -0.037   1.812  0.00  0.00    -0.013 C 
ATOM      9  C4' I4B d   1       2.695   0.589   2.955  0.00  0.00     0.013 C 
ATOM     10  C3' I4B d   1       3.424  -1.534   1.900  0.00  0.00     0.013 C 
ENDBRANCH   7   8
ENDBRANCH   1   7
TORSDOF 2
ENDMDL
