MODEL 1
REMARK minimizedAffinity 9.25333214
REMARK minimizedRMSD -1
REMARK  2 active torsions:
REMARK  status: ('A' for Active; 'I' for Inactive)
REMARK    1  A    between atoms: C2'_3  and  C1'_4 
REMARK    2  A    between atoms: C1'_4  and  C1_5 
ROOT
ATOM      1  C1  I4B d   1       3.860   1.626  -0.009  0.00  0.00    -0.075 A 
ATOM      2  C2  I4B d   1       3.868   1.438  -1.368  0.00  0.00     0.003 A 
ATOM      3  C3  I4B d   1       4.964   1.889  -2.143  0.00  0.00     0.002 A 
ATOM      4  C4  I4B d   1       5.999   2.564  -1.529  0.00  0.00    -0.004 A 
ATOM      5  C5  I4B d   1       6.000   2.734  -0.148  0.00  0.00     0.002 A 
ATOM      6  C6  I4B d   1       4.929   2.251   0.620  0.00  0.00     0.003 A 
ENDROOT
BRANCH   1   7
ATOM      7  C1' I4B d   1       2.672   1.167   0.775  0.00  0.00     0.060 C 
BRANCH   7   8
ATOM      8  C2' I4B d   1       2.553  -0.334   0.605  0.00  0.00    -0.013 C 
ATOM      9  C4' I4B d   1       2.879  -1.056   1.886  0.00  0.00     0.013 C 
ATOM     10  C3' I4B d   1       1.156  -0.640   0.152  0.00  0.00     0.013 C 
ENDBRANCH   7   8
ENDBRANCH   1   7
TORSDOF 2
ENDMDL
