MODEL 1
REMARK minimizedAffinity 10.5493984
REMARK minimizedRMSD -1
REMARK  2 active torsions:
REMARK  status: ('A' for Active; 'I' for Inactive)
REMARK    1  A    between atoms: C2'_3  and  C1'_4 
REMARK    2  A    between atoms: C1'_4  and  C1_5 
ROOT
ATOM      1  C1  I4B d   1       2.597   1.952   1.469  0.00  0.00    -0.075 A 
ATOM      2  C2  I4B d   1       1.912   2.142   0.295  0.00  0.00     0.003 A 
ATOM      3  C3  I4B d   1       0.915   3.144   0.206  0.00  0.00     0.002 A 
ATOM      4  C4  I4B d   1       0.603   3.894   1.322  0.00  0.00    -0.004 A 
ATOM      5  C5  I4B d   1       1.315   3.715   2.504  0.00  0.00     0.002 A 
ATOM      6  C6  I4B d   1       2.326   2.747   2.576  0.00  0.00     0.003 A 
ENDROOT
BRANCH   1   7
ATOM      7  C1' I4B d   1       3.620   0.863   1.539  0.00  0.00     0.060 C 
BRANCH   7   8
ATOM      8  C2' I4B d   1       3.225  -0.078   2.658  0.00  0.00    -0.013 C 
ATOM      9  C4' I4B d   1       2.592  -1.334   2.118  0.00  0.00     0.013 C 
ATOM     10  C3' I4B d   1       4.455  -0.392   3.456  0.00  0.00     0.013 C 
ENDBRANCH   7   8
ENDBRANCH   1   7
TORSDOF 2
ENDMDL
