MODEL 1
REMARK minimizedAffinity -0.819307327
REMARK minimizedRMSD -1
REMARK  0 active torsions:
REMARK  status: ('A' for Active; 'I' for Inactive)
ROOT
ATOM      1  C1  BNZ d   1       3.200  -1.877   3.511  0.00  0.00     0.000 A 
ATOM      2  C2  BNZ d   1       4.537  -2.100   3.703  0.00  0.00     0.000 A 
ATOM      3  C3  BNZ d   1       5.020  -2.440   4.935  0.00  0.00     0.000 A 
ATOM      4  C4  BNZ d   1       4.173  -2.517   5.982  0.00  0.00     0.000 A 
ATOM      5  C5  BNZ d   1       2.823  -2.286   5.807  0.00  0.00     0.000 A 
ATOM      6  C6  BNZ d   1       2.335  -1.982   4.557  0.00  0.00     0.000 A 
ENDROOT
TORSDOF 0
ENDMDL
