MODEL 1
REMARK minimizedAffinity 7.15480089
REMARK minimizedRMSD -1
REMARK  0 active torsions:
REMARK  status: ('A' for Active; 'I' for Inactive)
ROOT
ATOM      1  C1  BNZ d   1       4.367  -2.148   3.656  0.00  0.00     0.000 A 
ATOM      2  C2  BNZ d   1       3.492  -1.749   2.680  0.00  0.00     0.000 A 
ATOM      3  C3  BNZ d   1       2.212  -1.386   2.994  0.00  0.00     0.000 A 
ATOM      4  C4  BNZ d   1       1.797  -1.460   4.274  0.00  0.00     0.000 A 
ATOM      5  C5  BNZ d   1       2.664  -1.869   5.268  0.00  0.00     0.000 A 
ATOM      6  C6  BNZ d   1       3.963  -2.196   4.955  0.00  0.00     0.000 A 
ENDROOT
TORSDOF 0
ENDMDL
