MODEL 1
REMARK minimizedAffinity 3.22073984
REMARK minimizedRMSD -1
REMARK  0 active torsions:
REMARK  status: ('A' for Active; 'I' for Inactive)
ROOT
ATOM      1  C1  BNZ d   1      -5.000   4.328   2.391  0.00  0.00     0.000 A 
ATOM      2  C2  BNZ d   1      -3.832   3.924   2.981  0.00  0.00     0.000 A 
ATOM      3  C3  BNZ d   1      -2.778   3.495   2.224  0.00  0.00     0.000 A 
ATOM      4  C4  BNZ d   1      -2.906   3.433   0.883  0.00  0.00     0.000 A 
ATOM      5  C5  BNZ d   1      -4.081   3.828   0.274  0.00  0.00     0.000 A 
ATOM      6  C6  BNZ d   1      -5.126   4.296   1.036  0.00  0.00     0.000 A 
ENDROOT
TORSDOF 0
ENDMDL
