MODEL 1
REMARK minimizedAffinity -1.67031288
REMARK minimizedRMSD -1
REMARK  0 active torsions:
REMARK  status: ('A' for Active; 'I' for Inactive)
ROOT
ATOM      1  C1  BNZ d   1       3.570   5.625  -3.751  0.00  0.00     0.000 A 
ATOM      2  C2  BNZ d   1       4.717   5.686  -4.497  0.00  0.00     0.000 A 
ATOM      3  C3  BNZ d   1       5.934   5.851  -3.897  0.00  0.00     0.000 A 
ATOM      4  C4  BNZ d   1       5.999   5.996  -2.558  0.00  0.00     0.000 A 
ATOM      5  C5  BNZ d   1       4.851   5.947  -1.793  0.00  0.00     0.000 A 
ATOM      6  C6  BNZ d   1       3.632   5.741  -2.396  0.00  0.00     0.000 A 
ENDROOT
TORSDOF 0
ENDMDL
