MODEL 1
REMARK minimizedAffinity 8.47641277
REMARK minimizedRMSD -1
REMARK  0 active torsions:
REMARK  status: ('A' for Active; 'I' for Inactive)
ROOT
ATOM      1  C1  BNZ d   1       3.030  -3.620   4.174  0.00  0.00     0.000 A 
ATOM      2  C2  BNZ d   1       2.270  -2.850   3.334  0.00  0.00     0.000 A 
ATOM      3  C3  BNZ d   1       2.007  -1.542   3.629  0.00  0.00     0.000 A 
ATOM      4  C4  BNZ d   1       2.471  -1.016   4.781  0.00  0.00     0.000 A 
ATOM      5  C5  BNZ d   1       3.232  -1.781   5.642  0.00  0.00     0.000 A 
ATOM      6  C6  BNZ d   1       3.527  -3.087   5.323  0.00  0.00     0.000 A 
ENDROOT
TORSDOF 0
ENDMDL
