MODEL 1
REMARK minimizedAffinity -0.634909213
REMARK minimizedRMSD -1
REMARK  0 active torsions:
REMARK  status: ('A' for Active; 'I' for Inactive)
ROOT
ATOM      1  C1  BNZ d   1       2.979  -6.000  -1.132  0.00  0.00     0.000 A 
ATOM      2  C2  BNZ d   1       2.602  -4.820  -0.547  0.00  0.00     0.000 A 
ATOM      3  C3  BNZ d   1       2.902  -3.622  -1.133  0.00  0.00     0.000 A 
ATOM      4  C4  BNZ d   1       3.613  -3.604  -2.279  0.00  0.00     0.000 A 
ATOM      5  C5  BNZ d   1       4.008  -4.785  -2.875  0.00  0.00     0.000 A 
ATOM      6  C6  BNZ d   1       3.670  -5.990  -2.304  0.00  0.00     0.000 A 
ENDROOT
TORSDOF 0
ENDMDL
