MODEL 1
REMARK minimizedAffinity 8.58300591
REMARK minimizedRMSD -1
REMARK  0 active torsions:
REMARK  status: ('A' for Active; 'I' for Inactive)
ROOT
ATOM      1  C1  BNZ d   1       3.273  -1.010   1.931  0.00  0.00     0.000 A 
ATOM      2  C2  BNZ d   1       3.533  -2.057   2.774  0.00  0.00     0.000 A 
ATOM      3  C3  BNZ d   1       2.750  -2.283   3.872  0.00  0.00     0.000 A 
ATOM      4  C4  BNZ d   1       1.735  -1.438   4.147  0.00  0.00     0.000 A 
ATOM      5  C5  BNZ d   1       1.466  -0.372   3.311  0.00  0.00     0.000 A 
ATOM      6  C6  BNZ d   1       2.232  -0.171   2.186  0.00  0.00     0.000 A 
ENDROOT
TORSDOF 0
ENDMDL
