MODEL 1
REMARK minimizedAffinity 1.86572957
REMARK minimizedRMSD -1
REMARK  0 active torsions:
REMARK  status: ('A' for Active; 'I' for Inactive)
ROOT
ATOM      1  C1  BNZ d   1       1.325  -1.587   3.410  0.00  0.00     0.000 A 
ATOM      2  C2  BNZ d   1       2.045  -2.621   3.946  0.00  0.00     0.000 A 
ATOM      3  C3  BNZ d   1       3.409  -2.561   4.018  0.00  0.00     0.000 A 
ATOM      4  C4  BNZ d   1       4.052  -1.486   3.518  0.00  0.00     0.000 A 
ATOM      5  C5  BNZ d   1       3.341  -0.439   2.967  0.00  0.00     0.000 A 
ATOM      6  C6  BNZ d   1       1.966  -0.486   2.931  0.00  0.00     0.000 A 
ENDROOT
TORSDOF 0
ENDMDL
