MODEL 1
REMARK minimizedAffinity 4.76681948
REMARK minimizedRMSD -1
REMARK  0 active torsions:
REMARK  status: ('A' for Active; 'I' for Inactive)
ROOT
ATOM      1  C1  BNZ d   1       1.639  -1.816  -1.139  0.00  0.00     0.000 A 
ATOM      2  C2  BNZ d   1       0.320  -1.759  -1.501  0.00  0.00     0.000 A 
ATOM      3  C3  BNZ d   1      -0.604  -1.165  -0.687  0.00  0.00     0.000 A 
ATOM      4  C4  BNZ d   1      -0.215  -0.665   0.504  0.00  0.00     0.000 A 
ATOM      5  C5  BNZ d   1       1.110  -0.723   0.887  0.00  0.00     0.000 A 
ATOM      6  C6  BNZ d   1       2.044  -1.287   0.048  0.00  0.00     0.000 A 
ENDROOT
TORSDOF 0
ENDMDL
