MODEL 1
REMARK minimizedAffinity 7.62780046
REMARK minimizedRMSD -1
REMARK  0 active torsions:
REMARK  status: ('A' for Active; 'I' for Inactive)
ROOT
ATOM      1  N1  IND d   1       5.249   3.796   3.060  0.00  0.00    -0.196 N 
ATOM      2  C2  IND d   1       5.350   4.964   3.763  0.00  0.00     0.054 A 
ATOM      3  C3  IND d   1       4.896   6.000   3.023  0.00  0.00    -0.031 A 
ATOM      4  C4  IND d   1       3.848   5.995   0.671  0.00  0.00     0.051 A 
ATOM      5  C5  IND d   1       3.578   5.171  -0.386  0.00  0.00    -0.031 A 
ATOM      6  C6  IND d   1       3.853   3.820  -0.346  0.00  0.00     0.015 A 
ATOM      7  C7  IND d   1       4.402   3.237   0.761  0.00  0.00    -0.016 A 
ATOM      8  C8  IND d   1       4.684   4.071   1.833  0.00  0.00    -0.047 A 
ATOM      9  C9  IND d   1       4.446   5.450   1.783  0.00  0.00    -0.096 A 
ATOM     10  HN1 IND d   1       5.496   3.021   3.337  0.00  0.00     0.298 HD
ENDROOT
TORSDOF 0
ENDMDL
