MODEL 1
REMARK minimizedAffinity 4.52188253
REMARK minimizedRMSD -1
REMARK  0 active torsions:
REMARK  status: ('A' for Active; 'I' for Inactive)
ROOT
ATOM      1  N1  IND d   1       3.729   4.200  -1.750  0.00  0.00    -0.196 N 
ATOM      2  C2  IND d   1       4.478   5.313  -2.011  0.00  0.00     0.054 A 
ATOM      3  C3  IND d   1       4.713   6.000  -0.870  0.00  0.00    -0.031 A 
ATOM      4  C4  IND d   1       4.050   5.426   1.550  0.00  0.00     0.051 A 
ATOM      5  C5  IND d   1       3.328   4.529   2.286  0.00  0.00    -0.031 A 
ATOM      6  C6  IND d   1       2.693   3.452   1.702  0.00  0.00     0.015 A 
ATOM      7  C7  IND d   1       2.765   3.226   0.357  0.00  0.00    -0.016 A 
ATOM      8  C8  IND d   1       3.491   4.139  -0.394  0.00  0.00    -0.047 A 
ATOM      9  C9  IND d   1       4.103   5.257   0.187  0.00  0.00    -0.096 A 
ATOM     10  HN1 IND d   1       3.453   3.632  -2.334  0.00  0.00     0.298 HD
ENDROOT
TORSDOF 0
ENDMDL
