MODEL 1
REMARK minimizedAffinity 3.80119848
REMARK minimizedRMSD -1
REMARK  0 active torsions:
REMARK  status: ('A' for Active; 'I' for Inactive)
ROOT
ATOM      1  N1  IND d   1       4.805   1.795   2.847  0.00  0.00    -0.196 N 
ATOM      2  C2  IND d   1       5.169   2.992   3.398  0.00  0.00     0.054 A 
ATOM      3  C3  IND d   1       5.609   2.813   4.664  0.00  0.00    -0.031 A 
ATOM      4  C4  IND d   1       5.912   0.631   5.997  0.00  0.00     0.051 A 
ATOM      5  C5  IND d   1       5.680  -0.714   5.928  0.00  0.00    -0.031 A 
ATOM      6  C6  IND d   1       5.136  -1.304   4.805  0.00  0.00     0.015 A 
ATOM      7  C7  IND d   1       4.813  -0.569   3.700  0.00  0.00    -0.016 A 
ATOM      8  C8  IND d   1       5.040   0.798   3.769  0.00  0.00    -0.047 A 
ATOM      9  C9  IND d   1       5.552   1.409   4.921  0.00  0.00    -0.096 A 
ATOM     10  HN1 IND d   1       4.482   1.683   2.058  0.00  0.00     0.298 HD
ENDROOT
TORSDOF 0
ENDMDL
