MODEL 1
REMARK minimizedAffinity 1.41944921
REMARK minimizedRMSD -1
REMARK  0 active torsions:
REMARK  status: ('A' for Active; 'I' for Inactive)
ROOT
ATOM      1  N1  IND d   1       5.129   0.126   3.844  0.00  0.00    -0.196 N 
ATOM      2  C2  IND d   1       5.403   0.826   4.985  0.00  0.00     0.054 A 
ATOM      3  C3  IND d   1       5.738  -0.018   5.987  0.00  0.00    -0.031 A 
ATOM      4  C4  IND d   1       5.999  -2.579   5.948  0.00  0.00     0.051 A 
ATOM      5  C5  IND d   1       5.821  -3.668   5.142  0.00  0.00    -0.031 A 
ATOM      6  C6  IND d   1       5.397  -3.545   3.834  0.00  0.00     0.015 A 
ATOM      7  C7  IND d   1       5.146  -2.323   3.279  0.00  0.00    -0.016 A 
ATOM      8  C8  IND d   1       5.319  -1.215   4.097  0.00  0.00    -0.047 A 
ATOM      9  C9  IND d   1       5.707  -1.336   5.437  0.00  0.00    -0.096 A 
ATOM     10  HN1 IND d   1       4.881   0.465   3.094  0.00  0.00     0.298 HD
ENDROOT
TORSDOF 0
ENDMDL
