MODEL 1
REMARK minimizedAffinity -1.75024962
REMARK minimizedRMSD -1
REMARK  0 active torsions:
REMARK  status: ('A' for Active; 'I' for Inactive)
ROOT
ATOM      1  N1  IND d   1       4.122   5.604   0.577  0.00  0.00    -0.196 N 
ATOM      2  C2  IND d   1       3.966   4.490  -0.200  0.00  0.00     0.054 A 
ATOM      3  C3  IND d   1       4.502   3.410   0.411  0.00  0.00    -0.031 A 
ATOM      4  C4  IND d   1       5.596   3.222   2.734  0.00  0.00     0.051 A 
ATOM      5  C5  IND d   1       5.999   3.977   3.800  0.00  0.00    -0.031 A 
ATOM      6  C6  IND d   1       5.790   5.340   3.848  0.00  0.00     0.015 A 
ATOM      7  C7  IND d   1       5.157   6.000   2.833  0.00  0.00    -0.016 A 
ATOM      8  C8  IND d   1       4.753   5.237   1.746  0.00  0.00    -0.047 A 
ATOM      9  C9  IND d   1       5.001   3.860   1.672  0.00  0.00    -0.096 A 
ATOM     10  HN1 IND d   1       3.869   6.399   0.371  0.00  0.00     0.298 HD
ENDROOT
TORSDOF 0
ENDMDL
