MODEL 1
REMARK minimizedAffinity -4.56539154
REMARK minimizedRMSD -1
REMARK  0 active torsions:
REMARK  status: ('A' for Active; 'I' for Inactive)
ROOT
ATOM      1  N1  IND d   1       5.834   1.580   4.697  0.00  0.00    -0.196 N 
ATOM      2  C2  IND d   1       5.620   0.455   3.951  0.00  0.00     0.054 A 
ATOM      3  C3  IND d   1       5.464   0.777   2.647  0.00  0.00    -0.031 A 
ATOM      4  C4  IND d   1       5.622   3.077   1.501  0.00  0.00     0.051 A 
ATOM      5  C5  IND d   1       5.765   4.409   1.773  0.00  0.00    -0.031 A 
ATOM      6  C6  IND d   1       5.945   4.875   3.060  0.00  0.00     0.015 A 
ATOM      7  C7  IND d   1       6.000   4.021   4.125  0.00  0.00    -0.016 A 
ATOM      8  C8  IND d   1       5.848   2.669   3.853  0.00  0.00    -0.047 A 
ATOM      9  C9  IND d   1       5.623   2.194   2.555  0.00  0.00    -0.096 A 
ATOM     10  HN1 IND d   1       5.942   1.604   5.549  0.00  0.00     0.298 HD
ENDROOT
TORSDOF 0
ENDMDL
