MODEL 1
REMARK minimizedAffinity 12.8800974
REMARK minimizedRMSD -1
REMARK  0 active torsions:
REMARK  status: ('A' for Active; 'I' for Inactive)
ROOT
ATOM      1  N1  IND d   1       1.114  -0.354  -1.640  0.00  0.00    -0.196 N 
ATOM      2  C2  IND d   1       0.860  -0.944  -0.434  0.00  0.00     0.054 A 
ATOM      3  C3  IND d   1       0.938  -2.289  -0.542  0.00  0.00    -0.031 A 
ATOM      4  C4  IND d   1       1.567  -3.732  -2.579  0.00  0.00     0.051 A 
ATOM      5  C5  IND d   1       1.848  -3.647  -3.914  0.00  0.00    -0.031 A 
ATOM      6  C6  IND d   1       1.902  -2.435  -4.572  0.00  0.00     0.015 A 
ATOM      7  C7  IND d   1       1.688  -1.257  -3.914  0.00  0.00    -0.016 A 
ATOM      8  C8  IND d   1       1.396  -1.340  -2.560  0.00  0.00    -0.047 A 
ATOM      9  C9  IND d   1       1.297  -2.570  -1.896  0.00  0.00    -0.096 A 
ATOM     10  HN1 IND d   1       1.100   0.491  -1.798  0.00  0.00     0.298 HD
ENDROOT
TORSDOF 0
ENDMDL
