MODEL 1
REMARK minimizedAffinity 5.91669798
REMARK minimizedRMSD -1
REMARK  0 active torsions:
REMARK  status: ('A' for Active; 'I' for Inactive)
ROOT
ATOM      1  N1  IND d   1       4.951   3.784   3.209  0.00  0.00    -0.196 N 
ATOM      2  C2  IND d   1       5.257   4.965   3.826  0.00  0.00     0.054 A 
ATOM      3  C3  IND d   1       5.082   6.000   2.975  0.00  0.00    -0.031 A 
ATOM      4  C4  IND d   1       4.203   5.996   0.555  0.00  0.00     0.051 A 
ATOM      5  C5  IND d   1       3.828   5.154  -0.454  0.00  0.00    -0.031 A 
ATOM      6  C6  IND d   1       3.804   3.784  -0.288  0.00  0.00     0.015 A 
ATOM      7  C7  IND d   1       4.146   3.204   0.901  0.00  0.00    -0.016 A 
ATOM      8  C8  IND d   1       4.535   4.056   1.924  0.00  0.00    -0.047 A 
ATOM      9  C9  IND d   1       4.601   5.444   1.749  0.00  0.00    -0.096 A 
ATOM     10  HN1 IND d   1       5.008   3.003   3.564  0.00  0.00     0.298 HD
ENDROOT
TORSDOF 0
ENDMDL
