MODEL 1
REMARK minimizedAffinity 3.96279526
REMARK minimizedRMSD -1
REMARK  0 active torsions:
REMARK  status: ('A' for Active; 'I' for Inactive)
ROOT
ATOM      1  N1  IND d   1       0.108  -3.707   0.281  0.00  0.00    -0.196 N 
ATOM      2  C2  IND d   1       0.404  -2.379   0.155  0.00  0.00     0.054 A 
ATOM      3  C3  IND d   1      -0.597  -1.732  -0.483  0.00  0.00    -0.031 A 
ATOM      4  C4  IND d   1      -2.858  -2.638  -1.317  0.00  0.00     0.051 A 
ATOM      5  C5  IND d   1      -3.568  -3.797  -1.460  0.00  0.00    -0.031 A 
ATOM      6  C6  IND d   1      -3.080  -5.010  -1.018  0.00  0.00     0.015 A 
ATOM      7  C7  IND d   1      -1.864  -5.107  -0.404  0.00  0.00    -0.016 A 
ATOM      8  C8  IND d   1      -1.137  -3.933  -0.264  0.00  0.00    -0.047 A 
ATOM      9  C9  IND d   1      -1.608  -2.706  -0.749  0.00  0.00    -0.096 A 
ATOM     10  HN1 IND d   1       0.614  -4.302   0.641  0.00  0.00     0.298 HD
ENDROOT
TORSDOF 0
ENDMDL
