MODEL 1
REMARK minimizedAffinity 1.37291586
REMARK minimizedRMSD -1
REMARK  0 active torsions:
REMARK  status: ('A' for Active; 'I' for Inactive)
ROOT
ATOM      1  N1  IND d   1      -0.162  -1.402  -0.684  0.00  0.00    -0.196 N 
ATOM      2  C2  IND d   1       0.988  -2.075  -0.379  0.00  0.00     0.054 A 
ATOM      3  C3  IND d   1       0.740  -3.399  -0.259  0.00  0.00    -0.031 A 
ATOM      4  C4  IND d   1      -1.457  -4.691  -0.620  0.00  0.00     0.051 A 
ATOM      5  C5  IND d   1      -2.787  -4.504  -0.875  0.00  0.00    -0.031 A 
ATOM      6  C6  IND d   1      -3.320  -3.249  -1.086  0.00  0.00     0.015 A 
ATOM      7  C7  IND d   1      -2.537  -2.130  -1.061  0.00  0.00    -0.016 A 
ATOM      8  C8  IND d   1      -1.188  -2.314  -0.796  0.00  0.00    -0.047 A 
ATOM      9  C9  IND d   1      -0.648  -3.582  -0.539  0.00  0.00    -0.096 A 
ATOM     10  HN1 IND d   1      -0.232  -0.551  -0.788  0.00  0.00     0.298 HD
ENDROOT
TORSDOF 0
ENDMDL
