MODEL 1
REMARK minimizedAffinity 2.15799809
REMARK minimizedRMSD -1
REMARK  0 active torsions:
REMARK  status: ('A' for Active; 'I' for Inactive)
ROOT
ATOM      1  N1  IND d   1       0.014  -1.019  -0.527  0.00  0.00    -0.196 N 
ATOM      2  C2  IND d   1       1.018  -1.931  -0.357  0.00  0.00     0.054 A 
ATOM      3  C3  IND d   1       0.541  -3.187  -0.501  0.00  0.00    -0.031 A 
ATOM      4  C4  IND d   1      -1.830  -3.977  -1.116  0.00  0.00     0.051 A 
ATOM      5  C5  IND d   1      -3.098  -3.513  -1.333  0.00  0.00    -0.031 A 
ATOM      6  C6  IND d   1      -3.398  -2.167  -1.294  0.00  0.00     0.015 A 
ATOM      7  C7  IND d   1      -2.436  -1.229  -1.047  0.00  0.00    -0.016 A 
ATOM      8  C8  IND d   1      -1.149  -1.697  -0.819  0.00  0.00    -0.047 A 
ATOM      9  C9  IND d   1      -0.847  -3.065  -0.815  0.00  0.00    -0.096 A 
ATOM     10  HN1 IND d   1       0.095  -0.165  -0.462  0.00  0.00     0.298 HD
ENDROOT
TORSDOF 0
ENDMDL
