MODEL 1
REMARK minimizedAffinity 2.02646375
REMARK minimizedRMSD -1
REMARK  0 active torsions:
REMARK  status: ('A' for Active; 'I' for Inactive)
ROOT
ATOM      1  N1  IND d   1       5.954   2.314   3.386  0.00  0.00    -0.196 N 
ATOM      2  C2  IND d   1       5.998   3.171   4.451  0.00  0.00     0.054 A 
ATOM      3  C3  IND d   1       5.985   2.479   5.612  0.00  0.00    -0.031 A 
ATOM      4  C4  IND d   1       5.997  -0.066   6.000  0.00  0.00     0.051 A 
ATOM      5  C5  IND d   1       5.922  -1.258   5.334  0.00  0.00    -0.031 A 
ATOM      6  C6  IND d   1       5.856  -1.321   3.957  0.00  0.00     0.015 A 
ATOM      7  C7  IND d   1       5.874  -0.190   3.191  0.00  0.00    -0.016 A 
ATOM      8  C8  IND d   1       5.942   1.022   3.864  0.00  0.00    -0.047 A 
ATOM      9  C9  IND d   1       5.966   1.094   5.262  0.00  0.00    -0.096 A 
ATOM     10  HN1 IND d   1       5.937   2.544   2.558  0.00  0.00     0.298 HD
ENDROOT
TORSDOF 0
ENDMDL
