MODEL 1
REMARK minimizedAffinity 4.38792849
REMARK minimizedRMSD -1
REMARK  0 active torsions:
REMARK  status: ('A' for Active; 'I' for Inactive)
ROOT
ATOM      1  N1  IND d   1       5.252   4.160   3.005  0.00  0.00    -0.196 N 
ATOM      2  C2  IND d   1       4.649   5.120   3.770  0.00  0.00     0.054 A 
ATOM      3  C3  IND d   1       3.987   6.000   2.986  0.00  0.00    -0.031 A 
ATOM      4  C4  IND d   1       3.674   6.000   0.431  0.00  0.00     0.051 A 
ATOM      5  C5  IND d   1       4.067   5.345  -0.703  0.00  0.00    -0.031 A 
ATOM      6  C6  IND d   1       4.889   4.238  -0.657  0.00  0.00     0.015 A 
ATOM      7  C7  IND d   1       5.342   3.735   0.530  0.00  0.00    -0.016 A 
ATOM      8  C8  IND d   1       4.951   4.402   1.682  0.00  0.00    -0.047 A 
ATOM      9  C9  IND d   1       4.151   5.551   1.639  0.00  0.00    -0.096 A 
ATOM     10  HN1 IND d   1       5.737   3.515   3.300  0.00  0.00     0.298 HD
ENDROOT
TORSDOF 0
ENDMDL
