MODEL 1
REMARK minimizedAffinity 3.16152024
REMARK minimizedRMSD -1
REMARK  0 active torsions:
REMARK  status: ('A' for Active; 'I' for Inactive)
ROOT
ATOM      1  N1  IND d   1      -1.632  -1.228   3.746  0.00  0.00    -0.196 N 
ATOM      2  C2  IND d   1      -2.925  -1.370   4.166  0.00  0.00     0.054 A 
ATOM      3  C3  IND d   1      -3.774  -1.255   3.120  0.00  0.00    -0.031 A 
ATOM      4  C4  IND d   1      -3.255  -0.934   0.619  0.00  0.00     0.051 A 
ATOM      5  C5  IND d   1      -2.221  -0.714  -0.247  0.00  0.00    -0.031 A 
ATOM      6  C6  IND d   1      -0.911  -0.655   0.182  0.00  0.00     0.015 A 
ATOM      7  C7  IND d   1      -0.584  -0.827   1.498  0.00  0.00    -0.016 A 
ATOM      8  C8  IND d   1      -1.632  -1.043   2.381  0.00  0.00    -0.047 A 
ATOM      9  C9  IND d   1      -2.967  -1.061   1.958  0.00  0.00    -0.096 A 
ATOM     10  HN1 IND d   1      -0.935  -1.250   4.250  0.00  0.00     0.298 HD
ENDROOT
TORSDOF 0
ENDMDL
