MODEL 1
REMARK minimizedAffinity 8.0731163
REMARK minimizedRMSD -1
REMARK  0 active torsions:
REMARK  status: ('A' for Active; 'I' for Inactive)
ROOT
ATOM      1  N1  IND d   1       4.555   5.147   0.314  0.00  0.00    -0.196 N 
ATOM      2  C2  IND d   1       3.761   4.084  -0.015  0.00  0.00     0.054 A 
ATOM      3  C3  IND d   1       3.444   3.373   1.091  0.00  0.00    -0.031 A 
ATOM      4  C4  IND d   1       4.035   3.833   3.554  0.00  0.00     0.051 A 
ATOM      5  C5  IND d   1       4.771   4.667   4.348  0.00  0.00    -0.031 A 
ATOM      6  C6  IND d   1       5.485   5.727   3.827  0.00  0.00     0.015 A 
ATOM      7  C7  IND d   1       5.480   6.000   2.489  0.00  0.00    -0.016 A 
ATOM      8  C8  IND d   1       4.740   5.151   1.679  0.00  0.00    -0.047 A 
ATOM      9  C9  IND d   1       4.047   4.048   2.196  0.00  0.00    -0.096 A 
ATOM     10  HN1 IND d   1       4.884   5.717  -0.239  0.00  0.00     0.298 HD
ENDROOT
TORSDOF 0
ENDMDL
