MODEL 1
REMARK minimizedAffinity 3.78583384
REMARK minimizedRMSD -1
REMARK  0 active torsions:
REMARK  status: ('A' for Active; 'I' for Inactive)
ROOT
ATOM      1  N1  IND d   1       4.553   4.804   3.211  0.00  0.00    -0.196 N 
ATOM      2  C2  IND d   1       5.375   5.788   3.685  0.00  0.00     0.054 A 
ATOM      3  C3  IND d   1       6.000   5.377   4.812  0.00  0.00    -0.031 A 
ATOM      4  C4  IND d   1       5.899   3.095   5.998  0.00  0.00     0.051 A 
ATOM      5  C5  IND d   1       5.258   1.888   5.960  0.00  0.00    -0.031 A 
ATOM      6  C6  IND d   1       4.332   1.585   4.983  0.00  0.00     0.015 A 
ATOM      7  C7  IND d   1       4.020   2.477   3.996  0.00  0.00    -0.016 A 
ATOM      8  C8  IND d   1       4.664   3.705   4.035  0.00  0.00    -0.047 A 
ATOM      9  C9  IND d   1       5.573   4.035   5.049  0.00  0.00    -0.096 A 
ATOM     10  HN1 IND d   1       4.050   4.862   2.516  0.00  0.00     0.298 HD
ENDROOT
TORSDOF 0
ENDMDL
