MODEL 1
REMARK minimizedAffinity 3.96203065
REMARK minimizedRMSD -1
REMARK  0 active torsions:
REMARK  status: ('A' for Active; 'I' for Inactive)
ROOT
ATOM      1  C   UNL d   1      -5.982   3.680  -2.309  0.00  0.00     0.020 A 
ATOM      2  C1  UNL d   1      -5.223   2.829  -1.507  0.00  0.00     0.020 A 
ATOM      3  C2  UNL d   1      -4.481   1.799  -2.088  0.00  0.00     0.034 A 
ATOM      4  C3  UNL d   1      -4.496   1.618  -3.476  0.00  0.00     0.017 A 
ATOM      5  C4  UNL d   1      -5.259   2.472  -4.281  0.00  0.00     0.017 A 
ATOM      6  C5  UNL d   1      -6.000   3.502  -3.693  0.00  0.00     0.034 A 
ATOM      7 Cl   UNL d   1      -5.327   2.311  -6.000  0.00  0.00    -0.070 Cl
ATOM      8 Cl1  UNL d   1      -3.555   0.324  -4.127  0.00  0.00    -0.070 Cl
ENDROOT
TORSDOF 0
ENDMDL
