MODEL 1
REMARK minimizedAffinity 1.04937863
REMARK minimizedRMSD -1
REMARK  0 active torsions:
REMARK  status: ('A' for Active; 'I' for Inactive)
ROOT
ATOM      1  C   UNL d   1       2.581  -2.701   3.970  0.00  0.00     0.020 A 
ATOM      2  C1  UNL d   1       1.519  -3.465   3.485  0.00  0.00     0.020 A 
ATOM      3  C2  UNL d   1       0.808  -3.038   2.362  0.00  0.00     0.034 A 
ATOM      4  C3  UNL d   1       1.157  -1.846   1.718  0.00  0.00     0.017 A 
ATOM      5  C4  UNL d   1       2.223  -1.080   2.205  0.00  0.00     0.017 A 
ATOM      6  C5  UNL d   1       2.932  -1.512   3.331  0.00  0.00     0.034 A 
ATOM      7 Cl   UNL d   1       2.713   0.403   1.465  0.00  0.00    -0.070 Cl
ATOM      8 Cl1  UNL d   1       0.235  -1.379   0.334  0.00  0.00    -0.070 Cl
ENDROOT
TORSDOF 0
ENDMDL
