MODEL 1
REMARK minimizedAffinity 8.99592209
REMARK minimizedRMSD -1
REMARK  0 active torsions:
REMARK  status: ('A' for Active; 'I' for Inactive)
ROOT
ATOM      1  C   UNL d   1      -5.330   2.638  -1.313  0.00  0.00     0.020 A 
ATOM      2  C1  UNL d   1      -5.997   3.632  -2.028  0.00  0.00     0.020 A 
ATOM      3  C2  UNL d   1      -5.999   3.607  -3.424  0.00  0.00     0.034 A 
ATOM      4  C3  UNL d   1      -5.333   2.586  -4.110  0.00  0.00     0.017 A 
ATOM      5  C4  UNL d   1      -4.663   1.588  -3.392  0.00  0.00     0.017 A 
ATOM      6  C5  UNL d   1      -4.665   1.618  -1.995  0.00  0.00     0.034 A 
ATOM      7 Cl   UNL d   1      -3.819   0.295  -4.169  0.00  0.00    -0.070 Cl
ATOM      8 Cl1  UNL d   1      -5.377   2.617  -5.837  0.00  0.00    -0.070 Cl
ENDROOT
TORSDOF 0
ENDMDL
