MODEL 1
REMARK minimizedAffinity 6.83871174
REMARK minimizedRMSD -1
REMARK  0 active torsions:
REMARK  status: ('A' for Active; 'I' for Inactive)
ROOT
ATOM      1  C   UNL d   1       3.013  -3.835   5.900  0.00  0.00     0.020 A 
ATOM      2  C1  UNL d   1       2.791  -2.462   5.999  0.00  0.00     0.020 A 
ATOM      3  C2  UNL d   1       2.383  -1.738   4.877  0.00  0.00     0.034 A 
ATOM      4  C3  UNL d   1       2.195  -2.387   3.651  0.00  0.00     0.017 A 
ATOM      5  C4  UNL d   1       2.418  -3.765   3.553  0.00  0.00     0.017 A 
ATOM      6  C5  UNL d   1       2.826  -4.485   4.679  0.00  0.00     0.034 A 
ATOM      7 Cl   UNL d   1       2.206  -4.635   2.074  0.00  0.00    -0.070 Cl
ATOM      8 Cl1  UNL d   1       1.689  -1.429   2.305  0.00  0.00    -0.070 Cl
ENDROOT
TORSDOF 0
ENDMDL
