MODEL 1
REMARK minimizedAffinity 2.72925115
REMARK minimizedRMSD -1
REMARK  0 active torsions:
REMARK  status: ('A' for Active; 'I' for Inactive)
ROOT
ATOM      1  C   UNL d   1       2.060  -0.991   4.013  0.00  0.00     0.020 A 
ATOM      2  C1  UNL d   1       1.890  -1.229   2.650  0.00  0.00     0.020 A 
ATOM      3  C2  UNL d   1       2.124  -0.206   1.728  0.00  0.00     0.034 A 
ATOM      4  C3  UNL d   1       2.528   1.059   2.168  0.00  0.00     0.017 A 
ATOM      5  C4  UNL d   1       2.699   1.297   3.537  0.00  0.00     0.017 A 
ATOM      6  C5  UNL d   1       2.463   0.270   4.456  0.00  0.00     0.034 A 
ATOM      7 Cl   UNL d   1       3.196   2.832   4.156  0.00  0.00    -0.070 Cl
ATOM      8 Cl1  UNL d   1       2.800   2.277   0.973  0.00  0.00    -0.070 Cl
ENDROOT
TORSDOF 0
ENDMDL
