MODEL 1
REMARK minimizedAffinity 6.02186775
REMARK minimizedRMSD -1
REMARK  0 active torsions:
REMARK  status: ('A' for Active; 'I' for Inactive)
ROOT
ATOM      1  C   UNL d   1       1.868  -1.889   3.680  0.00  0.00     0.020 A 
ATOM      2  C1  UNL d   1       1.970  -1.980   2.293  0.00  0.00     0.020 A 
ATOM      3  C2  UNL d   1       2.195  -0.830   1.533  0.00  0.00     0.034 A 
ATOM      4  C3  UNL d   1       2.319   0.415   2.160  0.00  0.00     0.017 A 
ATOM      5  C4  UNL d   1       2.216   0.505   3.552  0.00  0.00     0.017 A 
ATOM      6  C5  UNL d   1       1.991  -0.649   4.309  0.00  0.00     0.034 A 
ATOM      7 Cl   UNL d   1       2.358   2.006   4.397  0.00  0.00    -0.070 Cl
ATOM      8 Cl1  UNL d   1       2.596   1.795   1.157  0.00  0.00    -0.070 Cl
ENDROOT
TORSDOF 0
ENDMDL
