MODEL 1
REMARK minimizedAffinity 8.26626682
REMARK minimizedRMSD -1
REMARK  0 active torsions:
REMARK  status: ('A' for Active; 'I' for Inactive)
ROOT
ATOM      1  C   UNL d   1       3.552  -1.716   3.568  0.00  0.00     0.020 A 
ATOM      2  C1  UNL d   1       2.368  -2.453   3.569  0.00  0.00     0.020 A 
ATOM      3  C2  UNL d   1       1.270  -2.010   2.829  0.00  0.00     0.034 A 
ATOM      4  C3  UNL d   1       1.353  -0.828   2.085  0.00  0.00     0.017 A 
ATOM      5  C4  UNL d   1       2.541  -0.089   2.084  0.00  0.00     0.017 A 
ATOM      6  C5  UNL d   1       3.638  -0.537   2.827  0.00  0.00     0.034 A 
ATOM      7 Cl   UNL d   1       2.720   1.379   1.190  0.00  0.00    -0.070 Cl
ATOM      8 Cl1  UNL d   1      -0.045  -0.341   1.193  0.00  0.00    -0.070 Cl
ENDROOT
TORSDOF 0
ENDMDL
