MODEL 1
REMARK minimizedAffinity 7.47661972
REMARK minimizedRMSD -1
REMARK  0 active torsions:
REMARK  status: ('A' for Active; 'I' for Inactive)
ROOT
ATOM      1  C   UNL d   1      -5.531   2.789  -4.106  0.00  0.00     0.020 A 
ATOM      2  C1  UNL d   1      -4.421   1.945  -4.074  0.00  0.00     0.020 A 
ATOM      3  C2  UNL d   1      -3.781   1.680  -2.861  0.00  0.00     0.034 A 
ATOM      4  C3  UNL d   1      -4.249   2.259  -1.676  0.00  0.00     0.017 A 
ATOM      5  C4  UNL d   1      -5.362   3.107  -1.710  0.00  0.00     0.017 A 
ATOM      6  C5  UNL d   1      -6.000   3.368  -2.927  0.00  0.00     0.034 A 
ATOM      7 Cl   UNL d   1      -5.998   3.859  -0.290  0.00  0.00    -0.070 Cl
ATOM      8 Cl1  UNL d   1      -3.408   1.888  -0.213  0.00  0.00    -0.070 Cl
ENDROOT
TORSDOF 0
ENDMDL
