MODEL 1
REMARK minimizedAffinity 7.5451417
REMARK minimizedRMSD -1
REMARK  0 active torsions:
REMARK  status: ('A' for Active; 'I' for Inactive)
ROOT
ATOM      1  C   UNL d   1       1.564   3.242   0.447  0.00  0.00     0.020 A 
ATOM      2  C1  UNL d   1       0.571   2.834   1.338  0.00  0.00     0.020 A 
ATOM      3  C2  UNL d   1       0.631   1.564   1.916  0.00  0.00     0.034 A 
ATOM      4  C3  UNL d   1       1.684   0.697   1.604  0.00  0.00     0.017 A 
ATOM      5  C4  UNL d   1       2.680   1.107   0.709  0.00  0.00     0.017 A 
ATOM      6  C5  UNL d   1       2.615   2.380   0.134  0.00  0.00     0.034 A 
ATOM      7 Cl   UNL d   1       4.011   0.094   0.276  0.00  0.00    -0.070 Cl
ATOM      8 Cl1  UNL d   1       1.694  -0.858   2.356  0.00  0.00    -0.070 Cl
ENDROOT
TORSDOF 0
ENDMDL
