MODEL 1
REMARK minimizedAffinity 3.45355296
REMARK minimizedRMSD -1
REMARK  0 active torsions:
REMARK  status: ('A' for Active; 'I' for Inactive)
ROOT
ATOM      1  C   UNL d   1       2.864  -0.013   2.233  0.00  0.00     0.020 A 
ATOM      2  C1  UNL d   1       2.709   1.371   2.160  0.00  0.00     0.020 A 
ATOM      3  C2  UNL d   1       1.468   1.917   1.827  0.00  0.00     0.034 A 
ATOM      4  C3  UNL d   1       0.377   1.080   1.566  0.00  0.00     0.017 A 
ATOM      5  C4  UNL d   1       0.534  -0.308   1.640  0.00  0.00     0.017 A 
ATOM      6  C5  UNL d   1       1.779  -0.851   1.974  0.00  0.00     0.034 A 
ATOM      7 Cl   UNL d   1      -0.766  -1.405   1.332  0.00  0.00    -0.070 Cl
ATOM      8 Cl1  UNL d   1      -1.128   1.825   1.161  0.00  0.00    -0.070 Cl
ENDROOT
TORSDOF 0
ENDMDL
