MODEL 1
REMARK minimizedAffinity -0.455447435
REMARK minimizedRMSD -1
REMARK  0 active torsions:
REMARK  status: ('A' for Active; 'I' for Inactive)
ROOT
ATOM      1  O1  BZF d   1       5.998   0.686   3.696  0.00  0.00    -0.204 OA
ATOM      2  C2  BZF d   1       5.979   0.050   4.923  0.00  0.00     0.174 A 
ATOM      3  C3  BZF d   1       6.000   0.949   5.928  0.00  0.00    -0.012 A 
ATOM      4  C3A BZF d   1       5.940   2.228   5.290  0.00  0.00    -0.107 A 
ATOM      5  C4  BZF d   1       5.913   3.511   5.759  0.00  0.00     0.055 A 
ATOM      6  C5  BZF d   1       5.928   4.539   4.871  0.00  0.00    -0.016 A 
ATOM      7  C6  BZF d   1       5.976   4.322   3.509  0.00  0.00     0.022 A 
ATOM      8  C7  BZF d   1       5.999   3.068   2.997  0.00  0.00     0.029 A 
ATOM      9  C7A BZF d   1       5.950   2.026   3.891  0.00  0.00     0.058 A 
ENDROOT
TORSDOF 0
ENDMDL
