MODEL 1
REMARK minimizedAffinity 12.0493317
REMARK minimizedRMSD -1
REMARK  0 active torsions:
REMARK  status: ('A' for Active; 'I' for Inactive)
ROOT
ATOM      1  O1  BZF d   1      -0.278  -2.908  -1.604  0.00  0.00    -0.204 OA
ATOM      2  C2  BZF d   1      -1.233  -3.154  -0.637  0.00  0.00     0.174 A 
ATOM      3  C3  BZF d   1      -1.624  -2.006  -0.047  0.00  0.00    -0.012 A 
ATOM      4  C3A BZF d   1      -0.934  -0.968  -0.750  0.00  0.00    -0.107 A 
ATOM      5  C4  BZF d   1      -0.921   0.393  -0.638  0.00  0.00     0.055 A 
ATOM      6  C5  BZF d   1      -0.081   1.112  -1.429  0.00  0.00    -0.016 A 
ATOM      7  C6  BZF d   1       0.761   0.504  -2.336  0.00  0.00     0.022 A 
ATOM      8  C7  BZF d   1       0.780  -0.843  -2.486  0.00  0.00     0.029 A 
ATOM      9  C7A BZF d   1      -0.091  -1.570  -1.712  0.00  0.00     0.058 A 
ENDROOT
TORSDOF 0
ENDMDL
