MODEL 1
REMARK minimizedAffinity 0.0811938569
REMARK minimizedRMSD -1
REMARK  0 active torsions:
REMARK  status: ('A' for Active; 'I' for Inactive)
ROOT
ATOM      1  O1  BZF d   1       5.902   2.610   5.126  0.00  0.00    -0.204 OA
ATOM      2  C2  BZF d   1       6.000   1.413   4.443  0.00  0.00     0.174 A 
ATOM      3  C3  BZF d   1       5.999   1.621   3.111  0.00  0.00    -0.012 A 
ATOM      4  C3A BZF d   1       5.988   3.043   2.952  0.00  0.00    -0.107 A 
ATOM      5  C4  BZF d   1       5.996   3.866   1.862  0.00  0.00     0.055 A 
ATOM      6  C5  BZF d   1       5.906   5.209   2.048  0.00  0.00    -0.016 A 
ATOM      7  C6  BZF d   1       5.800   5.762   3.307  0.00  0.00     0.022 A 
ATOM      8  C7  BZF d   1       5.792   4.987   4.418  0.00  0.00     0.029 A 
ATOM      9  C7A BZF d   1       5.917   3.631   4.235  0.00  0.00     0.058 A 
ENDROOT
TORSDOF 0
ENDMDL
