MODEL 1
REMARK minimizedAffinity -4.42122936
REMARK minimizedRMSD -1
REMARK  0 active torsions:
REMARK  status: ('A' for Active; 'I' for Inactive)
ROOT
ATOM      1  O1  BZF d   1       5.993   2.161   2.432  0.00  0.00    -0.204 OA
ATOM      2  C2  BZF d   1       5.993   3.442   2.950  0.00  0.00     0.174 A 
ATOM      3  C3  BZF d   1       5.704   3.425   4.267  0.00  0.00    -0.012 A 
ATOM      4  C3A BZF d   1       5.602   2.041   4.613  0.00  0.00    -0.107 A 
ATOM      5  C4  BZF d   1       5.349   1.381   5.782  0.00  0.00     0.055 A 
ATOM      6  C5  BZF d   1       5.246   0.026   5.766  0.00  0.00    -0.016 A 
ATOM      7  C6  BZF d   1       5.385  -0.700   4.601  0.00  0.00     0.022 A 
ATOM      8  C7  BZF d   1       5.642  -0.090   3.418  0.00  0.00     0.029 A 
ATOM      9  C7A BZF d   1       5.779   1.277   3.436  0.00  0.00     0.058 A 
ENDROOT
TORSDOF 0
ENDMDL
