MODEL 1
REMARK minimizedAffinity -4.6559267
REMARK minimizedRMSD -1
REMARK  0 active torsions:
REMARK  status: ('A' for Active; 'I' for Inactive)
ROOT
ATOM      1  O1  BZF d   1       5.586  -2.380   6.000  0.00  0.00    -0.204 OA
ATOM      2  C2  BZF d   1       5.172  -3.414   5.182  0.00  0.00     0.174 A 
ATOM      3  C3  BZF d   1       4.917  -2.966   3.936  0.00  0.00    -0.012 A 
ATOM      4  C3A BZF d   1       5.277  -1.581   3.954  0.00  0.00    -0.107 A 
ATOM      5  C4  BZF d   1       5.264  -0.596   3.008  0.00  0.00     0.055 A 
ATOM      6  C5  BZF d   1       5.609   0.669   3.367  0.00  0.00    -0.016 A 
ATOM      7  C6  BZF d   1       5.966   0.984   4.662  0.00  0.00     0.022 A 
ATOM      8  C7  BZF d   1       5.998   0.040   5.633  0.00  0.00     0.029 A 
ATOM      9  C7A BZF d   1       5.682  -1.246   5.266  0.00  0.00     0.058 A 
ENDROOT
TORSDOF 0
ENDMDL
