MODEL 1
REMARK minimizedAffinity -5.07614565
REMARK minimizedRMSD -1
REMARK  0 active torsions:
REMARK  status: ('A' for Active; 'I' for Inactive)
ROOT
ATOM      1  O1  BZF d   1       6.000   1.338   5.930  0.00  0.00    -0.204 OA
ATOM      2  C2  BZF d   1       5.991   2.399   5.045  0.00  0.00     0.174 A 
ATOM      3  C3  BZF d   1       5.922   1.960   3.772  0.00  0.00    -0.012 A 
ATOM      4  C3A BZF d   1       5.793   0.538   3.871  0.00  0.00    -0.107 A 
ATOM      5  C4  BZF d   1       5.665  -0.459   2.947  0.00  0.00     0.055 A 
ATOM      6  C5  BZF d   1       5.635  -1.750   3.369  0.00  0.00    -0.016 A 
ATOM      7  C6  BZF d   1       5.735  -2.080   4.705  0.00  0.00     0.022 A 
ATOM      8  C7  BZF d   1       5.858  -1.125   5.659  0.00  0.00     0.029 A 
ATOM      9  C7A BZF d   1       5.855   0.183   5.238  0.00  0.00     0.058 A 
ENDROOT
TORSDOF 0
ENDMDL
