MODEL 1
REMARK minimizedAffinity -4.2601552
REMARK minimizedRMSD -1
REMARK  0 active torsions:
REMARK  status: ('A' for Active; 'I' for Inactive)
ROOT
ATOM      1  O1  BZF d   1       5.846   4.738   5.101  0.00  0.00    -0.204 OA
ATOM      2  C2  BZF d   1       5.892   5.268   3.827  0.00  0.00     0.174 A 
ATOM      3  C3  BZF d   1       5.997   4.290   2.905  0.00  0.00    -0.012 A 
ATOM      4  C3A BZF d   1       5.925   3.067   3.644  0.00  0.00    -0.107 A 
ATOM      5  C4  BZF d   1       5.956   1.750   3.285  0.00  0.00     0.055 A 
ATOM      6  C5  BZF d   1       5.937   0.800   4.257  0.00  0.00    -0.016 A 
ATOM      7  C6  BZF d   1       5.892   1.131   5.595  0.00  0.00     0.022 A 
ATOM      8  C7  BZF d   1       5.855   2.424   6.000  0.00  0.00     0.029 A 
ATOM      9  C7A BZF d   1       5.840   3.386   5.019  0.00  0.00     0.058 A 
ENDROOT
TORSDOF 0
ENDMDL
