MODEL 1
REMARK minimizedAffinity -2.80809569
REMARK minimizedRMSD -1
REMARK  0 active torsions:
REMARK  status: ('A' for Active; 'I' for Inactive)
ROOT
ATOM      1  O1  BZF d   1       5.582   4.973   5.253  0.00  0.00    -0.204 OA
ATOM      2  C2  BZF d   1       5.656   5.841   4.182  0.00  0.00     0.174 A 
ATOM      3  C3  BZF d   1       5.878   5.168   3.035  0.00  0.00    -0.012 A 
ATOM      4  C3A BZF d   1       5.856   3.785   3.400  0.00  0.00    -0.107 A 
ATOM      5  C4  BZF d   1       6.000   2.625   2.694  0.00  0.00     0.055 A 
ATOM      6  C5  BZF d   1       5.999   1.441   3.361  0.00  0.00    -0.016 A 
ATOM      7  C6  BZF d   1       5.861   1.380   4.732  0.00  0.00     0.022 A 
ATOM      8  C7  BZF d   1       5.710   2.504   5.475  0.00  0.00     0.029 A 
ATOM      9  C7A BZF d   1       5.678   3.700   4.800  0.00  0.00     0.058 A 
ENDROOT
TORSDOF 0
ENDMDL
