MODEL 1
REMARK minimizedAffinity -1.45224512
REMARK minimizedRMSD -1
REMARK  0 active torsions:
REMARK  status: ('A' for Active; 'I' for Inactive)
ROOT
ATOM      1  O1  BZF d   1       5.606   0.209   3.781  0.00  0.00    -0.204 OA
ATOM      2  C2  BZF d   1       5.676  -0.393   5.023  0.00  0.00     0.174 A 
ATOM      3  C3  BZF d   1       5.888   0.525   5.988  0.00  0.00    -0.012 A 
ATOM      4  C3A BZF d   1       5.864   1.789   5.318  0.00  0.00    -0.107 A 
ATOM      5  C4  BZF d   1       6.000   3.079   5.743  0.00  0.00     0.055 A 
ATOM      6  C5  BZF d   1       6.000   4.081   4.824  0.00  0.00    -0.016 A 
ATOM      7  C6  BZF d   1       5.871   3.827   3.474  0.00  0.00     0.022 A 
ATOM      8  C7  BZF d   1       5.728   2.564   3.005  0.00  0.00     0.029 A 
ATOM      9  C7A BZF d   1       5.695   1.552   3.934  0.00  0.00     0.058 A 
ENDROOT
TORSDOF 0
ENDMDL
