MODEL 1
REMARK minimizedAffinity 0.0493131243
REMARK minimizedRMSD -1
REMARK  0 active torsions:
REMARK  status: ('A' for Active; 'I' for Inactive)
ROOT
ATOM      1  O1  BZF d   1       5.077  -1.720   6.000  0.00  0.00    -0.204 OA
ATOM      2  C2  BZF d   1       5.602  -2.758   5.255  0.00  0.00     0.174 A 
ATOM      3  C3  BZF d   1       5.996  -2.324   4.040  0.00  0.00    -0.012 A 
ATOM      4  C3A BZF d   1       5.784  -0.909   4.059  0.00  0.00    -0.107 A 
ATOM      5  C4  BZF d   1       5.999   0.084   3.148  0.00  0.00     0.055 A 
ATOM      6  C5  BZF d   1       5.616   1.352   3.450  0.00  0.00    -0.016 A 
ATOM      7  C6  BZF d   1       5.010   1.661   4.651  0.00  0.00     0.022 A 
ATOM      8  C7  BZF d   1       4.781   0.710   5.588  0.00  0.00     0.029 A 
ATOM      9  C7A BZF d   1       5.197  -0.567   5.299  0.00  0.00     0.058 A 
ENDROOT
TORSDOF 0
ENDMDL
