MODEL 1
REMARK minimizedAffinity -4.55615759
REMARK minimizedRMSD -1
REMARK  0 active torsions:
REMARK  status: ('A' for Active; 'I' for Inactive)
ROOT
ATOM      1  O1  BZF d   1       5.999   1.959   6.000  0.00  0.00    -0.204 OA
ATOM      2  C2  BZF d   1       5.939   0.622   5.659  0.00  0.00     0.174 A 
ATOM      3  C3  BZF d   1       5.733   0.475   4.334  0.00  0.00    -0.012 A 
ATOM      4  C3A BZF d   1       5.753   1.802   3.801  0.00  0.00    -0.107 A 
ATOM      5  C4  BZF d   1       5.621   2.309   2.540  0.00  0.00     0.055 A 
ATOM      6  C5  BZF d   1       5.615   3.657   2.367  0.00  0.00    -0.016 A 
ATOM      7  C6  BZF d   1       5.734   4.526   3.432  0.00  0.00     0.022 A 
ATOM      8  C7  BZF d   1       5.873   4.070   4.700  0.00  0.00     0.029 A 
ATOM      9  C7A BZF d   1       5.912   2.708   4.875  0.00  0.00     0.058 A 
ENDROOT
TORSDOF 0
ENDMDL
