MODEL 1
REMARK minimizedAffinity -1.17833924
REMARK minimizedRMSD -1
REMARK  0 active torsions:
REMARK  status: ('A' for Active; 'I' for Inactive)
ROOT
ATOM      1  O1  BZF d   1       5.996   4.712   4.924  0.00  0.00    -0.204 OA
ATOM      2  C2  BZF d   1       5.978   5.299   3.674  0.00  0.00     0.174 A 
ATOM      3  C3  BZF d   1       6.000   4.362   2.704  0.00  0.00    -0.012 A 
ATOM      4  C3A BZF d   1       5.941   3.108   3.391  0.00  0.00    -0.107 A 
ATOM      5  C4  BZF d   1       5.916   1.809   2.973  0.00  0.00     0.055 A 
ATOM      6  C5  BZF d   1       5.932   0.816   3.900  0.00  0.00    -0.016 A 
ATOM      7  C6  BZF d   1       5.979   1.086   5.252  0.00  0.00     0.022 A 
ATOM      8  C7  BZF d   1       6.000   2.359   5.716  0.00  0.00     0.029 A 
ATOM      9  C7A BZF d   1       5.950   3.365   4.782  0.00  0.00     0.058 A 
ENDROOT
TORSDOF 0
ENDMDL
