MODEL 1
REMARK minimizedAffinity 1.21674502
REMARK minimizedRMSD -1
REMARK  0 active torsions:
REMARK  status: ('A' for Active; 'I' for Inactive)
ROOT
ATOM      1  O1  BZF d   1       5.977   3.119   2.838  0.00  0.00    -0.204 OA
ATOM      2  C2  BZF d   1       6.000   4.263   3.611  0.00  0.00     0.174 A 
ATOM      3  C3  BZF d   1       5.958   3.954   4.924  0.00  0.00    -0.012 A 
ATOM      4  C3A BZF d   1       5.998   2.525   4.975  0.00  0.00    -0.107 A 
ATOM      5  C4  BZF d   1       6.000   1.622   6.000  0.00  0.00     0.055 A 
ATOM      6  C5  BZF d   1       5.971   0.294   5.710  0.00  0.00    -0.016 A 
ATOM      7  C6  BZF d   1       5.935  -0.165   4.410  0.00  0.00     0.022 A 
ATOM      8  C7  BZF d   1       5.938   0.693   3.360  0.00  0.00     0.029 A 
ATOM      9  C7A BZF d   1       6.000   2.034   3.649  0.00  0.00     0.058 A 
ENDROOT
TORSDOF 0
ENDMDL
