MODEL 1
REMARK minimizedAffinity -2.53815031
REMARK minimizedRMSD -1
REMARK  0 active torsions:
REMARK  status: ('A' for Active; 'I' for Inactive)
ROOT
ATOM      1  O1  BZF d   1       5.113   3.292   2.999  0.00  0.00    -0.204 OA
ATOM      2  C2  BZF d   1       5.623   4.380   3.681  0.00  0.00     0.174 A 
ATOM      3  C3  BZF d   1       5.998   4.030   4.929  0.00  0.00    -0.012 A 
ATOM      4  C3A BZF d   1       5.789   2.616   5.002  0.00  0.00    -0.107 A 
ATOM      5  C4  BZF d   1       5.990   1.686   5.982  0.00  0.00     0.055 A 
ATOM      6  C5  BZF d   1       5.615   0.400   5.759  0.00  0.00    -0.016 A 
ATOM      7  C6  BZF d   1       5.031   0.009   4.571  0.00  0.00     0.022 A 
ATOM      8  C7  BZF d   1       4.815   0.894   3.568  0.00  0.00     0.029 A 
ATOM      9  C7A BZF d   1       5.224   2.189   3.778  0.00  0.00     0.058 A 
ENDROOT
TORSDOF 0
ENDMDL
