MODEL 1
REMARK minimizedAffinity -2.24164248
REMARK minimizedRMSD -1
REMARK  0 active torsions:
REMARK  status: ('A' for Active; 'I' for Inactive)
ROOT
ATOM      1  O1  BZF d   1       5.882   2.691   4.767  0.00  0.00    -0.204 OA
ATOM      2  C2  BZF d   1       5.768   1.562   3.979  0.00  0.00     0.174 A 
ATOM      3  C3  BZF d   1       5.669   1.896   2.676  0.00  0.00    -0.012 A 
ATOM      4  C3A BZF d   1       5.818   3.318   2.640  0.00  0.00    -0.107 A 
ATOM      5  C4  BZF d   1       5.827   4.236   1.629  0.00  0.00     0.055 A 
ATOM      6  C5  BZF d   1       5.920   5.556   1.936  0.00  0.00    -0.016 A 
ATOM      7  C6  BZF d   1       6.000   5.994   3.242  0.00  0.00     0.022 A 
ATOM      8  C7  BZF d   1       6.000   5.121   4.278  0.00  0.00     0.029 A 
ATOM      9  C7A BZF d   1       5.939   3.784   3.970  0.00  0.00     0.058 A 
ENDROOT
TORSDOF 0
ENDMDL
