MODEL 1
REMARK minimizedAffinity -3.33149481
REMARK minimizedRMSD -1
REMARK  0 active torsions:
REMARK  status: ('A' for Active; 'I' for Inactive)
ROOT
ATOM      1  O1  BZF d   1       4.500   2.120   4.501  0.00  0.00    -0.204 OA
ATOM      2  C2  BZF d   1       5.300   1.124   3.976  0.00  0.00     0.174 A 
ATOM      3  C3  BZF d   1       5.971   1.569   2.894  0.00  0.00    -0.012 A 
ATOM      4  C3A BZF d   1       5.634   2.955   2.787  0.00  0.00    -0.107 A 
ATOM      5  C4  BZF d   1       6.000   3.946   1.921  0.00  0.00     0.055 A 
ATOM      6  C5  BZF d   1       5.435   5.176   2.048  0.00  0.00    -0.016 A 
ATOM      7  C6  BZF d   1       4.499   5.448   3.025  0.00  0.00     0.022 A 
ATOM      8  C7  BZF d   1       4.109   4.499   3.910  0.00  0.00     0.029 A 
ATOM      9  C7A BZF d   1       4.702   3.264   3.805  0.00  0.00     0.058 A 
ENDROOT
TORSDOF 0
ENDMDL
