MODEL 1
REMARK minimizedAffinity 2.54254532
REMARK minimizedRMSD -1
REMARK  0 active torsions:
REMARK  status: ('A' for Active; 'I' for Inactive)
ROOT
ATOM      1  C   UNL d   1       0.478   5.151  -0.966  0.00  0.00    -0.002 A 
ATOM      2  C1  UNL d   1       0.097   4.339  -2.025  0.00  0.00     0.010 A 
ATOM      3  C2  UNL d   1      -0.454   3.078  -1.791  0.00  0.00     0.041 A 
ATOM      4  C3  UNL d   1      -0.621   2.643  -0.461  0.00  0.00    -0.075 A 
ATOM      5  S   UNL d   1      -1.276   1.138   0.067  0.00  0.00     0.015 SA
ATOM      6  C4  UNL d   1      -1.067   1.539   1.710  0.00  0.00     0.022 A 
ATOM      7  C5  UNL d   1      -0.512   2.786   1.871  0.00  0.00     0.026 A 
ATOM      8  C6  UNL d   1      -0.247   3.444   0.622  0.00  0.00    -0.082 A 
ATOM      9  C7  UNL d   1       0.311   4.717   0.351  0.00  0.00     0.045 A 
ENDROOT
TORSDOF 0
ENDMDL
