MODEL 1
REMARK minimizedAffinity 2.4065938
REMARK minimizedRMSD -1
REMARK  0 active torsions:
REMARK  status: ('A' for Active; 'I' for Inactive)
ROOT
ATOM      1  C   UNL d   1       0.153   2.343   2.375  0.00  0.00    -0.002 A 
ATOM      2  C1  UNL d   1       0.037   3.655   2.813  0.00  0.00     0.010 A 
ATOM      3  C2  UNL d   1      -0.091   4.701   1.897  0.00  0.00     0.041 A 
ATOM      4  C3  UNL d   1      -0.102   4.403   0.520  0.00  0.00    -0.075 A 
ATOM      5  S   UNL d   1      -0.249   5.521  -0.784  0.00  0.00     0.015 SA
ATOM      6  C4  UNL d   1      -0.162   4.284  -1.953  0.00  0.00     0.022 A 
ATOM      7  C5  UNL d   1      -0.024   3.042  -1.380  0.00  0.00     0.026 A 
ATOM      8  C6  UNL d   1       0.012   3.090   0.055  0.00  0.00    -0.082 A 
ATOM      9  C7  UNL d   1       0.141   2.052   1.009  0.00  0.00     0.045 A 
ENDROOT
TORSDOF 0
ENDMDL
