MODEL 1
REMARK minimizedAffinity 11.1999702
REMARK minimizedRMSD -1
REMARK  0 active torsions:
REMARK  status: ('A' for Active; 'I' for Inactive)
ROOT
ATOM      1  C   UNL d   1      -0.623   1.359   2.366  0.00  0.00    -0.002 A 
ATOM      2  C1  UNL d   1      -1.854   1.992   2.272  0.00  0.00     0.010 A 
ATOM      3  C2  UNL d   1      -2.093   2.936   1.271  0.00  0.00     0.041 A 
ATOM      4  C3  UNL d   1      -1.063   3.236   0.358  0.00  0.00    -0.075 A 
ATOM      5  S   UNL d   1      -1.127   4.357  -0.950  0.00  0.00     0.015 SA
ATOM      6  C4  UNL d   1       0.478   4.023  -1.414  0.00  0.00     0.022 A 
ATOM      7  C5  UNL d   1       1.064   3.081  -0.602  0.00  0.00     0.026 A 
ATOM      8  C6  UNL d   1       0.185   2.611   0.432  0.00  0.00    -0.082 A 
ATOM      9  C7  UNL d   1       0.396   1.659   1.458  0.00  0.00     0.045 A 
ENDROOT
TORSDOF 0
ENDMDL
