MODEL 1
REMARK minimizedAffinity 6.30401325
REMARK minimizedRMSD -1
REMARK  0 active torsions:
REMARK  status: ('A' for Active; 'I' for Inactive)
ROOT
ATOM      1  C   UNL d   1      -2.128  -2.230   4.293  0.00  0.00    -0.002 A 
ATOM      2  C1  UNL d   1      -2.628  -1.575   5.409  0.00  0.00     0.010 A 
ATOM      3  C2  UNL d   1      -3.824  -1.989   5.999  0.00  0.00     0.041 A 
ATOM      4  C3  UNL d   1      -4.514  -3.085   5.444  0.00  0.00    -0.075 A 
ATOM      5  S   UNL d   1      -5.997  -3.768   5.999  0.00  0.00     0.015 SA
ATOM      6  C4  UNL d   1      -6.000  -4.948   4.768  0.00  0.00     0.022 A 
ATOM      7  C5  UNL d   1      -4.904  -4.837   3.945  0.00  0.00     0.026 A 
ATOM      8  C6  UNL d   1      -4.030  -3.762   4.321  0.00  0.00    -0.082 A 
ATOM      9  C7  UNL d   1      -2.815  -3.317   3.746  0.00  0.00     0.045 A 
ENDROOT
TORSDOF 0
ENDMDL
