MODEL 1
REMARK minimizedAffinity 21.5147305
REMARK minimizedRMSD -1
REMARK  0 active torsions:
REMARK  status: ('A' for Active; 'I' for Inactive)
ROOT
ATOM      1  C   UNL d   1       1.211   3.816   0.527  0.00  0.00    -0.002 A 
ATOM      2  C1  UNL d   1       0.924   5.158   0.323  0.00  0.00     0.010 A 
ATOM      3  C2  UNL d   1       0.087   5.554  -0.722  0.00  0.00     0.041 A 
ATOM      4  C3  UNL d   1      -0.464   4.569  -1.566  0.00  0.00    -0.075 A 
ATOM      5  S   UNL d   1      -1.516   4.820  -2.908  0.00  0.00     0.015 SA
ATOM      6  C4  UNL d   1      -1.609   3.151  -3.242  0.00  0.00     0.022 A 
ATOM      7  C5  UNL d   1      -0.862   2.406  -2.361  0.00  0.00     0.026 A 
ATOM      8  C6  UNL d   1      -0.190   3.211  -1.380  0.00  0.00    -0.082 A 
ATOM      9  C7  UNL d   1       0.663   2.842  -0.312  0.00  0.00     0.045 A 
ENDROOT
TORSDOF 0
ENDMDL
