MODEL 1
REMARK minimizedAffinity 6.7540431
REMARK minimizedRMSD -1
REMARK  0 active torsions:
REMARK  status: ('A' for Active; 'I' for Inactive)
ROOT
ATOM      1  C   UNL d   1      -3.596  -1.570   5.194  0.00  0.00    -0.002 A 
ATOM      2  C1  UNL d   1      -3.686  -1.642   3.811  0.00  0.00     0.010 A 
ATOM      3  C2  UNL d   1      -4.330  -2.718   3.197  0.00  0.00     0.041 A 
ATOM      4  C3  UNL d   1      -4.890  -3.728   4.003  0.00  0.00    -0.075 A 
ATOM      5  S   UNL d   1      -5.726  -5.139   3.472  0.00  0.00     0.015 SA
ATOM      6  C4  UNL d   1      -5.985  -5.678   5.068  0.00  0.00     0.022 A 
ATOM      7  C5  UNL d   1      -5.452  -4.815   5.996  0.00  0.00     0.026 A 
ATOM      8  C6  UNL d   1      -4.813  -3.677   5.398  0.00  0.00    -0.082 A 
ATOM      9  C7  UNL d   1      -4.152  -2.574   5.991  0.00  0.00     0.045 A 
ENDROOT
TORSDOF 0
ENDMDL
