MODEL 1
REMARK minimizedAffinity 19.9745121
REMARK minimizedRMSD -1
REMARK  0 active torsions:
REMARK  status: ('A' for Active; 'I' for Inactive)
ROOT
ATOM      1  C   UNL d   1      -5.338  -5.197   4.620  0.00  0.00    -0.002 A 
ATOM      2  C1  UNL d   1      -5.994  -4.397   5.545  0.00  0.00     0.010 A 
ATOM      3  C2  UNL d   1      -5.410  -3.213   6.000  0.00  0.00     0.041 A 
ATOM      4  C3  UNL d   1      -4.145  -2.842   5.504  0.00  0.00    -0.075 A 
ATOM      5  S   UNL d   1      -3.237  -1.435   5.917  0.00  0.00     0.015 SA
ATOM      6  C4  UNL d   1      -1.958  -1.863   4.875  0.00  0.00     0.022 A 
ATOM      7  C5  UNL d   1      -2.201  -3.048   4.220  0.00  0.00     0.026 A 
ATOM      8  C6  UNL d   1      -3.465  -3.631   4.571  0.00  0.00    -0.082 A 
ATOM      9  C7  UNL d   1      -4.083  -4.826   4.130  0.00  0.00     0.045 A 
ENDROOT
TORSDOF 0
ENDMDL
