MODEL 1
REMARK minimizedAffinity 5.46113491
REMARK minimizedRMSD -1
REMARK  0 active torsions:
REMARK  status: ('A' for Active; 'I' for Inactive)
ROOT
ATOM      1  C   UNL d   1      -0.785   3.331   0.330  0.00  0.00    -0.002 A 
ATOM      2  C1  UNL d   1       0.541   3.104   0.669  0.00  0.00     0.010 A 
ATOM      3  C2  UNL d   1       0.867   2.259   1.732  0.00  0.00     0.041 A 
ATOM      4  C3  UNL d   1      -0.172   1.638   2.453  0.00  0.00    -0.075 A 
ATOM      5  S   UNL d   1      -0.011   0.564   3.792  0.00  0.00     0.015 SA
ATOM      6  C4  UNL d   1      -1.699   0.380   3.943  0.00  0.00     0.022 A 
ATOM      7  C5  UNL d   1      -2.384   1.114   3.004  0.00  0.00     0.026 A 
ATOM      8  C6  UNL d   1      -1.515   1.851   2.129  0.00  0.00    -0.082 A 
ATOM      9  C7  UNL d   1      -1.813   2.714   1.047  0.00  0.00     0.045 A 
ENDROOT
TORSDOF 0
ENDMDL
