MODEL 1
REMARK minimizedAffinity 18.3809853
REMARK minimizedRMSD -1
REMARK  0 active torsions:
REMARK  status: ('A' for Active; 'I' for Inactive)
ROOT
ATOM      1  C   UNL d   1       0.585   4.484  -0.377  0.00  0.00    -0.002 A 
ATOM      2  C1  UNL d   1       0.297   3.132  -0.245  0.00  0.00     0.010 A 
ATOM      3  C2  UNL d   1      -0.946   2.715   0.235  0.00  0.00     0.041 A 
ATOM      4  C3  UNL d   1      -1.904   3.687   0.582  0.00  0.00    -0.075 A 
ATOM      5  S   UNL d   1      -3.493   3.410   1.191  0.00  0.00     0.015 SA
ATOM      6  C4  UNL d   1      -3.828   5.078   1.290  0.00  0.00     0.022 A 
ATOM      7  C5  UNL d   1      -2.764   5.842   0.872  0.00  0.00     0.026 A 
ATOM      8  C6  UNL d   1      -1.638   5.054   0.457  0.00  0.00    -0.082 A 
ATOM      9  C7  UNL d   1      -0.369   5.445  -0.032  0.00  0.00     0.045 A 
ENDROOT
TORSDOF 0
ENDMDL
