MODEL 1
REMARK minimizedAffinity 0.428091347
REMARK minimizedRMSD -1
REMARK  0 active torsions:
REMARK  status: ('A' for Active; 'I' for Inactive)
ROOT
ATOM      1  C   UNL d   1       5.257   2.244   5.967  0.00  0.00     0.023 A 
ATOM      2  C1  UNL d   1       3.975   1.694   5.991  0.00  0.00     0.003 A 
ATOM      3  C2  UNL d   1       2.856   2.529   5.999  0.00  0.00     0.048 A 
ATOM      4  C3  UNL d   1       3.025   3.913   5.983  0.00  0.00     0.023 A 
ATOM      5  C4  UNL d   1       4.305   4.468   5.959  0.00  0.00     0.048 A 
ATOM      6  C5  UNL d   1       5.422   3.630   5.951  0.00  0.00     0.003 A 
ATOM      7  I   UNL d   1       1.360   5.157   5.996  0.00  0.00    -0.146 I 
ENDROOT
TORSDOF 0
ENDMDL
