MODEL 1
REMARK minimizedAffinity 0.463903427
REMARK minimizedRMSD -1
REMARK  0 active torsions:
REMARK  status: ('A' for Active; 'I' for Inactive)
ROOT
ATOM      1  C   UNL d   1       5.929   4.803   4.476  0.00  0.00     0.023 A 
ATOM      2  C1  UNL d   1       5.071   4.978   5.562  0.00  0.00     0.003 A 
ATOM      3  C2  UNL d   1       4.272   3.919   6.000  0.00  0.00     0.048 A 
ATOM      4  C3  UNL d   1       4.336   2.689   5.348  0.00  0.00     0.023 A 
ATOM      5  C4  UNL d   1       5.193   2.509   4.261  0.00  0.00     0.048 A 
ATOM      6  C5  UNL d   1       5.990   3.570   3.826  0.00  0.00     0.003 A 
ATOM      7  I   UNL d   1       3.148   1.112   5.998  0.00  0.00    -0.146 I 
ENDROOT
TORSDOF 0
ENDMDL
