MODEL 1
REMARK minimizedAffinity -0.0514209457
REMARK minimizedRMSD -1
REMARK  0 active torsions:
REMARK  status: ('A' for Active; 'I' for Inactive)
ROOT
ATOM      1  C   UNL d   1       3.066   1.351   5.686  0.00  0.00     0.023 A 
ATOM      2  C1  UNL d   1       4.387   1.672   5.996  0.00  0.00     0.003 A 
ATOM      3  C2  UNL d   1       4.801   3.006   5.999  0.00  0.00     0.048 A 
ATOM      4  C3  UNL d   1       3.887   4.014   5.694  0.00  0.00     0.023 A 
ATOM      5  C4  UNL d   1       2.564   3.697   5.384  0.00  0.00     0.048 A 
ATOM      6  C5  UNL d   1       2.155   2.362   5.380  0.00  0.00     0.003 A 
ATOM      7  I   UNL d   1       4.500   6.000   5.699  0.00  0.00    -0.146 I 
ENDROOT
TORSDOF 0
ENDMDL
