MODEL 1
REMARK minimizedAffinity 4.02428007
REMARK minimizedRMSD -1
REMARK  0 active torsions:
REMARK  status: ('A' for Active; 'I' for Inactive)
ROOT
ATOM      1  C   UNL d   1       3.193   2.258   3.464  0.00  0.00     0.023 A 
ATOM      2  C1  UNL d   1       3.764   1.927   4.693  0.00  0.00     0.003 A 
ATOM      3  C2  UNL d   1       4.467   2.889   5.421  0.00  0.00     0.048 A 
ATOM      4  C3  UNL d   1       4.593   4.183   4.914  0.00  0.00     0.023 A 
ATOM      5  C4  UNL d   1       4.022   4.519   3.686  0.00  0.00     0.048 A 
ATOM      6  C5  UNL d   1       3.322   3.553   2.961  0.00  0.00     0.003 A 
ATOM      7  I   UNL d   1       5.637   5.618   5.996  0.00  0.00    -0.146 I 
ENDROOT
TORSDOF 0
ENDMDL
