MODEL 1
REMARK minimizedAffinity -0.715817273
REMARK minimizedRMSD -1
REMARK  0 active torsions:
REMARK  status: ('A' for Active; 'I' for Inactive)
ROOT
ATOM      1  C   UNL d   1       4.330   1.632  -0.275  0.00  0.00     0.023 A 
ATOM      2  C1  UNL d   1       4.431   0.774  -1.371  0.00  0.00     0.003 A 
ATOM      3  C2  UNL d   1       3.706  -0.418  -1.396  0.00  0.00     0.048 A 
ATOM      4  C3  UNL d   1       2.879  -0.747  -0.322  0.00  0.00     0.023 A 
ATOM      5  C4  UNL d   1       2.773   0.109   0.776  0.00  0.00     0.048 A 
ATOM      6  C5  UNL d   1       3.502   1.299   0.797  0.00  0.00     0.003 A 
ATOM      7  I   UNL d   1       1.797  -2.521  -0.356  0.00  0.00    -0.146 I 
ENDROOT
TORSDOF 0
ENDMDL
