MODEL 1
REMARK minimizedAffinity -3.36929369
REMARK minimizedRMSD -1
REMARK  0 active torsions:
REMARK  status: ('A' for Active; 'I' for Inactive)
ROOT
ATOM      1  C   UNL d   1       1.061   5.954   4.070  0.00  0.00     0.023 A 
ATOM      2  C1  UNL d   1       0.809   5.398   5.324  0.00  0.00     0.003 A 
ATOM      3  C2  UNL d   1       1.709   4.486   5.879  0.00  0.00     0.048 A 
ATOM      4  C3  UNL d   1       2.860   4.135   5.175  0.00  0.00     0.023 A 
ATOM      5  C4  UNL d   1       3.117   4.690   3.920  0.00  0.00     0.048 A 
ATOM      6  C5  UNL d   1       2.214   5.600   3.369  0.00  0.00     0.003 A 
ATOM      7  I   UNL d   1       4.202   2.779   5.999  0.00  0.00    -0.146 I 
ENDROOT
TORSDOF 0
ENDMDL
