MODEL 1
REMARK minimizedAffinity 9.79008961
REMARK minimizedRMSD -1
REMARK  1 active torsions:
REMARK  status: ('A' for Active; 'I' for Inactive)
REMARK    1  A    between atoms: C1_2  and  C2_3 
ROOT
ATOM      1  C2  UNL d   1       3.486  -2.152   2.812  0.00  0.00    -0.076 A 
ATOM      2  C3  UNL d   1       3.537  -1.369   1.646  0.00  0.00     0.004 A 
ATOM      3  C4  UNL d   1       2.378  -0.822   1.098  0.00  0.00    -0.003 A 
ATOM      4  C5  UNL d   1       1.149  -1.050   1.707  0.00  0.00     0.000 A 
ATOM      5  C6  UNL d   1       1.082  -1.810   2.874  0.00  0.00     0.000 A 
ATOM      6  C7  UNL d   1       2.243  -2.354   3.449  0.00  0.00    -0.073 A 
ATOM      7  C8  UNL d   1       2.111  -3.171   4.705  0.00  0.00     0.078 C 
ENDROOT
BRANCH   1   8
ATOM      8  C1  UNL d   1       4.772  -2.741   3.346  0.00  0.00     0.053 C 
ATOM      9  C   UNL d   1       5.991  -2.289   2.557  0.00  0.00     0.018 C 
ENDBRANCH   1   8
TORSDOF 1
ENDMDL
