MODEL 1
REMARK minimizedAffinity 5.24303246
REMARK minimizedRMSD -1
REMARK  1 active torsions:
REMARK  status: ('A' for Active; 'I' for Inactive)
REMARK    1  A    between atoms: C1_2  and  C2_3 
ROOT
ATOM      1  C2  UNL d   1       5.285   5.727  -3.383  0.00  0.00    -0.076 A 
ATOM      2  C3  UNL d   1       5.961   5.997  -4.586  0.00  0.00     0.004 A 
ATOM      3  C4  UNL d   1       5.360   5.746  -5.818  0.00  0.00    -0.003 A 
ATOM      4  C5  UNL d   1       4.073   5.222  -5.868  0.00  0.00     0.000 A 
ATOM      5  C6  UNL d   1       3.381   4.965  -4.685  0.00  0.00     0.000 A 
ATOM      6  C7  UNL d   1       3.966   5.227  -3.435  0.00  0.00    -0.073 A 
ATOM      7  C8  UNL d   1       3.176   4.925  -2.191  0.00  0.00     0.078 C 
ENDROOT
BRANCH   1   8
ATOM      8  C1  UNL d   1       5.997   5.994  -2.076  0.00  0.00     0.053 C 
ATOM      9  C   UNL d   1       5.052   5.979  -0.884  0.00  0.00     0.018 C 
ENDBRANCH   1   8
TORSDOF 1
ENDMDL
