MODEL 1
REMARK minimizedAffinity 2.22810292
REMARK minimizedRMSD -1
REMARK  1 active torsions:
REMARK  status: ('A' for Active; 'I' for Inactive)
REMARK    1  A    between atoms: C1_2  and  C2_3 
ROOT
ATOM      1  C2  UNL d   1       0.889  -1.832   2.889  0.00  0.00    -0.076 A 
ATOM      2  C3  UNL d   1       0.758  -0.480   3.248  0.00  0.00     0.004 A 
ATOM      3  C4  UNL d   1       1.120   0.536   2.365  0.00  0.00    -0.003 A 
ATOM      4  C5  UNL d   1       1.618   0.215   1.106  0.00  0.00     0.000 A 
ATOM      5  C6  UNL d   1       1.737  -1.122   0.727  0.00  0.00     0.000 A 
ATOM      6  C7  UNL d   1       1.362  -2.157   1.600  0.00  0.00    -0.073 A 
ATOM      7  C8  UNL d   1       1.517  -3.581   1.140  0.00  0.00     0.078 C 
ENDROOT
BRANCH   1   8
ATOM      8  C1  UNL d   1       0.506  -2.890   3.899  0.00  0.00     0.053 C 
ATOM      9  C   UNL d   1       1.447  -2.923   5.094  0.00  0.00     0.018 C 
ENDBRANCH   1   8
TORSDOF 1
ENDMDL
