MODEL 1
REMARK minimizedAffinity 12.6543074
REMARK minimizedRMSD -1
REMARK  1 active torsions:
REMARK  status: ('A' for Active; 'I' for Inactive)
REMARK    1  A    between atoms: C1_2  and  C2_3 
ROOT
ATOM      1  C2  UNL d   1       1.054   2.072   1.714  0.00  0.00    -0.076 A 
ATOM      2  C3  UNL d   1       0.247   3.219   1.614  0.00  0.00     0.004 A 
ATOM      3  C4  UNL d   1      -1.054   3.140   1.121  0.00  0.00    -0.003 A 
ATOM      4  C5  UNL d   1      -1.570   1.912   0.720  0.00  0.00     0.000 A 
ATOM      5  C6  UNL d   1      -0.790   0.761   0.829  0.00  0.00     0.000 A 
ATOM      6  C7  UNL d   1       0.518   0.821   1.339  0.00  0.00    -0.073 A 
ATOM      7  C8  UNL d   1       1.317  -0.450   1.429  0.00  0.00     0.078 C 
ENDROOT
BRANCH   1   8
ATOM      8  C1  UNL d   1       2.466   2.224   2.232  0.00  0.00     0.053 C 
ATOM      9  C   UNL d   1       2.511   2.569   3.713  0.00  0.00     0.018 C 
ENDBRANCH   1   8
TORSDOF 1
ENDMDL
