MODEL 1
REMARK minimizedAffinity 9.46245098
REMARK minimizedRMSD -1
REMARK  1 active torsions:
REMARK  status: ('A' for Active; 'I' for Inactive)
REMARK    1  A    between atoms: C1_2  and  C2_3 
ROOT
ATOM      1  C2  UNL d   1      -4.470  -3.565  -4.010  0.00  0.00    -0.076 A 
ATOM      2  C3  UNL d   1      -3.889  -4.711  -3.440  0.00  0.00     0.004 A 
ATOM      3  C4  UNL d   1      -3.853  -5.919  -4.135  0.00  0.00    -0.003 A 
ATOM      4  C5  UNL d   1      -4.398  -6.000  -5.412  0.00  0.00     0.000 A 
ATOM      5  C6  UNL d   1      -4.962  -4.868  -6.000  0.00  0.00     0.000 A 
ATOM      6  C7  UNL d   1      -4.992  -3.639  -5.319  0.00  0.00    -0.073 A 
ATOM      7  C8  UNL d   1      -5.619  -2.453  -5.999  0.00  0.00     0.078 C 
ENDROOT
BRANCH   1   8
ATOM      8  C1  UNL d   1      -4.504  -2.290  -3.198  0.00  0.00     0.053 C 
ATOM      9  C   UNL d   1      -5.615  -2.291  -2.159  0.00  0.00     0.018 C 
ENDBRANCH   1   8
TORSDOF 1
ENDMDL
