MODEL 1
REMARK minimizedAffinity -0.0334852189
REMARK minimizedRMSD -1
REMARK  1 active torsions:
REMARK  status: ('A' for Active; 'I' for Inactive)
REMARK    1  A    between atoms: C1_2  and  C2_3 
ROOT
ATOM      1  C2  UNL d   1       1.502  -1.467   4.235  0.00  0.00    -0.076 A 
ATOM      2  C3  UNL d   1       1.791  -2.462   3.285  0.00  0.00     0.004 A 
ATOM      3  C4  UNL d   1       2.110  -2.127   1.970  0.00  0.00    -0.003 A 
ATOM      4  C5  UNL d   1       2.146  -0.792   1.584  0.00  0.00     0.000 A 
ATOM      5  C6  UNL d   1       1.879   0.209   2.517  0.00  0.00     0.000 A 
ATOM      6  C7  UNL d   1       1.572  -0.111   3.851  0.00  0.00    -0.073 A 
ATOM      7  C8  UNL d   1       1.286   1.009   4.814  0.00  0.00     0.078 C 
ENDROOT
BRANCH   1   8
ATOM      8  C1  UNL d   1       1.136  -1.891   5.639  0.00  0.00     0.053 C 
ATOM      9  C   UNL d   1       1.453  -3.354   5.908  0.00  0.00     0.018 C 
ENDBRANCH   1   8
TORSDOF 1
ENDMDL
