MODEL 1
REMARK minimizedAffinity 3.26806927
REMARK minimizedRMSD -1
REMARK  1 active torsions:
REMARK  status: ('A' for Active; 'I' for Inactive)
REMARK    1  A    between atoms: C1_2  and  C2_3 
ROOT
ATOM      1  C2  UNL d   1       1.336  -1.259   3.719  0.00  0.00    -0.076 A 
ATOM      2  C3  UNL d   1       0.542  -1.328   4.877  0.00  0.00     0.004 A 
ATOM      3  C4  UNL d   1       0.663  -2.392   5.769  0.00  0.00    -0.003 A 
ATOM      4  C5  UNL d   1       1.582  -3.405   5.518  0.00  0.00     0.000 A 
ATOM      5  C6  UNL d   1       2.391  -3.345   4.383  0.00  0.00     0.000 A 
ATOM      6  C7  UNL d   1       2.292  -2.270   3.482  0.00  0.00    -0.073 A 
ATOM      7  C8  UNL d   1       3.185  -2.259   2.272  0.00  0.00     0.078 C 
ENDROOT
BRANCH   1   8
ATOM      8  C1  UNL d   1       1.141  -0.095   2.775  0.00  0.00     0.053 C 
ATOM      9  C   UNL d   1       0.333  -0.473   1.543  0.00  0.00     0.018 C 
ENDBRANCH   1   8
TORSDOF 1
ENDMDL
