MODEL 1
REMARK minimizedAffinity -2.96135569
REMARK minimizedRMSD -1
REMARK  1 active torsions:
REMARK  status: ('A' for Active; 'I' for Inactive)
REMARK    1  A    between atoms: C1_2  and  C2_3 
ROOT
ATOM      1  C2  UNL d   1      -1.516   0.424  -0.788  0.00  0.00    -0.073 A 
ATOM      2  C3  UNL d   1      -0.545   1.427  -0.692  0.00  0.00    -0.002 A 
ATOM      3  C4  UNL d   1       0.621   1.212   0.044  0.00  0.00     0.004 A 
ATOM      4  C5  UNL d   1       0.831  -0.009   0.685  0.00  0.00    -0.004 A 
ATOM      5  C6  UNL d   1      -0.122  -1.028   0.591  0.00  0.00    -0.075 A 
ATOM      6  C7  UNL d   1       0.088  -2.346   1.277  0.00  0.00     0.076 C 
ATOM      7  C8  UNL d   1      -1.291  -0.803  -0.147  0.00  0.00     0.001 A 
ENDROOT
BRANCH   1   8
ATOM      8  C1  UNL d   1      -2.774   0.649  -1.586  0.00  0.00     0.053 C 
ATOM      9  C   UNL d   1      -2.830  -0.234  -2.823  0.00  0.00     0.018 C 
ENDBRANCH   1   8
TORSDOF 1
ENDMDL
