MODEL 1
REMARK minimizedAffinity -4.40745878
REMARK minimizedRMSD -1
REMARK  1 active torsions:
REMARK  status: ('A' for Active; 'I' for Inactive)
REMARK    1  A    between atoms: C1_2  and  C2_3 
ROOT
ATOM      1  C2  UNL d   1       0.212  -0.613   0.712  0.00  0.00    -0.073 A 
ATOM      2  C3  UNL d   1       1.547  -0.907   1.009  0.00  0.00    -0.002 A 
ATOM      3  C4  UNL d   1       2.540   0.054   0.816  0.00  0.00     0.004 A 
ATOM      4  C5  UNL d   1       2.208   1.319   0.333  0.00  0.00    -0.004 A 
ATOM      5  C6  UNL d   1       0.877   1.636   0.041  0.00  0.00    -0.075 A 
ATOM      6  C7  UNL d   1       0.503   2.992  -0.482  0.00  0.00     0.076 C 
ATOM      7  C8  UNL d   1      -0.114   0.664   0.234  0.00  0.00     0.001 A 
ENDROOT
BRANCH   1   8
ATOM      8  C1  UNL d   1      -0.865  -1.646   0.924  0.00  0.00     0.053 C 
ATOM      9  C   UNL d   1      -0.301  -2.958   1.446  0.00  0.00     0.018 C 
ENDBRANCH   1   8
TORSDOF 1
ENDMDL
