MODEL 1
REMARK minimizedAffinity -4.9738903
REMARK minimizedRMSD -1
REMARK  1 active torsions:
REMARK  status: ('A' for Active; 'I' for Inactive)
REMARK    1  A    between atoms: C1_2  and  C2_3 
ROOT
ATOM      1  C2  UNL d   1       0.948   0.248   0.442  0.00  0.00    -0.073 A 
ATOM      2  C3  UNL d   1       2.252   0.757   0.420  0.00  0.00    -0.002 A 
ATOM      3  C4  UNL d   1       3.273   0.109   1.117  0.00  0.00     0.004 A 
ATOM      4  C5  UNL d   1       3.003  -1.055   1.837  0.00  0.00    -0.004 A 
ATOM      5  C6  UNL d   1       1.709  -1.585   1.861  0.00  0.00    -0.075 A 
ATOM      6  C7  UNL d   1       1.402  -2.835   2.632  0.00  0.00     0.076 C 
ATOM      7  C8  UNL d   1       0.689  -0.928   1.160  0.00  0.00     0.001 A 
ENDROOT
BRANCH   1   8
ATOM      8  C1  UNL d   1      -0.156   0.940  -0.315  0.00  0.00     0.053 C 
ATOM      9  C   UNL d   1      -1.452   0.145  -0.286  0.00  0.00     0.018 C 
ENDBRANCH   1   8
TORSDOF 1
ENDMDL
