MODEL 1
REMARK minimizedAffinity -3.66379046
REMARK minimizedRMSD -1
REMARK  0 active torsions:
REMARK  status: ('A' for Active; 'I' for Inactive)
ROOT
ATOM      1  C   UNL d   1       1.221  -5.526  -0.509  0.00  0.00     0.077 C 
ATOM      2  C1  UNL d   1       0.980  -4.230  -1.225  0.00  0.00    -0.074 A 
ATOM      3  C2  UNL d   1       1.058  -4.154  -2.619  0.00  0.00    -0.005 A 
ATOM      4  C3  UNL d   1       0.822  -2.944  -3.271  0.00  0.00     0.006 A 
ATOM      5  C4  UNL d   1       0.505  -1.800  -2.537  0.00  0.00    -0.005 A 
ATOM      6  C5  UNL d   1       0.421  -1.858  -1.143  0.00  0.00    -0.074 A 
ATOM      7  C6  UNL d   1       0.072  -0.640  -0.339  0.00  0.00     0.077 C 
ATOM      8  C7  UNL d   1       0.653  -3.079  -0.495  0.00  0.00    -0.001 A 
ENDROOT
TORSDOF 0
ENDMDL
