MODEL 1
REMARK minimizedAffinity -3.54212689
REMARK minimizedRMSD -1
REMARK  0 active torsions:
REMARK  status: ('A' for Active; 'I' for Inactive)
ROOT
ATOM      1  C   UNL d   1       0.920  -1.113  -0.667  0.00  0.00     0.077 C 
ATOM      2  C1  UNL d   1       0.415  -0.092   0.309  0.00  0.00    -0.074 A 
ATOM      3  C2  UNL d   1      -0.180  -0.480   1.513  0.00  0.00    -0.005 A 
ATOM      4  C3  UNL d   1      -0.637   0.481   2.414  0.00  0.00     0.006 A 
ATOM      5  C4  UNL d   1      -0.502   1.839   2.121  0.00  0.00    -0.005 A 
ATOM      6  C5  UNL d   1       0.091   2.246   0.922  0.00  0.00    -0.074 A 
ATOM      7  C6  UNL d   1       0.252   3.702   0.596  0.00  0.00     0.077 C 
ATOM      8  C7  UNL d   1       0.554   1.274   0.025  0.00  0.00    -0.001 A 
ENDROOT
TORSDOF 0
ENDMDL
