MODEL 1
REMARK minimizedAffinity -3.1748035
REMARK minimizedRMSD -1
REMARK  0 active torsions:
REMARK  status: ('A' for Active; 'I' for Inactive)
ROOT
ATOM      1  C   UNL d   1      -0.725   3.491   0.764  0.00  0.00     0.077 C 
ATOM      2  C1  UNL d   1      -0.668   2.007   0.968  0.00  0.00    -0.074 A 
ATOM      3  C2  UNL d   1      -1.198   1.420   2.122  0.00  0.00    -0.005 A 
ATOM      4  C3  UNL d   1      -1.146   0.036   2.294  0.00  0.00     0.006 A 
ATOM      5  C4  UNL d   1      -0.566  -0.772   1.316  0.00  0.00    -0.005 A 
ATOM      6  C5  UNL d   1      -0.032  -0.203   0.155  0.00  0.00    -0.074 A 
ATOM      7  C6  UNL d   1       0.586  -1.059  -0.910  0.00  0.00     0.077 C 
ATOM      8  C7  UNL d   1      -0.094   1.187  -0.013  0.00  0.00    -0.001 A 
ENDROOT
TORSDOF 0
ENDMDL
