MODEL 1
REMARK minimizedAffinity -1.76074326
REMARK minimizedRMSD -1
REMARK  0 active torsions:
REMARK  status: ('A' for Active; 'I' for Inactive)
ROOT
ATOM      1  C   UNL d   1      -0.096   3.406   0.717  0.00  0.00     0.077 C 
ATOM      2  C1  UNL d   1      -0.270   1.945   1.007  0.00  0.00    -0.074 A 
ATOM      3  C2  UNL d   1      -1.022   1.514   2.104  0.00  0.00    -0.005 A 
ATOM      4  C3  UNL d   1      -1.184   0.152   2.356  0.00  0.00     0.006 A 
ATOM      5  C4  UNL d   1      -0.595  -0.792   1.514  0.00  0.00    -0.005 A 
ATOM      6  C5  UNL d   1       0.160  -0.381   0.411  0.00  0.00    -0.074 A 
ATOM      7  C6  UNL d   1       0.792  -1.383  -0.509  0.00  0.00     0.077 C 
ATOM      8  C7  UNL d   1       0.312   0.990   0.161  0.00  0.00    -0.001 A 
ENDROOT
TORSDOF 0
ENDMDL
