MODEL 1
REMARK minimizedAffinity -3.28224826
REMARK minimizedRMSD -1
REMARK  0 active torsions:
REMARK  status: ('A' for Active; 'I' for Inactive)
ROOT
ATOM      1  C   UNL d   1      -0.823  -0.335   1.333  0.00  0.00     0.077 C 
ATOM      2  C1  UNL d   1      -0.073  -0.684   0.082  0.00  0.00    -0.074 A 
ATOM      3  C2  UNL d   1       0.787   0.239  -0.522  0.00  0.00    -0.005 A 
ATOM      4  C3  UNL d   1       1.486  -0.103  -1.680  0.00  0.00     0.006 A 
ATOM      5  C4  UNL d   1       1.333  -1.370  -2.244  0.00  0.00    -0.005 A 
ATOM      6  C5  UNL d   1       0.479  -2.307  -1.653  0.00  0.00    -0.074 A 
ATOM      7  C6  UNL d   1       0.311  -3.677  -2.241  0.00  0.00     0.077 C 
ATOM      8  C7  UNL d   1      -0.215  -1.958  -0.486  0.00  0.00    -0.001 A 
ENDROOT
TORSDOF 0
ENDMDL
