MODEL 1
REMARK minimizedAffinity -0.333042622
REMARK minimizedRMSD -1
REMARK  0 active torsions:
REMARK  status: ('A' for Active; 'I' for Inactive)
ROOT
ATOM      1  C   UNL d   1       1.506  -5.461  -0.752  0.00  0.00     0.077 C 
ATOM      2  C1  UNL d   1       1.279  -4.130  -1.406  0.00  0.00    -0.074 A 
ATOM      3  C2  UNL d   1       1.054  -4.035  -2.783  0.00  0.00    -0.005 A 
ATOM      4  C3  UNL d   1       0.835  -2.792  -3.375  0.00  0.00     0.006 A 
ATOM      5  C4  UNL d   1       0.838  -1.633  -2.598  0.00  0.00    -0.005 A 
ATOM      6  C5  UNL d   1       1.060  -1.708  -1.219  0.00  0.00    -0.074 A 
ATOM      7  C6  UNL d   1       1.057  -0.474  -0.368  0.00  0.00     0.077 C 
ATOM      8  C7  UNL d   1       1.273  -2.962  -0.630  0.00  0.00    -0.001 A 
ENDROOT
TORSDOF 0
ENDMDL
