MODEL 1
REMARK minimizedAffinity -4.13622141
REMARK minimizedRMSD -1
REMARK  0 active torsions:
REMARK  status: ('A' for Active; 'I' for Inactive)
ROOT
ATOM      1  C   UNL d   1      -1.918   2.695   1.952  0.00  0.00     0.077 C 
ATOM      2  C1  UNL d   1      -1.038   2.290   0.806  0.00  0.00    -0.074 A 
ATOM      3  C2  UNL d   1      -0.500   3.248  -0.060  0.00  0.00    -0.005 A 
ATOM      4  C3  UNL d   1       0.324   2.857  -1.116  0.00  0.00     0.006 A 
ATOM      5  C4  UNL d   1       0.618   1.508  -1.316  0.00  0.00    -0.005 A 
ATOM      6  C5  UNL d   1       0.090   0.537  -0.459  0.00  0.00    -0.074 A 
ATOM      7  C6  UNL d   1       0.404  -0.917  -0.654  0.00  0.00     0.077 C 
ATOM      8  C7  UNL d   1      -0.731   0.937   0.603  0.00  0.00    -0.001 A 
ENDROOT
TORSDOF 0
ENDMDL
