MODEL 1
REMARK minimizedAffinity -2.34058571
REMARK minimizedRMSD -1
REMARK  0 active torsions:
REMARK  status: ('A' for Active; 'I' for Inactive)
ROOT
ATOM      1  C   UNL d   1       0.496  -0.895  -0.733  0.00  0.00     0.077 C 
ATOM      2  C1  UNL d   1       0.026   0.227   0.144  0.00  0.00    -0.074 A 
ATOM      3  C2  UNL d   1      -0.482  -0.024   1.423  0.00  0.00    -0.005 A 
ATOM      4  C3  UNL d   1      -0.907   1.030   2.231  0.00  0.00     0.006 A 
ATOM      5  C4  UNL d   1      -0.828   2.345   1.769  0.00  0.00    -0.005 A 
ATOM      6  C5  UNL d   1      -0.321   2.616   0.494  0.00  0.00    -0.074 A 
ATOM      7  C6  UNL d   1      -0.220   4.024  -0.013  0.00  0.00     0.077 C 
ATOM      8  C7  UNL d   1       0.110   1.551  -0.309  0.00  0.00    -0.001 A 
ENDROOT
TORSDOF 0
ENDMDL
