MODEL 1
REMARK minimizedAffinity -5.12282515
REMARK minimizedRMSD -1
REMARK  0 active torsions:
REMARK  status: ('A' for Active; 'I' for Inactive)
ROOT
ATOM      1  C   UNL d   1      -0.380   4.085  -0.737  0.00  0.00     0.077 C 
ATOM      2  C1  UNL d   1      -0.547   2.778  -0.021  0.00  0.00    -0.074 A 
ATOM      3  C2  UNL d   1      -1.130   2.724   1.250  0.00  0.00    -0.005 A 
ATOM      4  C3  UNL d   1      -1.288   1.500   1.899  0.00  0.00     0.006 A 
ATOM      5  C4  UNL d   1      -0.865   0.320   1.287  0.00  0.00    -0.005 A 
ATOM      6  C5  UNL d   1      -0.281   0.354   0.016  0.00  0.00    -0.074 A 
ATOM      7  C6  UNL d   1       0.169  -0.906  -0.660  0.00  0.00     0.077 C 
ATOM      8  C7  UNL d   1      -0.133   1.587  -0.633  0.00  0.00    -0.001 A 
ENDROOT
TORSDOF 0
ENDMDL
