MODEL 1
REMARK minimizedAffinity -5.21923542
REMARK minimizedRMSD -1
REMARK  0 active torsions:
REMARK  status: ('A' for Active; 'I' for Inactive)
ROOT
ATOM      1  C   UNL d   1      -0.076   3.336   0.254  0.00  0.00     0.077 C 
ATOM      2  C1  UNL d   1      -0.145   1.905   0.699  0.00  0.00    -0.074 A 
ATOM      3  C2  UNL d   1      -0.870   1.541   1.838  0.00  0.00    -0.005 A 
ATOM      4  C3  UNL d   1      -0.932   0.205   2.235  0.00  0.00     0.006 A 
ATOM      5  C4  UNL d   1      -0.271  -0.778   1.497  0.00  0.00    -0.005 A 
ATOM      6  C5  UNL d   1       0.458  -0.433   0.355  0.00  0.00    -0.074 A 
ATOM      7  C6  UNL d   1       1.166  -1.478  -0.454  0.00  0.00     0.077 C 
ATOM      8  C7  UNL d   1       0.510   0.911  -0.041  0.00  0.00    -0.001 A 
ENDROOT
TORSDOF 0
ENDMDL
