MODEL 1
REMARK minimizedAffinity -3.96281195
REMARK minimizedRMSD -1
REMARK  0 active torsions:
REMARK  status: ('A' for Active; 'I' for Inactive)
ROOT
ATOM      1  C   UNL d   1       0.731  -1.955  -1.213  0.00  0.00     0.077 C 
ATOM      2  C1  UNL d   1       0.254  -0.754  -0.453  0.00  0.00    -0.074 A 
ATOM      3  C2  UNL d   1      -0.487  -0.896   0.725  0.00  0.00    -0.005 A 
ATOM      4  C3  UNL d   1      -0.915   0.231   1.427  0.00  0.00     0.006 A 
ATOM      5  C4  UNL d   1      -0.608   1.509   0.959  0.00  0.00    -0.005 A 
ATOM      6  C5  UNL d   1       0.132   1.671  -0.216  0.00  0.00    -0.074 A 
ATOM      7  C6  UNL d   1       0.479   3.037  -0.728  0.00  0.00     0.077 C 
ATOM      8  C7  UNL d   1       0.565   0.534  -0.912  0.00  0.00    -0.001 A 
ENDROOT
TORSDOF 0
ENDMDL
