MODEL 1
REMARK minimizedAffinity -2.62101984
REMARK minimizedRMSD -1
REMARK  0 active torsions:
REMARK  status: ('A' for Active; 'I' for Inactive)
ROOT
ATOM      1  C   UNL d   1       0.737  -1.161  -0.459  0.00  0.00     0.077 C 
ATOM      2  C1  UNL d   1       0.169   0.041   0.234  0.00  0.00    -0.074 A 
ATOM      3  C2  UNL d   1      -0.470  -0.078   1.473  0.00  0.00    -0.005 A 
ATOM      4  C3  UNL d   1      -0.986   1.050   2.110  0.00  0.00     0.006 A 
ATOM      5  C4  UNL d   1      -0.868   2.307   1.516  0.00  0.00    -0.005 A 
ATOM      6  C5  UNL d   1      -0.233   2.447   0.278  0.00  0.00    -0.074 A 
ATOM      7  C6  UNL d   1      -0.090   3.792  -0.369  0.00  0.00     0.077 C 
ATOM      8  C7  UNL d   1       0.289   1.309  -0.352  0.00  0.00    -0.001 A 
ENDROOT
TORSDOF 0
ENDMDL
