MODEL 1
REMARK minimizedAffinity -2.01683664
REMARK minimizedRMSD -1
REMARK  0 active torsions:
REMARK  status: ('A' for Active; 'I' for Inactive)
ROOT
ATOM      1  C   UNL d   1       0.992  -2.184  -1.829  0.00  0.00     0.077 C 
ATOM      2  C1  UNL d   1       0.691  -1.127  -0.808  0.00  0.00    -0.074 A 
ATOM      3  C2  UNL d   1       0.225  -1.470   0.466  0.00  0.00    -0.005 A 
ATOM      4  C3  UNL d   1      -0.041  -0.476   1.408  0.00  0.00     0.006 A 
ATOM      5  C4  UNL d   1       0.155   0.867   1.086  0.00  0.00    -0.005 A 
ATOM      6  C5  UNL d   1       0.621   1.229  -0.182  0.00  0.00    -0.074 A 
ATOM      7  C6  UNL d   1       0.846   2.668  -0.540  0.00  0.00     0.077 C 
ATOM      8  C7  UNL d   1       0.893   0.224  -1.121  0.00  0.00    -0.001 A 
ENDROOT
TORSDOF 0
ENDMDL
