MODEL 1
REMARK minimizedAffinity -2.21447682
REMARK minimizedRMSD -1
REMARK  0 active torsions:
REMARK  status: ('A' for Active; 'I' for Inactive)
ROOT
ATOM      1  C   UNL d   1       0.250   4.049   0.396  0.00  0.00     0.077 C 
ATOM      2  C1  UNL d   1      -0.117   2.673   0.865  0.00  0.00    -0.074 A 
ATOM      3  C2  UNL d   1      -0.992   2.489   1.940  0.00  0.00    -0.005 A 
ATOM      4  C3  UNL d   1      -1.331   1.202   2.359  0.00  0.00     0.006 A 
ATOM      5  C4  UNL d   1      -0.800   0.088   1.707  0.00  0.00    -0.005 A 
ATOM      6  C5  UNL d   1       0.076   0.253   0.629  0.00  0.00    -0.074 A 
ATOM      7  C6  UNL d   1       0.648  -0.934  -0.088  0.00  0.00     0.077 C 
ATOM      8  C7  UNL d   1       0.406   1.549   0.210  0.00  0.00    -0.001 A 
ENDROOT
TORSDOF 0
ENDMDL
