MODEL 1
REMARK minimizedAffinity 7.8560009
REMARK minimizedRMSD -1
REMARK  1 active torsions:
REMARK  status: ('A' for Active; 'I' for Inactive)
REMARK    1  A    between atoms: C1_2  and  C2_3 
ROOT
ATOM      1  C2  UNL d   1      -0.258  -1.752   2.483  0.00  0.00    -0.076 A 
ATOM      2  C3  UNL d   1       0.821  -1.155   1.807  0.00  0.00     0.004 A 
ATOM      3  C4  UNL d   1       1.791  -1.932   1.176  0.00  0.00    -0.003 A 
ATOM      4  C5  UNL d   1       1.697  -3.319   1.210  0.00  0.00     0.000 A 
ATOM      5  C6  UNL d   1       0.624  -3.928   1.860  0.00  0.00     0.000 A 
ATOM      6  C7  UNL d   1      -0.371  -3.159   2.487  0.00  0.00    -0.073 A 
ATOM      7  C8  UNL d   1      -1.503  -3.868   3.179  0.00  0.00     0.078 C 
ENDROOT
BRANCH   1   8
ATOM      8  C1  UNL d   1      -1.264  -0.858   3.172  0.00  0.00     0.053 C 
ATOM      9  C   UNL d   1      -2.457  -0.532   2.286  0.00  0.00     0.018 C 
ENDBRANCH   1   8
TORSDOF 1
ENDMDL
