MODEL 1
REMARK minimizedAffinity 8.45623302
REMARK minimizedRMSD -1
REMARK  1 active torsions:
REMARK  status: ('A' for Active; 'I' for Inactive)
REMARK    1  A    between atoms: C1_2  and  C2_3 
ROOT
ATOM      1  C2  UNL d   1       2.763  -2.748   1.858  0.00  0.00    -0.076 A 
ATOM      2  C3  UNL d   1       1.588  -2.455   1.145  0.00  0.00     0.004 A 
ATOM      3  C4  UNL d   1       0.701  -1.478   1.595  0.00  0.00    -0.003 A 
ATOM      4  C5  UNL d   1       0.975  -0.779   2.765  0.00  0.00     0.000 A 
ATOM      5  C6  UNL d   1       2.145  -1.045   3.476  0.00  0.00     0.000 A 
ATOM      6  C7  UNL d   1       3.058  -2.015   3.027  0.00  0.00    -0.073 A 
ATOM      7  C8  UNL d   1       4.301  -2.265   3.836  0.00  0.00     0.078 C 
ENDROOT
BRANCH   1   8
ATOM      8  C1  UNL d   1       3.674  -3.837   1.337  0.00  0.00     0.053 C 
ATOM      9  C   UNL d   1       2.919  -5.109   0.985  0.00  0.00     0.018 C 
ENDBRANCH   1   8
TORSDOF 1
ENDMDL
