MODEL 1
REMARK minimizedAffinity 4.63027573
REMARK minimizedRMSD -1
REMARK  1 active torsions:
REMARK  status: ('A' for Active; 'I' for Inactive)
REMARK    1  A    between atoms: C1_2  and  C2_3 
ROOT
ATOM      1  C2  UNL d   1      -1.319   3.960  -4.038  0.00  0.00    -0.076 A 
ATOM      2  C3  UNL d   1      -0.016   3.784  -4.535  0.00  0.00     0.004 A 
ATOM      3  C4  UNL d   1       0.503   4.641  -5.505  0.00  0.00    -0.003 A 
ATOM      4  C5  UNL d   1      -0.272   5.688  -5.992  0.00  0.00     0.000 A 
ATOM      5  C6  UNL d   1      -1.560   5.888  -5.496  0.00  0.00     0.000 A 
ATOM      6  C7  UNL d   1      -2.093   5.043  -4.507  0.00  0.00    -0.073 A 
ATOM      7  C8  UNL d   1      -3.490   5.301  -4.014  0.00  0.00     0.078 C 
ENDROOT
BRANCH   1   8
ATOM      8  C1  UNL d   1      -1.839   2.984  -3.007  0.00  0.00     0.053 C 
ATOM      9  C   UNL d   1      -2.214   1.641  -3.614  0.00  0.00     0.018 C 
ENDBRANCH   1   8
TORSDOF 1
ENDMDL
