MODEL 1
REMARK minimizedAffinity 4.60190725
REMARK minimizedRMSD -1
REMARK  1 active torsions:
REMARK  status: ('A' for Active; 'I' for Inactive)
REMARK    1  A    between atoms: C1_2  and  C2_3 
ROOT
ATOM      1  C2  UNL d   1      -3.451   1.344  -3.935  0.00  0.00    -0.076 A 
ATOM      2  C3  UNL d   1      -3.983   1.397  -5.235  0.00  0.00     0.004 A 
ATOM      3  C4  UNL d   1      -5.247   0.880  -5.515  0.00  0.00    -0.003 A 
ATOM      4  C5  UNL d   1      -5.999   0.302  -4.499  0.00  0.00     0.000 A 
ATOM      5  C6  UNL d   1      -5.495   0.256  -3.200  0.00  0.00     0.000 A 
ATOM      6  C7  UNL d   1      -4.229   0.787  -2.897  0.00  0.00    -0.073 A 
ATOM      7  C8  UNL d   1      -3.732   0.705  -1.480  0.00  0.00     0.078 C 
ENDROOT
BRANCH   1   8
ATOM      8  C1  UNL d   1      -2.064   1.896  -3.696  0.00  0.00     0.053 C 
ATOM      9  C   UNL d   1      -2.080   3.186  -2.891  0.00  0.00     0.018 C 
ENDBRANCH   1   8
TORSDOF 1
ENDMDL
