MODEL 1
REMARK minimizedAffinity 16.6584759
REMARK minimizedRMSD -1
REMARK  1 active torsions:
REMARK  status: ('A' for Active; 'I' for Inactive)
REMARK    1  A    between atoms: C1_2  and  C2_3 
ROOT
ATOM      1  C2  UNL d   1       2.524  -2.023   2.890  0.00  0.00    -0.076 A 
ATOM      2  C3  UNL d   1       3.141  -2.997   2.086  0.00  0.00     0.004 A 
ATOM      3  C4  UNL d   1       2.691  -3.248   0.791  0.00  0.00    -0.003 A 
ATOM      4  C5  UNL d   1       1.616  -2.529   0.279  0.00  0.00     0.000 A 
ATOM      5  C6  UNL d   1       1.003  -1.547   1.057  0.00  0.00     0.000 A 
ATOM      6  C7  UNL d   1       1.456  -1.270   2.358  0.00  0.00    -0.073 A 
ATOM      7  C8  UNL d   1       0.754  -0.204   3.155  0.00  0.00     0.078 C 
ENDROOT
BRANCH   1   8
ATOM      8  C1  UNL d   1       3.039  -1.813   4.296  0.00  0.00     0.053 C 
ATOM      9  C   UNL d   1       4.355  -2.533   4.549  0.00  0.00     0.018 C 
ENDBRANCH   1   8
TORSDOF 1
ENDMDL
