MODEL 1
REMARK minimizedAffinity 13.5592279
REMARK minimizedRMSD -1
REMARK  1 active torsions:
REMARK  status: ('A' for Active; 'I' for Inactive)
REMARK    1  A    between atoms: C1_2  and  C2_3 
ROOT
ATOM      1  C2  UNL d   1      -1.306   1.799  -2.642  0.00  0.00    -0.076 A 
ATOM      2  C3  UNL d   1      -0.816   0.671  -1.960  0.00  0.00     0.004 A 
ATOM      3  C4  UNL d   1      -1.679  -0.191  -1.286  0.00  0.00    -0.003 A 
ATOM      4  C5  UNL d   1      -3.047   0.060  -1.283  0.00  0.00     0.000 A 
ATOM      5  C6  UNL d   1      -3.552   1.164  -1.969  0.00  0.00     0.000 A 
ATOM      6  C7  UNL d   1      -2.698   2.034  -2.667  0.00  0.00    -0.073 A 
ATOM      7  C8  UNL d   1      -3.296   3.212  -3.385  0.00  0.00     0.078 C 
ENDROOT
BRANCH   1   8
ATOM      8  C1  UNL d   1      -0.320   2.713  -3.332  0.00  0.00     0.053 C 
ATOM      9  C   UNL d   1       0.082   2.205  -4.708  0.00  0.00     0.018 C 
ENDBRANCH   1   8
TORSDOF 1
ENDMDL
