MODEL 1
REMARK minimizedAffinity 7.37011909
REMARK minimizedRMSD -1
REMARK  1 active torsions:
REMARK  status: ('A' for Active; 'I' for Inactive)
REMARK    1  A    between atoms: C1_2  and  C2_3 
ROOT
ATOM      1  C2  UNL d   1      -0.012   3.440  -4.882  0.00  0.00    -0.076 A 
ATOM      2  C3  UNL d   1      -0.733   4.261  -3.997  0.00  0.00     0.004 A 
ATOM      3  C4  UNL d   1      -1.869   3.786  -3.344  0.00  0.00    -0.003 A 
ATOM      4  C5  UNL d   1      -2.302   2.483  -3.563  0.00  0.00     0.000 A 
ATOM      5  C6  UNL d   1      -1.588   1.650  -4.424  0.00  0.00     0.000 A 
ATOM      6  C7  UNL d   1      -0.431   2.107  -5.078  0.00  0.00    -0.073 A 
ATOM      7  C8  UNL d   1       0.296   1.167  -6.000  0.00  0.00     0.078 C 
ENDROOT
BRANCH   1   8
ATOM      8  C1  UNL d   1       1.197   4.018  -5.583  0.00  0.00     0.053 C 
ATOM      9  C   UNL d   1       1.217   5.539  -5.552  0.00  0.00     0.018 C 
ENDBRANCH   1   8
TORSDOF 1
ENDMDL
