MODEL 1
REMARK minimizedAffinity 0.687154114
REMARK minimizedRMSD -1
REMARK  1 active torsions:
REMARK  status: ('A' for Active; 'I' for Inactive)
REMARK    1  A    between atoms: C3_4  and  O_7 
ROOT
ATOM      1  C   UNL d   1       3.068  -3.389  -0.349  0.00  0.00    -0.033 A 
ATOM      2  C1  UNL d   1       2.237  -2.721   0.552  0.00  0.00     0.039 A 
ATOM      3  C2  UNL d   1       2.604  -2.615   1.895  0.00  0.00    -0.080 A 
ATOM      4  C3  UNL d   1       3.803  -3.179   2.323  0.00  0.00     0.150 A 
ATOM      5  C4  UNL d   1       4.637  -3.843   1.429  0.00  0.00    -0.007 A 
ATOM      6  C5  UNL d   1       4.269  -3.949   0.089  0.00  0.00     0.039 A 
ENDROOT
BRANCH   4   7
ATOM      7  O   UNL d   1       4.201  -3.105   3.625  0.00  0.00    -0.526 OA
ATOM      8  H5  UNL d   1       3.512  -2.643   4.131  0.00  0.00     0.418 HD
ENDBRANCH   4   7
TORSDOF 1
ENDMDL
