MODEL 1
REMARK minimizedAffinity 7.92363548
REMARK minimizedRMSD -1
REMARK  1 active torsions:
REMARK  status: ('A' for Active; 'I' for Inactive)
REMARK    1  A    between atoms: C3_4  and  O_7 
ROOT
ATOM      1  C   UNL d   1       3.107   0.196   0.826  0.00  0.00    -0.033 A 
ATOM      2  C1  UNL d   1       4.270   0.410   0.084  0.00  0.00     0.039 A 
ATOM      3  C2  UNL d   1       4.871   1.670   0.073  0.00  0.00    -0.080 A 
ATOM      4  C3  UNL d   1       4.300   2.706   0.807  0.00  0.00     0.150 A 
ATOM      5  C4  UNL d   1       3.143   2.499   1.551  0.00  0.00    -0.007 A 
ATOM      6  C5  UNL d   1       2.544   1.240   1.560  0.00  0.00     0.039 A 
ENDROOT
BRANCH   4   7
ATOM      7  O   UNL d   1       4.848   3.954   0.823  0.00  0.00    -0.526 OA
ATOM      8  H5  UNL d   1       5.626   3.956   0.241  0.00  0.00     0.418 HD
ENDBRANCH   4   7
TORSDOF 1
ENDMDL
