MODEL 1
REMARK minimizedAffinity -0.669712007
REMARK minimizedRMSD -1
REMARK  1 active torsions:
REMARK  status: ('A' for Active; 'I' for Inactive)
REMARK    1  A    between atoms: C3_4  and  O_7 
ROOT
ATOM      1  C   UNL d   1       3.806   5.995  -5.831  0.00  0.00    -0.033 A 
ATOM      2  C1  UNL d   1       3.123   4.787  -5.680  0.00  0.00     0.039 A 
ATOM      3  C2  UNL d   1       3.825   3.580  -5.690  0.00  0.00    -0.080 A 
ATOM      4  C3  UNL d   1       5.208   3.595  -5.850  0.00  0.00     0.150 A 
ATOM      5  C4  UNL d   1       5.896   4.795  -5.997  0.00  0.00    -0.007 A 
ATOM      6  C5  UNL d   1       5.193   5.999  -5.988  0.00  0.00     0.039 A 
ENDROOT
BRANCH   4   7
ATOM      7  O   UNL d   1       5.936   2.442  -5.871  0.00  0.00    -0.526 OA
ATOM      8  H5  UNL d   1       5.325   1.691  -5.787  0.00  0.00     0.418 HD
ENDBRANCH   4   7
TORSDOF 1
ENDMDL
