MODEL 1
REMARK minimizedAffinity 7.44008732
REMARK minimizedRMSD -1
REMARK  1 active torsions:
REMARK  status: ('A' for Active; 'I' for Inactive)
REMARK    1  A    between atoms: C3_4  and  O_7 
ROOT
ATOM      1  C   UNL d   1       3.047   5.993  -5.339  0.00  0.00    -0.033 A 
ATOM      2  C1  UNL d   1       4.277   5.999  -5.999  0.00  0.00     0.039 A 
ATOM      3  C2  UNL d   1       5.078   4.855  -5.997  0.00  0.00    -0.080 A 
ATOM      4  C3  UNL d   1       4.636   3.713  -5.334  0.00  0.00     0.150 A 
ATOM      5  C4  UNL d   1       3.410   3.699  -4.678  0.00  0.00    -0.007 A 
ATOM      6  C5  UNL d   1       2.613   4.843  -4.679  0.00  0.00     0.039 A 
ENDROOT
BRANCH   4   7
ATOM      7  O   UNL d   1       5.385   2.574  -5.301  0.00  0.00    -0.526 OA
ATOM      8  H5  UNL d   1       6.219   2.741  -5.771  0.00  0.00     0.418 HD
ENDBRANCH   4   7
TORSDOF 1
ENDMDL
