MODEL 1
REMARK minimizedAffinity 0.649733067
REMARK minimizedRMSD -1
REMARK  1 active torsions:
REMARK  status: ('A' for Active; 'I' for Inactive)
REMARK    1  A    between atoms: C3_4  and  O_7 
ROOT
ATOM      1  C   UNL d   1       3.982   4.258  -5.978  0.00  0.00    -0.033 A 
ATOM      2  C1  UNL d   1       2.975   3.291  -5.979  0.00  0.00     0.039 A 
ATOM      3  C2  UNL d   1       1.634   3.677  -5.920  0.00  0.00    -0.080 A 
ATOM      4  C3  UNL d   1       1.315   5.031  -5.861  0.00  0.00     0.150 A 
ATOM      5  C4  UNL d   1       2.313   5.999  -5.863  0.00  0.00    -0.007 A 
ATOM      6  C5  UNL d   1       3.651   5.612  -5.921  0.00  0.00     0.039 A 
ENDROOT
BRANCH   4   7
ATOM      7  O   UNL d   1       0.021   5.455  -5.797  0.00  0.00    -0.526 OA
ATOM      8  H5  UNL d   1      -0.558   4.676  -5.774  0.00  0.00     0.418 HD
ENDBRANCH   4   7
TORSDOF 1
ENDMDL
