MODEL 1
REMARK minimizedAffinity 9.47875881
REMARK minimizedRMSD -1
REMARK  1 active torsions:
REMARK  status: ('A' for Active; 'I' for Inactive)
REMARK    1  A    between atoms: C3_4  and  O_7 
ROOT
ATOM      1  C   UNL d   1       1.702   4.124  -5.196  0.00  0.00    -0.033 A 
ATOM      2  C1  UNL d   1       2.847   3.382  -4.900  0.00  0.00     0.039 A 
ATOM      3  C2  UNL d   1       4.112   3.946  -5.075  0.00  0.00    -0.080 A 
ATOM      4  C3  UNL d   1       4.218   5.252  -5.544  0.00  0.00     0.150 A 
ATOM      5  C4  UNL d   1       3.082   5.999  -5.837  0.00  0.00    -0.007 A 
ATOM      6  C5  UNL d   1       1.820   5.434  -5.663  0.00  0.00     0.039 A 
ENDROOT
BRANCH   4   7
ATOM      7  O   UNL d   1       5.431   5.844  -5.735  0.00  0.00    -0.526 OA
ATOM      8  H5  UNL d   1       6.126   5.199  -5.519  0.00  0.00     0.418 HD
ENDBRANCH   4   7
TORSDOF 1
ENDMDL
