MODEL 1
REMARK minimizedAffinity 6.9669137
REMARK minimizedRMSD -1
REMARK  1 active torsions:
REMARK  status: ('A' for Active; 'I' for Inactive)
REMARK    1  A    between atoms: C3_4  and  O_7 
ROOT
ATOM      1  C   UNL d   1       3.595   6.000  -5.422  0.00  0.00    -0.033 A 
ATOM      2  C1  UNL d   1       4.863   5.904  -5.998  0.00  0.00     0.039 A 
ATOM      3  C2  UNL d   1       5.541   4.684  -6.000  0.00  0.00    -0.080 A 
ATOM      4  C3  UNL d   1       4.940   3.568  -5.424  0.00  0.00     0.150 A 
ATOM      5  C4  UNL d   1       3.675   3.655  -4.851  0.00  0.00    -0.007 A 
ATOM      6  C5  UNL d   1       3.000   4.875  -4.849  0.00  0.00     0.039 A 
ENDROOT
BRANCH   4   7
ATOM      7  O   UNL d   1       5.564   2.356  -5.397  0.00  0.00    -0.526 OA
ATOM      8  H5  UNL d   1       6.442   2.453  -5.803  0.00  0.00     0.418 HD
ENDBRANCH   4   7
TORSDOF 1
ENDMDL
