MODEL 1
REMARK minimizedAffinity 12.4659309
REMARK minimizedRMSD -1
REMARK  3 active torsions:
REMARK  status: ('A' for Active; 'I' for Inactive)
REMARK    1  A    between atoms: C3'_2  and  C2'_3 
REMARK    2  A    between atoms: C2'_3  and  C1'_4 
REMARK    3  A    between atoms: C1'_4  and  C1_5 
ROOT
ATOM      1  C1  N4B d   1       0.374  -3.450   4.878  0.00  0.00    -0.075 A 
ATOM      2  C2  N4B d   1       0.200  -4.231   3.714  0.00  0.00     0.002 A 
ATOM      3  C3  N4B d   1       0.722  -5.500   3.655  0.00  0.00     0.002 A 
ATOM      4  C4  N4B d   1       1.435  -5.999   4.734  0.00  0.00    -0.004 A 
ATOM      5  C5  N4B d   1       1.576  -5.248   5.864  0.00  0.00     0.002 A 
ATOM      6  C6  N4B d   1       1.053  -3.973   5.940  0.00  0.00     0.002 A 
ENDROOT
BRANCH   1   7
ATOM      7  C1' N4B d   1      -0.105  -2.026   4.957  0.00  0.00     0.057 C 
BRANCH   7   8
ATOM      8  C2' N4B d   1      -0.692  -1.619   3.609  0.00  0.00     0.009 C 
BRANCH   8   9
ATOM      9  C3' N4B d   1      -2.182  -1.339   3.699  0.00  0.00     0.004 C 
ATOM     10  C4' N4B d   1      -3.014  -2.406   3.052  0.00  0.00     0.003 C 
ENDBRANCH   8   9
ENDBRANCH   7   8
ENDBRANCH   1   7
TORSDOF 3
ENDMDL
