MODEL 1
REMARK minimizedAffinity 10.959713
REMARK minimizedRMSD -1
REMARK  3 active torsions:
REMARK  status: ('A' for Active; 'I' for Inactive)
REMARK    1  A    between atoms: C3'_2  and  C2'_3 
REMARK    2  A    between atoms: C2'_3  and  C1'_4 
REMARK    3  A    between atoms: C1'_4  and  C1_5 
ROOT
ATOM      1  C1  N4B d   1       2.042   2.549   0.306  0.00  0.00    -0.075 A 
ATOM      2  C2  N4B d   1       0.881   1.977  -0.258  0.00  0.00     0.002 A 
ATOM      3  C3  N4B d   1      -0.193   2.773  -0.574  0.00  0.00     0.002 A 
ATOM      4  C4  N4B d   1      -0.136   4.134  -0.318  0.00  0.00    -0.004 A 
ATOM      5  C5  N4B d   1       0.998   4.683   0.204  0.00  0.00     0.002 A 
ATOM      6  C6  N4B d   1       2.087   3.896   0.522  0.00  0.00     0.002 A 
ENDROOT
BRANCH   1   7
ATOM      7  C1' N4B d   1       3.208   1.708   0.747  0.00  0.00     0.057 C 
BRANCH   7   8
ATOM      8  C2' N4B d   1       2.721   0.661   1.745  0.00  0.00     0.009 C 
BRANCH   8   9
ATOM      9  C3' N4B d   1       3.423  -0.673   1.557  0.00  0.00     0.004 C 
ATOM     10  C4' N4B d   1       4.917  -0.554   1.600  0.00  0.00     0.003 C 
ENDBRANCH   8   9
ENDBRANCH   7   8
ENDBRANCH   1   7
TORSDOF 3
ENDMDL
