MODEL 1
REMARK minimizedAffinity 11.4735909
REMARK minimizedRMSD -1
REMARK  3 active torsions:
REMARK  status: ('A' for Active; 'I' for Inactive)
REMARK    1  A    between atoms: C3'_2  and  C2'_3 
REMARK    2  A    between atoms: C2'_3  and  C1'_4 
REMARK    3  A    between atoms: C1'_4  and  C1_5 
ROOT
ATOM      1  C1  N4B d   1      -4.085  -4.459   4.092  0.00  0.00    -0.075 A 
ATOM      2  C2  N4B d   1      -4.720  -5.720   4.102  0.00  0.00     0.002 A 
ATOM      3  C3  N4B d   1      -5.677  -6.000   5.047  0.00  0.00     0.002 A 
ATOM      4  C4  N4B d   1      -6.000  -5.045   5.999  0.00  0.00    -0.004 A 
ATOM      5  C5  N4B d   1      -5.399  -3.820   5.967  0.00  0.00     0.002 A 
ATOM      6  C6  N4B d   1      -4.439  -3.524   5.021  0.00  0.00     0.002 A 
ENDROOT
BRANCH   1   7
ATOM      7  C1' N4B d   1      -2.972  -4.138   3.132  0.00  0.00     0.057 C 
BRANCH   7   8
ATOM      8  C2' N4B d   1      -2.926  -2.630   2.905  0.00  0.00     0.009 C 
BRANCH   8   9
ATOM      9  C3' N4B d   1      -1.694  -2.211   2.122  0.00  0.00     0.004 C 
ATOM     10  C4' N4B d   1      -1.120  -0.908   2.595  0.00  0.00     0.003 C 
ENDBRANCH   8   9
ENDBRANCH   7   8
ENDBRANCH   1   7
TORSDOF 3
ENDMDL
