MODEL 1
REMARK minimizedAffinity 13.1456947
REMARK minimizedRMSD -1
REMARK  3 active torsions:
REMARK  status: ('A' for Active; 'I' for Inactive)
REMARK    1  A    between atoms: C3'_2  and  C2'_3 
REMARK    2  A    between atoms: C2'_3  and  C1'_4 
REMARK    3  A    between atoms: C1'_4  and  C1_5 
ROOT
ATOM      1  C1  N4B d   1       0.636  -3.392   1.931  0.00  0.00    -0.075 A 
ATOM      2  C2  N4B d   1       1.202  -2.373   1.134  0.00  0.00     0.002 A 
ATOM      3  C3  N4B d   1       0.751  -1.081   1.250  0.00  0.00     0.002 A 
ATOM      4  C4  N4B d   1      -0.272  -0.789   2.139  0.00  0.00    -0.004 A 
ATOM      5  C5  N4B d   1      -0.795  -1.774   2.924  0.00  0.00     0.002 A 
ATOM      6  C6  N4B d   1      -0.349  -3.076   2.821  0.00  0.00     0.002 A 
ENDROOT
BRANCH   1   7
ATOM      7  C1' N4B d   1       1.037  -4.834   1.778  0.00  0.00     0.057 C 
BRANCH   7   8
ATOM      8  C2' N4B d   1       0.724  -5.580   3.072  0.00  0.00     0.009 C 
BRANCH   8   9
ATOM      9  C3' N4B d   1       1.986  -5.998   3.807  0.00  0.00     0.004 C 
ATOM     10  C4' N4B d   1       1.820  -5.989   5.297  0.00  0.00     0.003 C 
ENDBRANCH   8   9
ENDBRANCH   7   8
ENDBRANCH   1   7
TORSDOF 3
ENDMDL
