MODEL 1
REMARK minimizedAffinity 13.2333107
REMARK minimizedRMSD -1
REMARK  3 active torsions:
REMARK  status: ('A' for Active; 'I' for Inactive)
REMARK    1  A    between atoms: C3'_2  and  C2'_3 
REMARK    2  A    between atoms: C2'_3  and  C1'_4 
REMARK    3  A    between atoms: C1'_4  and  C1_5 
ROOT
ATOM      1  C1  N4B d   1       1.687  -2.047   0.730  0.00  0.00    -0.075 A 
ATOM      2  C2  N4B d   1       1.814  -0.700   1.137  0.00  0.00     0.002 A 
ATOM      3  C3  N4B d   1       0.917  -0.165   2.028  0.00  0.00     0.002 A 
ATOM      4  C4  N4B d   1      -0.123  -0.947   2.508  0.00  0.00    -0.004 A 
ATOM      5  C5  N4B d   1      -0.224  -2.254   2.129  0.00  0.00     0.002 A 
ATOM      6  C6  N4B d   1       0.673  -2.806   1.238  0.00  0.00     0.002 A 
ENDROOT
BRANCH   1   7
ATOM      7  C1' N4B d   1       2.592  -2.652  -0.308  0.00  0.00     0.057 C 
BRANCH   7   8
ATOM      8  C2' N4B d   1       1.887  -3.838  -0.958  0.00  0.00     0.009 C 
BRANCH   8   9
ATOM      9  C3' N4B d   1       1.894  -3.742  -2.474  0.00  0.00     0.004 C 
ATOM     10  C4' N4B d   1       0.768  -4.501  -3.110  0.00  0.00     0.003 C 
ENDBRANCH   8   9
ENDBRANCH   7   8
ENDBRANCH   1   7
TORSDOF 3
ENDMDL
