MODEL 1
REMARK minimizedAffinity 13.7601776
REMARK minimizedRMSD -1
REMARK  3 active torsions:
REMARK  status: ('A' for Active; 'I' for Inactive)
REMARK    1  A    between atoms: C3'_2  and  C2'_3 
REMARK    2  A    between atoms: C2'_3  and  C1'_4 
REMARK    3  A    between atoms: C1'_4  and  C1_5 
ROOT
ATOM      1  C1  N4B d   1       1.297  -1.180   1.645  0.00  0.00    -0.075 A 
ATOM      2  C2  N4B d   1       0.955  -2.538   1.462  0.00  0.00     0.002 A 
ATOM      3  C3  N4B d   1      -0.141  -3.062   2.101  0.00  0.00     0.002 A 
ATOM      4  C4  N4B d   1      -0.898  -2.256   2.939  0.00  0.00    -0.004 A 
ATOM      5  C5  N4B d   1      -0.576  -0.939   3.090  0.00  0.00     0.002 A 
ATOM      6  C6  N4B d   1       0.521  -0.398   2.451  0.00  0.00     0.002 A 
ENDROOT
BRANCH   1   7
ATOM      7  C1' N4B d   1       2.536  -0.584   1.036  0.00  0.00     0.057 C 
BRANCH   7   8
ATOM      8  C2' N4B d   1       2.955   0.638   1.848  0.00  0.00     0.009 C 
BRANCH   8   9
ATOM      9  C3' N4B d   1       3.130   1.868   0.974  0.00  0.00     0.004 C 
ATOM     10  C4' N4B d   1       1.824   2.446   0.516  0.00  0.00     0.003 C 
ENDBRANCH   8   9
ENDBRANCH   7   8
ENDBRANCH   1   7
TORSDOF 3
ENDMDL
