MODEL 1
REMARK minimizedAffinity 16.2348881
REMARK minimizedRMSD -1
REMARK  3 active torsions:
REMARK  status: ('A' for Active; 'I' for Inactive)
REMARK    1  A    between atoms: C3'_2  and  C2'_3 
REMARK    2  A    between atoms: C2'_3  and  C1'_4 
REMARK    3  A    between atoms: C1'_4  and  C1_5 
ROOT
ATOM      1  C1  N4B d   1      -1.566   3.741  -3.382  0.00  0.00    -0.075 A 
ATOM      2  C2  N4B d   1      -2.003   4.885  -2.679  0.00  0.00     0.002 A 
ATOM      3  C3  N4B d   1      -2.412   6.000  -3.370  0.00  0.00     0.002 A 
ATOM      4  C4  N4B d   1      -2.374   6.000  -4.756  0.00  0.00    -0.004 A 
ATOM      5  C5  N4B d   1      -1.975   4.881  -5.427  0.00  0.00     0.002 A 
ATOM      6  C6  N4B d   1      -1.566   3.752  -4.746  0.00  0.00     0.002 A 
ENDROOT
BRANCH   1   7
ATOM      7  C1' N4B d   1      -1.030   2.529  -2.670  0.00  0.00     0.057 C 
BRANCH   7   8
ATOM      8  C2' N4B d   1       0.471   2.701  -2.451  0.00  0.00     0.009 C 
BRANCH   8   9
ATOM      9  C3' N4B d   1       0.873   2.401  -1.017  0.00  0.00     0.004 C 
ATOM     10  C4' N4B d   1       0.497   3.498  -0.066  0.00  0.00     0.003 C 
ENDBRANCH   8   9
ENDBRANCH   7   8
ENDBRANCH   1   7
TORSDOF 3
ENDMDL
