MODEL 1
REMARK minimizedAffinity 3.41258979
REMARK minimizedRMSD -1
REMARK  3 active torsions:
REMARK  status: ('A' for Active; 'I' for Inactive)
REMARK    1  A    between atoms: C3'_2  and  C2'_3 
REMARK    2  A    between atoms: C2'_3  and  C1'_4 
REMARK    3  A    between atoms: C1'_4  and  C1_5 
ROOT
ATOM      1  C1  N4B d   1      -3.385  -3.491   2.708  0.00  0.00    -0.075 A 
ATOM      2  C2  N4B d   1      -3.521  -3.628   1.309  0.00  0.00     0.002 A 
ATOM      3  C3  N4B d   1      -4.188  -4.708   0.786  0.00  0.00     0.002 A 
ATOM      4  C4  N4B d   1      -4.709  -5.671   1.637  0.00  0.00    -0.004 A 
ATOM      5  C5  N4B d   1      -4.596  -5.519   2.988  0.00  0.00     0.002 A 
ATOM      6  C6  N4B d   1      -3.932  -4.436   3.528  0.00  0.00     0.002 A 
ENDROOT
BRANCH   1   7
ATOM      7  C1' N4B d   1      -2.591  -2.372   3.323  0.00  0.00     0.057 C 
BRANCH   7   8
ATOM      8  C2' N4B d   1      -1.148  -2.455   2.835  0.00  0.00     0.009 C 
BRANCH   8   9
ATOM      9  C3' N4B d   1      -0.449  -1.108   2.895  0.00  0.00     0.004 C 
ATOM     10  C4' N4B d   1      -0.366  -0.557   4.287  0.00  0.00     0.003 C 
ENDBRANCH   8   9
ENDBRANCH   7   8
ENDBRANCH   1   7
TORSDOF 3
ENDMDL
