MODEL 1
REMARK minimizedAffinity -2.43924308
REMARK minimizedRMSD -1
REMARK  0 active torsions:
REMARK  status: ('A' for Active; 'I' for Inactive)
ROOT
ATOM      1  O1  BZF d   1       1.256  -0.654  -0.475  0.00  0.00    -0.204 OA
ATOM      2  C2  BZF d   1       0.429  -0.741  -1.578  0.00  0.00     0.174 A 
ATOM      3  C3  BZF d   1      -0.808  -0.292  -1.285  0.00  0.00    -0.012 A 
ATOM      4  C3A BZF d   1      -0.726   0.185   0.061  0.00  0.00    -0.107 A 
ATOM      5  C4  BZF d   1      -1.628   0.764   0.908  0.00  0.00     0.055 A 
ATOM      6  C5  BZF d   1      -1.249   1.045   2.183  0.00  0.00    -0.016 A 
ATOM      7  C6  BZF d   1       0.019   0.758   2.644  0.00  0.00     0.022 A 
ATOM      8  C7  BZF d   1       0.949   0.189   1.839  0.00  0.00     0.029 A 
ATOM      9  C7A BZF d   1       0.579  -0.067   0.541  0.00  0.00     0.058 A 
ENDROOT
TORSDOF 0
ENDMDL
