MODEL 1
REMARK minimizedAffinity -4.73203373
REMARK minimizedRMSD -1
REMARK  0 active torsions:
REMARK  status: ('A' for Active; 'I' for Inactive)
ROOT
ATOM      1  O1  BZF d   1      -0.834  -0.673  -0.820  0.00  0.00    -0.204 OA
ATOM      2  C2  BZF d   1       0.443  -0.968  -1.257  0.00  0.00     0.174 A 
ATOM      3  C3  BZF d   1       1.367  -0.409  -0.449  0.00  0.00    -0.012 A 
ATOM      4  C3A BZF d   1       0.621   0.202   0.608  0.00  0.00    -0.107 A 
ATOM      5  C4  BZF d   1       0.977   0.901   1.726  0.00  0.00     0.055 A 
ATOM      6  C5  BZF d   1       0.003   1.425   2.515  0.00  0.00    -0.016 A 
ATOM      7  C6  BZF d   1      -1.335   1.274   2.215  0.00  0.00     0.022 A 
ATOM      8  C7  BZF d   1      -1.737   0.585   1.120  0.00  0.00     0.029 A 
ATOM      9  C7A BZF d   1      -0.756   0.026   0.338  0.00  0.00     0.058 A 
ENDROOT
TORSDOF 0
ENDMDL
