MODEL 1
REMARK minimizedAffinity -2.07338905
REMARK minimizedRMSD -1
REMARK  0 active torsions:
REMARK  status: ('A' for Active; 'I' for Inactive)
ROOT
ATOM      1  O1  BZF d   1       0.995  -0.378   0.113  0.00  0.00    -0.204 OA
ATOM      2  C2  BZF d   1       1.034  -0.856  -1.183  0.00  0.00     0.174 A 
ATOM      3  C3  BZF d   1      -0.192  -0.820  -1.743  0.00  0.00    -0.012 A 
ATOM      4  C3A BZF d   1      -1.034  -0.199  -0.767  0.00  0.00    -0.107 A 
ATOM      5  C4  BZF d   1      -2.359   0.133  -0.744  0.00  0.00     0.055 A 
ATOM      6  C5  BZF d   1      -2.887   0.662   0.391  0.00  0.00    -0.016 A 
ATOM      7  C6  BZF d   1      -2.123   0.868   1.521  0.00  0.00     0.022 A 
ATOM      8  C7  BZF d   1      -0.803   0.560   1.544  0.00  0.00     0.029 A 
ATOM      9  C7A BZF d   1      -0.259   0.055   0.388  0.00  0.00     0.058 A 
ENDROOT
TORSDOF 0
ENDMDL
