MODEL 1
REMARK minimizedAffinity -4.3914156
REMARK minimizedRMSD -1
REMARK  0 active torsions:
REMARK  status: ('A' for Active; 'I' for Inactive)
ROOT
ATOM      1  O1  BZF d   1      -0.385  -0.316  -0.496  0.00  0.00    -0.204 OA
ATOM      2  C2  BZF d   1       0.867  -0.762  -0.872  0.00  0.00     0.174 A 
ATOM      3  C3  BZF d   1       1.775  -0.504   0.090  0.00  0.00    -0.012 A 
ATOM      4  C3A BZF d   1       1.028   0.061   1.172  0.00  0.00    -0.107 A 
ATOM      5  C4  BZF d   1       1.369   0.507   2.417  0.00  0.00     0.055 A 
ATOM      6  C5  BZF d   1       0.412   1.068   3.202  0.00  0.00    -0.016 A 
ATOM      7  C6  BZF d   1      -0.892   1.203   2.773  0.00  0.00     0.022 A 
ATOM      8  C7  BZF d   1      -1.279   0.770   1.549  0.00  0.00     0.029 A 
ATOM      9  C7A BZF d   1      -0.322   0.173   0.765  0.00  0.00     0.058 A 
ENDROOT
TORSDOF 0
ENDMDL
