MODEL 1
REMARK minimizedAffinity -0.926721394
REMARK minimizedRMSD -1
REMARK  0 active torsions:
REMARK  status: ('A' for Active; 'I' for Inactive)
ROOT
ATOM      1  O1  BZF d   1      -1.435   1.394   2.560  0.00  0.00    -0.204 OA
ATOM      2  C2  BZF d   1      -0.409   2.315   2.654  0.00  0.00     0.174 A 
ATOM      3  C3  BZF d   1       0.539   2.070   1.726  0.00  0.00    -0.012 A 
ATOM      4  C3A BZF d   1       0.033   0.981   0.948  0.00  0.00    -0.107 A 
ATOM      5  C4  BZF d   1       0.512   0.296  -0.131  0.00  0.00     0.055 A 
ATOM      6  C5  BZF d   1      -0.194  -0.763  -0.608  0.00  0.00    -0.016 A 
ATOM      7  C6  BZF d   1      -1.379  -1.166  -0.027  0.00  0.00     0.022 A 
ATOM      8  C7  BZF d   1      -1.897  -0.514   1.043  0.00  0.00     0.029 A 
ATOM      9  C7A BZF d   1      -1.202   0.576   1.506  0.00  0.00     0.058 A 
ENDROOT
TORSDOF 0
ENDMDL
