MODEL 1
REMARK minimizedAffinity -2.01202178
REMARK minimizedRMSD -1
REMARK  0 active torsions:
REMARK  status: ('A' for Active; 'I' for Inactive)
ROOT
ATOM      1  O1  BZF d   1      -1.752   1.142   1.828  0.00  0.00    -0.204 OA
ATOM      2  C2  BZF d   1      -0.774   1.687   2.637  0.00  0.00     0.174 A 
ATOM      3  C3  BZF d   1       0.455   1.360   2.188  0.00  0.00    -0.012 A 
ATOM      4  C3A BZF d   1       0.232   0.637   0.974  0.00  0.00    -0.107 A 
ATOM      5  C4  BZF d   1       1.065   0.062   0.057  0.00  0.00     0.055 A 
ATOM      6  C5  BZF d   1       0.528  -0.632  -0.980  0.00  0.00    -0.016 A 
ATOM      7  C6  BZF d   1      -0.836  -0.776  -1.128  0.00  0.00     0.022 A 
ATOM      8  C7  BZF d   1      -1.703  -0.220  -0.246  0.00  0.00     0.029 A 
ATOM      9  C7A BZF d   1      -1.163   0.510   0.784  0.00  0.00     0.058 A 
ENDROOT
TORSDOF 0
ENDMDL
