MODEL 1
REMARK minimizedAffinity -3.62489295
REMARK minimizedRMSD -1
REMARK  0 active torsions:
REMARK  status: ('A' for Active; 'I' for Inactive)
ROOT
ATOM      1  O1  BZF d   1      -0.590  -0.969  -1.570  0.00  0.00    -0.204 OA
ATOM      2  C2  BZF d   1       0.773  -1.053  -1.782  0.00  0.00     0.174 A 
ATOM      3  C3  BZF d   1       1.451  -0.456  -0.781  0.00  0.00    -0.012 A 
ATOM      4  C3A BZF d   1       0.452  -0.050   0.160  0.00  0.00    -0.107 A 
ATOM      5  C4  BZF d   1       0.504   0.583   1.369  0.00  0.00     0.055 A 
ATOM      6  C5  BZF d   1      -0.658   0.899   1.999  0.00  0.00    -0.016 A 
ATOM      7  C6  BZF d   1      -1.887   0.603   1.447  0.00  0.00     0.022 A 
ATOM      8  C7  BZF d   1      -1.989  -0.028   0.252  0.00  0.00     0.029 A 
ATOM      9  C7A BZF d   1      -0.816  -0.378  -0.372  0.00  0.00     0.058 A 
ENDROOT
TORSDOF 0
ENDMDL
