MODEL 1
REMARK minimizedAffinity -5.46040058
REMARK minimizedRMSD -1
REMARK  0 active torsions:
REMARK  status: ('A' for Active; 'I' for Inactive)
ROOT
ATOM      1  O1  BZF d   1       0.491   0.975   2.528  0.00  0.00    -0.204 OA
ATOM      2  C2  BZF d   1      -0.752   1.284   3.046  0.00  0.00     0.174 A 
ATOM      3  C3  BZF d   1      -1.719   1.065   2.132  0.00  0.00    -0.012 A 
ATOM      4  C3A BZF d   1      -1.048   0.500   1.002  0.00  0.00    -0.107 A 
ATOM      5  C4  BZF d   1      -1.474   0.055  -0.217  0.00  0.00     0.055 A 
ATOM      6  C5  BZF d   1      -0.554  -0.370  -1.123  0.00  0.00    -0.016 A 
ATOM      7  C6  BZF d   1       0.797  -0.359  -0.846  0.00  0.00     0.022 A 
ATOM      8  C7  BZF d   1       1.267   0.068   0.351  0.00  0.00     0.029 A 
ATOM      9  C7A BZF d   1       0.338   0.468   1.281  0.00  0.00     0.058 A 
ENDROOT
TORSDOF 0
ENDMDL
