MODEL 1
REMARK minimizedAffinity -3.75963545
REMARK minimizedRMSD -1
REMARK  0 active torsions:
REMARK  status: ('A' for Active; 'I' for Inactive)
ROOT
ATOM      1  O1  BZF d   1       0.896   1.322  -0.476  0.00  0.00    -0.204 OA
ATOM      2  C2  BZF d   1       0.071   0.475   0.239  0.00  0.00     0.174 A 
ATOM      3  C3  BZF d   1      -0.488  -0.445  -0.572  0.00  0.00    -0.012 A 
ATOM      4  C3A BZF d   1       0.089  -0.213  -1.861  0.00  0.00    -0.107 A 
ATOM      5  C4  BZF d   1      -0.057  -0.814  -3.078  0.00  0.00     0.055 A 
ATOM      6  C5  BZF d   1       0.596  -0.299  -4.152  0.00  0.00    -0.016 A 
ATOM      7  C6  BZF d   1       1.397   0.819  -4.047  0.00  0.00     0.022 A 
ATOM      8  C7  BZF d   1       1.577   1.448  -2.859  0.00  0.00     0.029 A 
ATOM      9  C7A BZF d   1       0.945   0.909  -1.765  0.00  0.00     0.058 A 
ENDROOT
TORSDOF 0
ENDMDL
