MODEL 1
REMARK minimizedAffinity 0.242280498
REMARK minimizedRMSD -1
REMARK  0 active torsions:
REMARK  status: ('A' for Active; 'I' for Inactive)
ROOT
ATOM      1  O1  BZF d   1       0.799  -0.150  -5.512  0.00  0.00    -0.204 OA
ATOM      2  C2  BZF d   1      -0.151   0.583  -4.827  0.00  0.00     0.174 A 
ATOM      3  C3  BZF d   1       0.395   1.190  -3.754  0.00  0.00    -0.012 A 
ATOM      4  C3A BZF d   1       1.792   0.889  -3.822  0.00  0.00    -0.107 A 
ATOM      5  C4  BZF d   1       2.864   1.224  -3.044  0.00  0.00     0.055 A 
ATOM      6  C5  BZF d   1       4.084   0.706  -3.343  0.00  0.00    -0.016 A 
ATOM      7  C6  BZF d   1       4.268  -0.152  -4.407  0.00  0.00     0.022 A 
ATOM      8  C7  BZF d   1       3.236  -0.509  -5.211  0.00  0.00     0.029 A 
ATOM      9  C7A BZF d   1       2.008   0.039  -4.931  0.00  0.00     0.058 A 
ENDROOT
TORSDOF 0
ENDMDL
