MODEL 1
REMARK minimizedAffinity -4.11669779
REMARK minimizedRMSD -1
REMARK  0 active torsions:
REMARK  status: ('A' for Active; 'I' for Inactive)
ROOT
ATOM      1  O1  BZF d   1      -0.818  -0.613  -0.647  0.00  0.00    -0.204 OA
ATOM      2  C2  BZF d   1       0.378  -1.103  -1.136  0.00  0.00     0.174 A 
ATOM      3  C3  BZF d   1       1.408  -0.717  -0.356  0.00  0.00    -0.012 A 
ATOM      4  C3A BZF d   1       0.810  -0.014   0.737  0.00  0.00    -0.107 A 
ATOM      5  C4  BZF d   1       1.314   0.596   1.850  0.00  0.00     0.055 A 
ATOM      6  C5  BZF d   1       0.467   1.256   2.683  0.00  0.00    -0.016 A 
ATOM      7  C6  BZF d   1      -0.887   1.330   2.432  0.00  0.00     0.022 A 
ATOM      8  C7  BZF d   1      -1.435   0.736   1.343  0.00  0.00     0.029 A 
ATOM      9  C7A BZF d   1      -0.586   0.041   0.517  0.00  0.00     0.058 A 
ENDROOT
TORSDOF 0
ENDMDL
