MODEL 1
REMARK minimizedAffinity -3.9621768
REMARK minimizedRMSD -1
REMARK  0 active torsions:
REMARK  status: ('A' for Active; 'I' for Inactive)
ROOT
ATOM      1  C   UNL d   1       0.436   0.781   1.673  0.00  0.00     0.023 A 
ATOM      2  C1  UNL d   1       1.752   0.435   1.367  0.00  0.00     0.003 A 
ATOM      3  C2  UNL d   1       2.106   0.122   0.054  0.00  0.00     0.048 A 
ATOM      4  C3  UNL d   1       1.138   0.157  -0.950  0.00  0.00     0.023 A 
ATOM      5  C4  UNL d   1      -0.180   0.503  -0.649  0.00  0.00     0.048 A 
ATOM      6  C5  UNL d   1      -0.529   0.815   0.667  0.00  0.00     0.003 A 
ATOM      7  I   UNL d   1       1.661  -0.310  -2.906  0.00  0.00    -0.146 I 
ENDROOT
TORSDOF 0
ENDMDL
