MODEL 1
REMARK minimizedAffinity -1.03596604
REMARK minimizedRMSD -1
REMARK  0 active torsions:
REMARK  status: ('A' for Active; 'I' for Inactive)
ROOT
ATOM      1  C   UNL d   1       0.774   0.654   2.649  0.00  0.00     0.023 A 
ATOM      2  C1  UNL d   1      -0.379   0.130   2.065  0.00  0.00     0.003 A 
ATOM      3  C2  UNL d   1      -0.380  -0.227   0.715  0.00  0.00     0.048 A 
ATOM      4  C3  UNL d   1       0.777  -0.058  -0.045  0.00  0.00     0.023 A 
ATOM      5  C4  UNL d   1       1.934   0.465   0.536  0.00  0.00     0.048 A 
ATOM      6  C5  UNL d   1       1.929   0.821   1.886  0.00  0.00     0.003 A 
ATOM      7  I   UNL d   1       0.780  -0.588  -2.054  0.00  0.00    -0.146 I 
ENDROOT
TORSDOF 0
ENDMDL
