MODEL 1
REMARK minimizedAffinity -2.58931422
REMARK minimizedRMSD -1
REMARK  0 active torsions:
REMARK  status: ('A' for Active; 'I' for Inactive)
ROOT
ATOM      1  C   UNL d   1       1.153  -0.021   2.308  0.00  0.00     0.023 A 
ATOM      2  C1  UNL d   1       0.160   0.147   3.274  0.00  0.00     0.003 A 
ATOM      3  C2  UNL d   1      -1.175   0.285   2.888  0.00  0.00     0.048 A 
ATOM      4  C3  UNL d   1      -1.510   0.253   1.535  0.00  0.00     0.023 A 
ATOM      5  C4  UNL d   1      -0.520   0.084   0.565  0.00  0.00     0.048 A 
ATOM      6  C5  UNL d   1       0.813  -0.053   0.956  0.00  0.00     0.003 A 
ATOM      7  I   UNL d   1      -3.496   0.458   0.958  0.00  0.00    -0.146 I 
ENDROOT
TORSDOF 0
ENDMDL
