MODEL 1
REMARK minimizedAffinity -3.0816083
REMARK minimizedRMSD -1
REMARK  0 active torsions:
REMARK  status: ('A' for Active; 'I' for Inactive)
ROOT
ATOM      1  C   UNL d   1       0.057  -0.121   2.959  0.00  0.00     0.023 A 
ATOM      2  C1  UNL d   1       1.345   0.016   2.441  0.00  0.00     0.003 A 
ATOM      3  C2  UNL d   1       1.532   0.201   1.070  0.00  0.00     0.048 A 
ATOM      4  C3  UNL d   1       0.426   0.249   0.222  0.00  0.00     0.023 A 
ATOM      5  C4  UNL d   1      -0.864   0.114   0.735  0.00  0.00     0.048 A 
ATOM      6  C5  UNL d   1      -1.046  -0.072   2.107  0.00  0.00     0.003 A 
ATOM      7  I   UNL d   1       0.702   0.525  -1.820  0.00  0.00    -0.146 I 
ENDROOT
TORSDOF 0
ENDMDL
