MODEL 1
REMARK minimizedAffinity -4.88044214
REMARK minimizedRMSD -1
REMARK  0 active torsions:
REMARK  status: ('A' for Active; 'I' for Inactive)
ROOT
ATOM      1  C   UNL d   1      -1.423  -0.007   3.034  0.00  0.00     0.023 A 
ATOM      2  C1  UNL d   1      -2.317   0.180   1.979  0.00  0.00     0.003 A 
ATOM      3  C2  UNL d   1      -1.859   0.141   0.660  0.00  0.00     0.048 A 
ATOM      4  C3  UNL d   1      -0.507  -0.086   0.404  0.00  0.00     0.023 A 
ATOM      5  C4  UNL d   1       0.390  -0.274   1.457  0.00  0.00     0.048 A 
ATOM      6  C5  UNL d   1      -0.072  -0.233   2.773  0.00  0.00     0.003 A 
ATOM      7  I   UNL d   1       0.176  -0.144  -1.558  0.00  0.00    -0.146 I 
ENDROOT
TORSDOF 0
ENDMDL
