MODEL 1
REMARK minimizedAffinity -2.27500463
REMARK minimizedRMSD -1
REMARK  0 active torsions:
REMARK  status: ('A' for Active; 'I' for Inactive)
ROOT
ATOM      1  C   UNL d   1       2.672  -1.611  -3.864  0.00  0.00     0.023 A 
ATOM      2  C1  UNL d   1       1.367  -1.945  -4.224  0.00  0.00     0.003 A 
ATOM      3  C2  UNL d   1       0.295  -1.183  -3.755  0.00  0.00     0.048 A 
ATOM      4  C3  UNL d   1       0.535  -0.088  -2.926  0.00  0.00     0.023 A 
ATOM      5  C4  UNL d   1       1.840   0.250  -2.563  0.00  0.00     0.048 A 
ATOM      6  C5  UNL d   1       2.908  -0.515  -3.034  0.00  0.00     0.003 A 
ATOM      7  I   UNL d   1      -1.059   1.047  -2.226  0.00  0.00    -0.146 I 
ENDROOT
TORSDOF 0
ENDMDL
