MODEL 1
REMARK minimizedAffinity -3.59368968
REMARK minimizedRMSD -1
REMARK  0 active torsions:
REMARK  status: ('A' for Active; 'I' for Inactive)
ROOT
ATOM      1  C   UNL d   1       1.531  -0.304   2.401  0.00  0.00     0.023 A 
ATOM      2  C1  UNL d   1       0.330  -1.007   2.501  0.00  0.00     0.003 A 
ATOM      3  C2  UNL d   1      -0.753  -0.658   1.693  0.00  0.00     0.048 A 
ATOM      4  C3  UNL d   1      -0.629   0.393   0.785  0.00  0.00     0.023 A 
ATOM      5  C4  UNL d   1       0.571   1.099   0.681  0.00  0.00     0.048 A 
ATOM      6  C5  UNL d   1       1.651   0.748   1.492  0.00  0.00     0.003 A 
ATOM      7  I   UNL d   1      -2.241   0.913  -0.420  0.00  0.00    -0.146 I 
ENDROOT
TORSDOF 0
ENDMDL
