MODEL 1
REMARK minimizedAffinity -4.84004974
REMARK minimizedRMSD -1
REMARK  0 active torsions:
REMARK  status: ('A' for Active; 'I' for Inactive)
ROOT
ATOM      1  C   UNL d   1      -1.492  -0.198   3.358  0.00  0.00     0.023 A 
ATOM      2  C1  UNL d   1      -0.130  -0.006   3.125  0.00  0.00     0.003 A 
ATOM      3  C2  UNL d   1       0.365  -0.025   1.819  0.00  0.00     0.048 A 
ATOM      4  C3  UNL d   1      -0.507  -0.236   0.752  0.00  0.00     0.023 A 
ATOM      5  C4  UNL d   1      -1.870  -0.427   0.980  0.00  0.00     0.048 A 
ATOM      6  C5  UNL d   1      -2.361  -0.409   2.287  0.00  0.00     0.003 A 
ATOM      7  I   UNL d   1       0.228  -0.264  -1.192  0.00  0.00    -0.146 I 
ENDROOT
TORSDOF 0
ENDMDL
