MODEL 1
REMARK minimizedAffinity -4.77546453
REMARK minimizedRMSD -1
REMARK  0 active torsions:
REMARK  status: ('A' for Active; 'I' for Inactive)
ROOT
ATOM      1  C   UNL d   1      -1.192  -0.273   2.928  0.00  0.00     0.023 A 
ATOM      2  C1  UNL d   1       0.143  -0.563   2.643  0.00  0.00     0.003 A 
ATOM      3  C2  UNL d   1       0.600  -0.528   1.324  0.00  0.00     0.048 A 
ATOM      4  C3  UNL d   1      -0.282  -0.201   0.295  0.00  0.00     0.023 A 
ATOM      5  C4  UNL d   1      -1.617   0.092   0.575  0.00  0.00     0.048 A 
ATOM      6  C5  UNL d   1      -2.071   0.054   1.895  0.00  0.00     0.003 A 
ATOM      7  I   UNL d   1       0.397  -0.148  -1.669  0.00  0.00    -0.146 I 
ENDROOT
TORSDOF 0
ENDMDL
