MODEL 1
REMARK minimizedAffinity -4.0986104
REMARK minimizedRMSD -1
REMARK  0 active torsions:
REMARK  status: ('A' for Active; 'I' for Inactive)
ROOT
ATOM      1  C   UNL d   1      -1.232  -0.419   3.457  0.00  0.00     0.023 A 
ATOM      2  C1  UNL d   1      -2.010   0.116   2.431  0.00  0.00     0.003 A 
ATOM      3  C2  UNL d   1      -1.574   0.036   1.107  0.00  0.00     0.048 A 
ATOM      4  C3  UNL d   1      -0.358  -0.582   0.816  0.00  0.00     0.023 A 
ATOM      5  C4  UNL d   1       0.424  -1.119   1.840  0.00  0.00     0.048 A 
ATOM      6  C5  UNL d   1      -0.016  -1.036   3.162  0.00  0.00     0.003 A 
ATOM      7  I   UNL d   1       0.294  -0.703  -1.153  0.00  0.00    -0.146 I 
ENDROOT
TORSDOF 0
ENDMDL
