MODEL 1
REMARK minimizedAffinity 2.6148746
REMARK minimizedRMSD -1
REMARK  0 active torsions:
REMARK  status: ('A' for Active; 'I' for Inactive)
ROOT
ATOM      1  C   UNL d   1       1.888  -1.210  -3.985  0.00  0.00     0.023 A 
ATOM      2  C1  UNL d   1       1.381  -2.047  -2.991  0.00  0.00     0.003 A 
ATOM      3  C2  UNL d   1       1.237  -1.573  -1.685  0.00  0.00     0.048 A 
ATOM      4  C3  UNL d   1       1.602  -0.262  -1.381  0.00  0.00     0.023 A 
ATOM      5  C4  UNL d   1       2.109   0.578  -2.373  0.00  0.00     0.048 A 
ATOM      6  C5  UNL d   1       2.252   0.100  -3.677  0.00  0.00     0.003 A 
ATOM      7  I   UNL d   1       1.388   0.445   0.562  0.00  0.00    -0.146 I 
ENDROOT
TORSDOF 0
ENDMDL
