MODEL 1
REMARK minimizedAffinity -4.41712427
REMARK minimizedRMSD -1
REMARK  0 active torsions:
REMARK  status: ('A' for Active; 'I' for Inactive)
ROOT
ATOM      1  C   UNL d   1      -0.071  -0.032   3.265  0.00  0.00     0.023 A 
ATOM      2  C1  UNL d   1      -0.976  -0.636   2.393  0.00  0.00     0.003 A 
ATOM      3  C2  UNL d   1      -0.759  -0.586   1.014  0.00  0.00     0.048 A 
ATOM      4  C3  UNL d   1       0.366   0.069   0.515  0.00  0.00     0.023 A 
ATOM      5  C4  UNL d   1       1.275   0.674   1.384  0.00  0.00     0.048 A 
ATOM      6  C5  UNL d   1       1.054   0.622   2.762  0.00  0.00     0.003 A 
ATOM      7  I   UNL d   1       0.691   0.145  -1.536  0.00  0.00    -0.146 I 
ENDROOT
TORSDOF 0
ENDMDL
