MODEL 1
REMARK minimizedAffinity 7.89369106
REMARK minimizedRMSD -1
REMARK  0 active torsions:
REMARK  status: ('A' for Active; 'I' for Inactive)
ROOT
ATOM      1  C   UNL d   1       1.753   1.470   1.971  0.00  0.00     0.023 A 
ATOM      2  C1  UNL d   1       1.905   0.985   0.672  0.00  0.00     0.003 A 
ATOM      3  C2  UNL d   1       0.780   0.658  -0.089  0.00  0.00     0.048 A 
ATOM      4  C3  UNL d   1      -0.493   0.821   0.455  0.00  0.00     0.023 A 
ATOM      5  C4  UNL d   1      -0.650   1.306   1.755  0.00  0.00     0.048 A 
ATOM      6  C5  UNL d   1       0.477   1.630   2.512  0.00  0.00     0.003 A 
ATOM      7  I   UNL d   1      -2.169   0.336  -0.675  0.00  0.00    -0.146 I 
ENDROOT
TORSDOF 0
ENDMDL
