MODEL 1
REMARK minimizedAffinity 1.20478725
REMARK minimizedRMSD -1
REMARK  0 active torsions:
REMARK  status: ('A' for Active; 'I' for Inactive)
ROOT
ATOM      1  C   UNL d   1       2.507   0.570   1.680  0.00  0.00     0.023 A 
ATOM      2  C1  UNL d   1       2.280  -0.549   0.879  0.00  0.00     0.003 A 
ATOM      3  C2  UNL d   1       1.152  -0.604   0.059  0.00  0.00     0.048 A 
ATOM      4  C3  UNL d   1       0.255   0.463   0.043  0.00  0.00     0.023 A 
ATOM      5  C4  UNL d   1       0.478   1.585   0.843  0.00  0.00     0.048 A 
ATOM      6  C5  UNL d   1       1.607   1.636   1.662  0.00  0.00     0.003 A 
ATOM      7  I   UNL d   1      -1.426   0.383  -1.177  0.00  0.00    -0.146 I 
ENDROOT
TORSDOF 0
ENDMDL
