MODEL 1
REMARK minimizedAffinity -3.85705924
REMARK minimizedRMSD -1
REMARK  0 active torsions:
REMARK  status: ('A' for Active; 'I' for Inactive)
ROOT
ATOM      1  C   UNL d   1      -0.930  -0.527   3.362  0.00  0.00     0.023 A 
ATOM      2  C1  UNL d   1      -1.626  -1.165   2.335  0.00  0.00     0.003 A 
ATOM      3  C2  UNL d   1      -1.229  -0.992   1.007  0.00  0.00     0.048 A 
ATOM      4  C3  UNL d   1      -0.134  -0.180   0.714  0.00  0.00     0.023 A 
ATOM      5  C4  UNL d   1       0.567   0.459   1.738  0.00  0.00     0.048 A 
ATOM      6  C5  UNL d   1       0.165   0.284   3.063  0.00  0.00     0.003 A 
ATOM      7  I   UNL d   1       0.459   0.079  -1.261  0.00  0.00    -0.146 I 
ENDROOT
TORSDOF 0
ENDMDL
