MODEL 1
REMARK minimizedAffinity -3.2996304
REMARK minimizedRMSD -1
REMARK  0 active torsions:
REMARK  status: ('A' for Active; 'I' for Inactive)
ROOT
ATOM      1  C   UNL d   1      -0.121   0.659   3.060  0.00  0.00     0.023 A 
ATOM      2  C1  UNL d   1       0.878   1.301   2.329  0.00  0.00     0.003 A 
ATOM      3  C2  UNL d   1       1.057   1.003   0.976  0.00  0.00     0.048 A 
ATOM      4  C3  UNL d   1       0.231   0.063   0.361  0.00  0.00     0.023 A 
ATOM      5  C4  UNL d   1      -0.771  -0.582   1.088  0.00  0.00     0.048 A 
ATOM      6  C5  UNL d   1      -0.945  -0.281   2.441  0.00  0.00     0.003 A 
ATOM      7  I   UNL d   1       0.494  -0.382  -1.652  0.00  0.00    -0.146 I 
ENDROOT
TORSDOF 0
ENDMDL
