MODEL 1
REMARK minimizedAffinity -4.53756905
REMARK minimizedRMSD -1
REMARK  0 active torsions:
REMARK  status: ('A' for Active; 'I' for Inactive)
ROOT
ATOM      1  C   UNL d   1      -0.728  -0.485   3.327  0.00  0.00     0.023 A 
ATOM      2  C1  UNL d   1      -1.572  -0.961   2.324  0.00  0.00     0.003 A 
ATOM      3  C2  UNL d   1      -1.255  -0.745   0.982  0.00  0.00     0.048 A 
ATOM      4  C3  UNL d   1      -0.091  -0.052   0.649  0.00  0.00     0.023 A 
ATOM      5  C4  UNL d   1       0.757   0.426   1.649  0.00  0.00     0.048 A 
ATOM      6  C5  UNL d   1       0.435   0.208   2.990  0.00  0.00     0.003 A 
ATOM      7  I   UNL d   1       0.383   0.272  -1.348  0.00  0.00    -0.146 I 
ENDROOT
TORSDOF 0
ENDMDL
