MODEL 1
REMARK minimizedAffinity -3.27794433
REMARK minimizedRMSD -1
REMARK  0 active torsions:
REMARK  status: ('A' for Active; 'I' for Inactive)
ROOT
ATOM      1  C   UNL d   1      -2.572   2.935   1.350  0.00  0.00     0.077 C 
ATOM      2  C1  UNL d   1      -3.650   2.352   0.486  0.00  0.00    -0.074 A 
ATOM      3  C2  UNL d   1      -4.896   2.012   1.022  0.00  0.00    -0.005 A 
ATOM      4  C3  UNL d   1      -5.892   1.479   0.203  0.00  0.00     0.006 A 
ATOM      5  C4  UNL d   1      -5.652   1.281  -1.157  0.00  0.00    -0.005 A 
ATOM      6  C5  UNL d   1      -4.413   1.616  -1.711  0.00  0.00    -0.074 A 
ATOM      7  C6  UNL d   1      -4.142   1.419  -3.173  0.00  0.00     0.077 C 
ATOM      8  C7  UNL d   1      -3.419   2.157  -0.884  0.00  0.00    -0.001 A 
ENDROOT
TORSDOF 0
ENDMDL
