MODEL 1
REMARK minimizedAffinity 3.63121986
REMARK minimizedRMSD -1
REMARK  0 active torsions:
REMARK  status: ('A' for Active; 'I' for Inactive)
ROOT
ATOM      1  C   UNL d   1       5.820  -5.999  -5.659  0.00  0.00     0.077 C 
ATOM      2  C1  UNL d   1       4.962  -5.992  -4.429  0.00  0.00    -0.074 A 
ATOM      3  C2  UNL d   1       3.567  -5.997  -4.526  0.00  0.00    -0.005 A 
ATOM      4  C3  UNL d   1       2.782  -6.000  -3.373  0.00  0.00     0.006 A 
ATOM      5  C4  UNL d   1       3.382  -5.997  -2.114  0.00  0.00    -0.005 A 
ATOM      6  C5  UNL d   1       4.776  -5.992  -1.997  0.00  0.00    -0.074 A 
ATOM      7  C6  UNL d   1       5.438  -5.999  -0.651  0.00  0.00     0.077 C 
ATOM      8  C7  UNL d   1       5.558  -5.997  -3.160  0.00  0.00    -0.001 A 
ENDROOT
TORSDOF 0
ENDMDL
