MODEL 1
REMARK minimizedAffinity 3.33226728
REMARK minimizedRMSD -1
REMARK  0 active torsions:
REMARK  status: ('A' for Active; 'I' for Inactive)
ROOT
ATOM      1  C   UNL d   1       1.478  -5.976  -5.917  0.00  0.00     0.077 C 
ATOM      2  C1  UNL d   1       2.780  -5.969  -5.172  0.00  0.00    -0.074 A 
ATOM      3  C2  UNL d   1       3.999  -5.945  -5.857  0.00  0.00    -0.005 A 
ATOM      4  C3  UNL d   1       5.202  -5.929  -5.150  0.00  0.00     0.006 A 
ATOM      5  C4  UNL d   1       5.198  -5.937  -3.755  0.00  0.00    -0.005 A 
ATOM      6  C5  UNL d   1       3.988  -5.960  -3.053  0.00  0.00    -0.074 A 
ATOM      7  C6  UNL d   1       3.965  -5.959  -1.554  0.00  0.00     0.077 C 
ATOM      8  C7  UNL d   1       2.784  -5.969  -3.770  0.00  0.00    -0.001 A 
ENDROOT
TORSDOF 0
ENDMDL
