MODEL 1
REMARK minimizedAffinity 7.07337427
REMARK minimizedRMSD -1
REMARK  0 active torsions:
REMARK  status: ('A' for Active; 'I' for Inactive)
ROOT
ATOM      1  C   UNL d   1       1.284  -0.700   3.304  0.00  0.00     0.077 C 
ATOM      2  C1  UNL d   1       1.607  -2.146   3.539  0.00  0.00    -0.074 A 
ATOM      3  C2  UNL d   1       2.681  -2.758   2.885  0.00  0.00    -0.005 A 
ATOM      4  C3  UNL d   1       2.975  -4.101   3.121  0.00  0.00     0.006 A 
ATOM      5  C4  UNL d   1       2.199  -4.844   4.011  0.00  0.00    -0.005 A 
ATOM      6  C5  UNL d   1       1.122  -4.249   4.675  0.00  0.00    -0.074 A 
ATOM      7  C6  UNL d   1       0.284  -5.031   5.642  0.00  0.00     0.077 C 
ATOM      8  C7  UNL d   1       0.837  -2.897   4.438  0.00  0.00    -0.001 A 
ENDROOT
TORSDOF 0
ENDMDL
