MODEL 1
REMARK minimizedAffinity 8.8275404
REMARK minimizedRMSD -1
REMARK  0 active torsions:
REMARK  status: ('A' for Active; 'I' for Inactive)
ROOT
ATOM      1  C   UNL d   1      -0.579  -2.485  -0.369  0.00  0.00     0.077 C 
ATOM      2  C1  UNL d   1       0.260  -1.966   0.760  0.00  0.00    -0.074 A 
ATOM      3  C2  UNL d   1       0.529  -2.760   1.879  0.00  0.00    -0.005 A 
ATOM      4  C3  UNL d   1       1.320  -2.267   2.918  0.00  0.00     0.006 A 
ATOM      5  C4  UNL d   1       1.848  -0.977   2.847  0.00  0.00    -0.005 A 
ATOM      6  C5  UNL d   1       1.590  -0.169   1.735  0.00  0.00    -0.074 A 
ATOM      7  C6  UNL d   1       2.158   1.216   1.639  0.00  0.00     0.077 C 
ATOM      8  C7  UNL d   1       0.801  -0.674   0.693  0.00  0.00    -0.001 A 
ENDROOT
TORSDOF 0
ENDMDL
