MODEL 1
REMARK minimizedAffinity 9.00214195
REMARK minimizedRMSD -1
REMARK  0 active torsions:
REMARK  status: ('A' for Active; 'I' for Inactive)
ROOT
ATOM      1  C   UNL d   1       1.743  -0.836   2.241  0.00  0.00     0.077 C 
ATOM      2  C1  UNL d   1       2.360  -1.927   3.065  0.00  0.00    -0.074 A 
ATOM      3  C2  UNL d   1       1.642  -3.087   3.374  0.00  0.00    -0.005 A 
ATOM      4  C3  UNL d   1       2.232  -4.097   4.134  0.00  0.00     0.006 A 
ATOM      5  C4  UNL d   1       3.543  -3.958   4.591  0.00  0.00    -0.005 A 
ATOM      6  C5  UNL d   1       4.276  -2.805   4.291  0.00  0.00    -0.074 A 
ATOM      7  C6  UNL d   1       5.690  -2.644   4.766  0.00  0.00     0.077 C 
ATOM      8  C7  UNL d   1       3.679  -1.798   3.521  0.00  0.00    -0.001 A 
ENDROOT
TORSDOF 0
ENDMDL
