MODEL 1
REMARK minimizedAffinity 3.74479699
REMARK minimizedRMSD -1
REMARK  0 active torsions:
REMARK  status: ('A' for Active; 'I' for Inactive)
ROOT
ATOM      1  O1  BZF d   1       3.944   4.926   4.624  0.00  0.00    -0.204 OA
ATOM      2  C2  BZF d   1       5.014   4.929   3.749  0.00  0.00     0.174 A 
ATOM      3  C3  BZF d   1       4.586   4.984   2.471  0.00  0.00    -0.012 A 
ATOM      4  C3A BZF d   1       3.163   5.110   2.555  0.00  0.00    -0.107 A 
ATOM      5  C4  BZF d   1       2.174   5.225   1.621  0.00  0.00     0.055 A 
ATOM      6  C5  BZF d   1       0.879   5.256   2.031  0.00  0.00    -0.016 A 
ATOM      7  C6  BZF d   1       0.537   5.168   3.364  0.00  0.00     0.022 A 
ATOM      8  C7  BZF d   1       1.483   5.058   4.328  0.00  0.00     0.029 A 
ATOM      9  C7A BZF d   1       2.795   5.060   3.920  0.00  0.00     0.058 A 
ENDROOT
TORSDOF 0
ENDMDL
