MODEL 1
REMARK minimizedAffinity 6.76296091
REMARK minimizedRMSD -1
REMARK  0 active torsions:
REMARK  status: ('A' for Active; 'I' for Inactive)
ROOT
ATOM      1  O1  BZF d   1       4.674   1.185  -2.879  0.00  0.00    -0.204 OA
ATOM      2  C2  BZF d   1       5.790   1.943  -2.585  0.00  0.00     0.174 A 
ATOM      3  C3  BZF d   1       5.941   2.076  -1.251  0.00  0.00    -0.012 A 
ATOM      4  C3A BZF d   1       4.902   1.278  -0.674  0.00  0.00    -0.107 A 
ATOM      5  C4  BZF d   1       4.541   0.995   0.612  0.00  0.00     0.055 A 
ATOM      6  C5  BZF d   1       3.433   0.240   0.835  0.00  0.00    -0.016 A 
ATOM      7  C6  BZF d   1       2.662  -0.243  -0.202  0.00  0.00     0.022 A 
ATOM      8  C7  BZF d   1       2.984   0.008  -1.494  0.00  0.00     0.029 A 
ATOM      9  C7A BZF d   1       4.121   0.743  -1.724  0.00  0.00     0.058 A 
ENDROOT
TORSDOF 0
ENDMDL
