MODEL 1
REMARK minimizedAffinity 13.3983669
REMARK minimizedRMSD -1
REMARK  0 active torsions:
REMARK  status: ('A' for Active; 'I' for Inactive)
ROOT
ATOM      1  O1  BZF d   1      -5.184   3.751   3.373  0.00  0.00    -0.204 OA
ATOM      2  C2  BZF d   1      -5.730   4.897   3.917  0.00  0.00     0.174 A 
ATOM      3  C3  BZF d   1      -5.492   5.963   3.126  0.00  0.00    -0.012 A 
ATOM      4  C3A BZF d   1      -4.830   5.435   1.972  0.00  0.00    -0.107 A 
ATOM      5  C4  BZF d   1      -4.352   5.999   0.824  0.00  0.00     0.055 A 
ATOM      6  C5  BZF d   1      -3.692   5.217  -0.070  0.00  0.00    -0.016 A 
ATOM      7  C6  BZF d   1      -3.488   3.872   0.153  0.00  0.00     0.022 A 
ATOM      8  C7  BZF d   1      -3.948   3.267   1.275  0.00  0.00     0.029 A 
ATOM      9  C7A BZF d   1      -4.644   4.047   2.166  0.00  0.00     0.058 A 
ENDROOT
TORSDOF 0
ENDMDL
