MODEL 1
REMARK minimizedAffinity 10.3283615
REMARK minimizedRMSD -1
REMARK  0 active torsions:
REMARK  status: ('A' for Active; 'I' for Inactive)
ROOT
ATOM      1  O1  BZF d   1       4.581   1.505  -2.792  0.00  0.00    -0.204 OA
ATOM      2  C2  BZF d   1       5.733   2.254  -2.644  0.00  0.00     0.174 A 
ATOM      3  C3  BZF d   1       6.000   2.469  -1.340  0.00  0.00    -0.012 A 
ATOM      4  C3A BZF d   1       5.000   1.736  -0.625  0.00  0.00    -0.107 A 
ATOM      5  C4  BZF d   1       4.745   1.545   0.703  0.00  0.00     0.055 A 
ATOM      6  C5  BZF d   1       3.647   0.833   1.069  0.00  0.00    -0.016 A 
ATOM      7  C6  BZF d   1       2.781   0.303   0.135  0.00  0.00     0.022 A 
ATOM      8  C7  BZF d   1       2.995   0.461  -1.194  0.00  0.00     0.029 A 
ATOM      9  C7A BZF d   1       4.122   1.152  -1.567  0.00  0.00     0.058 A 
ENDROOT
TORSDOF 0
ENDMDL
