MODEL 1
REMARK minimizedAffinity 8.81037712
REMARK minimizedRMSD -1
REMARK  0 active torsions:
REMARK  status: ('A' for Active; 'I' for Inactive)
ROOT
ATOM      1  O1  BZF d   1      -1.486  -4.774  -3.282  0.00  0.00    -0.204 OA
ATOM      2  C2  BZF d   1      -2.124  -5.999  -3.254  0.00  0.00     0.174 A 
ATOM      3  C3  BZF d   1      -3.202  -5.996  -4.065  0.00  0.00    -0.012 A 
ATOM      4  C3A BZF d   1      -3.186  -4.718  -4.707  0.00  0.00    -0.107 A 
ATOM      5  C4  BZF d   1      -3.992  -4.124  -5.636  0.00  0.00     0.055 A 
ATOM      6  C5  BZF d   1      -3.744  -2.838  -5.999  0.00  0.00    -0.016 A 
ATOM      7  C6  BZF d   1      -2.704  -2.116  -5.451  0.00  0.00     0.022 A 
ATOM      8  C7  BZF d   1      -1.875  -2.664  -4.529  0.00  0.00     0.029 A 
ATOM      9  C7A BZF d   1      -2.103  -3.974  -4.184  0.00  0.00     0.058 A 
ENDROOT
TORSDOF 0
ENDMDL
