MODEL 1
REMARK minimizedAffinity 0.19917886
REMARK minimizedRMSD -1
REMARK  0 active torsions:
REMARK  status: ('A' for Active; 'I' for Inactive)
ROOT
ATOM      1  O1  BZF d   1       0.456   3.176  -0.149  0.00  0.00    -0.204 OA
ATOM      2  C2  BZF d   1       1.418   2.190  -0.244  0.00  0.00     0.174 A 
ATOM      3  C3  BZF d   1       2.404   2.396   0.653  0.00  0.00    -0.012 A 
ATOM      4  C3A BZF d   1       1.988   3.533   1.415  0.00  0.00    -0.107 A 
ATOM      5  C4  BZF d   1       2.538   4.213   2.465  0.00  0.00     0.055 A 
ATOM      6  C5  BZF d   1       1.913   5.325   2.931  0.00  0.00    -0.016 A 
ATOM      7  C6  BZF d   1       0.741   5.789   2.370  0.00  0.00     0.022 A 
ATOM      8  C7  BZF d   1       0.155   5.146   1.331  0.00  0.00     0.029 A 
ATOM      9  C7A BZF d   1       0.767   4.003   0.878  0.00  0.00     0.058 A 
ENDROOT
TORSDOF 0
ENDMDL
