MODEL 1
REMARK minimizedAffinity 0.860902309
REMARK minimizedRMSD -1
REMARK  0 active torsions:
REMARK  status: ('A' for Active; 'I' for Inactive)
ROOT
ATOM      1  O1  BZF d   1       4.532   1.507  -2.624  0.00  0.00    -0.204 OA
ATOM      2  C2  BZF d   1       5.673   2.278  -2.521  0.00  0.00     0.174 A 
ATOM      3  C3  BZF d   1       6.000   2.480  -1.228  0.00  0.00    -0.012 A 
ATOM      4  C3A BZF d   1       5.053   1.715  -0.477  0.00  0.00    -0.107 A 
ATOM      5  C4  BZF d   1       4.868   1.499   0.859  0.00  0.00     0.055 A 
ATOM      6  C5  BZF d   1       3.804   0.758   1.268  0.00  0.00    -0.016 A 
ATOM      7  C6  BZF d   1       2.904   0.223   0.370  0.00  0.00     0.022 A 
ATOM      8  C7  BZF d   1       3.049   0.405  -0.966  0.00  0.00     0.029 A 
ATOM      9  C7A BZF d   1       4.141   1.126  -1.384  0.00  0.00     0.058 A 
ENDROOT
TORSDOF 0
ENDMDL
