MODEL 1
REMARK minimizedAffinity 7.47734737
REMARK minimizedRMSD -1
REMARK  0 active torsions:
REMARK  status: ('A' for Active; 'I' for Inactive)
ROOT
ATOM      1  O1  BZF d   1      -2.615   0.153  -0.697  0.00  0.00    -0.204 OA
ATOM      2  C2  BZF d   1      -1.816   1.235  -0.379  0.00  0.00     0.174 A 
ATOM      3  C3  BZF d   1      -2.480   2.103   0.411  0.00  0.00    -0.012 A 
ATOM      4  C3A BZF d   1      -3.743   1.484   0.673  0.00  0.00    -0.107 A 
ATOM      5  C4  BZF d   1      -4.833   1.849   1.410  0.00  0.00     0.055 A 
ATOM      6  C5  BZF d   1      -5.934   1.053   1.401  0.00  0.00    -0.016 A 
ATOM      7  C6  BZF d   1      -5.981  -0.112   0.664  0.00  0.00     0.022 A 
ATOM      8  C7  BZF d   1      -4.922  -0.519  -0.078  0.00  0.00     0.029 A 
ATOM      9  C7A BZF d   1      -3.796   0.267  -0.045  0.00  0.00     0.058 A 
ENDROOT
TORSDOF 0
ENDMDL
