MODEL 1
REMARK minimizedAffinity 7.98945665
REMARK minimizedRMSD -1
REMARK  0 active torsions:
REMARK  status: ('A' for Active; 'I' for Inactive)
ROOT
ATOM      1  O1  BZF d   1       4.494   1.749  -2.381  0.00  0.00    -0.204 OA
ATOM      2  C2  BZF d   1       5.674   2.438  -2.174  0.00  0.00     0.174 A 
ATOM      3  C3  BZF d   1       6.000   2.445  -0.865  0.00  0.00    -0.012 A 
ATOM      4  C3A BZF d   1       5.008   1.636  -0.226  0.00  0.00    -0.107 A 
ATOM      5  C4  BZF d   1       4.801   1.252   1.068  0.00  0.00     0.055 A 
ATOM      6  C5  BZF d   1       3.697   0.520   1.371  0.00  0.00    -0.016 A 
ATOM      7  C6  BZF d   1       2.777   0.160   0.408  0.00  0.00     0.022 A 
ATOM      8  C7  BZF d   1       2.942   0.513  -0.890  0.00  0.00     0.029 A 
ATOM      9  C7A BZF d   1       4.074   1.225  -1.205  0.00  0.00     0.058 A 
ENDROOT
TORSDOF 0
ENDMDL
