MODEL 1
REMARK minimizedAffinity 11.5507631
REMARK minimizedRMSD -1
REMARK  0 active torsions:
REMARK  status: ('A' for Active; 'I' for Inactive)
ROOT
ATOM      1  O1  BZF d   1       3.830   1.256   0.925  0.00  0.00    -0.204 OA
ATOM      2  C2  BZF d   1       2.772   0.448   0.556  0.00  0.00     0.174 A 
ATOM      3  C3  BZF d   1       2.678   0.366  -0.787  0.00  0.00    -0.012 A 
ATOM      4  C3A BZF d   1       3.801   1.099  -1.288  0.00  0.00    -0.107 A 
ATOM      5  C4  BZF d   1       4.262   1.366  -2.545  0.00  0.00     0.055 A 
ATOM      6  C5  BZF d   1       5.345   2.173  -2.693  0.00  0.00    -0.016 A 
ATOM      7  C6  BZF d   1       5.987   2.733  -1.608  0.00  0.00     0.022 A 
ATOM      8  C7  BZF d   1       5.570   2.493  -0.341  0.00  0.00     0.029 A 
ATOM      9  C7A BZF d   1       4.495   1.651  -0.187  0.00  0.00     0.058 A 
ENDROOT
TORSDOF 0
ENDMDL
