MODEL 1
REMARK minimizedAffinity 2.06218004
REMARK minimizedRMSD -1
REMARK  0 active torsions:
REMARK  status: ('A' for Active; 'I' for Inactive)
ROOT
ATOM      1  C1  BNZ d   1      -3.395  -0.384  -1.861  0.00  0.00     0.000 A 
ATOM      2  C2  BNZ d   1      -4.053  -0.145  -0.683  0.00  0.00     0.000 A 
ATOM      3  C3  BNZ d   1      -3.437   0.521   0.340  0.00  0.00     0.000 A 
ATOM      4  C4  BNZ d   1      -2.154   0.913   0.199  0.00  0.00     0.000 A 
ATOM      5  C5  BNZ d   1      -1.475   0.672  -0.979  0.00  0.00     0.000 A 
ATOM      6  C6  BNZ d   1      -2.110   0.035  -2.020  0.00  0.00     0.000 A 
ENDROOT
TORSDOF 0
ENDMDL
