MODEL 1
REMARK minimizedAffinity 2.96349645
REMARK minimizedRMSD -1
REMARK  0 active torsions:
REMARK  status: ('A' for Active; 'I' for Inactive)
ROOT
ATOM      1  C1  BNZ d   1      -4.749   2.161   1.507  0.00  0.00     0.000 A 
ATOM      2  C2  BNZ d   1      -5.695   1.562   0.718  0.00  0.00     0.000 A 
ATOM      3  C3  BNZ d   1      -5.371   0.502  -0.081  0.00  0.00     0.000 A 
ATOM      4  C4  BNZ d   1      -4.095   0.068  -0.122  0.00  0.00     0.000 A 
ATOM      5  C5  BNZ d   1      -3.128   0.667   0.660  0.00  0.00     0.000 A 
ATOM      6  C6  BNZ d   1      -3.466   1.709   1.493  0.00  0.00     0.000 A 
ENDROOT
TORSDOF 0
ENDMDL
