MODEL 1
REMARK minimizedAffinity 1.5490824
REMARK minimizedRMSD -1
REMARK  0 active torsions:
REMARK  status: ('A' for Active; 'I' for Inactive)
ROOT
ATOM      1  C1  BNZ d   1       2.697  -3.632  -1.328  0.00  0.00     0.000 A 
ATOM      2  C2  BNZ d   1       2.781  -2.887  -0.182  0.00  0.00     0.000 A 
ATOM      3  C3  BNZ d   1       3.103  -1.560  -0.233  0.00  0.00     0.000 A 
ATOM      4  C4  BNZ d   1       3.382  -0.990  -1.423  0.00  0.00     0.000 A 
ATOM      5  C5  BNZ d   1       3.312  -1.730  -2.586  0.00  0.00     0.000 A 
ATOM      6  C6  BNZ d   1       2.948  -3.056  -2.535  0.00  0.00     0.000 A 
ENDROOT
TORSDOF 0
ENDMDL
