MODEL 1
REMARK minimizedAffinity 3.04999995
REMARK minimizedRMSD -1
REMARK  0 active torsions:
REMARK  status: ('A' for Active; 'I' for Inactive)
ROOT
ATOM      1  C1  BNZ d   1      -3.199   1.472   1.043  0.00  0.00     0.000 A 
ATOM      2  C2  BNZ d   1      -2.330   0.833   0.199  0.00  0.00     0.000 A 
ATOM      3  C3  BNZ d   1      -2.794   0.053  -0.824  0.00  0.00     0.000 A 
ATOM      4  C4  BNZ d   1      -4.123  -0.119  -0.976  0.00  0.00     0.000 A 
ATOM      5  C5  BNZ d   1      -5.011   0.511  -0.128  0.00  0.00     0.000 A 
ATOM      6  C6  BNZ d   1      -4.542   1.326   0.876  0.00  0.00     0.000 A 
ENDROOT
TORSDOF 0
ENDMDL
