MODEL 1
REMARK minimizedAffinity 1.68691814
REMARK minimizedRMSD -1
REMARK  0 active torsions:
REMARK  status: ('A' for Active; 'I' for Inactive)
ROOT
ATOM      1  C1  BNZ d   1       4.540   0.028  -1.633  0.00  0.00     0.000 A 
ATOM      2  C2  BNZ d   1       5.181   1.238  -1.616  0.00  0.00     0.000 A 
ATOM      3  C3  BNZ d   1       4.732   2.256  -0.821  0.00  0.00     0.000 A 
ATOM      4  C4  BNZ d   1       3.622   2.076  -0.076  0.00  0.00     0.000 A 
ATOM      5  C5  BNZ d   1       2.960   0.864  -0.090  0.00  0.00     0.000 A 
ATOM      6  C6  BNZ d   1       3.437  -0.171  -0.861  0.00  0.00     0.000 A 
ENDROOT
TORSDOF 0
ENDMDL
