MODEL 1
REMARK minimizedAffinity 0.853945911
REMARK minimizedRMSD -1
REMARK  0 active torsions:
REMARK  status: ('A' for Active; 'I' for Inactive)
ROOT
ATOM      1  C1  BNZ d   1       1.637   5.548   4.130  0.00  0.00     0.000 A 
ATOM      2  C2  BNZ d   1       2.828   4.873   4.149  0.00  0.00     0.000 A 
ATOM      3  C3  BNZ d   1       3.063   3.893   5.072  0.00  0.00     0.000 A 
ATOM      4  C4  BNZ d   1       2.123   3.617   6.000  0.00  0.00     0.000 A 
ATOM      5  C5  BNZ d   1       0.921   4.296   6.000  0.00  0.00     0.000 A 
ATOM      6  C6  BNZ d   1       0.673   5.254   5.044  0.00  0.00     0.000 A 
ENDROOT
TORSDOF 0
ENDMDL
