MODEL 1
REMARK minimizedAffinity 0.690631151
REMARK minimizedRMSD -1
REMARK  0 active torsions:
REMARK  status: ('A' for Active; 'I' for Inactive)
ROOT
ATOM      1  C1  BNZ d   1       3.831   3.731   3.709  0.00  0.00     0.000 A 
ATOM      2  C2  BNZ d   1       4.644   2.630   3.727  0.00  0.00     0.000 A 
ATOM      3  C3  BNZ d   1       4.803   1.895   4.868  0.00  0.00     0.000 A 
ATOM      4  C4  BNZ d   1       4.180   2.285   5.999  0.00  0.00     0.000 A 
ATOM      5  C5  BNZ d   1       3.364   3.399   6.000  0.00  0.00     0.000 A 
ATOM      6  C6  BNZ d   1       3.176   4.113   4.839  0.00  0.00     0.000 A 
ENDROOT
TORSDOF 0
ENDMDL
