MODEL 1
REMARK minimizedAffinity 4.57561684
REMARK minimizedRMSD -1
REMARK  0 active torsions:
REMARK  status: ('A' for Active; 'I' for Inactive)
ROOT
ATOM      1  C1  BNZ d   1      -4.354   0.700  -5.274  0.00  0.00     0.000 A 
ATOM      2  C2  BNZ d   1      -2.992   0.563  -5.235  0.00  0.00     0.000 A 
ATOM      3  C3  BNZ d   1      -2.376   0.006  -4.149  0.00  0.00     0.000 A 
ATOM      4  C4  BNZ d   1      -3.118  -0.376  -3.089  0.00  0.00     0.000 A 
ATOM      5  C5  BNZ d   1      -4.492  -0.237  -3.111  0.00  0.00     0.000 A 
ATOM      6  C6  BNZ d   1      -5.112   0.289  -4.221  0.00  0.00     0.000 A 
ENDROOT
TORSDOF 0
ENDMDL
