MODEL 1
REMARK minimizedAffinity -2.46997023
REMARK minimizedRMSD -1
REMARK  0 active torsions:
REMARK  status: ('A' for Active; 'I' for Inactive)
ROOT
ATOM      1  C1  BNZ d   1       4.102  -0.195   0.427  0.00  0.00     0.000 A 
ATOM      2  C2  BNZ d   1       4.922   0.795   0.898  0.00  0.00     0.000 A 
ATOM      3  C3  BNZ d   1       5.046   1.980   0.228  0.00  0.00     0.000 A 
ATOM      4  C4  BNZ d   1       4.382   2.157  -0.933  0.00  0.00     0.000 A 
ATOM      5  C5  BNZ d   1       3.559   1.165  -1.426  0.00  0.00     0.000 A 
ATOM      6  C6  BNZ d   1       3.406  -0.011  -0.729  0.00  0.00     0.000 A 
ENDROOT
TORSDOF 0
ENDMDL
