MODEL 1
REMARK minimizedAffinity 8.15299606
REMARK minimizedRMSD -1
REMARK  0 active torsions:
REMARK  status: ('A' for Active; 'I' for Inactive)
ROOT
ATOM      1  C1  BNZ d   1       1.164   3.982   6.000  0.00  0.00     0.000 A 
ATOM      2  C2  BNZ d   1       2.125   3.006   5.993  0.00  0.00     0.000 A 
ATOM      3  C3  BNZ d   1       3.453   3.332   5.996  0.00  0.00     0.000 A 
ATOM      4  C4  BNZ d   1       3.817   4.631   5.966  0.00  0.00     0.000 A 
ATOM      5  C5  BNZ d   1       2.860   5.625   5.963  0.00  0.00     0.000 A 
ATOM      6  C6  BNZ d   1       1.524   5.294   6.000  0.00  0.00     0.000 A 
ENDROOT
TORSDOF 0
ENDMDL
