MODEL 1
REMARK minimizedAffinity 1.51903474
REMARK minimizedRMSD -1
REMARK  1 active torsions:
REMARK  status: ('A' for Active; 'I' for Inactive)
REMARK    1  A    between atoms: C3_4  and  O_7 
ROOT
ATOM      1  C   UNL d   1       5.958   6.000   2.014  0.00  0.00    -0.033 A 
ATOM      2  C1  UNL d   1       5.577   4.855   2.717  0.00  0.00     0.039 A 
ATOM      3  C2  UNL d   1       5.234   3.691   2.025  0.00  0.00    -0.080 A 
ATOM      4  C3  UNL d   1       5.276   3.686   0.634  0.00  0.00     0.150 A 
ATOM      5  C4  UNL d   1       5.658   4.822  -0.072  0.00  0.00    -0.007 A 
ATOM      6  C5  UNL d   1       6.000   5.983   0.620  0.00  0.00     0.039 A 
ENDROOT
BRANCH   4   7
ATOM      7  O   UNL d   1       4.946   2.575  -0.085  0.00  0.00    -0.526 OA
ATOM      8  H5  UNL d   1       4.675   1.877   0.535  0.00  0.00     0.418 HD
ENDBRANCH   4   7
TORSDOF 1
ENDMDL
