MODEL 1
REMARK minimizedAffinity -1.45300794
REMARK minimizedRMSD -1
REMARK  1 active torsions:
REMARK  status: ('A' for Active; 'I' for Inactive)
REMARK    1  A    between atoms: C3_4  and  O_7 
ROOT
ATOM      1  C   UNL d   1      -1.385   1.194   1.770  0.00  0.00    -0.033 A 
ATOM      2  C1  UNL d   1      -1.344   1.491   3.134  0.00  0.00     0.039 A 
ATOM      3  C2  UNL d   1      -1.816   0.565   4.066  0.00  0.00    -0.080 A 
ATOM      4  C3  UNL d   1      -2.325  -0.652   3.623  0.00  0.00     0.150 A 
ATOM      5  C4  UNL d   1      -2.366  -0.956   2.266  0.00  0.00    -0.007 A 
ATOM      6  C5  UNL d   1      -1.895  -0.030   1.336  0.00  0.00     0.039 A 
ENDROOT
BRANCH   4   7
ATOM      7  O   UNL d   1      -2.802  -1.585   4.495  0.00  0.00    -0.526 OA
ATOM      8  H5  UNL d   1      -2.737  -1.226   5.395  0.00  0.00     0.418 HD
ENDBRANCH   4   7
TORSDOF 1
ENDMDL
