MODEL 1
REMARK minimizedAffinity -4.7876668
REMARK minimizedRMSD -1
REMARK  1 active torsions:
REMARK  status: ('A' for Active; 'I' for Inactive)
REMARK    1  A    between atoms: C3_4  and  O_7 
ROOT
ATOM      1  C   UNL d   1      -0.340   1.133  -0.304  0.00  0.00    -0.033 A 
ATOM      2  C1  UNL d   1       0.730   1.892  -0.784  0.00  0.00     0.039 A 
ATOM      3  C2  UNL d   1       1.954   1.280  -1.060  0.00  0.00    -0.080 A 
ATOM      4  C3  UNL d   1       2.095  -0.090  -0.853  0.00  0.00     0.150 A 
ATOM      5  C4  UNL d   1       1.033  -0.852  -0.379  0.00  0.00    -0.007 A 
ATOM      6  C5  UNL d   1      -0.189  -0.239  -0.103  0.00  0.00     0.039 A 
ENDROOT
BRANCH   4   7
ATOM      7  O   UNL d   1       3.272  -0.730  -1.104  0.00  0.00    -0.526 OA
ATOM      8  H5  UNL d   1       3.924  -0.073  -1.399  0.00  0.00     0.418 HD
ENDBRANCH   4   7
TORSDOF 1
ENDMDL
