MODEL 1
REMARK minimizedAffinity -4.70668793
REMARK minimizedRMSD -1
REMARK  1 active torsions:
REMARK  status: ('A' for Active; 'I' for Inactive)
REMARK    1  A    between atoms: C3_4  and  O_7 
ROOT
ATOM      1  C   UNL d   1      -0.020  -0.306  -0.298  0.00  0.00    -0.033 A 
ATOM      2  C1  UNL d   1       0.330  -1.605  -0.671  0.00  0.00     0.039 A 
ATOM      3  C2  UNL d   1       1.584  -1.859  -1.229  0.00  0.00    -0.080 A 
ATOM      4  C3  UNL d   1       2.478  -0.807  -1.408  0.00  0.00     0.150 A 
ATOM      5  C4  UNL d   1       2.138   0.489  -1.035  0.00  0.00    -0.007 A 
ATOM      6  C5  UNL d   1       0.884   0.741  -0.479  0.00  0.00     0.039 A 
ENDROOT
BRANCH   4   7
ATOM      7  O   UNL d   1       3.712  -1.005  -1.953  0.00  0.00    -0.526 OA
ATOM      8  H5  UNL d   1       3.797  -1.944  -2.188  0.00  0.00     0.418 HD
ENDBRANCH   4   7
TORSDOF 1
ENDMDL
