MODEL 1
REMARK minimizedAffinity -3.41824579
REMARK minimizedRMSD -1
REMARK  1 active torsions:
REMARK  status: ('A' for Active; 'I' for Inactive)
REMARK    1  A    between atoms: C3_4  and  O_7 
ROOT
ATOM      1  C   UNL d   1      -0.159  -0.975  -0.016  0.00  0.00    -0.033 A 
ATOM      2  C1  UNL d   1       0.459   0.251  -0.270  0.00  0.00     0.039 A 
ATOM      3  C2  UNL d   1       1.817   0.298  -0.591  0.00  0.00    -0.080 A 
ATOM      4  C3  UNL d   1       2.545  -0.887  -0.656  0.00  0.00     0.150 A 
ATOM      5  C4  UNL d   1       1.935  -2.112  -0.408  0.00  0.00    -0.007 A 
ATOM      6  C5  UNL d   1       0.579  -2.157  -0.086  0.00  0.00     0.039 A 
ENDROOT
BRANCH   4   7
ATOM      7  O   UNL d   1       3.873  -0.891  -0.961  0.00  0.00    -0.526 OA
ATOM      8  H5  UNL d   1       4.165   0.028  -1.079  0.00  0.00     0.418 HD
ENDBRANCH   4   7
TORSDOF 1
ENDMDL
