MODEL 1
REMARK minimizedAffinity -4.42384624
REMARK minimizedRMSD -1
REMARK  1 active torsions:
REMARK  status: ('A' for Active; 'I' for Inactive)
REMARK    1  A    between atoms: C3_4  and  O_7 
ROOT
ATOM      1  C   UNL d   1       3.029   0.357  -2.288  0.00  0.00    -0.033 A 
ATOM      2  C1  UNL d   1       2.161   1.446  -2.398  0.00  0.00     0.039 A 
ATOM      3  C2  UNL d   1       1.007   1.503  -1.615  0.00  0.00    -0.080 A 
ATOM      4  C3  UNL d   1       0.732   0.467  -0.726  0.00  0.00     0.150 A 
ATOM      5  C4  UNL d   1       1.594  -0.618  -0.608  0.00  0.00    -0.007 A 
ATOM      6  C5  UNL d   1       2.746  -0.674  -1.391  0.00  0.00     0.039 A 
ENDROOT
BRANCH   4   7
ATOM      7  O   UNL d   1      -0.385   0.477   0.055  0.00  0.00    -0.526 OA
ATOM      8  H5  UNL d   1      -0.900   1.273  -0.154  0.00  0.00     0.418 HD
ENDBRANCH   4   7
TORSDOF 1
ENDMDL
