MODEL 1
REMARK minimizedAffinity -3.56693959
REMARK minimizedRMSD -1
REMARK  1 active torsions:
REMARK  status: ('A' for Active; 'I' for Inactive)
REMARK    1  A    between atoms: C3_4  and  O_7 
ROOT
ATOM      1  C   UNL d   1       3.692  -0.273  -2.148  0.00  0.00    -0.033 A 
ATOM      2  C1  UNL d   1       2.907   0.839  -2.459  0.00  0.00     0.039 A 
ATOM      3  C2  UNL d   1       1.707   1.060  -1.780  0.00  0.00    -0.080 A 
ATOM      4  C3  UNL d   1       1.305   0.164  -0.793  0.00  0.00     0.150 A 
ATOM      5  C4  UNL d   1       2.084  -0.944  -0.476  0.00  0.00    -0.007 A 
ATOM      6  C5  UNL d   1       3.282  -1.163  -1.155  0.00  0.00     0.039 A 
ENDROOT
BRANCH   4   7
ATOM      7  O   UNL d   1       0.139   0.335  -0.107  0.00  0.00    -0.526 OA
ATOM      8  H5  UNL d   1      -0.308   1.126  -0.453  0.00  0.00     0.418 HD
ENDBRANCH   4   7
TORSDOF 1
ENDMDL
