MODEL 1
REMARK minimizedAffinity -4.83620548
REMARK minimizedRMSD -1
REMARK  1 active torsions:
REMARK  status: ('A' for Active; 'I' for Inactive)
REMARK    1  A    between atoms: C3_4  and  O_7 
ROOT
ATOM      1  C   UNL d   1       2.242   0.126  -1.002  0.00  0.00    -0.033 A 
ATOM      2  C1  UNL d   1       1.141  -0.129  -0.183  0.00  0.00     0.039 A 
ATOM      3  C2  UNL d   1      -0.018   0.638  -0.309  0.00  0.00    -0.080 A 
ATOM      4  C3  UNL d   1      -0.064   1.656  -1.258  0.00  0.00     0.150 A 
ATOM      5  C4  UNL d   1       1.028   1.913  -2.080  0.00  0.00    -0.007 A 
ATOM      6  C5  UNL d   1       2.185   1.147  -1.952  0.00  0.00     0.039 A 
ENDROOT
BRANCH   4   7
ATOM      7  O   UNL d   1      -1.172   2.435  -1.414  0.00  0.00    -0.526 OA
ATOM      8  H5  UNL d   1      -1.836   2.161  -0.759  0.00  0.00     0.418 HD
ENDBRANCH   4   7
TORSDOF 1
ENDMDL
