MODEL 1
REMARK minimizedAffinity -4.90844488
REMARK minimizedRMSD -1
REMARK  1 active torsions:
REMARK  status: ('A' for Active; 'I' for Inactive)
REMARK    1  A    between atoms: C3_4  and  O_7 
ROOT
ATOM      1  C   UNL d   1       1.037  -1.606  -0.619  0.00  0.00    -0.033 A 
ATOM      2  C1  UNL d   1       0.129  -0.645  -0.168  0.00  0.00     0.039 A 
ATOM      3  C2  UNL d   1       0.255   0.684  -0.580  0.00  0.00    -0.080 A 
ATOM      4  C3  UNL d   1       1.290   1.037  -1.441  0.00  0.00     0.150 A 
ATOM      5  C4  UNL d   1       2.195   0.085  -1.897  0.00  0.00    -0.007 A 
ATOM      6  C5  UNL d   1       2.068  -1.241  -1.485  0.00  0.00     0.039 A 
ENDROOT
BRANCH   4   7
ATOM      7  O   UNL d   1       1.456   2.322  -1.866  0.00  0.00    -0.526 OA
ATOM      8  H5  UNL d   1       0.775   2.875  -1.447  0.00  0.00     0.418 HD
ENDBRANCH   4   7
TORSDOF 1
ENDMDL
