MODEL 1
REMARK minimizedAffinity -4.77110291
REMARK minimizedRMSD -1
REMARK  1 active torsions:
REMARK  status: ('A' for Active; 'I' for Inactive)
REMARK    1  A    between atoms: C3_4  and  O_7 
ROOT
ATOM      1  C   UNL d   1      -0.263  -0.751  -0.314  0.00  0.00    -0.033 A 
ATOM      2  C1  UNL d   1       0.471  -1.772  -0.921  0.00  0.00     0.039 A 
ATOM      3  C2  UNL d   1       1.851  -1.638  -1.086  0.00  0.00    -0.080 A 
ATOM      4  C3  UNL d   1       2.484  -0.481  -0.641  0.00  0.00     0.150 A 
ATOM      5  C4  UNL d   1       1.759   0.538  -0.032  0.00  0.00    -0.007 A 
ATOM      6  C5  UNL d   1       0.381   0.404   0.132  0.00  0.00     0.039 A 
ENDROOT
BRANCH   4   7
ATOM      7  O   UNL d   1       3.828  -0.303  -0.785  0.00  0.00    -0.526 OA
ATOM      8  H5  UNL d   1       4.192  -1.076  -1.248  0.00  0.00     0.418 HD
ENDBRANCH   4   7
TORSDOF 1
ENDMDL
