MODEL 1
REMARK minimizedAffinity -4.86756372
REMARK minimizedRMSD -1
REMARK  1 active torsions:
REMARK  status: ('A' for Active; 'I' for Inactive)
REMARK    1  A    between atoms: C3_4  and  O_7 
ROOT
ATOM      1  C   UNL d   1       1.926  -0.807  -1.769  0.00  0.00    -0.033 A 
ATOM      2  C1  UNL d   1       1.084  -1.848  -1.374  0.00  0.00     0.039 A 
ATOM      3  C2  UNL d   1       0.030  -1.600  -0.492  0.00  0.00    -0.080 A 
ATOM      4  C3  UNL d   1      -0.171  -0.308  -0.014  0.00  0.00     0.150 A 
ATOM      5  C4  UNL d   1       0.662   0.735  -0.405  0.00  0.00    -0.007 A 
ATOM      6  C5  UNL d   1       1.715   0.485  -1.285  0.00  0.00     0.039 A 
ENDROOT
BRANCH   4   7
ATOM      7  O   UNL d   1      -1.183  -0.019   0.852  0.00  0.00    -0.526 OA
ATOM      8  H5  UNL d   1      -1.658  -0.841   1.057  0.00  0.00     0.418 HD
ENDBRANCH   4   7
TORSDOF 1
ENDMDL
