MODEL 1
REMARK minimizedAffinity -4.84320545
REMARK minimizedRMSD -1
REMARK  1 active torsions:
REMARK  status: ('A' for Active; 'I' for Inactive)
REMARK    1  A    between atoms: C3_4  and  O_7 
ROOT
ATOM      1  C   UNL d   1       2.799  -0.298  -0.363  0.00  0.00    -0.033 A 
ATOM      2  C1  UNL d   1       2.571  -1.285  -1.324  0.00  0.00     0.039 A 
ATOM      3  C2  UNL d   1       1.305  -1.861  -1.449  0.00  0.00    -0.080 A 
ATOM      4  C3  UNL d   1       0.278  -1.441  -0.608  0.00  0.00     0.150 A 
ATOM      5  C4  UNL d   1       0.497  -0.456   0.349  0.00  0.00    -0.007 A 
ATOM      6  C5  UNL d   1       1.762   0.117   0.473  0.00  0.00     0.039 A 
ENDROOT
BRANCH   4   7
ATOM      7  O   UNL d   1      -0.973  -1.978  -0.689  0.00  0.00    -0.526 OA
ATOM      8  H5  UNL d   1      -0.968  -2.666  -1.375  0.00  0.00     0.418 HD
ENDBRANCH   4   7
TORSDOF 1
ENDMDL
