MODEL 1
REMARK minimizedAffinity -0.232064262
REMARK minimizedRMSD -1
REMARK  1 active torsions:
REMARK  status: ('A' for Active; 'I' for Inactive)
REMARK    1  A    between atoms: C3_4  and  O_7 
ROOT
ATOM      1  C   UNL d   1       5.736  -0.335   4.039  0.00  0.00    -0.033 A 
ATOM      2  C1  UNL d   1       5.249  -0.583   5.324  0.00  0.00     0.039 A 
ATOM      3  C2  UNL d   1       4.523   0.401   5.999  0.00  0.00    -0.080 A 
ATOM      4  C3  UNL d   1       4.292   1.625   5.379  0.00  0.00     0.150 A 
ATOM      5  C4  UNL d   1       4.771   1.878   4.097  0.00  0.00    -0.007 A 
ATOM      6  C5  UNL d   1       5.496   0.895   3.425  0.00  0.00     0.039 A 
ENDROOT
BRANCH   4   7
ATOM      7  O   UNL d   1       3.593   2.618   6.000  0.00  0.00    -0.526 OA
ATOM      8  H5  UNL d   1       3.349   2.312   6.889  0.00  0.00     0.418 HD
ENDBRANCH   4   7
TORSDOF 1
ENDMDL
