MODEL 1
REMARK minimizedAffinity -2.26756978
REMARK minimizedRMSD -1
REMARK  0 active torsions:
REMARK  status: ('A' for Active; 'I' for Inactive)
ROOT
ATOM      1  C   UNL d   1       0.149  -0.758  -1.265  0.00  0.00     0.020 A 
ATOM      2  C1  UNL d   1      -1.186  -0.453  -1.004  0.00  0.00     0.020 A 
ATOM      3  C2  UNL d   1      -1.534   0.209   0.175  0.00  0.00     0.034 A 
ATOM      4  C3  UNL d   1      -0.545   0.568   1.098  0.00  0.00     0.017 A 
ATOM      5  C4  UNL d   1       0.795   0.262   0.836  0.00  0.00     0.017 A 
ATOM      6  C5  UNL d   1       1.137  -0.401  -0.347  0.00  0.00     0.034 A 
ATOM      7 Cl   UNL d   1       2.070   0.674   1.927  0.00  0.00    -0.070 Cl
ATOM      8 Cl1  UNL d   1      -1.047   1.385   2.536  0.00  0.00    -0.070 Cl
ENDROOT
TORSDOF 0
ENDMDL
