MODEL 1
REMARK minimizedAffinity -3.44401622
REMARK minimizedRMSD -1
REMARK  0 active torsions:
REMARK  status: ('A' for Active; 'I' for Inactive)
ROOT
ATOM      1  C   UNL d   1      -0.036   0.101   3.294  0.00  0.00     0.020 A 
ATOM      2  C1  UNL d   1      -1.061   0.523   2.449  0.00  0.00     0.020 A 
ATOM      3  C2  UNL d   1      -0.959   0.319   1.071  0.00  0.00     0.034 A 
ATOM      4  C3  UNL d   1       0.172  -0.308   0.534  0.00  0.00     0.017 A 
ATOM      5  C4  UNL d   1       1.201  -0.731   1.384  0.00  0.00     0.017 A 
ATOM      6  C5  UNL d   1       1.093  -0.524   2.763  0.00  0.00     0.034 A 
ATOM      7 Cl   UNL d   1       2.626  -1.512   0.796  0.00  0.00    -0.070 Cl
ATOM      8 Cl1  UNL d   1       0.232  -0.528  -1.178  0.00  0.00    -0.070 Cl
ENDROOT
TORSDOF 0
ENDMDL
