MODEL 1
REMARK minimizedAffinity -2.81382656
REMARK minimizedRMSD -1
REMARK  0 active torsions:
REMARK  status: ('A' for Active; 'I' for Inactive)
ROOT
ATOM      1  C   UNL d   1      -0.898   1.619  -1.705  0.00  0.00     0.020 A 
ATOM      2  C1  UNL d   1       0.151   0.761  -2.031  0.00  0.00     0.020 A 
ATOM      3  C2  UNL d   1       0.893   0.148  -1.019  0.00  0.00     0.034 A 
ATOM      4  C3  UNL d   1       0.586   0.393   0.325  0.00  0.00     0.017 A 
ATOM      5  C4  UNL d   1      -0.468   1.254   0.651  0.00  0.00     0.017 A 
ATOM      6  C5  UNL d   1      -1.207   1.865  -0.367  0.00  0.00     0.034 A 
ATOM      7 Cl   UNL d   1      -0.906   1.604   2.286  0.00  0.00    -0.070 Cl
ATOM      8 Cl1  UNL d   1       1.545  -0.399   1.524  0.00  0.00    -0.070 Cl
ENDROOT
TORSDOF 0
ENDMDL
