MODEL 1
REMARK minimizedAffinity -3.53893995
REMARK minimizedRMSD -1
REMARK  0 active torsions:
REMARK  status: ('A' for Active; 'I' for Inactive)
ROOT
ATOM      1  C   UNL d   1      -1.623   1.632   0.837  0.00  0.00     0.020 A 
ATOM      2  C1  UNL d   1      -1.268   0.715   1.825  0.00  0.00     0.020 A 
ATOM      3  C2  UNL d   1      -0.331  -0.282   1.548  0.00  0.00     0.034 A 
ATOM      4  C3  UNL d   1       0.254  -0.365   0.279  0.00  0.00     0.017 A 
ATOM      5  C4  UNL d   1      -0.103   0.556  -0.712  0.00  0.00     0.017 A 
ATOM      6  C5  UNL d   1      -1.042   1.553  -0.429  0.00  0.00     0.034 A 
ATOM      7 Cl   UNL d   1       0.576   0.518  -2.301  0.00  0.00    -0.070 Cl
ATOM      8 Cl1  UNL d   1       1.406  -1.623   0.005  0.00  0.00    -0.070 Cl
ENDROOT
TORSDOF 0
ENDMDL
