MODEL 1
REMARK minimizedAffinity -3.92731476
REMARK minimizedRMSD -1
REMARK  0 active torsions:
REMARK  status: ('A' for Active; 'I' for Inactive)
ROOT
ATOM      1  C   UNL d   1       0.540   0.891   2.166  0.00  0.00     0.020 A 
ATOM      2  C1  UNL d   1      -0.764   0.898   2.662  0.00  0.00     0.020 A 
ATOM      3  C2  UNL d   1      -1.825   0.517   1.839  0.00  0.00     0.034 A 
ATOM      4  C3  UNL d   1      -1.586   0.128   0.516  0.00  0.00     0.017 A 
ATOM      5  C4  UNL d   1      -0.277   0.122   0.019  0.00  0.00     0.017 A 
ATOM      6  C5  UNL d   1       0.782   0.504   0.848  0.00  0.00     0.034 A 
ATOM      7 Cl   UNL d   1       0.097  -0.345  -1.602  0.00  0.00    -0.070 Cl
ATOM      8 Cl1  UNL d   1      -2.946  -0.331  -0.446  0.00  0.00    -0.070 Cl
ENDROOT
TORSDOF 0
ENDMDL
