MODEL 1
REMARK minimizedAffinity -3.52787066
REMARK minimizedRMSD -1
REMARK  0 active torsions:
REMARK  status: ('A' for Active; 'I' for Inactive)
ROOT
ATOM      1  C   UNL d   1      -0.161   1.454   1.292  0.00  0.00     0.020 A 
ATOM      2  C1  UNL d   1       1.005   1.216   2.020  0.00  0.00     0.020 A 
ATOM      3  C2  UNL d   1       1.916   0.252   1.583  0.00  0.00     0.034 A 
ATOM      4  C3  UNL d   1       1.664  -0.477   0.415  0.00  0.00     0.017 A 
ATOM      5  C4  UNL d   1       0.494  -0.238  -0.315  0.00  0.00     0.017 A 
ATOM      6  C5  UNL d   1      -0.415   0.728   0.127  0.00  0.00     0.034 A 
ATOM      7 Cl   UNL d   1       0.114  -1.097  -1.765  0.00  0.00    -0.070 Cl
ATOM      8 Cl1  UNL d   1       2.835  -1.653  -0.066  0.00  0.00    -0.070 Cl
ENDROOT
TORSDOF 0
ENDMDL
