MODEL 1
REMARK minimizedAffinity -5.94087029
REMARK minimizedRMSD -1
REMARK  2 active torsions:
REMARK  status: ('A' for Active; 'I' for Inactive)
REMARK    1  A    between atoms: C1_2  and  C2_3 
REMARK    2  A    between atoms: C2_3  and  C3_4 
ROOT
ATOM      1  C3  UNL d   1       0.650  -1.428   0.647  0.00  0.00    -0.075 A 
ATOM      2  C4  UNL d   1       1.742  -0.753   0.082  0.00  0.00     0.002 A 
ATOM      3  C5  UNL d   1       1.556   0.449  -0.600  0.00  0.00     0.002 A 
ATOM      4  C6  UNL d   1       0.278   0.987  -0.735  0.00  0.00    -0.004 A 
ATOM      5  C7  UNL d   1      -0.817   0.317  -0.192  0.00  0.00     0.002 A 
ATOM      6  C8  UNL d   1      -0.633  -0.885   0.495  0.00  0.00     0.002 A 
ENDROOT
BRANCH   1   7
ATOM      7  C2  UNL d   1       0.848  -2.714   1.412  0.00  0.00     0.056 C 
BRANCH   7   8
ATOM      8  C1  UNL d   1      -0.079  -2.870   2.623  0.00  0.00     0.007 C 
ATOM      9  C   UNL d   1       0.125  -1.790   3.677  0.00  0.00     0.009 C 
ENDBRANCH   7   8
ENDBRANCH   1   7
TORSDOF 2
ENDMDL
