MODEL 1
REMARK minimizedAffinity -6.14557076
REMARK minimizedRMSD -1
REMARK  2 active torsions:
REMARK  status: ('A' for Active; 'I' for Inactive)
REMARK    1  A    between atoms: C1_2  and  C2_3 
REMARK    2  A    between atoms: C2_3  and  C3_4 
ROOT
ATOM      1  C3  UNL d   1       0.261  -0.972   0.605  0.00  0.00    -0.075 A 
ATOM      2  C4  UNL d   1      -0.419  -1.050   1.830  0.00  0.00     0.002 A 
ATOM      3  C5  UNL d   1      -0.372  -2.218   2.592  0.00  0.00     0.002 A 
ATOM      4  C6  UNL d   1       0.344  -3.323   2.137  0.00  0.00    -0.004 A 
ATOM      5  C7  UNL d   1       1.009  -3.262   0.914  0.00  0.00     0.002 A 
ATOM      6  C8  UNL d   1       0.968  -2.093   0.151  0.00  0.00     0.002 A 
ENDROOT
BRANCH   1   7
ATOM      7  C2  UNL d   1       0.239   0.299  -0.210  0.00  0.00     0.056 C 
BRANCH   7   8
ATOM      8  C1  UNL d   1      -0.965   1.202   0.075  0.00  0.00     0.007 C 
ATOM      9  C   UNL d   1      -1.515   1.881  -1.173  0.00  0.00     0.009 C 
ENDBRANCH   7   8
ENDBRANCH   1   7
TORSDOF 2
ENDMDL
