MODEL 1
REMARK minimizedAffinity -0.70236057
REMARK minimizedRMSD -1
REMARK  2 active torsions:
REMARK  status: ('A' for Active; 'I' for Inactive)
REMARK    1  A    between atoms: C1_2  and  C2_3 
REMARK    2  A    between atoms: C2_3  and  C3_4 
ROOT
ATOM      1  C3  UNL d   1      -0.379   0.063  -0.410  0.00  0.00    -0.075 A 
ATOM      2  C4  UNL d   1      -1.006   0.440  -1.607  0.00  0.00     0.002 A 
ATOM      3  C5  UNL d   1      -1.850   1.551  -1.645  0.00  0.00     0.002 A 
ATOM      4  C6  UNL d   1      -2.085   2.291  -0.488  0.00  0.00    -0.004 A 
ATOM      5  C7  UNL d   1      -1.480   1.916   0.709  0.00  0.00     0.002 A 
ATOM      6  C8  UNL d   1      -0.632   0.807   0.750  0.00  0.00     0.002 A 
ENDROOT
BRANCH   1   7
ATOM      7  C2  UNL d   1       0.558  -1.120  -0.369  0.00  0.00     0.056 C 
BRANCH   7   8
ATOM      8  C1  UNL d   1       1.744  -0.943   0.585  0.00  0.00     0.007 C 
ATOM      9  C   UNL d   1       2.213  -2.250   1.210  0.00  0.00     0.009 C 
ENDBRANCH   7   8
ENDBRANCH   1   7
TORSDOF 2
ENDMDL
