MODEL 1
REMARK minimizedAffinity -5.12245989
REMARK minimizedRMSD -1
REMARK  2 active torsions:
REMARK  status: ('A' for Active; 'I' for Inactive)
REMARK    1  A    between atoms: C1_2  and  C2_3 
REMARK    2  A    between atoms: C2_3  and  C3_4 
ROOT
ATOM      1  C3  UNL d   1       0.144   0.201   0.060  0.00  0.00    -0.075 A 
ATOM      2  C4  UNL d   1       1.500   0.137  -0.293  0.00  0.00     0.002 A 
ATOM      3  C5  UNL d   1       2.316  -0.876   0.211  0.00  0.00     0.002 A 
ATOM      4  C6  UNL d   1       1.791  -1.829   1.080  0.00  0.00    -0.004 A 
ATOM      5  C7  UNL d   1       0.450  -1.766   1.451  0.00  0.00     0.002 A 
ATOM      6  C8  UNL d   1      -0.370  -0.756   0.945  0.00  0.00     0.002 A 
ENDROOT
BRANCH   1   7
ATOM      7  C2  UNL d   1      -0.751   1.278  -0.506  0.00  0.00     0.056 C 
BRANCH   7   8
ATOM      8  C1  UNL d   1      -1.113   1.077  -1.981  0.00  0.00     0.007 C 
ATOM      9  C   UNL d   1      -2.369   1.829  -2.399  0.00  0.00     0.009 C 
ENDBRANCH   7   8
ENDBRANCH   1   7
TORSDOF 2
ENDMDL
