MODEL 1
REMARK minimizedAffinity -2.51239824
REMARK minimizedRMSD -1
REMARK  2 active torsions:
REMARK  status: ('A' for Active; 'I' for Inactive)
REMARK    1  A    between atoms: C1_2  and  C2_3 
REMARK    2  A    between atoms: C2_3  and  C3_4 
ROOT
ATOM      1  C3  UNL d   1       0.011  -0.309  -0.409  0.00  0.00    -0.075 A 
ATOM      2  C4  UNL d   1      -0.086  -1.491   0.338  0.00  0.00     0.002 A 
ATOM      3  C5  UNL d   1       1.064  -2.143   0.785  0.00  0.00     0.002 A 
ATOM      4  C6  UNL d   1       2.323  -1.628   0.481  0.00  0.00    -0.004 A 
ATOM      5  C7  UNL d   1       2.431  -0.463  -0.275  0.00  0.00     0.002 A 
ATOM      6  C8  UNL d   1       1.282   0.194  -0.719  0.00  0.00     0.002 A 
ENDROOT
BRANCH   1   7
ATOM      7  C2  UNL d   1      -1.230   0.417  -0.870  0.00  0.00     0.056 C 
BRANCH   7   8
ATOM      8  C1  UNL d   1      -1.273   0.684  -2.379  0.00  0.00     0.007 C 
ATOM      9  C   UNL d   1      -2.620   1.210  -2.858  0.00  0.00     0.009 C 
ENDBRANCH   7   8
ENDBRANCH   1   7
TORSDOF 2
ENDMDL
