MODEL 1
REMARK minimizedAffinity -4.56387997
REMARK minimizedRMSD -1
REMARK  2 active torsions:
REMARK  status: ('A' for Active; 'I' for Inactive)
REMARK    1  A    between atoms: C1_2  and  C2_3 
REMARK    2  A    between atoms: C2_3  and  C3_4 
ROOT
ATOM      1  C3  UNL d   1      -0.296   0.029  -0.002  0.00  0.00    -0.075 A 
ATOM      2  C4  UNL d   1      -0.662  -1.084   0.769  0.00  0.00     0.002 A 
ATOM      3  C5  UNL d   1       0.272  -2.075   1.070  0.00  0.00     0.002 A 
ATOM      4  C6  UNL d   1       1.579  -1.971   0.598  0.00  0.00    -0.004 A 
ATOM      5  C7  UNL d   1       1.949  -0.878  -0.183  0.00  0.00     0.002 A 
ATOM      6  C8  UNL d   1       1.017   0.117  -0.482  0.00  0.00     0.002 A 
ENDROOT
BRANCH   1   7
ATOM      7  C2  UNL d   1      -1.295   1.120  -0.307  0.00  0.00     0.056 C 
BRANCH   7   8
ATOM      8  C1  UNL d   1      -1.338   1.532  -1.782  0.00  0.00     0.007 C 
ATOM      9  C   UNL d   1      -2.750   1.591  -2.348  0.00  0.00     0.009 C 
ENDBRANCH   7   8
ENDBRANCH   1   7
TORSDOF 2
ENDMDL
