MODEL 1
REMARK minimizedAffinity -2.199862
REMARK minimizedRMSD -1
REMARK  2 active torsions:
REMARK  status: ('A' for Active; 'I' for Inactive)
REMARK    1  A    between atoms: C1_2  and  C2_3 
REMARK    2  A    between atoms: C2_3  and  C3_4 
ROOT
ATOM      1  C3  UNL d   1      -0.558   0.151   0.044  0.00  0.00    -0.075 A 
ATOM      2  C4  UNL d   1      -0.038  -1.150  -0.017  0.00  0.00     0.002 A 
ATOM      3  C5  UNL d   1      -0.404  -2.105   0.932  0.00  0.00     0.002 A 
ATOM      4  C6  UNL d   1      -1.286  -1.769   1.958  0.00  0.00    -0.004 A 
ATOM      5  C7  UNL d   1      -1.796  -0.475   2.037  0.00  0.00     0.002 A 
ATOM      6  C8  UNL d   1      -1.434   0.481   1.086  0.00  0.00     0.002 A 
ENDROOT
BRANCH   1   7
ATOM      7  C2  UNL d   1      -0.188   1.180  -0.997  0.00  0.00     0.056 C 
BRANCH   7   8
ATOM      8  C1  UNL d   1      -1.387   1.934  -1.583  0.00  0.00     0.007 C 
ATOM      9  C   UNL d   1      -1.240   2.233  -3.069  0.00  0.00     0.009 C 
ENDBRANCH   7   8
ENDBRANCH   1   7
TORSDOF 2
ENDMDL
