MODEL 1
REMARK minimizedAffinity -3.71891737
REMARK minimizedRMSD -1
REMARK  2 active torsions:
REMARK  status: ('A' for Active; 'I' for Inactive)
REMARK    1  A    between atoms: C1_2  and  C2_3 
REMARK    2  A    between atoms: C2_3  and  C3_4 
ROOT
ATOM      1  C3  UNL d   1      -0.796   1.322  -0.809  0.00  0.00    -0.075 A 
ATOM      2  C4  UNL d   1       0.273   0.518  -1.232  0.00  0.00     0.002 A 
ATOM      3  C5  UNL d   1       0.679  -0.579  -0.471  0.00  0.00     0.002 A 
ATOM      4  C6  UNL d   1       0.029  -0.880   0.724  0.00  0.00    -0.004 A 
ATOM      5  C7  UNL d   1      -1.023  -0.079   1.162  0.00  0.00     0.002 A 
ATOM      6  C8  UNL d   1      -1.434   1.017   0.401  0.00  0.00     0.002 A 
ENDROOT
BRANCH   1   7
ATOM      7  C2  UNL d   1      -1.258   2.493  -1.642  0.00  0.00     0.056 C 
BRANCH   7   8
ATOM      8  C1  UNL d   1      -2.066   2.096  -2.882  0.00  0.00     0.007 C 
ATOM      9  C   UNL d   1      -3.390   1.423  -2.546  0.00  0.00     0.009 C 
ENDBRANCH   7   8
ENDBRANCH   1   7
TORSDOF 2
ENDMDL
