MODEL 1
REMARK minimizedAffinity -2.88963699
REMARK minimizedRMSD -1
REMARK  2 active torsions:
REMARK  status: ('A' for Active; 'I' for Inactive)
REMARK    1  A    between atoms: C1_2  and  C2_3 
REMARK    2  A    between atoms: C2_3  and  C3_4 
ROOT
ATOM      1  C3  UNL d   1      -0.924   0.231  -0.960  0.00  0.00    -0.075 A 
ATOM      2  C4  UNL d   1      -0.445   1.201  -0.068  0.00  0.00     0.002 A 
ATOM      3  C5  UNL d   1       0.868   1.149   0.399  0.00  0.00     0.002 A 
ATOM      4  C6  UNL d   1       1.715   0.121  -0.011  0.00  0.00    -0.004 A 
ATOM      5  C7  UNL d   1       1.246  -0.858  -0.884  0.00  0.00     0.002 A 
ATOM      6  C8  UNL d   1      -0.067  -0.805  -1.356  0.00  0.00     0.002 A 
ENDROOT
BRANCH   1   7
ATOM      7  C2  UNL d   1      -2.336   0.299  -1.492  0.00  0.00     0.056 C 
BRANCH   7   8
ATOM      8  C1  UNL d   1      -2.579   1.453  -2.470  0.00  0.00     0.007 C 
ATOM      9  C   UNL d   1      -2.199   1.114  -3.905  0.00  0.00     0.009 C 
ENDBRANCH   7   8
ENDBRANCH   1   7
TORSDOF 2
ENDMDL
