MODEL 1
REMARK minimizedAffinity -0.682119787
REMARK minimizedRMSD -1
REMARK  2 active torsions:
REMARK  status: ('A' for Active; 'I' for Inactive)
REMARK    1  A    between atoms: C1_2  and  C2_3 
REMARK    2  A    between atoms: C2_3  and  C3_4 
ROOT
ATOM      1  C3  UNL d   1      -0.847   1.151  -0.489  0.00  0.00    -0.075 A 
ATOM      2  C4  UNL d   1       0.304   0.430  -0.838  0.00  0.00     0.002 A 
ATOM      3  C5  UNL d   1       0.726  -0.650  -0.062  0.00  0.00     0.002 A 
ATOM      4  C6  UNL d   1       0.010  -1.015   1.076  0.00  0.00    -0.004 A 
ATOM      5  C7  UNL d   1      -1.126  -0.296   1.441  0.00  0.00     0.002 A 
ATOM      6  C8  UNL d   1      -1.553   0.783   0.664  0.00  0.00     0.002 A 
ENDROOT
BRANCH   1   7
ATOM      7  C2  UNL d   1      -1.326   2.303  -1.342  0.00  0.00     0.056 C 
BRANCH   7   8
ATOM      8  C1  UNL d   1      -2.024   1.872  -2.636  0.00  0.00     0.007 C 
ATOM      9  C   UNL d   1      -3.450   1.385  -2.415  0.00  0.00     0.009 C 
ENDBRANCH   7   8
ENDBRANCH   1   7
TORSDOF 2
ENDMDL
