MODEL 1
REMARK minimizedAffinity -2.70409751
REMARK minimizedRMSD -1
REMARK  2 active torsions:
REMARK  status: ('A' for Active; 'I' for Inactive)
REMARK    1  A    between atoms: C1_2  and  C2_3 
REMARK    2  A    between atoms: C2_3  and  C3_4 
ROOT
ATOM      1  C3  UNL d   1      -1.223   1.221  -1.099  0.00  0.00    -0.075 A 
ATOM      2  C4  UNL d   1      -2.013   0.340  -1.851  0.00  0.00     0.002 A 
ATOM      3  C5  UNL d   1      -2.679   0.785  -2.993  0.00  0.00     0.002 A 
ATOM      4  C6  UNL d   1      -2.574   2.117  -3.390  0.00  0.00    -0.004 A 
ATOM      5  C7  UNL d   1      -1.805   3.005  -2.641  0.00  0.00     0.002 A 
ATOM      6  C8  UNL d   1      -1.133   2.561  -1.500  0.00  0.00     0.002 A 
ENDROOT
BRANCH   1   7
ATOM      7  C2  UNL d   1      -0.475   0.738   0.121  0.00  0.00     0.056 C 
BRANCH   7   8
ATOM      8  C1  UNL d   1       0.064  -0.691  -0.003  0.00  0.00     0.007 C 
ATOM      9  C   UNL d   1       1.436  -0.873   0.632  0.00  0.00     0.009 C 
ENDBRANCH   7   8
ENDBRANCH   1   7
TORSDOF 2
ENDMDL
