MODEL 1
REMARK minimizedAffinity 6.63368893
REMARK minimizedRMSD -1
REMARK  1 active torsions:
REMARK  status: ('A' for Active; 'I' for Inactive)
REMARK    1  A    between atoms: C1_2  and  C2_3 
ROOT
ATOM      1  C2  UNL d   1      -4.591   3.562  -2.366  0.00  0.00    -0.076 A 
ATOM      2  C3  UNL d   1      -4.127   2.949  -1.189  0.00  0.00     0.004 A 
ATOM      3  C4  UNL d   1      -3.190   1.917  -1.239  0.00  0.00    -0.003 A 
ATOM      4  C5  UNL d   1      -2.702   1.483  -2.466  0.00  0.00     0.000 A 
ATOM      5  C6  UNL d   1      -3.138   2.092  -3.642  0.00  0.00     0.000 A 
ATOM      6  C7  UNL d   1      -4.070   3.143  -3.609  0.00  0.00    -0.073 A 
ATOM      7  C8  UNL d   1      -4.510   3.759  -4.908  0.00  0.00     0.078 C 
ENDROOT
BRANCH   1   8
ATOM      8  C1  UNL d   1      -5.627   4.657  -2.251  0.00  0.00     0.053 C 
ATOM      9  C   UNL d   1      -5.018   6.000  -1.882  0.00  0.00     0.018 C 
ENDBRANCH   1   8
TORSDOF 1
ENDMDL
