MODEL 1
REMARK minimizedAffinity 14.2876654
REMARK minimizedRMSD -1
REMARK  1 active torsions:
REMARK  status: ('A' for Active; 'I' for Inactive)
REMARK    1  A    between atoms: C1_2  and  C2_3 
ROOT
ATOM      1  C2  UNL d   1       2.509   0.790   2.643  0.00  0.00    -0.076 A 
ATOM      2  C3  UNL d   1       2.426  -0.582   2.348  0.00  0.00     0.004 A 
ATOM      3  C4  UNL d   1       2.051  -1.504   3.324  0.00  0.00    -0.003 A 
ATOM      4  C5  UNL d   1       1.753  -1.069   4.610  0.00  0.00     0.000 A 
ATOM      5  C6  UNL d   1       1.813   0.290   4.916  0.00  0.00     0.000 A 
ATOM      6  C7  UNL d   1       2.173   1.235   3.939  0.00  0.00    -0.073 A 
ATOM      7  C8  UNL d   1       2.227   2.688   4.326  0.00  0.00     0.078 C 
ENDROOT
BRANCH   1   8
ATOM      8  C1  UNL d   1       2.947   1.740   1.551  0.00  0.00     0.053 C 
ATOM      9  C   UNL d   1       3.922   1.098   0.576  0.00  0.00     0.018 C 
ENDBRANCH   1   8
TORSDOF 1
ENDMDL
