MODEL 1
REMARK minimizedAffinity 9.01638508
REMARK minimizedRMSD -1
REMARK  1 active torsions:
REMARK  status: ('A' for Active; 'I' for Inactive)
REMARK    1  A    between atoms: C1_2  and  C2_3 
ROOT
ATOM      1  C2  UNL d   1       2.510  -0.051   2.310  0.00  0.00    -0.076 A 
ATOM      2  C3  UNL d   1       2.872  -0.465   1.017  0.00  0.00     0.004 A 
ATOM      3  C4  UNL d   1       3.349   0.449   0.078  0.00  0.00    -0.003 A 
ATOM      4  C5  UNL d   1       3.473   1.791   0.419  0.00  0.00     0.000 A 
ATOM      5  C6  UNL d   1       3.135   2.217   1.703  0.00  0.00     0.000 A 
ATOM      6  C7  UNL d   1       2.668   1.306   2.666  0.00  0.00    -0.073 A 
ATOM      7  C8  UNL d   1       2.313   1.821   4.034  0.00  0.00     0.078 C 
ENDROOT
BRANCH   1   8
ATOM      8  C1  UNL d   1       1.973  -1.082   3.277  0.00  0.00     0.053 C 
ATOM      9  C   UNL d   1       2.947  -2.227   3.508  0.00  0.00     0.018 C 
ENDBRANCH   1   8
TORSDOF 1
ENDMDL
