MODEL 1
REMARK minimizedAffinity 13.7465515
REMARK minimizedRMSD -1
REMARK  1 active torsions:
REMARK  status: ('A' for Active; 'I' for Inactive)
REMARK    1  A    between atoms: C1_2  and  C2_3 
ROOT
ATOM      1  C2  UNL d   1       1.969  -1.771   1.630  0.00  0.00    -0.076 A 
ATOM      2  C3  UNL d   1       2.122  -3.144   1.891  0.00  0.00     0.004 A 
ATOM      3  C4  UNL d   1       2.631  -3.590   3.110  0.00  0.00    -0.003 A 
ATOM      4  C5  UNL d   1       2.995  -2.671   4.087  0.00  0.00     0.000 A 
ATOM      5  C6  UNL d   1       2.833  -1.306   3.852  0.00  0.00     0.000 A 
ATOM      6  C7  UNL d   1       2.306  -0.840   2.636  0.00  0.00    -0.073 A 
ATOM      7  C8  UNL d   1       2.160   0.644   2.433  0.00  0.00     0.078 C 
ENDROOT
BRANCH   1   8
ATOM      8  C1  UNL d   1       1.437  -1.345   0.280  0.00  0.00     0.053 C 
ATOM      9  C   UNL d   1       1.873  -2.279  -0.838  0.00  0.00     0.018 C 
ENDBRANCH   1   8
TORSDOF 1
ENDMDL
