MODEL 1
REMARK minimizedAffinity 16.1926003
REMARK minimizedRMSD -1
REMARK  1 active torsions:
REMARK  status: ('A' for Active; 'I' for Inactive)
REMARK    1  A    between atoms: C1_2  and  C2_3 
ROOT
ATOM      1  C2  UNL d   1       2.558   0.275   1.988  0.00  0.00    -0.076 A 
ATOM      2  C3  UNL d   1       2.276   1.179   3.027  0.00  0.00     0.004 A 
ATOM      3  C4  UNL d   1       2.620   2.525   2.919  0.00  0.00    -0.003 A 
ATOM      4  C5  UNL d   1       3.252   2.989   1.770  0.00  0.00     0.000 A 
ATOM      5  C6  UNL d   1       3.523   2.110   0.723  0.00  0.00     0.000 A 
ATOM      6  C7  UNL d   1       3.168   0.753   0.809  0.00  0.00    -0.073 A 
ATOM      7  C8  UNL d   1       3.490  -0.153  -0.348  0.00  0.00     0.078 C 
ENDROOT
BRANCH   1   8
ATOM      8  C1  UNL d   1       2.185  -1.179   2.173  0.00  0.00     0.053 C 
ATOM      9  C   UNL d   1       2.114  -1.581   3.638  0.00  0.00     0.018 C 
ENDBRANCH   1   8
TORSDOF 1
ENDMDL
