MODEL 1
REMARK minimizedAffinity 9.00237751
REMARK minimizedRMSD -1
REMARK  1 active torsions:
REMARK  status: ('A' for Active; 'I' for Inactive)
REMARK    1  A    between atoms: C1_2  and  C2_3 
ROOT
ATOM      1  C2  UNL d   1       2.717  -2.914   4.414  0.00  0.00    -0.076 A 
ATOM      2  C3  UNL d   1       1.525  -2.418   3.858  0.00  0.00     0.004 A 
ATOM      3  C4  UNL d   1       1.491  -1.178   3.224  0.00  0.00    -0.003 A 
ATOM      4  C5  UNL d   1       2.649  -0.413   3.134  0.00  0.00     0.000 A 
ATOM      5  C6  UNL d   1       3.844  -0.897   3.664  0.00  0.00     0.000 A 
ATOM      6  C7  UNL d   1       3.900  -2.153   4.293  0.00  0.00    -0.073 A 
ATOM      7  C8  UNL d   1       5.214  -2.623   4.853  0.00  0.00     0.078 C 
ENDROOT
BRANCH   1   8
ATOM      8  C1  UNL d   1       2.687  -4.254   5.115  0.00  0.00     0.053 C 
ATOM      9  C   UNL d   1       1.272  -4.727   5.408  0.00  0.00     0.018 C 
ENDBRANCH   1   8
TORSDOF 1
ENDMDL
