MODEL 1
REMARK minimizedAffinity 11.6013536
REMARK minimizedRMSD -1
REMARK  1 active torsions:
REMARK  status: ('A' for Active; 'I' for Inactive)
REMARK    1  A    between atoms: C1_2  and  C2_3 
ROOT
ATOM      1  C2  UNL d   1      -4.753   2.548   1.631  0.00  0.00    -0.076 A 
ATOM      2  C3  UNL d   1      -3.562   1.947   2.075  0.00  0.00     0.004 A 
ATOM      3  C4  UNL d   1      -2.395   2.020   1.317  0.00  0.00    -0.003 A 
ATOM      4  C5  UNL d   1      -2.399   2.697   0.103  0.00  0.00     0.000 A 
ATOM      5  C6  UNL d   1      -3.566   3.315  -0.345  0.00  0.00     0.000 A 
ATOM      6  C7  UNL d   1      -4.747   3.264   0.415  0.00  0.00    -0.073 A 
ATOM      7  C8  UNL d   1      -5.979   3.943  -0.119  0.00  0.00     0.078 C 
ENDROOT
BRANCH   1   8
ATOM      8  C1  UNL d   1      -5.994   2.413   2.483  0.00  0.00     0.053 C 
ATOM      9  C   UNL d   1      -5.997   3.369   3.666  0.00  0.00     0.018 C 
ENDBRANCH   1   8
TORSDOF 1
ENDMDL
