MODEL 1
REMARK minimizedAffinity 8.83398533
REMARK minimizedRMSD -1
REMARK  1 active torsions:
REMARK  status: ('A' for Active; 'I' for Inactive)
REMARK    1  A    between atoms: C1_2  and  C2_3 
ROOT
ATOM      1  C2  UNL d   1      -5.770   1.624  -4.638  0.00  0.00    -0.076 A 
ATOM      2  C3  UNL d   1      -5.676   2.381  -3.457  0.00  0.00     0.004 A 
ATOM      3  C4  UNL d   1      -5.749   1.770  -2.206  0.00  0.00    -0.003 A 
ATOM      4  C5  UNL d   1      -5.915   0.393  -2.116  0.00  0.00     0.000 A 
ATOM      5  C6  UNL d   1      -5.992  -0.375  -3.277  0.00  0.00     0.000 A 
ATOM      6  C7  UNL d   1      -5.905   0.223  -4.546  0.00  0.00    -0.073 A 
ATOM      7  C8  UNL d   1      -6.000  -0.653  -5.765  0.00  0.00     0.078 C 
ENDROOT
BRANCH   1   8
ATOM      8  C1  UNL d   1      -5.712   2.345  -5.966  0.00  0.00     0.053 C 
ATOM      9  C   UNL d   1      -4.640   3.423  -5.998  0.00  0.00     0.018 C 
ENDBRANCH   1   8
TORSDOF 1
ENDMDL
