MODEL 1
REMARK minimizedAffinity 13.4766035
REMARK minimizedRMSD -1
REMARK  0 active torsions:
REMARK  status: ('A' for Active; 'I' for Inactive)
ROOT
ATOM      1  C   UNL d   1       6.000   1.045   0.923  0.00  0.00     0.077 C 
ATOM      2  C1  UNL d   1       5.323   2.251   1.503  0.00  0.00    -0.074 A 
ATOM      3  C2  UNL d   1       4.422   3.005   0.743  0.00  0.00    -0.005 A 
ATOM      4  C3  UNL d   1       3.793   4.119   1.298  0.00  0.00     0.006 A 
ATOM      5  C4  UNL d   1       4.058   4.490   2.617  0.00  0.00    -0.005 A 
ATOM      6  C5  UNL d   1       4.955   3.749   3.392  0.00  0.00    -0.074 A 
ATOM      7  C6  UNL d   1       5.244   4.129   4.814  0.00  0.00     0.077 C 
ATOM      8  C7  UNL d   1       5.578   2.627   2.829  0.00  0.00    -0.001 A 
ENDROOT
TORSDOF 0
ENDMDL
