MODEL 1
REMARK minimizedAffinity 3.93810964
REMARK minimizedRMSD -1
REMARK  0 active torsions:
REMARK  status: ('A' for Active; 'I' for Inactive)
ROOT
ATOM      1  C   UNL d   1       1.917  -3.394   4.697  0.00  0.00     0.077 C 
ATOM      2  C1  UNL d   1       1.509  -2.129   4.003  0.00  0.00    -0.074 A 
ATOM      3  C2  UNL d   1       2.137  -0.914   4.295  0.00  0.00    -0.005 A 
ATOM      4  C3  UNL d   1       1.753   0.253   3.634  0.00  0.00     0.006 A 
ATOM      5  C4  UNL d   1       0.739   0.217   2.676  0.00  0.00    -0.005 A 
ATOM      6  C5  UNL d   1       0.101  -0.989   2.370  0.00  0.00    -0.074 A 
ATOM      7  C6  UNL d   1      -0.984  -1.048   1.336  0.00  0.00     0.077 C 
ATOM      8  C7  UNL d   1       0.497  -2.159   3.033  0.00  0.00    -0.001 A 
ENDROOT
TORSDOF 0
ENDMDL
