MODEL 1
REMARK minimizedAffinity 9.50307941
REMARK minimizedRMSD -1
REMARK  0 active torsions:
REMARK  status: ('A' for Active; 'I' for Inactive)
ROOT
ATOM      1  C   UNL d   1       5.263   1.487  -5.999  0.00  0.00     0.077 C 
ATOM      2  C1  UNL d   1       4.362   0.345  -5.634  0.00  0.00    -0.074 A 
ATOM      3  C2  UNL d   1       4.760  -0.980  -5.843  0.00  0.00    -0.005 A 
ATOM      4  C3  UNL d   1       3.915  -2.032  -5.490  0.00  0.00     0.006 A 
ATOM      5  C4  UNL d   1       2.666  -1.770  -4.925  0.00  0.00    -0.005 A 
ATOM      6  C5  UNL d   1       2.252  -0.452  -4.708  0.00  0.00    -0.074 A 
ATOM      7  C6  UNL d   1       0.916  -0.154  -4.093  0.00  0.00     0.077 C 
ATOM      8  C7  UNL d   1       3.109   0.599  -5.059  0.00  0.00    -0.001 A 
ENDROOT
TORSDOF 0
ENDMDL
