MODEL 1
REMARK minimizedAffinity 8.00551796
REMARK minimizedRMSD -1
REMARK  0 active torsions:
REMARK  status: ('A' for Active; 'I' for Inactive)
ROOT
ATOM      1  C   UNL d   1      -0.754  -5.211   5.999  0.00  0.00     0.077 C 
ATOM      2  C1  UNL d   1      -0.004  -4.402   4.982  0.00  0.00    -0.074 A 
ATOM      3  C2  UNL d   1       1.389  -4.485   4.883  0.00  0.00    -0.005 A 
ATOM      4  C3  UNL d   1       2.071  -3.735   3.926  0.00  0.00     0.006 A 
ATOM      5  C4  UNL d   1       1.370  -2.896   3.060  0.00  0.00    -0.005 A 
ATOM      6  C5  UNL d   1      -0.023  -2.800   3.143  0.00  0.00    -0.074 A 
ATOM      7  C6  UNL d   1      -0.793  -1.911   2.213  0.00  0.00     0.077 C 
ATOM      8  C7  UNL d   1      -0.702  -3.563   4.103  0.00  0.00    -0.001 A 
ENDROOT
TORSDOF 0
ENDMDL
