MODEL 1
REMARK minimizedAffinity 18.335701
REMARK minimizedRMSD -1
REMARK  0 active torsions:
REMARK  status: ('A' for Active; 'I' for Inactive)
ROOT
ATOM      1  C   UNL d   1       2.745  -0.337  -3.765  0.00  0.00     0.077 C 
ATOM      2  C1  UNL d   1       1.333  -0.716  -4.104  0.00  0.00    -0.074 A 
ATOM      3  C2  UNL d   1       0.909  -0.792  -5.434  0.00  0.00    -0.005 A 
ATOM      4  C3  UNL d   1      -0.404  -1.155  -5.733  0.00  0.00     0.006 A 
ATOM      5  C4  UNL d   1      -1.305  -1.444  -4.707  0.00  0.00    -0.005 A 
ATOM      6  C5  UNL d   1      -0.898  -1.374  -3.371  0.00  0.00    -0.074 A 
ATOM      7  C6  UNL d   1      -1.850  -1.691  -2.256  0.00  0.00     0.077 C 
ATOM      8  C7  UNL d   1       0.425  -1.015  -3.079  0.00  0.00    -0.001 A 
ENDROOT
TORSDOF 0
ENDMDL
