MODEL 1
REMARK minimizedAffinity 2.30071402
REMARK minimizedRMSD -1
REMARK  0 active torsions:
REMARK  status: ('A' for Active; 'I' for Inactive)
ROOT
ATOM      1  C   UNL d   1       1.505  -2.491   3.101  0.00  0.00     0.077 C 
ATOM      2  C1  UNL d   1       1.692  -3.578   4.117  0.00  0.00    -0.074 A 
ATOM      3  C2  UNL d   1       0.591  -4.194   4.721  0.00  0.00    -0.005 A 
ATOM      4  C3  UNL d   1       0.780  -5.210   5.658  0.00  0.00     0.006 A 
ATOM      5  C4  UNL d   1       2.069  -5.620   6.000  0.00  0.00    -0.005 A 
ATOM      6  C5  UNL d   1       3.182  -5.016   5.406  0.00  0.00    -0.074 A 
ATOM      7  C6  UNL d   1       4.574  -5.451   5.755  0.00  0.00     0.077 C 
ATOM      8  C7  UNL d   1       2.984  -4.001   4.460  0.00  0.00    -0.001 A 
ENDROOT
TORSDOF 0
ENDMDL
