MODEL 1
REMARK minimizedAffinity 14.8843117
REMARK minimizedRMSD -1
REMARK  0 active torsions:
REMARK  status: ('A' for Active; 'I' for Inactive)
ROOT
ATOM      1  C   UNL d   1      -5.848   5.829  -1.459  0.00  0.00     0.077 C 
ATOM      2  C1  UNL d   1      -5.841   4.445  -0.880  0.00  0.00    -0.074 A 
ATOM      3  C2  UNL d   1      -5.858   4.245   0.504  0.00  0.00    -0.005 A 
ATOM      4  C3  UNL d   1      -5.861   2.953   1.028  0.00  0.00     0.006 A 
ATOM      5  C4  UNL d   1      -5.847   1.849   0.175  0.00  0.00    -0.005 A 
ATOM      6  C5  UNL d   1      -5.832   2.029  -1.212  0.00  0.00    -0.074 A 
ATOM      7  C6  UNL d   1      -5.827   0.853  -2.143  0.00  0.00     0.077 C 
ATOM      8  C7  UNL d   1      -5.836   3.331  -1.731  0.00  0.00    -0.001 A 
ENDROOT
TORSDOF 0
ENDMDL
