MODEL 1
REMARK minimizedAffinity 8.57930756
REMARK minimizedRMSD -1
REMARK  0 active torsions:
REMARK  status: ('A' for Active; 'I' for Inactive)
ROOT
ATOM      1  C   UNL d   1       3.331   0.848   4.416  0.00  0.00     0.077 C 
ATOM      2  C1  UNL d   1       3.151  -0.641   4.450  0.00  0.00    -0.074 A 
ATOM      3  C2  UNL d   1       2.105  -1.254   3.753  0.00  0.00    -0.005 A 
ATOM      4  C3  UNL d   1       1.956  -2.641   3.786  0.00  0.00     0.006 A 
ATOM      5  C4  UNL d   1       2.849  -3.426   4.515  0.00  0.00    -0.005 A 
ATOM      6  C5  UNL d   1       3.902  -2.830   5.217  0.00  0.00    -0.074 A 
ATOM      7  C6  UNL d   1       4.877  -3.661   5.997  0.00  0.00     0.077 C 
ATOM      8  C7  UNL d   1       4.049  -1.437   5.173  0.00  0.00    -0.001 A 
ENDROOT
TORSDOF 0
ENDMDL
