MODEL 1
REMARK minimizedAffinity -2.50890708
REMARK minimizedRMSD -1
REMARK  0 active torsions:
REMARK  status: ('A' for Active; 'I' for Inactive)
ROOT
ATOM      1  C   UNL d   1      -0.825   1.752   0.494  0.00  0.00    -0.002 A 
ATOM      2  C1  UNL d   1      -2.026   1.192   0.906  0.00  0.00     0.010 A 
ATOM      3  C2  UNL d   1      -2.173  -0.195   0.985  0.00  0.00     0.041 A 
ATOM      4  C3  UNL d   1      -1.082  -1.017   0.641  0.00  0.00    -0.075 A 
ATOM      5  S   UNL d   1      -1.032  -2.740   0.662  0.00  0.00     0.015 SA
ATOM      6  C4  UNL d   1       0.585  -2.773   0.125  0.00  0.00     0.022 A 
ATOM      7  C5  UNL d   1       1.090  -1.510  -0.071  0.00  0.00     0.026 A 
ATOM      8  C6  UNL d   1       0.137  -0.476   0.223  0.00  0.00    -0.082 A 
ATOM      9  C7  UNL d   1       0.255   0.933   0.153  0.00  0.00     0.045 A 
ENDROOT
TORSDOF 0
ENDMDL
