MODEL 1
REMARK minimizedAffinity 0.185271263
REMARK minimizedRMSD -1
REMARK  0 active torsions:
REMARK  status: ('A' for Active; 'I' for Inactive)
ROOT
ATOM      1  C   UNL d   1      -1.798  -5.014  -3.889  0.00  0.00    -0.002 A 
ATOM      2  C1  UNL d   1      -1.708  -4.895  -5.269  0.00  0.00     0.010 A 
ATOM      3  C2  UNL d   1      -2.739  -4.301  -6.000  0.00  0.00     0.041 A 
ATOM      4  C3  UNL d   1      -3.872  -3.822  -5.314  0.00  0.00    -0.075 A 
ATOM      5  S   UNL d   1      -5.256  -3.058  -6.000  0.00  0.00     0.015 SA
ATOM      6  C4  UNL d   1      -6.000  -2.870  -4.478  0.00  0.00     0.022 A 
ATOM      7  C5  UNL d   1      -5.225  -3.373  -3.460  0.00  0.00     0.026 A 
ATOM      8  C6  UNL d   1      -3.985  -3.929  -3.925  0.00  0.00    -0.082 A 
ATOM      9  C7  UNL d   1      -2.924  -4.537  -3.212  0.00  0.00     0.045 A 
ENDROOT
TORSDOF 0
ENDMDL
