MODEL 1
REMARK minimizedAffinity -3.469208
REMARK minimizedRMSD -1
REMARK  0 active torsions:
REMARK  status: ('A' for Active; 'I' for Inactive)
ROOT
ATOM      1  C   UNL d   1      -1.896  -4.878  -5.940  0.00  0.00    -0.002 A 
ATOM      2  C1  UNL d   1      -2.434  -5.994  -5.314  0.00  0.00     0.010 A 
ATOM      3  C2  UNL d   1      -3.702  -5.939  -4.732  0.00  0.00     0.041 A 
ATOM      4  C3  UNL d   1      -4.428  -4.733  -4.792  0.00  0.00    -0.075 A 
ATOM      5  S   UNL d   1      -6.000  -4.432  -4.150  0.00  0.00     0.015 SA
ATOM      6  C4  UNL d   1      -5.994  -2.817  -4.693  0.00  0.00     0.022 A 
ATOM      7  C5  UNL d   1      -4.829  -2.497  -5.349  0.00  0.00     0.026 A 
ATOM      8  C6  UNL d   1      -3.908  -3.596  -5.418  0.00  0.00    -0.082 A 
ATOM      9  C7  UNL d   1      -2.619  -3.684  -5.998  0.00  0.00     0.045 A 
ENDROOT
TORSDOF 0
ENDMDL
