MODEL 1
REMARK minimizedAffinity -3.76074839
REMARK minimizedRMSD -1
REMARK  0 active torsions:
REMARK  status: ('A' for Active; 'I' for Inactive)
ROOT
ATOM      1  C   UNL d   1      -5.430  -2.171  -4.657  0.00  0.00    -0.002 A 
ATOM      2  C1  UNL d   1      -6.000  -3.305  -4.095  0.00  0.00     0.010 A 
ATOM      3  C2  UNL d   1      -5.338  -4.534  -4.150  0.00  0.00     0.041 A 
ATOM      4  C3  UNL d   1      -4.082  -4.604  -4.784  0.00  0.00    -0.075 A 
ATOM      5  S   UNL d   1      -3.088  -6.000  -4.970  0.00  0.00     0.015 SA
ATOM      6  C4  UNL d   1      -1.884  -5.124  -5.799  0.00  0.00     0.022 A 
ATOM      7  C5  UNL d   1      -2.216  -3.797  -5.940  0.00  0.00     0.026 A 
ATOM      8  C6  UNL d   1      -3.488  -3.475  -5.356  0.00  0.00    -0.082 A 
ATOM      9  C7  UNL d   1      -4.184  -2.245  -5.285  0.00  0.00     0.045 A 
ENDROOT
TORSDOF 0
ENDMDL
