MODEL 1
REMARK minimizedAffinity -3.69222331
REMARK minimizedRMSD -1
REMARK  0 active torsions:
REMARK  status: ('A' for Active; 'I' for Inactive)
ROOT
ATOM      1  C   UNL d   1      -5.999  -2.680  -4.352  0.00  0.00    -0.002 A 
ATOM      2  C1  UNL d   1      -5.362  -2.080  -5.429  0.00  0.00     0.010 A 
ATOM      3  C2  UNL d   1      -4.229  -2.663  -5.999  0.00  0.00     0.041 A 
ATOM      4  C3  UNL d   1      -3.742  -3.872  -5.464  0.00  0.00    -0.075 A 
ATOM      5  S   UNL d   1      -2.370  -4.768  -6.000  0.00  0.00     0.015 SA
ATOM      6  C4  UNL d   1      -2.598  -5.969  -4.813  0.00  0.00     0.022 A 
ATOM      7  C5  UNL d   1      -3.689  -5.709  -4.018  0.00  0.00     0.026 A 
ATOM      8  C6  UNL d   1      -4.367  -4.496  -4.381  0.00  0.00    -0.082 A 
ATOM      9  C7  UNL d   1      -5.514  -3.880  -3.824  0.00  0.00     0.045 A 
ENDROOT
TORSDOF 0
ENDMDL
