MODEL 1
REMARK minimizedAffinity -2.36843109
REMARK minimizedRMSD -1
REMARK  0 active torsions:
REMARK  status: ('A' for Active; 'I' for Inactive)
ROOT
ATOM      1  C   UNL d   1      -1.739  -4.893  -5.859  0.00  0.00    -0.002 A 
ATOM      2  C1  UNL d   1      -2.345  -6.000  -5.283  0.00  0.00     0.010 A 
ATOM      3  C2  UNL d   1      -3.665  -5.932  -4.833  0.00  0.00     0.041 A 
ATOM      4  C3  UNL d   1      -4.373  -4.723  -4.975  0.00  0.00    -0.075 A 
ATOM      5  S   UNL d   1      -5.999  -4.407  -4.498  0.00  0.00     0.015 SA
ATOM      6  C4  UNL d   1      -5.928  -2.796  -5.049  0.00  0.00     0.022 A 
ATOM      7  C5  UNL d   1      -4.700  -2.489  -5.587  0.00  0.00     0.026 A 
ATOM      8  C6  UNL d   1      -3.784  -3.595  -5.554  0.00  0.00    -0.082 A 
ATOM      9  C7  UNL d   1      -2.444  -3.695  -5.999  0.00  0.00     0.045 A 
ENDROOT
TORSDOF 0
ENDMDL
