MODEL 1
REMARK minimizedAffinity -4.32980251
REMARK minimizedRMSD -1
REMARK  0 active torsions:
REMARK  status: ('A' for Active; 'I' for Inactive)
ROOT
ATOM      1  C   UNL d   1      -5.366  -1.838  -4.696  0.00  0.00    -0.002 A 
ATOM      2  C1  UNL d   1      -5.986  -2.771  -3.877  0.00  0.00     0.010 A 
ATOM      3  C2  UNL d   1      -5.487  -4.071  -3.776  0.00  0.00     0.041 A 
ATOM      4  C3  UNL d   1      -4.343  -4.421  -4.519  0.00  0.00    -0.075 A 
ATOM      5  S   UNL d   1      -3.554  -5.953  -4.552  0.00  0.00     0.015 SA
ATOM      6  C4  UNL d   1      -2.374  -5.406  -5.654  0.00  0.00     0.022 A 
ATOM      7  C5  UNL d   1      -2.563  -4.088  -5.999  0.00  0.00     0.026 A 
ATOM      8  C6  UNL d   1      -3.700  -3.499  -5.350  0.00  0.00    -0.082 A 
ATOM      9  C7  UNL d   1      -4.231  -2.189  -5.431  0.00  0.00     0.045 A 
ENDROOT
TORSDOF 0
ENDMDL
