MODEL 1
REMARK minimizedAffinity 6.65568256
REMARK minimizedRMSD -1
REMARK  0 active torsions:
REMARK  status: ('A' for Active; 'I' for Inactive)
ROOT
ATOM      1  C   UNL d   1      -1.881  -4.251  -3.430  0.00  0.00    -0.002 A 
ATOM      2  C1  UNL d   1      -1.940  -4.839  -4.686  0.00  0.00     0.010 A 
ATOM      3  C2  UNL d   1      -3.012  -4.580  -5.542  0.00  0.00     0.041 A 
ATOM      4  C3  UNL d   1      -4.033  -3.709  -5.112  0.00  0.00    -0.075 A 
ATOM      5  S   UNL d   1      -5.441  -3.244  -5.991  0.00  0.00     0.015 SA
ATOM      6  C4  UNL d   1      -5.997  -2.252  -4.722  0.00  0.00     0.022 A 
ATOM      7  C5  UNL d   1      -5.142  -2.264  -3.645  0.00  0.00     0.026 A 
ATOM      8  C6  UNL d   1      -3.995  -3.104  -3.853  0.00  0.00    -0.082 A 
ATOM      9  C7  UNL d   1      -2.896  -3.387  -3.007  0.00  0.00     0.045 A 
ENDROOT
TORSDOF 0
ENDMDL
