MODEL 1
REMARK minimizedAffinity -3.37644792
REMARK minimizedRMSD -1
REMARK  0 active torsions:
REMARK  status: ('A' for Active; 'I' for Inactive)
ROOT
ATOM      1  C   UNL d   1      -1.895  -4.661  -6.000  0.00  0.00    -0.002 A 
ATOM      2  C1  UNL d   1      -2.423  -5.898  -5.658  0.00  0.00     0.010 A 
ATOM      3  C2  UNL d   1      -3.688  -5.994  -5.076  0.00  0.00     0.041 A 
ATOM      4  C3  UNL d   1      -4.422  -4.815  -4.843  0.00  0.00    -0.075 A 
ATOM      5  S   UNL d   1      -5.993  -4.689  -4.142  0.00  0.00     0.015 SA
ATOM      6  C4  UNL d   1      -6.000  -2.990  -4.281  0.00  0.00     0.022 A 
ATOM      7  C5  UNL d   1      -4.840  -2.514  -4.845  0.00  0.00     0.026 A 
ATOM      8  C6  UNL d   1      -3.912  -3.557  -5.179  0.00  0.00    -0.082 A 
ATOM      9  C7  UNL d   1      -2.626  -3.493  -5.767  0.00  0.00     0.045 A 
ENDROOT
TORSDOF 0
ENDMDL
