MODEL 1
REMARK minimizedAffinity -2.8915112
REMARK minimizedRMSD -1
REMARK  0 active torsions:
REMARK  status: ('A' for Active; 'I' for Inactive)
ROOT
ATOM      1  C   UNL d   1      -1.450  -5.338  -5.260  0.00  0.00    -0.002 A 
ATOM      2  C1  UNL d   1      -1.827  -4.227  -6.000  0.00  0.00     0.010 A 
ATOM      3  C2  UNL d   1      -3.134  -3.738  -5.931  0.00  0.00     0.041 A 
ATOM      4  C3  UNL d   1      -4.062  -4.391  -5.097  0.00  0.00    -0.075 A 
ATOM      5  S   UNL d   1      -5.716  -3.970  -4.853  0.00  0.00     0.015 SA
ATOM      6  C4  UNL d   1      -5.960  -5.255  -3.760  0.00  0.00     0.022 A 
ATOM      7  C5  UNL d   1      -4.818  -5.997  -3.574  0.00  0.00     0.026 A 
ATOM      8  C6  UNL d   1      -3.705  -5.511  -4.341  0.00  0.00    -0.082 A 
ATOM      9  C7  UNL d   1      -2.374  -5.983  -4.433  0.00  0.00     0.045 A 
ENDROOT
TORSDOF 0
ENDMDL
