MODEL 1
REMARK minimizedAffinity -3.73431158
REMARK minimizedRMSD -1
REMARK  0 active torsions:
REMARK  status: ('A' for Active; 'I' for Inactive)
ROOT
ATOM      1  C   UNL d   1      -1.613  -5.114  -5.057  0.00  0.00    -0.002 A 
ATOM      2  C1  UNL d   1      -2.368  -5.999  -5.814  0.00  0.00     0.010 A 
ATOM      3  C2  UNL d   1      -3.737  -5.792  -5.993  0.00  0.00     0.041 A 
ATOM      4  C3  UNL d   1      -4.340  -4.667  -5.396  0.00  0.00    -0.075 A 
ATOM      5  S   UNL d   1      -6.000  -4.210  -5.480  0.00  0.00     0.015 SA
ATOM      6  C4  UNL d   1      -5.746  -2.829  -4.515  0.00  0.00     0.022 A 
ATOM      7  C5  UNL d   1      -4.432  -2.704  -4.129  0.00  0.00     0.026 A 
ATOM      8  C6  UNL d   1      -3.600  -3.761  -4.631  0.00  0.00    -0.082 A 
ATOM      9  C7  UNL d   1      -2.214  -4.000  -4.466  0.00  0.00     0.045 A 
ENDROOT
TORSDOF 0
ENDMDL
