MODEL 1
REMARK minimizedAffinity 0.880747318
REMARK minimizedRMSD -1
REMARK  0 active torsions:
REMARK  status: ('A' for Active; 'I' for Inactive)
ROOT
ATOM      1  C   UNL d   1      -1.625  -5.244  -4.583  0.00  0.00    -0.002 A 
ATOM      2  C1  UNL d   1      -2.154  -6.000  -5.619  0.00  0.00     0.010 A 
ATOM      3  C2  UNL d   1      -3.489  -5.848  -5.999  0.00  0.00     0.041 A 
ATOM      4  C3  UNL d   1      -4.290  -4.914  -5.314  0.00  0.00    -0.075 A 
ATOM      5  S   UNL d   1      -5.952  -4.557  -5.607  0.00  0.00     0.015 SA
ATOM      6  C4  UNL d   1      -5.998  -3.392  -4.363  0.00  0.00     0.022 A 
ATOM      7  C5  UNL d   1      -4.784  -3.266  -3.730  0.00  0.00     0.026 A 
ATOM      8  C6  UNL d   1      -3.780  -4.140  -4.268  0.00  0.00    -0.082 A 
ATOM      9  C7  UNL d   1      -2.423  -4.318  -3.906  0.00  0.00     0.045 A 
ENDROOT
TORSDOF 0
ENDMDL
