MODEL 1
REMARK minimizedAffinity -3.91265154
REMARK minimizedRMSD -1
REMARK  0 active torsions:
REMARK  status: ('A' for Active; 'I' for Inactive)
ROOT
ATOM      1  C   UNL d   1      -1.343  -5.243  -4.188  0.00  0.00    -0.002 A 
ATOM      2  C1  UNL d   1      -1.505  -5.934  -5.381  0.00  0.00     0.010 A 
ATOM      3  C2  UNL d   1      -2.754  -6.000  -6.000  0.00  0.00     0.041 A 
ATOM      4  C3  UNL d   1      -3.849  -5.352  -5.396  0.00  0.00    -0.075 A 
ATOM      5  S   UNL d   1      -5.473  -5.297  -5.974  0.00  0.00     0.015 SA
ATOM      6  C4  UNL d   1      -5.991  -4.355  -4.651  0.00  0.00     0.022 A 
ATOM      7  C5  UNL d   1      -4.963  -4.079  -3.780  0.00  0.00     0.026 A 
ATOM      8  C6  UNL d   1      -3.712  -4.649  -4.195  0.00  0.00    -0.082 A 
ATOM      9  C7  UNL d   1      -2.432  -4.602  -3.591  0.00  0.00     0.045 A 
ENDROOT
TORSDOF 0
ENDMDL
