MODEL 1
REMARK minimizedAffinity -1.99229372
REMARK minimizedRMSD -1
REMARK  0 active torsions:
REMARK  status: ('A' for Active; 'I' for Inactive)
ROOT
ATOM      1  C   UNL d   1      -1.814  -4.944  -5.869  0.00  0.00    -0.002 A 
ATOM      2  C1  UNL d   1      -2.496  -6.000  -5.282  0.00  0.00     0.010 A 
ATOM      3  C2  UNL d   1      -3.799  -5.829  -4.810  0.00  0.00     0.041 A 
ATOM      4  C3  UNL d   1      -4.412  -4.567  -4.941  0.00  0.00    -0.075 A 
ATOM      5  S   UNL d   1      -6.000  -4.125  -4.437  0.00  0.00     0.015 SA
ATOM      6  C4  UNL d   1      -5.811  -2.524  -4.990  0.00  0.00     0.022 A 
ATOM      7  C5  UNL d   1      -4.572  -2.315  -5.549  0.00  0.00     0.026 A 
ATOM      8  C6  UNL d   1      -3.745  -3.489  -5.530  0.00  0.00    -0.082 A 
ATOM      9  C7  UNL d   1      -2.425  -3.694  -5.998  0.00  0.00     0.045 A 
ENDROOT
TORSDOF 0
ENDMDL
