MODEL 1
REMARK minimizedAffinity 7.65395737
REMARK minimizedRMSD -1
REMARK  0 active torsions:
REMARK  status: ('A' for Active; 'I' for Inactive)
ROOT
ATOM      1  O1  BZF d   1       0.757   1.267  -3.577  0.00  0.00    -0.204 OA
ATOM      2  C2  BZF d   1       1.151   0.879  -2.311  0.00  0.00     0.174 A 
ATOM      3  C3  BZF d   1       2.478   1.060  -2.146  0.00  0.00    -0.012 A 
ATOM      4  C3A BZF d   1       2.926   1.680  -3.356  0.00  0.00    -0.107 A 
ATOM      5  C4  BZF d   1       4.143   2.121  -3.790  0.00  0.00     0.055 A 
ATOM      6  C5  BZF d   1       4.257   2.611  -5.052  0.00  0.00    -0.016 A 
ATOM      7  C6  BZF d   1       3.176   2.671  -5.907  0.00  0.00     0.022 A 
ATOM      8  C7  BZF d   1       1.947   2.251  -5.520  0.00  0.00     0.029 A 
ATOM      9  C7A BZF d   1       1.822   1.785  -4.234  0.00  0.00     0.058 A 
ENDROOT
TORSDOF 0
ENDMDL
