MODEL 1
REMARK minimizedAffinity -1.78921711
REMARK minimizedRMSD -1
REMARK  0 active torsions:
REMARK  status: ('A' for Active; 'I' for Inactive)
ROOT
ATOM      1  O1  BZF d   1       0.592   0.904  -2.616  0.00  0.00    -0.204 OA
ATOM      2  C2  BZF d   1       1.566   0.547  -1.703  0.00  0.00     0.174 A 
ATOM      3  C3  BZF d   1       2.797   0.712  -2.228  0.00  0.00    -0.012 A 
ATOM      4  C3A BZF d   1       2.581   1.290  -3.520  0.00  0.00    -0.107 A 
ATOM      5  C4  BZF d   1       3.419   1.699  -4.517  0.00  0.00     0.055 A 
ATOM      6  C5  BZF d   1       2.887   2.151  -5.683  0.00  0.00    -0.016 A 
ATOM      7  C6  BZF d   1       1.524   2.203  -5.886  0.00  0.00     0.022 A 
ATOM      8  C7  BZF d   1       0.653   1.813  -4.924  0.00  0.00     0.029 A 
ATOM      9  C7A BZF d   1       1.187   1.386  -3.733  0.00  0.00     0.058 A 
ENDROOT
TORSDOF 0
ENDMDL
