MODEL 1
REMARK minimizedAffinity -0.817424297
REMARK minimizedRMSD -1
REMARK  0 active torsions:
REMARK  status: ('A' for Active; 'I' for Inactive)
ROOT
ATOM      1  O1  BZF d   1       4.372   6.000   4.871  0.00  0.00    -0.204 OA
ATOM      2  C2  BZF d   1       5.256   5.314   5.682  0.00  0.00     0.174 A 
ATOM      3  C3  BZF d   1       5.994   4.447   4.960  0.00  0.00    -0.012 A 
ATOM      4  C3A BZF d   1       5.607   4.666   3.600  0.00  0.00    -0.107 A 
ATOM      5  C4  BZF d   1       6.000   4.118   2.412  0.00  0.00     0.055 A 
ATOM      6  C5  BZF d   1       5.374   4.501   1.269  0.00  0.00    -0.016 A 
ATOM      7  C6  BZF d   1       4.349   5.425   1.277  0.00  0.00     0.022 A 
ATOM      8  C7  BZF d   1       3.929   6.000   2.429  0.00  0.00     0.029 A 
ATOM      9  C7A BZF d   1       4.582   5.639   3.583  0.00  0.00     0.058 A 
ENDROOT
TORSDOF 0
ENDMDL
