MODEL 1
REMARK minimizedAffinity 0.292451471
REMARK minimizedRMSD -1
REMARK  0 active torsions:
REMARK  status: ('A' for Active; 'I' for Inactive)
ROOT
ATOM      1  O1  BZF d   1       0.333   0.601  -3.083  0.00  0.00    -0.204 OA
ATOM      2  C2  BZF d   1       0.957   0.373  -1.872  0.00  0.00     0.174 A 
ATOM      3  C3  BZF d   1       2.248   0.762  -1.918  0.00  0.00    -0.012 A 
ATOM      4  C3A BZF d   1       2.418   1.350  -3.211  0.00  0.00    -0.107 A 
ATOM      5  C4  BZF d   1       3.477   1.934  -3.845  0.00  0.00     0.055 A 
ATOM      6  C5  BZF d   1       3.332   2.342  -5.133  0.00  0.00    -0.016 A 
ATOM      7  C6  BZF d   1       2.147   2.176  -5.819  0.00  0.00     0.022 A 
ATOM      8  C7  BZF d   1       1.067   1.606  -5.231  0.00  0.00     0.029 A 
ATOM      9  C7A BZF d   1       1.200   1.223  -3.918  0.00  0.00     0.058 A 
ENDROOT
TORSDOF 0
ENDMDL
