MODEL 1
REMARK minimizedAffinity -1.14982188
REMARK minimizedRMSD -1
REMARK  0 active torsions:
REMARK  status: ('A' for Active; 'I' for Inactive)
ROOT
ATOM      1  O1  BZF d   1       0.307   0.413  -2.990  0.00  0.00    -0.204 OA
ATOM      2  C2  BZF d   1       1.052   0.324  -1.830  0.00  0.00     0.174 A 
ATOM      3  C3  BZF d   1       2.304   0.787  -2.029  0.00  0.00    -0.012 A 
ATOM      4  C3A BZF d   1       2.315   1.275  -3.374  0.00  0.00    -0.107 A 
ATOM      5  C4  BZF d   1       3.270   1.868  -4.149  0.00  0.00     0.055 A 
ATOM      6  C5  BZF d   1       2.982   2.157  -5.445  0.00  0.00    -0.016 A 
ATOM      7  C6  BZF d   1       1.754   1.862  -6.000  0.00  0.00     0.022 A 
ATOM      8  C7  BZF d   1       0.773   1.278  -5.269  0.00  0.00     0.029 A 
ATOM      9  C7A BZF d   1       1.050   1.015  -3.949  0.00  0.00     0.058 A 
ENDROOT
TORSDOF 0
ENDMDL
