MODEL 1
REMARK minimizedAffinity -0.0712141544
REMARK minimizedRMSD -1
REMARK  0 active torsions:
REMARK  status: ('A' for Active; 'I' for Inactive)
ROOT
ATOM      1  O1  BZF d   1       3.711   0.511  -2.617  0.00  0.00    -0.204 OA
ATOM      2  C2  BZF d   1       3.207  -0.032  -1.451  0.00  0.00     0.174 A 
ATOM      3  C3  BZF d   1       1.908   0.293  -1.294  0.00  0.00    -0.012 A 
ATOM      4  C3A BZF d   1       1.554   1.012  -2.479  0.00  0.00    -0.107 A 
ATOM      5  C4  BZF d   1       0.394   1.583  -2.919  0.00  0.00     0.055 A 
ATOM      6  C5  BZF d   1       0.402   2.275  -4.089  0.00  0.00    -0.016 A 
ATOM      7  C6  BZF d   1       1.550   2.419  -4.840  0.00  0.00     0.022 A 
ATOM      8  C7  BZF d   1       2.723   1.866  -4.447  0.00  0.00     0.029 A 
ATOM      9  C7A BZF d   1       2.711   1.139  -3.282  0.00  0.00     0.058 A 
ENDROOT
TORSDOF 0
ENDMDL
