MODEL 1
REMARK minimizedAffinity 6.86679792
REMARK minimizedRMSD -1
REMARK  0 active torsions:
REMARK  status: ('A' for Active; 'I' for Inactive)
ROOT
ATOM      1  O1  BZF d   1       2.391   5.984  -0.199  0.00  0.00    -0.204 OA
ATOM      2  C2  BZF d   1       1.546   5.624   0.834  0.00  0.00     0.174 A 
ATOM      3  C3  BZF d   1       2.250   5.156   1.885  0.00  0.00    -0.012 A 
ATOM      4  C3A BZF d   1       3.624   5.315   1.520  0.00  0.00    -0.107 A 
ATOM      5  C4  BZF d   1       4.802   5.046   2.156  0.00  0.00     0.055 A 
ATOM      6  C5  BZF d   1       5.971   5.249   1.494  0.00  0.00    -0.016 A 
ATOM      7  C6  BZF d   1       6.000   5.714   0.196  0.00  0.00     0.022 A 
ATOM      8  C7  BZF d   1       4.857   6.000  -0.475  0.00  0.00     0.029 A 
ATOM      9  C7A BZF d   1       3.675   5.827   0.203  0.00  0.00     0.058 A 
ENDROOT
TORSDOF 0
ENDMDL
