MODEL 1
REMARK minimizedAffinity 7.01088381
REMARK minimizedRMSD -1
REMARK  0 active torsions:
REMARK  status: ('A' for Active; 'I' for Inactive)
ROOT
ATOM      1  O1  BZF d   1      -2.145   0.366   4.317  0.00  0.00    -0.204 OA
ATOM      2  C2  BZF d   1      -1.816   0.625   3.001  0.00  0.00     0.174 A 
ATOM      3  C3  BZF d   1      -2.858   0.361   2.186  0.00  0.00    -0.012 A 
ATOM      4  C3A BZF d   1      -3.933  -0.003   3.057  0.00  0.00    -0.107 A 
ATOM      5  C4  BZF d   1      -5.233  -0.361   2.844  0.00  0.00     0.055 A 
ATOM      6  C5  BZF d   1      -6.000  -0.728   3.905  0.00  0.00    -0.016 A 
ATOM      7  C6  BZF d   1      -5.497  -0.753   5.189  0.00  0.00     0.022 A 
ATOM      8  C7  BZF d   1      -4.215  -0.402   5.451  0.00  0.00     0.029 A 
ATOM      9  C7A BZF d   1      -3.447   0.001   4.385  0.00  0.00     0.058 A 
ENDROOT
TORSDOF 0
ENDMDL
