MODEL 1
REMARK minimizedAffinity -3.3431778
REMARK minimizedRMSD -1
REMARK  0 active torsions:
REMARK  status: ('A' for Active; 'I' for Inactive)
ROOT
ATOM      1  O1  BZF d   1      -0.712   1.673  -2.222  0.00  0.00    -0.204 OA
ATOM      2  C2  BZF d   1      -0.374   2.870  -2.825  0.00  0.00     0.174 A 
ATOM      3  C3  BZF d   1       0.962   2.961  -2.991  0.00  0.00    -0.012 A 
ATOM      4  C3A BZF d   1       1.483   1.706  -2.545  0.00  0.00    -0.107 A 
ATOM      5  C4  BZF d   1       2.743   1.183  -2.477  0.00  0.00     0.055 A 
ATOM      6  C5  BZF d   1       2.920  -0.044  -1.921  0.00  0.00    -0.016 A 
ATOM      7  C6  BZF d   1       1.862  -0.774  -1.420  0.00  0.00     0.022 A 
ATOM      8  C7  BZF d   1       0.593  -0.299  -1.469  0.00  0.00     0.029 A 
ATOM      9  C7A BZF d   1       0.407   0.927  -2.060  0.00  0.00     0.058 A 
ENDROOT
TORSDOF 0
ENDMDL
