MODEL 1
REMARK minimizedAffinity -3.30803752
REMARK minimizedRMSD -1
REMARK  0 active torsions:
REMARK  status: ('A' for Active; 'I' for Inactive)
ROOT
ATOM      1  O1  BZF d   1       0.338   1.180  -3.978  0.00  0.00    -0.204 OA
ATOM      2  C2  BZF d   1       0.522   0.809  -2.660  0.00  0.00     0.174 A 
ATOM      3  C3  BZF d   1       1.827   0.869  -2.324  0.00  0.00    -0.012 A 
ATOM      4  C3A BZF d   1       2.489   1.394  -3.478  0.00  0.00    -0.107 A 
ATOM      5  C4  BZF d   1       3.791   1.698  -3.757  0.00  0.00     0.055 A 
ATOM      6  C5  BZF d   1       4.117   2.125  -5.005  0.00  0.00    -0.016 A 
ATOM      7  C6  BZF d   1       3.170   2.253  -5.999  0.00  0.00     0.022 A 
ATOM      8  C7  BZF d   1       1.865   1.967  -5.769  0.00  0.00     0.029 A 
ATOM      9  C7A BZF d   1       1.527   1.568  -4.499  0.00  0.00     0.058 A 
ENDROOT
TORSDOF 0
ENDMDL
