MODEL 1
REMARK minimizedAffinity -0.669976711
REMARK minimizedRMSD -1
REMARK  0 active torsions:
REMARK  status: ('A' for Active; 'I' for Inactive)
ROOT
ATOM      1  O1  BZF d   1       0.395   1.554  -3.674  0.00  0.00    -0.204 OA
ATOM      2  C2  BZF d   1       0.463   1.080  -2.378  0.00  0.00     0.174 A 
ATOM      3  C3  BZF d   1       1.746   0.923  -1.992  0.00  0.00    -0.012 A 
ATOM      4  C3A BZF d   1       2.529   1.412  -3.085  0.00  0.00    -0.107 A 
ATOM      5  C4  BZF d   1       3.873   1.535  -3.296  0.00  0.00     0.055 A 
ATOM      6  C5  BZF d   1       4.314   1.984  -4.500  0.00  0.00    -0.016 A 
ATOM      7  C6  BZF d   1       3.442   2.312  -5.517  0.00  0.00     0.022 A 
ATOM      8  C7  BZF d   1       2.100   2.211  -5.353  0.00  0.00     0.029 A 
ATOM      9  C7A BZF d   1       1.650   1.790  -4.126  0.00  0.00     0.058 A 
ENDROOT
TORSDOF 0
ENDMDL
