MODEL 1
REMARK minimizedAffinity 3.03819871
REMARK minimizedRMSD -1
REMARK  0 active torsions:
REMARK  status: ('A' for Active; 'I' for Inactive)
ROOT
ATOM      1  O1  BZF d   1       5.943   3.883   4.704  0.00  0.00    -0.204 OA
ATOM      2  C2  BZF d   1       5.554   4.975   5.456  0.00  0.00     0.174 A 
ATOM      3  C3  BZF d   1       5.157   5.988   4.658  0.00  0.00    -0.012 A 
ATOM      4  C3A BZF d   1       5.221   5.466   3.327  0.00  0.00    -0.107 A 
ATOM      5  C4  BZF d   1       4.935   5.989   2.099  0.00  0.00     0.055 A 
ATOM      6  C5  BZF d   1       5.175   5.241   0.990  0.00  0.00    -0.016 A 
ATOM      7  C6  BZF d   1       5.705   3.970   1.072  0.00  0.00     0.022 A 
ATOM      8  C7  BZF d   1       6.000   3.407   2.269  0.00  0.00     0.029 A 
ATOM      9  C7A BZF d   1       5.728   4.147   3.393  0.00  0.00     0.058 A 
ENDROOT
TORSDOF 0
ENDMDL
