MODEL 1
REMARK minimizedAffinity 4.52294302
REMARK minimizedRMSD -1
REMARK  0 active torsions:
REMARK  status: ('A' for Active; 'I' for Inactive)
ROOT
ATOM      1  O1  BZF d   1       0.381   0.393  -3.009  0.00  0.00    -0.204 OA
ATOM      2  C2  BZF d   1       1.091   0.389  -1.824  0.00  0.00     0.174 A 
ATOM      3  C3  BZF d   1       2.305   0.953  -1.992  0.00  0.00    -0.012 A 
ATOM      4  C3A BZF d   1       2.320   1.417  -3.346  0.00  0.00    -0.107 A 
ATOM      5  C4  BZF d   1       3.246   2.077  -4.102  0.00  0.00     0.055 A 
ATOM      6  C5  BZF d   1       2.978   2.318  -5.412  0.00  0.00    -0.016 A 
ATOM      7  C6  BZF d   1       1.799   1.909  -6.000  0.00  0.00     0.022 A 
ATOM      8  C7  BZF d   1       0.848   1.256  -5.289  0.00  0.00     0.029 A 
ATOM      9  C7A BZF d   1       1.101   1.040  -3.956  0.00  0.00     0.058 A 
ENDROOT
TORSDOF 0
ENDMDL
