MODEL 1
REMARK minimizedAffinity -0.530696988
REMARK minimizedRMSD -1
REMARK  0 active torsions:
REMARK  status: ('A' for Active; 'I' for Inactive)
ROOT
ATOM      1  O1  BZF d   1      -0.039   1.828  -2.506  0.00  0.00    -0.204 OA
ATOM      2  C2  BZF d   1       0.125   2.948  -3.299  0.00  0.00     0.174 A 
ATOM      3  C3  BZF d   1       1.393   3.030  -3.752  0.00  0.00    -0.012 A 
ATOM      4  C3A BZF d   1       2.038   1.842  -3.284  0.00  0.00    -0.107 A 
ATOM      5  C4  BZF d   1       3.302   1.343  -3.423  0.00  0.00     0.055 A 
ATOM      6  C5  BZF d   1       3.632   0.192  -2.780  0.00  0.00    -0.016 A 
ATOM      7  C6  BZF d   1       2.726  -0.482  -1.987  0.00  0.00     0.022 A 
ATOM      8  C7  BZF d   1       1.460  -0.028  -1.823  0.00  0.00     0.029 A 
ATOM      9  C7A BZF d   1       1.113   1.117  -2.498  0.00  0.00     0.058 A 
ENDROOT
TORSDOF 0
ENDMDL
