MODEL 1
REMARK minimizedAffinity 1.32996726
REMARK minimizedRMSD -1
REMARK  0 active torsions:
REMARK  status: ('A' for Active; 'I' for Inactive)
ROOT
ATOM      1  O1  BZF d   1       0.970   0.499  -2.505  0.00  0.00    -0.204 OA
ATOM      2  C2  BZF d   1       2.075   0.743  -1.712  0.00  0.00     0.174 A 
ATOM      3  C3  BZF d   1       3.058   1.325  -2.429  0.00  0.00    -0.012 A 
ATOM      4  C3A BZF d   1       2.501   1.537  -3.729  0.00  0.00    -0.107 A 
ATOM      5  C4  BZF d   1       2.985   2.093  -4.879  0.00  0.00     0.055 A 
ATOM      6  C5  BZF d   1       2.211   2.081  -5.995  0.00  0.00    -0.016 A 
ATOM      7  C6  BZF d   1       0.952   1.517  -6.000  0.00  0.00     0.022 A 
ATOM      8  C7  BZF d   1       0.427   0.958  -4.883  0.00  0.00     0.029 A 
ATOM      9  C7A BZF d   1       1.194   0.998  -3.744  0.00  0.00     0.058 A 
ENDROOT
TORSDOF 0
ENDMDL
