MODEL 1
REMARK minimizedAffinity -5.47577238
REMARK minimizedRMSD -1
REMARK  0 active torsions:
REMARK  status: ('A' for Active; 'I' for Inactive)
ROOT
ATOM      1  O1  BZF d   1       0.428   0.673  -2.786  0.00  0.00    -0.204 OA
ATOM      2  C2  BZF d   1       1.266   0.356  -1.735  0.00  0.00     0.174 A 
ATOM      3  C3  BZF d   1       2.541   0.690  -2.023  0.00  0.00    -0.012 A 
ATOM      4  C3A BZF d   1       2.482   1.336  -3.298  0.00  0.00    -0.107 A 
ATOM      5  C4  BZF d   1       3.424   1.905  -4.107  0.00  0.00     0.055 A 
ATOM      6  C5  BZF d   1       3.050   2.383  -5.322  0.00  0.00    -0.016 A 
ATOM      7  C6  BZF d   1       1.745   2.304  -5.763  0.00  0.00     0.022 A 
ATOM      8  C7  BZF d   1       0.774   1.752  -4.994  0.00  0.00     0.029 A 
ATOM      9  C7A BZF d   1       1.143   1.298  -3.752  0.00  0.00     0.058 A 
ENDROOT
TORSDOF 0
ENDMDL
