MODEL 1
REMARK minimizedAffinity -1.91029
REMARK minimizedRMSD -1
REMARK  0 active torsions:
REMARK  status: ('A' for Active; 'I' for Inactive)
ROOT
ATOM      1  O1  BZF d   1       4.141   5.805   4.857  0.00  0.00    -0.204 OA
ATOM      2  C2  BZF d   1       5.147   5.192   5.579  0.00  0.00     0.174 A 
ATOM      3  C3  BZF d   1       5.999   4.545   4.758  0.00  0.00    -0.012 A 
ATOM      4  C3A BZF d   1       5.547   4.845   3.434  0.00  0.00    -0.107 A 
ATOM      5  C4  BZF d   1       5.994   4.504   2.190  0.00  0.00     0.055 A 
ATOM      6  C5  BZF d   1       5.283   4.900   1.101  0.00  0.00    -0.016 A 
ATOM      7  C6  BZF d   1       4.121   5.633   1.220  0.00  0.00     0.022 A 
ATOM      8  C7  BZF d   1       3.641   6.000   2.433  0.00  0.00     0.029 A 
ATOM      9  C7A BZF d   1       4.374   5.629   3.534  0.00  0.00     0.058 A 
ENDROOT
TORSDOF 0
ENDMDL
