MODEL 1
REMARK minimizedAffinity 1.64638317
REMARK minimizedRMSD -1
REMARK  0 active torsions:
REMARK  status: ('A' for Active; 'I' for Inactive)
ROOT
ATOM      1  O1  BZF d   1       3.957   5.852   4.186  0.00  0.00    -0.204 OA
ATOM      2  C2  BZF d   1       5.025   5.374   4.921  0.00  0.00     0.174 A 
ATOM      3  C3  BZF d   1       5.966   4.848   4.110  0.00  0.00    -0.012 A 
ATOM      4  C3A BZF d   1       5.495   5.091   2.781  0.00  0.00    -0.107 A 
ATOM      5  C4  BZF d   1       6.000   4.817   1.541  0.00  0.00     0.055 A 
ATOM      6  C5  BZF d   1       5.257   5.120   0.444  0.00  0.00    -0.016 A 
ATOM      7  C6  BZF d   1       4.007   5.693   0.550  0.00  0.00     0.022 A 
ATOM      8  C7  BZF d   1       3.467   5.988   1.757  0.00  0.00     0.029 A 
ATOM      9  C7A BZF d   1       4.228   5.713   2.866  0.00  0.00     0.058 A 
ENDROOT
TORSDOF 0
ENDMDL
