MODEL 1
REMARK minimizedAffinity 3.05591583
REMARK minimizedRMSD -1
REMARK  0 active torsions:
REMARK  status: ('A' for Active; 'I' for Inactive)
ROOT
ATOM      1  O1  BZF d   1       3.718   5.940   1.484  0.00  0.00    -0.204 OA
ATOM      2  C2  BZF d   1       4.887   5.860   0.751  0.00  0.00     0.174 A 
ATOM      3  C3  BZF d   1       5.962   5.843   1.565  0.00  0.00    -0.012 A 
ATOM      4  C3A BZF d   1       5.428   5.825   2.893  0.00  0.00    -0.107 A 
ATOM      5  C4  BZF d   1       5.998   5.789   4.133  0.00  0.00     0.055 A 
ATOM      6  C5  BZF d   1       5.198   5.855   5.230  0.00  0.00    -0.016 A 
ATOM      7  C6  BZF d   1       3.827   5.962   5.123  0.00  0.00     0.022 A 
ATOM      8  C7  BZF d   1       3.216   5.997   3.914  0.00  0.00     0.029 A 
ATOM      9  C7A BZF d   1       4.019   5.897   2.804  0.00  0.00     0.058 A 
ENDROOT
TORSDOF 0
ENDMDL
