MODEL 1
REMARK minimizedAffinity -5.27137804
REMARK minimizedRMSD -1
REMARK  3 active torsions:
REMARK  status: ('A' for Active; 'I' for Inactive)
REMARK    1  A    between atoms: C3'_2  and  C2'_3 
REMARK    2  A    between atoms: C2'_3  and  C1'_4 
REMARK    3  A    between atoms: C1'_4  and  C1_5 
ROOT
ATOM      1  C1  N4B d   1      -0.341   0.170   0.345  0.00  0.00    -0.075 A 
ATOM      2  C2  N4B d   1       0.183  -0.906   1.095  0.00  0.00     0.002 A 
ATOM      3  C3  N4B d   1       1.467  -0.844   1.578  0.00  0.00     0.002 A 
ATOM      4  C4  N4B d   1       2.249   0.269   1.309  0.00  0.00    -0.004 A 
ATOM      5  C5  N4B d   1       1.727   1.314   0.605  0.00  0.00     0.002 A 
ATOM      6  C6  N4B d   1       0.437   1.268   0.117  0.00  0.00     0.002 A 
ENDROOT
BRANCH   1   7
ATOM      7  C1' N4B d   1      -1.709   0.112  -0.277  0.00  0.00     0.057 C 
BRANCH   7   8
ATOM      8  C2' N4B d   1      -1.588  -0.405  -1.708  0.00  0.00     0.009 C 
BRANCH   8   9
ATOM      9  C3' N4B d   1      -2.841  -0.129  -2.520  0.00  0.00     0.004 C 
ATOM     10  C4' N4B d   1      -2.547   0.157  -3.963  0.00  0.00     0.003 C 
ENDBRANCH   8   9
ENDBRANCH   7   8
ENDBRANCH   1   7
TORSDOF 3
ENDMDL
