MODEL 1
REMARK minimizedAffinity -0.651354969
REMARK minimizedRMSD -1
REMARK  0 active torsions:
REMARK  status: ('A' for Active; 'I' for Inactive)
ROOT
ATOM      1  N1  IND d   1       1.749  -1.584  -1.931  0.00  0.00    -0.196 N 
ATOM      2  C2  IND d   1       1.050  -2.729  -1.667  0.00  0.00     0.054 A 
ATOM      3  C3  IND d   1      -0.040  -2.452  -0.916  0.00  0.00    -0.031 A 
ATOM      4  C4  IND d   1      -0.923  -0.179  -0.092  0.00  0.00     0.051 A 
ATOM      5  C5  IND d   1      -0.605   1.150  -0.051  0.00  0.00    -0.031 A 
ATOM      6  C6  IND d   1       0.535   1.645  -0.649  0.00  0.00     0.015 A 
ATOM      7  C7  IND d   1       1.399   0.829  -1.323  0.00  0.00    -0.016 A 
ATOM      8  C8  IND d   1       1.083  -0.522  -1.360  0.00  0.00    -0.047 A 
ATOM      9  C9  IND d   1      -0.051  -1.037  -0.719  0.00  0.00    -0.096 A 
ATOM     10  HN1 IND d   1       2.483  -1.536  -2.377  0.00  0.00     0.298 HD
ENDROOT
TORSDOF 0
ENDMDL
