MODEL 1
REMARK minimizedAffinity -3.31772757
REMARK minimizedRMSD -1
REMARK  0 active torsions:
REMARK  status: ('A' for Active; 'I' for Inactive)
ROOT
ATOM      1  N1  IND d   1       0.382  -0.094  -0.887  0.00  0.00    -0.196 N 
ATOM      2  C2  IND d   1       0.869  -0.961   0.051  0.00  0.00     0.054 A 
ATOM      3  C3  IND d   1       0.361  -0.669   1.270  0.00  0.00    -0.031 A 
ATOM      4  C4  IND d   1      -1.364   1.121   1.937  0.00  0.00     0.051 A 
ATOM      5  C5  IND d   1      -2.071   2.176   1.433  0.00  0.00    -0.031 A 
ATOM      6  C6  IND d   1      -1.998   2.534   0.102  0.00  0.00     0.015 A 
ATOM      7  C7  IND d   1      -1.219   1.840  -0.780  0.00  0.00    -0.016 A 
ATOM      8  C8  IND d   1      -0.494   0.772  -0.270  0.00  0.00    -0.047 A 
ATOM      9  C9  IND d   1      -0.532   0.431   1.088  0.00  0.00    -0.096 A 
ATOM     10  HN1 IND d   1       0.588  -0.090  -1.722  0.00  0.00     0.298 HD
ENDROOT
TORSDOF 0
ENDMDL
