MODEL 1
REMARK minimizedAffinity -0.484898746
REMARK minimizedRMSD -1
REMARK  0 active torsions:
REMARK  status: ('A' for Active; 'I' for Inactive)
ROOT
ATOM      1  N1  IND d   1       0.524   0.004  -1.384  0.00  0.00    -0.196 N 
ATOM      2  C2  IND d   1       1.002  -1.231  -1.043  0.00  0.00     0.054 A 
ATOM      3  C3  IND d   1       0.623  -1.550   0.215  0.00  0.00    -0.031 A 
ATOM      4  C4  IND d   1      -0.866  -0.241   1.857  0.00  0.00     0.051 A 
ATOM      5  C5  IND d   1      -1.509   0.955   2.009  0.00  0.00    -0.031 A 
ATOM      6  C6  IND d   1      -1.510   1.913   1.016  0.00  0.00     0.015 A 
ATOM      7  C7  IND d   1      -0.874   1.706  -0.175  0.00  0.00    -0.016 A 
ATOM      8  C8  IND d   1      -0.214   0.495  -0.330  0.00  0.00    -0.047 A 
ATOM      9  C9  IND d   1      -0.174  -0.464   0.690  0.00  0.00    -0.096 A 
ATOM     10  HN1 IND d   1       0.662   0.406  -2.131  0.00  0.00     0.298 HD
ENDROOT
TORSDOF 0
ENDMDL
