MODEL 1
REMARK minimizedAffinity -3.97650671
REMARK minimizedRMSD -1
REMARK  0 active torsions:
REMARK  status: ('A' for Active; 'I' for Inactive)
ROOT
ATOM      1  N1  IND d   1      -0.467  -0.001  -1.691  0.00  0.00    -0.196 N 
ATOM      2  C2  IND d   1       0.402  -1.050  -1.580  0.00  0.00     0.054 A 
ATOM      3  C3  IND d   1       0.844  -1.163  -0.307  0.00  0.00    -0.031 A 
ATOM      4  C4  IND d   1       0.193   0.202   1.776  0.00  0.00     0.051 A 
ATOM      5  C5  IND d   1      -0.538   1.288   2.167  0.00  0.00    -0.031 A 
ATOM      6  C6  IND d   1      -1.301   2.013   1.275  0.00  0.00     0.015 A 
ATOM      7  C7  IND d   1      -1.370   1.670  -0.046  0.00  0.00    -0.016 A 
ATOM      8  C8  IND d   1      -0.623   0.572  -0.448  0.00  0.00    -0.047 A 
ATOM      9  C9  IND d   1       0.187  -0.142   0.445  0.00  0.00    -0.096 A 
ATOM     10  HN1 IND d   1      -0.852   0.257  -2.415  0.00  0.00     0.298 HD
ENDROOT
TORSDOF 0
ENDMDL
