MODEL 1
REMARK minimizedAffinity -4.73962545
REMARK minimizedRMSD -1
REMARK  0 active torsions:
REMARK  status: ('A' for Active; 'I' for Inactive)
ROOT
ATOM      1  N1  IND d   1       0.383  -0.182  -0.943  0.00  0.00    -0.196 N 
ATOM      2  C2  IND d   1       0.825  -1.007   0.053  0.00  0.00     0.054 A 
ATOM      3  C3  IND d   1       0.392  -0.567   1.255  0.00  0.00    -0.031 A 
ATOM      4  C4  IND d   1      -1.138   1.427   1.812  0.00  0.00     0.051 A 
ATOM      5  C5  IND d   1      -1.766   2.497   1.238  0.00  0.00    -0.031 A 
ATOM      6  C6  IND d   1      -1.711   2.731  -0.121  0.00  0.00     0.015 A 
ATOM      7  C7  IND d   1      -1.032   1.895  -0.961  0.00  0.00    -0.016 A 
ATOM      8  C8  IND d   1      -0.387   0.812  -0.380  0.00  0.00    -0.047 A 
ATOM      9  C9  IND d   1      -0.404   0.592   1.003  0.00  0.00    -0.096 A 
ATOM     10  HN1 IND d   1       0.557  -0.269  -1.781  0.00  0.00     0.298 HD
ENDROOT
TORSDOF 0
ENDMDL
