MODEL 1
REMARK minimizedAffinity -0.385131389
REMARK minimizedRMSD -1
REMARK  0 active torsions:
REMARK  status: ('A' for Active; 'I' for Inactive)
ROOT
ATOM      1  N1  IND d   1       0.880  -0.902   0.318  0.00  0.00    -0.196 N 
ATOM      2  C2  IND d   1       0.413   0.306  -0.119  0.00  0.00     0.054 A 
ATOM      3  C3  IND d   1       0.285   0.302  -1.465  0.00  0.00    -0.031 A 
ATOM      4  C4  IND d   1       0.687  -1.611  -3.140  0.00  0.00     0.051 A 
ATOM      5  C5  IND d   1       1.153  -2.894  -3.219  0.00  0.00    -0.031 A 
ATOM      6  C6  IND d   1       1.558  -3.592  -2.100  0.00  0.00     0.015 A 
ATOM      7  C7  IND d   1       1.501  -3.037  -0.853  0.00  0.00    -0.016 A 
ATOM      8  C8  IND d   1       1.034  -1.732  -0.770  0.00  0.00    -0.047 A 
ATOM      9  C9  IND d   1       0.662  -1.003  -1.907  0.00  0.00    -0.096 A 
ATOM     10  HN1 IND d   1       1.049  -1.108   1.136  0.00  0.00     0.298 HD
ENDROOT
TORSDOF 0
ENDMDL
