MODEL 1
REMARK minimizedAffinity -3.56457996
REMARK minimizedRMSD -1
REMARK  0 active torsions:
REMARK  status: ('A' for Active; 'I' for Inactive)
ROOT
ATOM      1  N1  IND d   1      -1.387   2.160   0.277  0.00  0.00    -0.196 N 
ATOM      2  C2  IND d   1      -2.006   2.057   1.491  0.00  0.00     0.054 A 
ATOM      3  C3  IND d   1      -1.644   0.909   2.108  0.00  0.00    -0.031 A 
ATOM      4  C4  IND d   1       0.029  -0.896   1.353  0.00  0.00     0.051 A 
ATOM      5  C5  IND d   1       0.818  -1.260   0.298  0.00  0.00    -0.031 A 
ATOM      6  C6  IND d   1       0.916  -0.486  -0.840  0.00  0.00     0.015 A 
ATOM      7  C7  IND d   1       0.235   0.692  -0.961  0.00  0.00    -0.016 A 
ATOM      8  C8  IND d   1      -0.572   1.062   0.105  0.00  0.00    -0.047 A 
ATOM      9  C9  IND d   1      -0.709   0.259   1.245  0.00  0.00    -0.096 A 
ATOM     10  HN1 IND d   1      -1.489   2.802  -0.286  0.00  0.00     0.298 HD
ENDROOT
TORSDOF 0
ENDMDL
