MODEL 1
REMARK minimizedAffinity -5.41358757
REMARK minimizedRMSD -1
REMARK  0 active torsions:
REMARK  status: ('A' for Active; 'I' for Inactive)
ROOT
ATOM      1  N1  IND d   1      -1.333   1.229   2.079  0.00  0.00    -0.196 N 
ATOM      2  C2  IND d   1      -1.807   2.212   1.256  0.00  0.00     0.054 A 
ATOM      3  C3  IND d   1      -1.335   2.042  -0.000  0.00  0.00    -0.031 A 
ATOM      4  C4  IND d   1       0.144   0.162  -0.951  0.00  0.00     0.051 A 
ATOM      5  C5  IND d   1       0.857  -0.942  -0.576  0.00  0.00    -0.031 A 
ATOM      6  C6  IND d   1       0.874  -1.390   0.729  0.00  0.00     0.015 A 
ATOM      7  C7  IND d   1       0.167  -0.754   1.710  0.00  0.00    -0.016 A 
ATOM      8  C8  IND d   1      -0.552   0.372   1.334  0.00  0.00    -0.047 A 
ATOM      9  C9  IND d   1      -0.539   0.856   0.019  0.00  0.00    -0.096 A 
ATOM     10  HN1 IND d   1      -1.495   1.157   2.920  0.00  0.00     0.298 HD
ENDROOT
TORSDOF 0
ENDMDL
