MODEL 1
REMARK minimizedAffinity -0.841265142
REMARK minimizedRMSD -1
REMARK  0 active torsions:
REMARK  status: ('A' for Active; 'I' for Inactive)
ROOT
ATOM      1  N1  IND d   1       1.520   1.408  -1.689  0.00  0.00    -0.196 N 
ATOM      2  C2  IND d   1       1.946   0.115  -1.810  0.00  0.00     0.054 A 
ATOM      3  C3  IND d   1       1.366  -0.661  -0.867  0.00  0.00    -0.031 A 
ATOM      4  C4  IND d   1      -0.389  -0.039   0.911  0.00  0.00     0.051 A 
ATOM      5  C5  IND d   1      -1.060   1.031   1.434  0.00  0.00    -0.031 A 
ATOM      6  C6  IND d   1      -0.904   2.306   0.931  0.00  0.00     0.015 A 
ATOM      7  C7  IND d   1      -0.076   2.559  -0.126  0.00  0.00    -0.016 A 
ATOM      8  C8  IND d   1       0.612   1.476  -0.655  0.00  0.00    -0.047 A 
ATOM      9  C9  IND d   1       0.491   0.187  -0.122  0.00  0.00    -0.096 A 
ATOM     10  HN1 IND d   1       1.777   2.069  -2.177  0.00  0.00     0.298 HD
ENDROOT
TORSDOF 0
ENDMDL
