MODEL 1
REMARK minimizedAffinity -5.02915716
REMARK minimizedRMSD -1
REMARK  0 active torsions:
REMARK  status: ('A' for Active; 'I' for Inactive)
ROOT
ATOM      1  N1  IND d   1      -0.804   3.490  -0.180  0.00  0.00    -0.196 N 
ATOM      2  C2  IND d   1      -1.636   3.498   0.904  0.00  0.00     0.054 A 
ATOM      3  C3  IND d   1      -1.670   2.275   1.480  0.00  0.00    -0.031 A 
ATOM      4  C4  IND d   1      -0.363   0.143   0.870  0.00  0.00     0.051 A 
ATOM      5  C5  IND d   1       0.493  -0.365  -0.067  0.00  0.00    -0.031 A 
ATOM      6  C6  IND d   1       0.973   0.403  -1.109  0.00  0.00     0.015 A 
ATOM      7  C7  IND d   1       0.621   1.716  -1.247  0.00  0.00    -0.016 A 
ATOM      8  C8  IND d   1      -0.254   2.233  -0.302  0.00  0.00    -0.047 A 
ATOM      9  C9  IND d   1      -0.777   1.447   0.733  0.00  0.00    -0.096 A 
ATOM     10  HN1 IND d   1      -0.649   4.158  -0.699  0.00  0.00     0.298 HD
ENDROOT
TORSDOF 0
ENDMDL
