MODEL 1
REMARK minimizedAffinity -5.9278512
REMARK minimizedRMSD -1
REMARK  0 active torsions:
REMARK  status: ('A' for Active; 'I' for Inactive)
ROOT
ATOM      1  N1  IND d   1       0.954   0.359  -0.680  0.00  0.00    -0.196 N 
ATOM      2  C2  IND d   1       1.050  -0.739   0.129  0.00  0.00     0.054 A 
ATOM      3  C3  IND d   1       0.262  -0.593   1.217  0.00  0.00    -0.031 A 
ATOM      4  C4  IND d   1      -1.348   1.322   1.825  0.00  0.00     0.051 A 
ATOM      5  C5  IND d   1      -1.751   2.562   1.414  0.00  0.00    -0.031 A 
ATOM      6  C6  IND d   1      -1.266   3.140   0.259  0.00  0.00     0.015 A 
ATOM      7  C7  IND d   1      -0.364   2.494  -0.537  0.00  0.00    -0.016 A 
ATOM      8  C8  IND d   1       0.054   1.238  -0.119  0.00  0.00    -0.047 A 
ATOM      9  C9  IND d   1      -0.403   0.664   1.074  0.00  0.00    -0.096 A 
ATOM     10  HN1 IND d   1       1.384   0.480  -1.415  0.00  0.00     0.298 HD
ENDROOT
TORSDOF 0
ENDMDL
