MODEL 1
REMARK minimizedAffinity -3.15002394
REMARK minimizedRMSD -1
REMARK  0 active torsions:
REMARK  status: ('A' for Active; 'I' for Inactive)
ROOT
ATOM      1  N1  IND d   1       0.358   1.115  -1.346  0.00  0.00    -0.196 N 
ATOM      2  C2  IND d   1       1.076  -0.027  -1.569  0.00  0.00     0.054 A 
ATOM      3  C3  IND d   1       1.035  -0.829  -0.481  0.00  0.00    -0.031 A 
ATOM      4  C4  IND d   1      -0.233  -0.512   1.737  0.00  0.00     0.051 A 
ATOM      5  C5  IND d   1      -0.996   0.391   2.422  0.00  0.00    -0.031 A 
ATOM      6  C6  IND d   1      -1.357   1.605   1.874  0.00  0.00     0.015 A 
ATOM      7  C7  IND d   1      -0.975   1.958   0.610  0.00  0.00    -0.016 A 
ATOM      8  C8  IND d   1      -0.194   1.046  -0.085  0.00  0.00    -0.047 A 
ATOM      9  C9  IND d   1       0.211  -0.169   0.482  0.00  0.00    -0.096 A 
ATOM     10  HN1 IND d   1       0.267   1.766  -1.899  0.00  0.00     0.298 HD
ENDROOT
TORSDOF 0
ENDMDL
