MODEL 1
REMARK minimizedAffinity -5.42789221
REMARK minimizedRMSD -1
REMARK  0 active torsions:
REMARK  status: ('A' for Active; 'I' for Inactive)
ROOT
ATOM      1  N1  IND d   1       0.855   0.214  -0.978  0.00  0.00    -0.196 N 
ATOM      2  C2  IND d   1       0.731  -0.936  -0.249  0.00  0.00     0.054 A 
ATOM      3  C3  IND d   1      -0.118  -0.746   0.787  0.00  0.00    -0.031 A 
ATOM      4  C4  IND d   1      -1.492   1.338   1.415  0.00  0.00     0.051 A 
ATOM      5  C5  IND d   1      -1.684   2.646   1.068  0.00  0.00    -0.031 A 
ATOM      6  C6  IND d   1      -1.029   3.221  -0.002  0.00  0.00     0.015 A 
ATOM      7  C7  IND d   1      -0.161   2.503  -0.775  0.00  0.00    -0.016 A 
ATOM      8  C8  IND d   1       0.042   1.176  -0.421  0.00  0.00    -0.047 A 
ATOM      9  C9  IND d   1      -0.588   0.599   0.689  0.00  0.00    -0.096 A 
ATOM     10  HN1 IND d   1       1.358   0.318  -1.668  0.00  0.00     0.298 HD
ENDROOT
TORSDOF 0
ENDMDL
