MODEL 1
REMARK minimizedAffinity -4.297225
REMARK minimizedRMSD -1
REMARK  0 active torsions:
REMARK  status: ('A' for Active; 'I' for Inactive)
ROOT
ATOM      1  N1  IND d   1       0.615   3.126  -0.774  0.00  0.00    -0.196 N 
ATOM      2  C2  IND d   1      -0.007   4.110  -0.058  0.00  0.00     0.054 A 
ATOM      3  C3  IND d   1      -0.673   3.578   0.992  0.00  0.00    -0.031 A 
ATOM      4  C4  IND d   1      -0.792   1.131   1.783  0.00  0.00     0.051 A 
ATOM      5  C5  IND d   1      -0.415  -0.135   1.430  0.00  0.00    -0.031 A 
ATOM      6  C6  IND d   1       0.342  -0.383   0.304  0.00  0.00     0.015 A 
ATOM      7  C7  IND d   1       0.762   0.631  -0.510  0.00  0.00    -0.016 A 
ATOM      8  C8  IND d   1       0.375   1.917  -0.159  0.00  0.00    -0.047 A 
ATOM      9  C9  IND d   1      -0.429   2.170   0.960  0.00  0.00    -0.096 A 
ATOM     10  HN1 IND d   1       1.078   3.242  -1.489  0.00  0.00     0.298 HD
ENDROOT
TORSDOF 0
ENDMDL
