MODEL 1
REMARK minimizedAffinity -3.13779378
REMARK minimizedRMSD -1
REMARK  0 active torsions:
REMARK  status: ('A' for Active; 'I' for Inactive)
ROOT
ATOM      1  N1  IND d   1       1.114  -0.626   0.568  0.00  0.00    -0.196 N 
ATOM      2  C2  IND d   1       1.375  -0.451  -0.762  0.00  0.00     0.054 A 
ATOM      3  C3  IND d   1       0.446   0.356  -1.322  0.00  0.00    -0.031 A 
ATOM      4  C4  IND d   1      -1.533   1.580  -0.221  0.00  0.00     0.051 A 
ATOM      5  C5  IND d   1      -2.199   1.701   0.966  0.00  0.00    -0.031 A 
ATOM      6  C6  IND d   1      -1.785   1.041   2.105  0.00  0.00     0.015 A 
ATOM      7  C7  IND d   1      -0.678   0.241   2.102  0.00  0.00    -0.016 A 
ATOM      8  C8  IND d   1      -0.003   0.110   0.896  0.00  0.00    -0.047 A 
ATOM      9  C9  IND d   1      -0.443   0.744  -0.273  0.00  0.00    -0.096 A 
ATOM     10  HN1 IND d   1       1.570  -1.115   1.109  0.00  0.00     0.298 HD
ENDROOT
TORSDOF 0
ENDMDL
