MODEL 1
REMARK minimizedAffinity -5.00416327
REMARK minimizedRMSD -1
REMARK  0 active torsions:
REMARK  status: ('A' for Active; 'I' for Inactive)
ROOT
ATOM      1  N1  IND d   1       1.100   0.954  -1.266  0.00  0.00    -0.196 N 
ATOM      2  C2  IND d   1       1.187  -0.337  -0.826  0.00  0.00     0.054 A 
ATOM      3  C3  IND d   1       0.294  -0.558   0.165  0.00  0.00    -0.031 A 
ATOM      4  C4  IND d   1      -1.477   1.028   1.154  0.00  0.00     0.051 A 
ATOM      5  C5  IND d   1      -1.914   2.321   1.100  0.00  0.00    -0.031 A 
ATOM      6  C6  IND d   1      -1.361   3.243   0.235  0.00  0.00     0.015 A 
ATOM      7  C7  IND d   1      -0.351   2.901  -0.620  0.00  0.00    -0.016 A 
ATOM      8  C8  IND d   1       0.101   1.590  -0.563  0.00  0.00    -0.047 A 
ATOM      9  C9  IND d   1      -0.429   0.662   0.342  0.00  0.00    -0.096 A 
ATOM     10  HN1 IND d   1       1.587   1.309  -1.879  0.00  0.00     0.298 HD
ENDROOT
TORSDOF 0
ENDMDL
