MODEL 1
REMARK minimizedAffinity -4.07474709
REMARK minimizedRMSD -1
REMARK  0 active torsions:
REMARK  status: ('A' for Active; 'I' for Inactive)
ROOT
ATOM      1  N1  IND d   1       0.025   2.255  -0.927  0.00  0.00    -0.196 N 
ATOM      2  C2  IND d   1      -0.805   3.272  -0.545  0.00  0.00     0.054 A 
ATOM      3  C3  IND d   1      -1.476   2.934   0.579  0.00  0.00    -0.031 A 
ATOM      4  C4  IND d   1      -1.292   0.807   2.017  0.00  0.00     0.051 A 
ATOM      5  C5  IND d   1      -0.694  -0.422   2.051  0.00  0.00    -0.031 A 
ATOM      6  C6  IND d   1       0.194  -0.828   1.076  0.00  0.00     0.015 A 
ATOM      7  C7  IND d   1       0.528  -0.012   0.032  0.00  0.00    -0.016 A 
ATOM      8  C8  IND d   1      -0.083   1.233  -0.010  0.00  0.00    -0.047 A 
ATOM      9  C9  IND d   1      -1.017   1.634   0.953  0.00  0.00    -0.096 A 
ATOM     10  HN1 IND d   1       0.530   2.254  -1.623  0.00  0.00     0.298 HD
ENDROOT
TORSDOF 0
ENDMDL
