MODEL 1
REMARK minimizedAffinity -5.11953926
REMARK minimizedRMSD -1
REMARK  0 active torsions:
REMARK  status: ('A' for Active; 'I' for Inactive)
ROOT
ATOM      1  N1  IND d   1       0.900   1.458  -1.235  0.00  0.00    -0.196 N 
ATOM      2  C2  IND d   1       1.223   0.135  -1.108  0.00  0.00     0.054 A 
ATOM      3  C3  IND d   1       0.470  -0.442  -0.145  0.00  0.00    -0.031 A 
ATOM      4  C4  IND d   1      -1.420   0.569   1.281  0.00  0.00     0.051 A 
ATOM      5  C5  IND d   1      -2.052   1.751   1.550  0.00  0.00    -0.031 A 
ATOM      6  C6  IND d   1      -1.727   2.918   0.889  0.00  0.00     0.015 A 
ATOM      7  C7  IND d   1      -0.762   2.945  -0.077  0.00  0.00    -0.016 A 
ATOM      8  C8  IND d   1      -0.114   1.749  -0.348  0.00  0.00    -0.047 A 
ATOM      9  C9  IND d   1      -0.409   0.570   0.348  0.00  0.00    -0.096 A 
ATOM     10  HN1 IND d   1       1.269   2.015  -1.776  0.00  0.00     0.298 HD
ENDROOT
TORSDOF 0
ENDMDL
