MODEL 1
REMARK minimizedAffinity -2.64850426
REMARK minimizedRMSD -1
REMARK  0 active torsions:
REMARK  status: ('A' for Active; 'I' for Inactive)
ROOT
ATOM      1  C   UNL d   1       5.999   5.921   4.212  0.00  0.00     0.078 C 
ATOM      2  C1  UNL d   1       5.422   5.372   2.941  0.00  0.00    -0.077 A 
ATOM      3  C2  UNL d   1       4.339   5.998   2.311  0.00  0.00    -0.001 A 
ATOM      4  C3  UNL d   1       3.806   5.470   1.134  0.00  0.00     0.003 A 
ATOM      5  C4  UNL d   1       4.348   4.314   0.577  0.00  0.00    -0.005 A 
ATOM      6  C5  UNL d   1       5.424   3.683   1.198  0.00  0.00     0.003 A 
ATOM      7  C6  UNL d   1       5.959   4.209   2.375  0.00  0.00    -0.001 A 
ENDROOT
TORSDOF 0
ENDMDL
