MODEL 1
REMARK minimizedAffinity 0.867290258
REMARK minimizedRMSD -1
REMARK  0 active torsions:
REMARK  status: ('A' for Active; 'I' for Inactive)
ROOT
ATOM      1  C   UNL d   1       3.360   1.110  -3.900  0.00  0.00     0.078 C 
ATOM      2  C1  UNL d   1       2.736   2.453  -4.139  0.00  0.00    -0.077 A 
ATOM      3  C2  UNL d   1       1.399   2.698  -3.802  0.00  0.00    -0.001 A 
ATOM      4  C3  UNL d   1       0.830   3.950  -4.039  0.00  0.00     0.003 A 
ATOM      5  C4  UNL d   1       1.589   4.966  -4.615  0.00  0.00    -0.005 A 
ATOM      6  C5  UNL d   1       2.919   4.731  -4.956  0.00  0.00     0.003 A 
ATOM      7  C6  UNL d   1       3.491   3.480  -4.719  0.00  0.00    -0.001 A 
ENDROOT
TORSDOF 0
ENDMDL
