MODEL 1
REMARK minimizedAffinity 5.97523689
REMARK minimizedRMSD -1
REMARK  0 active torsions:
REMARK  status: ('A' for Active; 'I' for Inactive)
ROOT
ATOM      1  C   UNL d   1       2.441  -2.865  -1.533  0.00  0.00     0.078 C 
ATOM      2  C1  UNL d   1       1.171  -3.524  -1.084  0.00  0.00    -0.077 A 
ATOM      3  C2  UNL d   1       0.265  -4.051  -2.012  0.00  0.00    -0.001 A 
ATOM      4  C3  UNL d   1      -0.919  -4.652  -1.580  0.00  0.00     0.003 A 
ATOM      5  C4  UNL d   1      -1.207  -4.731  -0.219  0.00  0.00    -0.005 A 
ATOM      6  C5  UNL d   1      -0.312  -4.208   0.712  0.00  0.00     0.003 A 
ATOM      7  C6  UNL d   1       0.871  -3.606   0.282  0.00  0.00    -0.001 A 
ENDROOT
TORSDOF 0
ENDMDL
