MODEL 1
REMARK minimizedAffinity -1.70343757
REMARK minimizedRMSD -1
REMARK  0 active torsions:
REMARK  status: ('A' for Active; 'I' for Inactive)
ROOT
ATOM      1  C   UNL d   1       2.832   0.072  -0.296  0.00  0.00     0.078 C 
ATOM      2  C1  UNL d   1       1.569   0.351   0.463  0.00  0.00    -0.077 A 
ATOM      3  C2  UNL d   1       1.099  -0.543   1.433  0.00  0.00    -0.001 A 
ATOM      4  C3  UNL d   1      -0.083  -0.276   2.125  0.00  0.00     0.003 A 
ATOM      5  C4  UNL d   1      -0.806   0.884   1.854  0.00  0.00    -0.005 A 
ATOM      6  C5  UNL d   1      -0.347   1.778   0.888  0.00  0.00     0.003 A 
ATOM      7  C6  UNL d   1       0.835   1.513   0.195  0.00  0.00    -0.001 A 
ENDROOT
TORSDOF 0
ENDMDL
