MODEL 1
REMARK minimizedAffinity -4.04980898
REMARK minimizedRMSD -1
REMARK  0 active torsions:
REMARK  status: ('A' for Active; 'I' for Inactive)
ROOT
ATOM      1  C   UNL d   1      -2.532   2.543   2.319  0.00  0.00     0.078 C 
ATOM      2  C1  UNL d   1      -1.459   1.660   1.755  0.00  0.00    -0.077 A 
ATOM      3  C2  UNL d   1      -1.429   0.289   2.038  0.00  0.00    -0.001 A 
ATOM      4  C3  UNL d   1      -0.418  -0.518   1.514  0.00  0.00     0.003 A 
ATOM      5  C4  UNL d   1       0.571   0.036   0.705  0.00  0.00    -0.005 A 
ATOM      6  C5  UNL d   1       0.551   1.400   0.419  0.00  0.00     0.003 A 
ATOM      7  C6  UNL d   1      -0.459   2.209   0.942  0.00  0.00    -0.001 A 
ENDROOT
TORSDOF 0
ENDMDL
