MODEL 1
REMARK minimizedAffinity 7.09477186
REMARK minimizedRMSD -1
REMARK  0 active torsions:
REMARK  status: ('A' for Active; 'I' for Inactive)
ROOT
ATOM      1  C   UNL d   1       1.544   0.860   0.806  0.00  0.00     0.078 C 
ATOM      2  C1  UNL d   1       2.191   0.468  -0.489  0.00  0.00    -0.077 A 
ATOM      3  C2  UNL d   1       2.365   1.400  -1.520  0.00  0.00    -0.001 A 
ATOM      4  C3  UNL d   1       2.960   1.019  -2.723  0.00  0.00     0.003 A 
ATOM      5  C4  UNL d   1       3.385  -0.295  -2.908  0.00  0.00    -0.005 A 
ATOM      6  C5  UNL d   1       3.214  -1.230  -1.889  0.00  0.00     0.003 A 
ATOM      7  C6  UNL d   1       2.619  -0.851  -0.685  0.00  0.00    -0.001 A 
ENDROOT
TORSDOF 0
ENDMDL
