MODEL 1
REMARK minimizedAffinity -2.38747573
REMARK minimizedRMSD -1
REMARK  0 active torsions:
REMARK  status: ('A' for Active; 'I' for Inactive)
ROOT
ATOM      1  C   UNL d   1      -1.157   2.329   1.869  0.00  0.00     0.078 C 
ATOM      2  C1  UNL d   1       0.070   1.596   1.414  0.00  0.00    -0.077 A 
ATOM      3  C2  UNL d   1       0.426   0.365   1.979  0.00  0.00    -0.001 A 
ATOM      4  C3  UNL d   1       1.576  -0.301   1.553  0.00  0.00     0.003 A 
ATOM      5  C4  UNL d   1       2.380   0.257   0.561  0.00  0.00    -0.005 A 
ATOM      6  C5  UNL d   1       2.036   1.482  -0.005  0.00  0.00     0.003 A 
ATOM      7  C6  UNL d   1       0.886   2.150   0.420  0.00  0.00    -0.001 A 
ENDROOT
TORSDOF 0
ENDMDL
