MODEL 1
REMARK minimizedAffinity 0.490322113
REMARK minimizedRMSD -1
REMARK  0 active torsions:
REMARK  status: ('A' for Active; 'I' for Inactive)
ROOT
ATOM      1  C   UNL d   1      -0.227   1.965   1.078  0.00  0.00     0.078 C 
ATOM      2  C1  UNL d   1       0.959   1.159   0.641  0.00  0.00    -0.077 A 
ATOM      3  C2  UNL d   1       1.566   1.384  -0.601  0.00  0.00    -0.001 A 
ATOM      4  C3  UNL d   1       2.664   0.619  -0.999  0.00  0.00     0.003 A 
ATOM      5  C4  UNL d   1       3.163  -0.377  -0.162  0.00  0.00    -0.005 A 
ATOM      6  C5  UNL d   1       2.564  -0.609   1.075  0.00  0.00     0.003 A 
ATOM      7  C6  UNL d   1       1.467   0.154   1.474  0.00  0.00    -0.001 A 
ENDROOT
TORSDOF 0
ENDMDL
