MODEL 1
REMARK minimizedAffinity -1.21567094
REMARK minimizedRMSD -1
REMARK  0 active torsions:
REMARK  status: ('A' for Active; 'I' for Inactive)
ROOT
ATOM      1  C   UNL d   1      -2.620   3.059   0.955  0.00  0.00     0.078 C 
ATOM      2  C1  UNL d   1      -1.796   1.825   1.171  0.00  0.00    -0.077 A 
ATOM      3  C2  UNL d   1      -0.445   1.787   0.804  0.00  0.00    -0.001 A 
ATOM      4  C3  UNL d   1       0.308   0.629   1.003  0.00  0.00     0.003 A 
ATOM      5  C4  UNL d   1      -0.282  -0.501   1.566  0.00  0.00    -0.005 A 
ATOM      6  C5  UNL d   1      -1.626  -0.473   1.932  0.00  0.00     0.003 A 
ATOM      7  C6  UNL d   1      -2.380   0.684   1.735  0.00  0.00    -0.001 A 
ENDROOT
TORSDOF 0
ENDMDL
