MODEL 1
REMARK minimizedAffinity 4.28865051
REMARK minimizedRMSD -1
REMARK  0 active torsions:
REMARK  status: ('A' for Active; 'I' for Inactive)
ROOT
ATOM      1  C   UNL d   1      -0.316  -1.478   2.712  0.00  0.00     0.078 C 
ATOM      2  C1  UNL d   1      -0.132  -0.190   1.966  0.00  0.00    -0.077 A 
ATOM      3  C2  UNL d   1       1.009   0.035   1.186  0.00  0.00    -0.001 A 
ATOM      4  C3  UNL d   1       1.172   1.243   0.505  0.00  0.00     0.003 A 
ATOM      5  C4  UNL d   1       0.198   2.235   0.598  0.00  0.00    -0.005 A 
ATOM      6  C5  UNL d   1      -0.940   2.021   1.374  0.00  0.00     0.003 A 
ATOM      7  C6  UNL d   1      -1.104   0.814   2.055  0.00  0.00    -0.001 A 
ENDROOT
TORSDOF 0
ENDMDL
