MODEL 1
REMARK minimizedAffinity -1.58004582
REMARK minimizedRMSD -1
REMARK  0 active torsions:
REMARK  status: ('A' for Active; 'I' for Inactive)
ROOT
ATOM      1  C   UNL d   1       0.708   0.648   0.450  0.00  0.00     0.078 C 
ATOM      2  C1  UNL d   1      -0.546   0.966   1.208  0.00  0.00    -0.077 A 
ATOM      3  C2  UNL d   1      -0.859   2.283   1.565  0.00  0.00    -0.001 A 
ATOM      4  C3  UNL d   1      -2.025   2.564   2.279  0.00  0.00     0.003 A 
ATOM      5  C4  UNL d   1      -2.887   1.532   2.644  0.00  0.00    -0.005 A 
ATOM      6  C5  UNL d   1      -2.583   0.217   2.296  0.00  0.00     0.003 A 
ATOM      7  C6  UNL d   1      -1.418  -0.065   1.581  0.00  0.00    -0.001 A 
ENDROOT
TORSDOF 0
ENDMDL
