MODEL 1
REMARK minimizedAffinity -1.19941068
REMARK minimizedRMSD -1
REMARK  0 active torsions:
REMARK  status: ('A' for Active; 'I' for Inactive)
ROOT
ATOM      1  C   UNL d   1      -1.527   3.003   1.479  0.00  0.00     0.078 C 
ATOM      2  C1  UNL d   1      -0.804   1.700   1.308  0.00  0.00    -0.077 A 
ATOM      3  C2  UNL d   1       0.493   1.658   0.782  0.00  0.00    -0.001 A 
ATOM      4  C3  UNL d   1       1.150   0.437   0.620  0.00  0.00     0.003 A 
ATOM      5  C4  UNL d   1       0.517  -0.751   0.980  0.00  0.00    -0.005 A 
ATOM      6  C5  UNL d   1      -0.774  -0.719   1.503  0.00  0.00     0.003 A 
ATOM      7  C6  UNL d   1      -1.433   0.501   1.666  0.00  0.00    -0.001 A 
ENDROOT
TORSDOF 0
ENDMDL
