MODEL 1
REMARK minimizedAffinity -1.32124567
REMARK minimizedRMSD -1
REMARK  0 active torsions:
REMARK  status: ('A' for Active; 'I' for Inactive)
ROOT
ATOM      1  C   UNL d   1       1.682   0.317   0.474  0.00  0.00     0.078 C 
ATOM      2  C1  UNL d   1       0.285   0.403   1.012  0.00  0.00    -0.077 A 
ATOM      3  C2  UNL d   1      -0.393  -0.744   1.444  0.00  0.00    -0.001 A 
ATOM      4  C3  UNL d   1      -1.696  -0.651   1.934  0.00  0.00     0.003 A 
ATOM      5  C4  UNL d   1      -2.334   0.587   1.996  0.00  0.00    -0.005 A 
ATOM      6  C5  UNL d   1      -1.668   1.733   1.566  0.00  0.00     0.003 A 
ATOM      7  C6  UNL d   1      -0.364   1.642   1.076  0.00  0.00    -0.001 A 
ENDROOT
TORSDOF 0
ENDMDL
