MODEL 1
REMARK minimizedAffinity 1.54413676
REMARK minimizedRMSD -1
REMARK  0 active torsions:
REMARK  status: ('A' for Active; 'I' for Inactive)
ROOT
ATOM      1  C   UNL d   1      -5.649   5.878   4.900  0.00  0.00     0.078 C 
ATOM      2  C1  UNL d   1      -5.504   4.386   4.907  0.00  0.00    -0.077 A 
ATOM      3  C2  UNL d   1      -4.889   3.716   3.843  0.00  0.00    -0.001 A 
ATOM      4  C3  UNL d   1      -4.769   2.325   3.859  0.00  0.00     0.003 A 
ATOM      5  C4  UNL d   1      -5.264   1.593   4.936  0.00  0.00    -0.005 A 
ATOM      6  C5  UNL d   1      -5.880   2.250   5.999  0.00  0.00     0.003 A 
ATOM      7  C6  UNL d   1      -6.000   3.641   5.985  0.00  0.00    -0.001 A 
ENDROOT
TORSDOF 0
ENDMDL
