MODEL 1
REMARK minimizedAffinity -1.71500838
REMARK minimizedRMSD -1
REMARK  0 active torsions:
REMARK  status: ('A' for Active; 'I' for Inactive)
ROOT
ATOM      1  C   UNL d   1      -3.454   1.534   3.478  0.00  0.00     0.078 C 
ATOM      2  C1  UNL d   1      -2.108   1.295   2.861  0.00  0.00    -0.077 A 
ATOM      3  C2  UNL d   1      -1.768   0.044   2.332  0.00  0.00    -0.001 A 
ATOM      4  C3  UNL d   1      -0.508  -0.166   1.769  0.00  0.00     0.003 A 
ATOM      5  C4  UNL d   1       0.423   0.870   1.732  0.00  0.00    -0.005 A 
ATOM      6  C5  UNL d   1       0.095   2.118   2.258  0.00  0.00     0.003 A 
ATOM      7  C6  UNL d   1      -1.165   2.330   2.821  0.00  0.00    -0.001 A 
ENDROOT
TORSDOF 0
ENDMDL
