MODEL 1
REMARK minimizedAffinity 5.97423553
REMARK minimizedRMSD -1
REMARK  0 active torsions:
REMARK  status: ('A' for Active; 'I' for Inactive)
ROOT
ATOM      1  C   UNL d   1       1.464   0.023   3.961  0.00  0.00     0.078 C 
ATOM      2  C1  UNL d   1       1.006   0.580   2.646  0.00  0.00    -0.077 A 
ATOM      3  C2  UNL d   1      -0.169   1.337   2.553  0.00  0.00    -0.001 A 
ATOM      4  C3  UNL d   1      -0.588   1.841   1.321  0.00  0.00     0.003 A 
ATOM      5  C4  UNL d   1       0.161   1.593   0.172  0.00  0.00    -0.005 A 
ATOM      6  C5  UNL d   1       1.330   0.840   0.254  0.00  0.00     0.003 A 
ATOM      7  C6  UNL d   1       1.751   0.335   1.486  0.00  0.00    -0.001 A 
ENDROOT
TORSDOF 0
ENDMDL
