MODEL 1
REMARK minimizedAffinity -2.86651468
REMARK minimizedRMSD -1
REMARK  0 active torsions:
REMARK  status: ('A' for Active; 'I' for Inactive)
ROOT
ATOM      1  C4' PXY d   1       1.785  -3.475   0.399  0.00  0.00     0.077 C 
ATOM      2  C1' PXY d   1      -1.990   0.822   1.236  0.00  0.00     0.077 C 
ATOM      3  C1  PXY d   1      -0.991  -0.296   1.012  0.00  0.00    -0.082 A 
ATOM      4  C2  PXY d   1      -1.425  -1.529   0.805  0.00  0.00     0.003 A 
ATOM      5  C3  PXY d   1      -0.534  -2.558   0.633  0.00  0.00     0.003 A 
ATOM      6  C4  PXY d   1       0.813  -2.313   0.620  0.00  0.00    -0.082 A 
ATOM      7  C5  PXY d   1       1.263  -1.056   0.819  0.00  0.00     0.003 A 
ATOM      8  C6  PXY d   1       0.344  -0.033   1.033  0.00  0.00     0.003 A 
ENDROOT
TORSDOF 0
ENDMDL
