MODEL 1
REMARK minimizedAffinity -0.939970374
REMARK minimizedRMSD -1
REMARK  0 active torsions:
REMARK  status: ('A' for Active; 'I' for Inactive)
ROOT
ATOM      1  C4' PXY d   1       3.322  -4.778  -0.464  0.00  0.00     0.077 C 
ATOM      2  C1' PXY d   1      -0.007  -0.277   0.979  0.00  0.00     0.077 C 
ATOM      3  C1  PXY d   1       0.857  -1.466   0.605  0.00  0.00    -0.082 A 
ATOM      4  C2  PXY d   1       2.170  -1.323   0.533  0.00  0.00     0.003 A 
ATOM      5  C3  PXY d   1       2.964  -2.379   0.165  0.00  0.00     0.003 A 
ATOM      6  C4  PXY d   1       2.411  -3.608  -0.081  0.00  0.00    -0.082 A 
ATOM      7  C5  PXY d   1       1.073  -3.764   0.001  0.00  0.00     0.003 A 
ATOM      8  C6  PXY d   1       0.282  -2.669   0.336  0.00  0.00     0.003 A 
ENDROOT
TORSDOF 0
ENDMDL
