MODEL 1
REMARK minimizedAffinity 8.29580212
REMARK minimizedRMSD -1
REMARK  0 active torsions:
REMARK  status: ('A' for Active; 'I' for Inactive)
ROOT
ATOM      1  C4' PXY d   1       5.935   5.988  -0.612  0.00  0.00     0.077 C 
ATOM      2  C1' PXY d   1       2.989   1.582  -2.919  0.00  0.00     0.077 C 
ATOM      3  C1  PXY d   1       3.750   2.743  -2.312  0.00  0.00    -0.082 A 
ATOM      4  C2  PXY d   1       5.014   2.945  -2.649  0.00  0.00     0.003 A 
ATOM      5  C3  PXY d   1       5.727   3.972  -2.085  0.00  0.00     0.003 A 
ATOM      6  C4  PXY d   1       5.124   4.833  -1.207  0.00  0.00    -0.082 A 
ATOM      7  C5  PXY d   1       3.833   4.640  -0.866  0.00  0.00     0.003 A 
ATOM      8  C6  PXY d   1       3.139   3.567  -1.418  0.00  0.00     0.003 A 
ENDROOT
TORSDOF 0
ENDMDL
