MODEL 1
REMARK minimizedAffinity 2.31520557
REMARK minimizedRMSD -1
REMARK  0 active torsions:
REMARK  status: ('A' for Active; 'I' for Inactive)
ROOT
ATOM      1  C4' PXY d   1      -2.134  -2.179   1.047  0.00  0.00     0.077 C 
ATOM      2  C1' PXY d   1       3.274  -0.765  -0.426  0.00  0.00     0.077 C 
ATOM      3  C1  PXY d   1       1.855  -1.144  -0.050  0.00  0.00    -0.082 A 
ATOM      4  C2  PXY d   1       1.131  -0.318   0.688  0.00  0.00     0.003 A 
ATOM      5  C3  PXY d   1      -0.143  -0.659   1.064  0.00  0.00     0.003 A 
ATOM      6  C4  PXY d   1      -0.700  -1.834   0.635  0.00  0.00    -0.082 A 
ATOM      7  C5  PXY d   1       0.028  -2.677  -0.127  0.00  0.00     0.003 A 
ATOM      8  C6  PXY d   1       1.333  -2.331  -0.464  0.00  0.00     0.003 A 
ENDROOT
TORSDOF 0
ENDMDL
