MODEL 1
REMARK minimizedAffinity -5.71428871
REMARK minimizedRMSD -1
REMARK  0 active torsions:
REMARK  status: ('A' for Active; 'I' for Inactive)
ROOT
ATOM      1  C4' PXY d   1       3.850  -4.179  -0.313  0.00  0.00     0.077 C 
ATOM      2  C1' PXY d   1      -0.249  -0.364   1.121  0.00  0.00     0.077 C 
ATOM      3  C1  PXY d   1       0.818  -1.374   0.748  0.00  0.00    -0.082 A 
ATOM      4  C2  PXY d   1       2.090  -1.012   0.749  0.00  0.00     0.003 A 
ATOM      5  C3  PXY d   1       3.066  -1.904   0.384  0.00  0.00     0.003 A 
ATOM      6  C4  PXY d   1       2.740  -3.195   0.065  0.00  0.00    -0.082 A 
ATOM      7  C5  PXY d   1       1.444  -3.575   0.073  0.00  0.00     0.003 A 
ATOM      8  C6  PXY d   1       0.466  -2.644   0.406  0.00  0.00     0.003 A 
ENDROOT
TORSDOF 0
ENDMDL
