MODEL 1
REMARK minimizedAffinity 0.320471376
REMARK minimizedRMSD -1
REMARK  0 active torsions:
REMARK  status: ('A' for Active; 'I' for Inactive)
ROOT
ATOM      1  C4' PXY d   1      -1.692   0.288   2.240  0.00  0.00     0.077 C 
ATOM      2  C1' PXY d   1       1.745  -3.182  -0.853  0.00  0.00     0.077 C 
ATOM      3  C1  PXY d   1       0.854  -2.264  -0.039  0.00  0.00    -0.082 A 
ATOM      4  C2  PXY d   1      -0.270  -2.734   0.478  0.00  0.00     0.003 A 
ATOM      5  C3  PXY d   1      -1.103  -1.910   1.190  0.00  0.00     0.003 A 
ATOM      6  C4  PXY d   1      -0.757  -0.605   1.420  0.00  0.00    -0.082 A 
ATOM      7  C5  PXY d   1       0.393  -0.121   0.904  0.00  0.00     0.003 A 
ATOM      8  C6  PXY d   1       1.205  -0.963   0.150  0.00  0.00     0.003 A 
ENDROOT
TORSDOF 0
ENDMDL
