MODEL 1
REMARK minimizedAffinity -1.84647775
REMARK minimizedRMSD -1
REMARK  0 active torsions:
REMARK  status: ('A' for Active; 'I' for Inactive)
ROOT
ATOM      1  C4' PXY d   1       5.628   4.031  -2.176  0.00  0.00     0.077 C 
ATOM      2  C1' PXY d   1       2.201  -0.045  -4.427  0.00  0.00     0.077 C 
ATOM      3  C1  PXY d   1       3.098   1.031  -3.847  0.00  0.00    -0.082 A 
ATOM      4  C2  PXY d   1       3.975   0.716  -2.908  0.00  0.00     0.003 A 
ATOM      5  C3  PXY d   1       4.772   1.682  -2.351  0.00  0.00     0.003 A 
ATOM      6  C4  PXY d   1       4.708   2.975  -2.797  0.00  0.00    -0.082 A 
ATOM      7  C5  PXY d   1       3.823   3.303  -3.762  0.00  0.00     0.003 A 
ATOM      8  C6  PXY d   1       2.995   2.315  -4.286  0.00  0.00     0.003 A 
ENDROOT
TORSDOF 0
ENDMDL
