MODEL 1
REMARK minimizedAffinity -1.96954942
REMARK minimizedRMSD -1
REMARK  0 active torsions:
REMARK  status: ('A' for Active; 'I' for Inactive)
ROOT
ATOM      1  C4' PXY d   1       3.497  -4.286  -0.644  0.00  0.00     0.077 C 
ATOM      2  C1' PXY d   1      -0.529  -0.379   0.750  0.00  0.00     0.077 C 
ATOM      3  C1  PXY d   1       0.520  -1.413   0.389  0.00  0.00    -0.082 A 
ATOM      4  C2  PXY d   1       1.783  -1.043   0.251  0.00  0.00     0.003 A 
ATOM      5  C3  PXY d   1       2.738  -1.960  -0.106  0.00  0.00     0.003 A 
ATOM      6  C4  PXY d   1       2.406  -3.278  -0.272  0.00  0.00    -0.082 A 
ATOM      7  C5  PXY d   1       1.122  -3.664  -0.122  0.00  0.00     0.003 A 
ATOM      8  C6  PXY d   1       0.160  -2.711   0.200  0.00  0.00     0.003 A 
ENDROOT
TORSDOF 0
ENDMDL
