MODEL 1
REMARK minimizedAffinity 3.96166039
REMARK minimizedRMSD -1
REMARK  0 active torsions:
REMARK  status: ('A' for Active; 'I' for Inactive)
ROOT
ATOM      1  C4' PXY d   1       2.570  -0.804   0.416  0.00  0.00     0.077 C 
ATOM      2  C1' PXY d   1      -2.682  -3.220   0.499  0.00  0.00     0.077 C 
ATOM      3  C1  PXY d   1      -1.310  -2.575   0.481  0.00  0.00    -0.082 A 
ATOM      4  C2  PXY d   1      -0.347  -3.106  -0.255  0.00  0.00     0.003 A 
ATOM      5  C3  PXY d   1       0.908  -2.554  -0.258  0.00  0.00     0.003 A 
ATOM      6  C4  PXY d   1       1.167  -1.416   0.458  0.00  0.00    -0.082 A 
ATOM      7  C5  PXY d   1       0.187  -0.862   1.202  0.00  0.00     0.003 A 
ATOM      8  C6  PXY d   1      -1.070  -1.461   1.224  0.00  0.00     0.003 A 
ENDROOT
TORSDOF 0
ENDMDL
