MODEL 1
REMARK minimizedAffinity 2.99042797
REMARK minimizedRMSD -1
REMARK  0 active torsions:
REMARK  status: ('A' for Active; 'I' for Inactive)
ROOT
ATOM      1  C4' PXY d   1      -1.550  -0.596   0.612  0.00  0.00     0.077 C 
ATOM      2  C1' PXY d   1       4.153  -1.252   1.289  0.00  0.00     0.077 C 
ATOM      3  C1  PXY d   1       2.658  -1.086   1.101  0.00  0.00    -0.082 A 
ATOM      4  C2  PXY d   1       2.028  -0.094   1.708  0.00  0.00     0.003 A 
ATOM      5  C3  PXY d   1       0.671   0.051   1.574  0.00  0.00     0.003 A 
ATOM      6  C4  PXY d   1      -0.040  -0.796   0.767  0.00  0.00    -0.082 A 
ATOM      7  C5  PXY d   1       0.598  -1.804   0.135  0.00  0.00     0.003 A 
ATOM      8  C6  PXY d   1       1.969  -1.959   0.317  0.00  0.00     0.003 A 
ENDROOT
TORSDOF 0
ENDMDL
