MODEL 1
REMARK minimizedAffinity -1.9284972
REMARK minimizedRMSD -1
REMARK  0 active torsions:
REMARK  status: ('A' for Active; 'I' for Inactive)
ROOT
ATOM      1  C4' PXY d   1       2.815  -3.397  -0.439  0.00  0.00     0.077 C 
ATOM      2  C1' PXY d   1      -1.439   0.193   1.120  0.00  0.00     0.077 C 
ATOM      3  C1  PXY d   1      -0.315  -0.739   0.710  0.00  0.00    -0.082 A 
ATOM      4  C2  PXY d   1      -0.602  -1.916   0.179  0.00  0.00     0.003 A 
ATOM      5  C3  PXY d   1       0.401  -2.784  -0.168  0.00  0.00     0.003 A 
ATOM      6  C4  PXY d   1       1.713  -2.421  -0.019  0.00  0.00    -0.082 A 
ATOM      7  C5  PXY d   1       2.014  -1.217   0.512  0.00  0.00     0.003 A 
ATOM      8  C6  PXY d   1       0.981  -0.367   0.896  0.00  0.00     0.003 A 
ENDROOT
TORSDOF 0
ENDMDL
