MODEL 1
REMARK minimizedAffinity 0.694794059
REMARK minimizedRMSD -1
REMARK  0 active torsions:
REMARK  status: ('A' for Active; 'I' for Inactive)
ROOT
ATOM      1  C4' PXY d   1      -4.539   1.409   0.301  0.00  0.00     0.077 C 
ATOM      2  C1' PXY d   1       0.351  -1.245   1.870  0.00  0.00     0.077 C 
ATOM      3  C1  PXY d   1      -0.931  -0.542   1.469  0.00  0.00    -0.082 A 
ATOM      4  C2  PXY d   1      -1.784  -1.148   0.660  0.00  0.00     0.003 A 
ATOM      5  C3  PXY d   1      -2.933  -0.514   0.262  0.00  0.00     0.003 A 
ATOM      6  C4  PXY d   1      -3.237   0.733   0.739  0.00  0.00    -0.082 A 
ATOM      7  C5  PXY d   1      -2.377   1.354   1.574  0.00  0.00     0.003 A 
ATOM      8  C6  PXY d   1      -1.196   0.709   1.933  0.00  0.00     0.003 A 
ENDROOT
TORSDOF 0
ENDMDL
