MODEL 1
REMARK minimizedAffinity 4.40822792
REMARK minimizedRMSD -1
REMARK  0 active torsions:
REMARK  status: ('A' for Active; 'I' for Inactive)
ROOT
ATOM      1  C4' PXY d   1       3.158  -1.148  -0.208  0.00  0.00     0.077 C 
ATOM      2  C1' PXY d   1      -2.467  -1.489   1.082  0.00  0.00     0.077 C 
ATOM      3  C1  PXY d   1      -0.991  -1.387   0.748  0.00  0.00    -0.082 A 
ATOM      4  C2  PXY d   1      -0.478  -2.166  -0.189  0.00  0.00     0.003 A 
ATOM      5  C3  PXY d   1       0.861  -2.110  -0.481  0.00  0.00     0.003 A 
ATOM      6  C4  PXY d   1       1.672  -1.210   0.156  0.00  0.00    -0.082 A 
ATOM      7  C5  PXY d   1       1.153  -0.403   1.106  0.00  0.00     0.003 A 
ATOM      8  C6  PXY d   1      -0.200  -0.505   1.417  0.00  0.00     0.003 A 
ENDROOT
TORSDOF 0
ENDMDL
