MODEL 1
REMARK minimizedAffinity -2.47332978
REMARK minimizedRMSD -1
REMARK  0 active torsions:
REMARK  status: ('A' for Active; 'I' for Inactive)
ROOT
ATOM      1  C4' PXY d   1       2.389  -3.500  -0.533  0.00  0.00     0.077 C 
ATOM      2  C1' PXY d   1      -1.832  -0.033   1.356  0.00  0.00     0.077 C 
ATOM      3  C1  PXY d   1      -0.719  -0.932   0.857  0.00  0.00    -0.082 A 
ATOM      4  C2  PXY d   1      -0.982  -2.192   0.550  0.00  0.00     0.003 A 
ATOM      5  C3  PXY d   1       0.019  -3.027   0.128  0.00  0.00     0.003 A 
ATOM      6  C4  PXY d   1       1.294  -2.554  -0.034  0.00  0.00    -0.082 A 
ATOM      7  C5  PXY d   1       1.569  -1.267   0.266  0.00  0.00     0.003 A 
ATOM      8  C6  PXY d   1       0.546  -0.446   0.733  0.00  0.00     0.003 A 
ENDROOT
TORSDOF 0
ENDMDL
