MODEL 1
REMARK minimizedAffinity -2.50343704
REMARK minimizedRMSD -1
REMARK  0 active torsions:
REMARK  status: ('A' for Active; 'I' for Inactive)
ROOT
ATOM      1  C4' PXY d   1       0.395  -3.708  -1.407  0.00  0.00     0.077 C 
ATOM      2  C1' PXY d   1       1.504   0.708   2.155  0.00  0.00     0.077 C 
ATOM      3  C1  PXY d   1       1.203  -0.454   1.229  0.00  0.00    -0.082 A 
ATOM      4  C2  PXY d   1       2.141  -0.894   0.406  0.00  0.00     0.003 A 
ATOM      5  C3  PXY d   1       1.877  -1.923  -0.461  0.00  0.00     0.003 A 
ATOM      6  C4  PXY d   1       0.657  -2.543  -0.448  0.00  0.00    -0.082 A 
ATOM      7  C5  PXY d   1      -0.302  -2.108   0.397  0.00  0.00     0.003 A 
ATOM      8  C6  PXY d   1      -0.027  -1.035   1.240  0.00  0.00     0.003 A 
ENDROOT
TORSDOF 0
ENDMDL
