MODEL 1
REMARK minimizedAffinity -0.1195006
REMARK minimizedRMSD -1
REMARK  0 active torsions:
REMARK  status: ('A' for Active; 'I' for Inactive)
ROOT
ATOM      1  C4' PXY d   1       2.796  -3.866  -0.552  0.00  0.00     0.077 C 
ATOM      2  C1' PXY d   1      -0.829   0.311   1.128  0.00  0.00     0.077 C 
ATOM      3  C1  PXY d   1       0.130  -0.775   0.683  0.00  0.00    -0.082 A 
ATOM      4  C2  PXY d   1      -0.326  -1.996   0.451  0.00  0.00     0.003 A 
ATOM      5  C3  PXY d   1       0.533  -2.998   0.079  0.00  0.00     0.003 A 
ATOM      6  C4  PXY d   1       1.863  -2.736  -0.110  0.00  0.00    -0.082 A 
ATOM      7  C5  PXY d   1       2.334  -1.491   0.114  0.00  0.00     0.003 A 
ATOM      8  C6  PXY d   1       1.453  -0.497   0.531  0.00  0.00     0.003 A 
ENDROOT
TORSDOF 0
ENDMDL
