MODEL 1
REMARK minimizedAffinity 2.91698813
REMARK minimizedRMSD -1
REMARK  0 active torsions:
REMARK  status: ('A' for Active; 'I' for Inactive)
ROOT
ATOM      1  C4' PXY d   1       0.419  -3.787  -0.994  0.00  0.00     0.077 C 
ATOM      2  C1' PXY d   1       1.369   1.025   2.066  0.00  0.00     0.077 C 
ATOM      3  C1  PXY d   1       1.110  -0.240   1.271  0.00  0.00    -0.082 A 
ATOM      4  C2  PXY d   1       2.108  -0.828   0.632  0.00  0.00     0.003 A 
ATOM      5  C3  PXY d   1       1.885  -1.954  -0.118  0.00  0.00     0.003 A 
ATOM      6  C4  PXY d   1       0.637  -2.514  -0.172  0.00  0.00    -0.082 A 
ATOM      7  C5  PXY d   1      -0.385  -1.926   0.486  0.00  0.00     0.003 A 
ATOM      8  C6  PXY d   1      -0.146  -0.760   1.208  0.00  0.00     0.003 A 
ENDROOT
TORSDOF 0
ENDMDL
