MODEL 1
REMARK minimizedAffinity 0.161008865
REMARK minimizedRMSD -1
REMARK  0 active torsions:
REMARK  status: ('A' for Active; 'I' for Inactive)
ROOT
ATOM      1  C4' PXY d   1      -2.156   1.344   2.482  0.00  0.00     0.077 C 
ATOM      2  C1' PXY d   1       1.075  -2.987   0.429  0.00  0.00     0.077 C 
ATOM      3  C1  PXY d   1       0.221  -1.850   0.956  0.00  0.00    -0.082 A 
ATOM      4  C2  PXY d   1       0.647  -1.135   1.985  0.00  0.00     0.003 A 
ATOM      5  C3  PXY d   1      -0.127  -0.124   2.494  0.00  0.00     0.003 A 
ATOM      6  C4  PXY d   1      -1.324   0.193   1.911  0.00  0.00    -0.082 A 
ATOM      7  C5  PXY d   1      -1.760  -0.524   0.854  0.00  0.00     0.003 A 
ATOM      8  C6  PXY d   1      -0.979  -1.573   0.377  0.00  0.00     0.003 A 
ENDROOT
TORSDOF 0
ENDMDL
