MODEL 1
REMARK minimizedAffinity 2.9453876
REMARK minimizedRMSD -1
REMARK  0 active torsions:
REMARK  status: ('A' for Active; 'I' for Inactive)
ROOT
ATOM      1  C4' PXY d   1       4.334  -0.781   0.975  0.00  0.00     0.077 C 
ATOM      2  C1' PXY d   1       0.440  -4.667  -0.801  0.00  0.00     0.077 C 
ATOM      3  C1  PXY d   1       1.452  -3.639  -0.336  0.00  0.00    -0.082 A 
ATOM      4  C2  PXY d   1       2.744  -3.869  -0.507  0.00  0.00     0.003 A 
ATOM      5  C3  PXY d   1       3.674  -2.964  -0.064  0.00  0.00     0.003 A 
ATOM      6  C4  PXY d   1       3.276  -1.787   0.512  0.00  0.00    -0.082 A 
ATOM      7  C5  PXY d   1       1.960  -1.540   0.681  0.00  0.00     0.003 A 
ATOM      8  C6  PXY d   1       1.033  -2.490   0.261  0.00  0.00     0.003 A 
ENDROOT
TORSDOF 0
ENDMDL
