MODEL 1
REMARK minimizedAffinity -1.74355841
REMARK minimizedRMSD -1
REMARK  0 active torsions:
REMARK  status: ('A' for Active; 'I' for Inactive)
ROOT
ATOM      1  C   UNL d   1       0.506  -0.585  -1.661  0.00  0.00     0.023 A 
ATOM      2  C1  UNL d   1       1.559  -1.309  -1.101  0.00  0.00     0.003 A 
ATOM      3  C2  UNL d   1       1.575  -1.573   0.270  0.00  0.00     0.048 A 
ATOM      4  C3  UNL d   1       0.535  -1.112   1.076  0.00  0.00     0.023 A 
ATOM      5  C4  UNL d   1      -0.522  -0.388   0.520  0.00  0.00     0.048 A 
ATOM      6  C5  UNL d   1      -0.533  -0.125  -0.851  0.00  0.00     0.003 A 
ATOM      7  I   UNL d   1       0.556  -1.504   3.117  0.00  0.00    -0.146 I 
ENDROOT
TORSDOF 0
ENDMDL
