MODEL 1
REMARK minimizedAffinity 7.27161264
REMARK minimizedRMSD -1
REMARK  0 active torsions:
REMARK  status: ('A' for Active; 'I' for Inactive)
ROOT
ATOM      1  C   UNL d   1      -2.428  -0.198   1.880  0.00  0.00     0.023 A 
ATOM      2  C1  UNL d   1      -2.359  -0.032   0.497  0.00  0.00     0.003 A 
ATOM      3  C2  UNL d   1      -1.143  -0.202  -0.168  0.00  0.00     0.048 A 
ATOM      4  C3  UNL d   1      -0.000  -0.540   0.557  0.00  0.00     0.023 A 
ATOM      5  C4  UNL d   1      -0.065  -0.707   1.941  0.00  0.00     0.048 A 
ATOM      6  C5  UNL d   1      -1.283  -0.535   2.601  0.00  0.00     0.003 A 
ATOM      7  I   UNL d   1       1.811  -0.794  -0.430  0.00  0.00    -0.146 I 
ENDROOT
TORSDOF 0
ENDMDL
