MODEL 1
REMARK minimizedAffinity 0.707890332
REMARK minimizedRMSD -1
REMARK  0 active torsions:
REMARK  status: ('A' for Active; 'I' for Inactive)
ROOT
ATOM      1  C   UNL d   1      -0.870   0.186   0.898  0.00  0.00     0.023 A 
ATOM      2  C1  UNL d   1      -2.260   0.073   0.893  0.00  0.00     0.003 A 
ATOM      3  C2  UNL d   1      -2.891  -0.838   1.743  0.00  0.00     0.048 A 
ATOM      4  C3  UNL d   1      -2.126  -1.632   2.596  0.00  0.00     0.023 A 
ATOM      5  C4  UNL d   1      -0.734  -1.522   2.605  0.00  0.00     0.048 A 
ATOM      6  C5  UNL d   1      -0.108  -0.611   1.752  0.00  0.00     0.003 A 
ATOM      7  I   UNL d   1      -3.063  -2.988   3.862  0.00  0.00    -0.146 I 
ENDROOT
TORSDOF 0
ENDMDL
