MODEL 1
REMARK minimizedAffinity 2.13418698
REMARK minimizedRMSD -1
REMARK  0 active torsions:
REMARK  status: ('A' for Active; 'I' for Inactive)
ROOT
ATOM      1  C   UNL d   1      -2.254  -0.207   1.577  0.00  0.00     0.023 A 
ATOM      2  C1  UNL d   1      -1.805  -0.261   0.258  0.00  0.00     0.003 A 
ATOM      3  C2  UNL d   1      -0.516  -0.716  -0.025  0.00  0.00     0.048 A 
ATOM      4  C3  UNL d   1       0.319  -1.117   1.017  0.00  0.00     0.023 A 
ATOM      5  C4  UNL d   1      -0.126  -1.066   2.339  0.00  0.00     0.048 A 
ATOM      6  C5  UNL d   1      -1.415  -0.610   2.617  0.00  0.00     0.003 A 
ATOM      7  I   UNL d   1       2.239  -1.796   0.600  0.00  0.00    -0.146 I 
ENDROOT
TORSDOF 0
ENDMDL
