MODEL 1
REMARK minimizedAffinity -1.42473412
REMARK minimizedRMSD -1
REMARK  0 active torsions:
REMARK  status: ('A' for Active; 'I' for Inactive)
ROOT
ATOM      1  C   UNL d   1      -2.530   3.547  -3.631  0.00  0.00     0.023 A 
ATOM      2  C1  UNL d   1      -1.150   3.371  -3.531  0.00  0.00     0.003 A 
ATOM      3  C2  UNL d   1      -0.632   2.172  -3.037  0.00  0.00     0.048 A 
ATOM      4  C3  UNL d   1      -1.500   1.153  -2.645  0.00  0.00     0.023 A 
ATOM      5  C4  UNL d   1      -2.882   1.325  -2.744  0.00  0.00     0.048 A 
ATOM      6  C5  UNL d   1      -3.395   2.526  -3.237  0.00  0.00     0.003 A 
ATOM      7  I   UNL d   1      -0.731  -0.632  -1.910  0.00  0.00    -0.146 I 
ENDROOT
TORSDOF 0
ENDMDL
