MODEL 1
REMARK minimizedAffinity 7.58504963
REMARK minimizedRMSD -1
REMARK  0 active torsions:
REMARK  status: ('A' for Active; 'I' for Inactive)
ROOT
ATOM      1  C   UNL d   1      -1.602  -1.224   2.867  0.00  0.00     0.023 A 
ATOM      2  C1  UNL d   1      -1.990  -0.329   1.870  0.00  0.00     0.003 A 
ATOM      3  C2  UNL d   1      -1.116  -0.023   0.825  0.00  0.00     0.048 A 
ATOM      4  C3  UNL d   1       0.145  -0.618   0.783  0.00  0.00     0.023 A 
ATOM      5  C4  UNL d   1       0.537  -1.515   1.778  0.00  0.00     0.048 A 
ATOM      6  C5  UNL d   1      -0.340  -1.816   2.821  0.00  0.00     0.003 A 
ATOM      7  I   UNL d   1       1.448  -0.165  -0.772  0.00  0.00    -0.146 I 
ENDROOT
TORSDOF 0
ENDMDL
