MODEL 1
REMARK minimizedAffinity 6.73585558
REMARK minimizedRMSD -1
REMARK  0 active torsions:
REMARK  status: ('A' for Active; 'I' for Inactive)
ROOT
ATOM      1  C   UNL d   1       2.435  -0.984   1.487  0.00  0.00     0.023 A 
ATOM      2  C1  UNL d   1       1.473  -0.841   2.488  0.00  0.00     0.003 A 
ATOM      3  C2  UNL d   1       0.134  -0.639   2.147  0.00  0.00     0.048 A 
ATOM      4  C3  UNL d   1      -0.236  -0.583   0.804  0.00  0.00     0.023 A 
ATOM      5  C4  UNL d   1       0.723  -0.726  -0.201  0.00  0.00     0.048 A 
ATOM      6  C5  UNL d   1       2.060  -0.927   0.145  0.00  0.00     0.003 A 
ATOM      7  I   UNL d   1      -2.229  -0.283   0.294  0.00  0.00    -0.146 I 
ENDROOT
TORSDOF 0
ENDMDL
