MODEL 1
REMARK minimizedAffinity 9.86685467
REMARK minimizedRMSD -1
REMARK  0 active torsions:
REMARK  status: ('A' for Active; 'I' for Inactive)
ROOT
ATOM      1  C   UNL d   1       3.968  -4.256  -0.420  0.00  0.00     0.078 C 
ATOM      2  C1  UNL d   1       3.086  -3.133  -0.878  0.00  0.00    -0.077 A 
ATOM      3  C2  UNL d   1       1.981  -3.375  -1.702  0.00  0.00    -0.001 A 
ATOM      4  C3  UNL d   1       1.174  -2.319  -2.128  0.00  0.00     0.003 A 
ATOM      5  C4  UNL d   1       1.464  -1.014  -1.736  0.00  0.00    -0.005 A 
ATOM      6  C5  UNL d   1       2.563  -0.763  -0.917  0.00  0.00     0.003 A 
ATOM      7  C6  UNL d   1       3.372  -1.818  -0.490  0.00  0.00    -0.001 A 
ENDROOT
TORSDOF 0
ENDMDL
