MODEL 1
REMARK minimizedAffinity 9.18568325
REMARK minimizedRMSD -1
REMARK  0 active torsions:
REMARK  status: ('A' for Active; 'I' for Inactive)
ROOT
ATOM      1  C   UNL d   1       4.136  -4.386  -0.272  0.00  0.00     0.078 C 
ATOM      2  C1  UNL d   1       3.178  -3.451  -0.948  0.00  0.00    -0.077 A 
ATOM      3  C2  UNL d   1       2.502  -3.830  -2.114  0.00  0.00    -0.001 A 
ATOM      4  C3  UNL d   1       1.620  -2.946  -2.737  0.00  0.00     0.003 A 
ATOM      5  C4  UNL d   1       1.407  -1.677  -2.203  0.00  0.00    -0.005 A 
ATOM      6  C5  UNL d   1       2.077  -1.290  -1.044  0.00  0.00     0.003 A 
ATOM      7  C6  UNL d   1       2.960  -2.172  -0.419  0.00  0.00    -0.001 A 
ENDROOT
TORSDOF 0
ENDMDL
