MODEL 1
REMARK minimizedAffinity -3.85165358
REMARK minimizedRMSD -1
REMARK  0 active torsions:
REMARK  status: ('A' for Active; 'I' for Inactive)
ROOT
ATOM      1  C   UNL d   1      -5.246  -5.952   0.008  0.00  0.00     0.078 C 
ATOM      2  C1  UNL d   1      -5.317  -5.307   1.360  0.00  0.00    -0.077 A 
ATOM      3  C2  UNL d   1      -4.800  -5.948   2.492  0.00  0.00    -0.001 A 
ATOM      4  C3  UNL d   1      -4.882  -5.341   3.746  0.00  0.00     0.003 A 
ATOM      5  C4  UNL d   1      -5.481  -4.090   3.880  0.00  0.00    -0.005 A 
ATOM      6  C5  UNL d   1      -6.000  -3.445   2.759  0.00  0.00     0.003 A 
ATOM      7  C6  UNL d   1      -5.919  -4.051   1.505  0.00  0.00    -0.001 A 
ENDROOT
TORSDOF 0
ENDMDL
