MODEL 1
REMARK minimizedAffinity 13.4540205
REMARK minimizedRMSD -1
REMARK  0 active torsions:
REMARK  status: ('A' for Active; 'I' for Inactive)
ROOT
ATOM      1  C   UNL d   1      -3.147   1.814   5.457  0.00  0.00     0.078 C 
ATOM      2  C1  UNL d   1      -3.256   0.944   4.241  0.00  0.00    -0.077 A 
ATOM      3  C2  UNL d   1      -3.690  -0.384   4.340  0.00  0.00    -0.001 A 
ATOM      4  C3  UNL d   1      -3.777  -1.185   3.200  0.00  0.00     0.003 A 
ATOM      5  C4  UNL d   1      -3.431  -0.668   1.953  0.00  0.00    -0.005 A 
ATOM      6  C5  UNL d   1      -2.996   0.651   1.845  0.00  0.00     0.003 A 
ATOM      7  C6  UNL d   1      -2.908   1.454   2.984  0.00  0.00    -0.001 A 
ENDROOT
TORSDOF 0
ENDMDL
