MODEL 1
REMARK minimizedAffinity 9.53151894
REMARK minimizedRMSD -1
REMARK  0 active torsions:
REMARK  status: ('A' for Active; 'I' for Inactive)
ROOT
ATOM      1  C   UNL d   1       3.706  -3.423  -0.232  0.00  0.00     0.078 C 
ATOM      2  C1  UNL d   1       2.920  -2.321  -0.879  0.00  0.00    -0.077 A 
ATOM      3  C2  UNL d   1       2.148  -2.561  -2.021  0.00  0.00    -0.001 A 
ATOM      4  C3  UNL d   1       1.429  -1.524  -2.618  0.00  0.00     0.003 A 
ATOM      5  C4  UNL d   1       1.478  -0.239  -2.080  0.00  0.00    -0.005 A 
ATOM      6  C5  UNL d   1       2.246   0.009  -0.944  0.00  0.00     0.003 A 
ATOM      7  C6  UNL d   1       2.965  -1.027  -0.346  0.00  0.00    -0.001 A 
ENDROOT
TORSDOF 0
ENDMDL
