MODEL 1
REMARK minimizedAffinity 6.63631964
REMARK minimizedRMSD -1
REMARK  0 active torsions:
REMARK  status: ('A' for Active; 'I' for Inactive)
ROOT
ATOM      1  C   UNL d   1       0.302   1.392   4.840  0.00  0.00     0.078 C 
ATOM      2  C1  UNL d   1      -0.853   1.008   3.964  0.00  0.00    -0.077 A 
ATOM      3  C2  UNL d   1      -0.746  -0.048   3.051  0.00  0.00    -0.001 A 
ATOM      4  C3  UNL d   1      -1.827  -0.388   2.235  0.00  0.00     0.003 A 
ATOM      5  C4  UNL d   1      -3.021   0.324   2.323  0.00  0.00    -0.005 A 
ATOM      6  C5  UNL d   1      -3.136   1.379   3.227  0.00  0.00     0.003 A 
ATOM      7  C6  UNL d   1      -2.057   1.720   4.044  0.00  0.00    -0.001 A 
ENDROOT
TORSDOF 0
ENDMDL
