MODEL 1
REMARK minimizedAffinity 4.92702723
REMARK minimizedRMSD -1
REMARK  0 active torsions:
REMARK  status: ('A' for Active; 'I' for Inactive)
ROOT
ATOM      1  C   UNL d   1      -3.113   1.771   3.768  0.00  0.00     0.078 C 
ATOM      2  C1  UNL d   1      -3.533   0.334   3.678  0.00  0.00    -0.077 A 
ATOM      3  C2  UNL d   1      -3.933  -0.225   2.458  0.00  0.00    -0.001 A 
ATOM      4  C3  UNL d   1      -4.331  -1.561   2.391  0.00  0.00     0.003 A 
ATOM      5  C4  UNL d   1      -4.334  -2.349   3.540  0.00  0.00    -0.005 A 
ATOM      6  C5  UNL d   1      -3.940  -1.801   4.759  0.00  0.00     0.003 A 
ATOM      7  C6  UNL d   1      -3.541  -0.465   4.828  0.00  0.00    -0.001 A 
ENDROOT
TORSDOF 0
ENDMDL
