MODEL 1
REMARK minimizedAffinity 2.72716141
REMARK minimizedRMSD -1
REMARK  0 active torsions:
REMARK  status: ('A' for Active; 'I' for Inactive)
ROOT
ATOM      1  C   UNL d   1       6.000  -4.510  -4.835  0.00  0.00     0.078 C 
ATOM      2  C1  UNL d   1       4.704  -4.374  -4.092  0.00  0.00    -0.077 A 
ATOM      3  C2  UNL d   1       3.606  -3.727  -4.671  0.00  0.00    -0.001 A 
ATOM      4  C3  UNL d   1       2.409  -3.599  -3.964  0.00  0.00     0.003 A 
ATOM      5  C4  UNL d   1       2.300  -4.114  -2.674  0.00  0.00    -0.005 A 
ATOM      6  C5  UNL d   1       3.388  -4.758  -2.089  0.00  0.00     0.003 A 
ATOM      7  C6  UNL d   1       4.586  -4.887  -2.794  0.00  0.00    -0.001 A 
ENDROOT
TORSDOF 0
ENDMDL
