MODEL 1
REMARK minimizedAffinity 8.50980568
REMARK minimizedRMSD -1
REMARK  0 active torsions:
REMARK  status: ('A' for Active; 'I' for Inactive)
ROOT
ATOM      1  C   UNL d   1       2.179  -4.593  -3.125  0.00  0.00     0.078 C 
ATOM      2  C1  UNL d   1       3.504  -4.836  -2.466  0.00  0.00    -0.077 A 
ATOM      3  C2  UNL d   1       3.750  -4.402  -1.158  0.00  0.00    -0.001 A 
ATOM      4  C3  UNL d   1       4.991  -4.627  -0.561  0.00  0.00     0.003 A 
ATOM      5  C4  UNL d   1       5.997  -5.286  -1.265  0.00  0.00    -0.005 A 
ATOM      6  C5  UNL d   1       5.763  -5.719  -2.568  0.00  0.00     0.003 A 
ATOM      7  C6  UNL d   1       4.522  -5.495  -3.167  0.00  0.00    -0.001 A 
ENDROOT
TORSDOF 0
ENDMDL
