MODEL 1
REMARK minimizedAffinity 10.4144974
REMARK minimizedRMSD -1
REMARK  0 active torsions:
REMARK  status: ('A' for Active; 'I' for Inactive)
ROOT
ATOM      1  C   UNL d   1      -5.150   2.494   4.877  0.00  0.00     0.078 C 
ATOM      2  C1  UNL d   1      -3.671   2.246   4.888  0.00  0.00    -0.077 A 
ATOM      3  C2  UNL d   1      -3.045   1.668   5.999  0.00  0.00    -0.001 A 
ATOM      4  C3  UNL d   1      -1.666   1.452   6.000  0.00  0.00     0.003 A 
ATOM      5  C4  UNL d   1      -0.901   1.813   4.892  0.00  0.00    -0.005 A 
ATOM      6  C5  UNL d   1      -1.515   2.391   3.783  0.00  0.00     0.003 A 
ATOM      7  C6  UNL d   1      -2.893   2.607   3.780  0.00  0.00    -0.001 A 
ENDROOT
TORSDOF 0
ENDMDL
