MODEL 1
REMARK minimizedAffinity 5.17640829
REMARK minimizedRMSD -1
REMARK  0 active torsions:
REMARK  status: ('A' for Active; 'I' for Inactive)
ROOT
ATOM      1  C   UNL d   1       2.162   2.019  -0.949  0.00  0.00     0.078 C 
ATOM      2  C1  UNL d   1       1.998   0.585  -1.355  0.00  0.00    -0.077 A 
ATOM      3  C2  UNL d   1       1.661   0.242  -2.670  0.00  0.00    -0.001 A 
ATOM      4  C3  UNL d   1       1.502  -1.097  -3.031  0.00  0.00     0.003 A 
ATOM      5  C4  UNL d   1       1.675  -2.103  -2.082  0.00  0.00    -0.005 A 
ATOM      6  C5  UNL d   1       2.007  -1.771  -0.771  0.00  0.00     0.003 A 
ATOM      7  C6  UNL d   1       2.167  -0.433  -0.408  0.00  0.00    -0.001 A 
ENDROOT
TORSDOF 0
ENDMDL
