MODEL 1
REMARK minimizedAffinity -4.12692356
REMARK minimizedRMSD -1
REMARK  0 active torsions:
REMARK  status: ('A' for Active; 'I' for Inactive)
ROOT
ATOM      1  C   UNL d   1       4.138  -5.610  -2.114  0.00  0.00     0.078 C 
ATOM      2  C1  UNL d   1       4.190  -4.958  -3.463  0.00  0.00    -0.077 A 
ATOM      3  C2  UNL d   1       3.179  -4.082  -3.880  0.00  0.00    -0.001 A 
ATOM      4  C3  UNL d   1       3.235  -3.490  -5.142  0.00  0.00     0.003 A 
ATOM      5  C4  UNL d   1       4.299  -3.766  -5.999  0.00  0.00    -0.005 A 
ATOM      6  C5  UNL d   1       5.308  -4.637  -5.593  0.00  0.00     0.003 A 
ATOM      7  C6  UNL d   1       5.254  -5.231  -4.331  0.00  0.00    -0.001 A 
ENDROOT
TORSDOF 0
ENDMDL
