MODEL 1
REMARK minimizedAffinity -0.1232595
REMARK minimizedRMSD -1
REMARK  0 active torsions:
REMARK  status: ('A' for Active; 'I' for Inactive)
ROOT
ATOM      1  C   UNL d   1       2.873  -1.329  -0.272  0.00  0.00     0.078 C 
ATOM      2  C1  UNL d   1       3.161  -2.654  -0.912  0.00  0.00    -0.077 A 
ATOM      3  C2  UNL d   1       4.067  -3.552  -0.333  0.00  0.00    -0.001 A 
ATOM      4  C3  UNL d   1       4.333  -4.778  -0.945  0.00  0.00     0.003 A 
ATOM      5  C4  UNL d   1       3.699  -5.117  -2.138  0.00  0.00    -0.005 A 
ATOM      6  C5  UNL d   1       2.798  -4.230  -2.722  0.00  0.00     0.003 A 
ATOM      7  C6  UNL d   1       2.531  -3.003  -2.113  0.00  0.00    -0.001 A 
ENDROOT
TORSDOF 0
ENDMDL
