MODEL 1
REMARK minimizedAffinity -1.30359972
REMARK minimizedRMSD -1
REMARK  0 active torsions:
REMARK  status: ('A' for Active; 'I' for Inactive)
ROOT
ATOM      1  C   UNL d   1       3.327  -3.044   0.282  0.00  0.00     0.078 C 
ATOM      2  C1  UNL d   1       3.518  -3.523  -1.126  0.00  0.00    -0.077 A 
ATOM      3  C2  UNL d   1       4.588  -4.361  -1.463  0.00  0.00    -0.001 A 
ATOM      4  C3  UNL d   1       4.760  -4.791  -2.780  0.00  0.00     0.003 A 
ATOM      5  C4  UNL d   1       3.866  -4.388  -3.770  0.00  0.00    -0.005 A 
ATOM      6  C5  UNL d   1       2.800  -3.552  -3.444  0.00  0.00     0.003 A 
ATOM      7  C6  UNL d   1       2.626  -3.121  -2.128  0.00  0.00    -0.001 A 
ENDROOT
TORSDOF 0
ENDMDL
