MODEL 1
REMARK minimizedAffinity 16.0991631
REMARK minimizedRMSD -1
REMARK  0 active torsions:
REMARK  status: ('A' for Active; 'I' for Inactive)
ROOT
ATOM      1  C   UNL d   1       1.503   1.134   2.249  0.00  0.00     0.078 C 
ATOM      2  C1  UNL d   1       0.892   1.557   3.551  0.00  0.00    -0.077 A 
ATOM      3  C2  UNL d   1      -0.289   2.309   3.583  0.00  0.00    -0.001 A 
ATOM      4  C3  UNL d   1      -0.841   2.705   4.802  0.00  0.00     0.003 A 
ATOM      5  C4  UNL d   1      -0.219   2.355   5.999  0.00  0.00    -0.005 A 
ATOM      6  C5  UNL d   1       0.957   1.608   5.977  0.00  0.00     0.003 A 
ATOM      7  C6  UNL d   1       1.511   1.212   4.759  0.00  0.00    -0.001 A 
ENDROOT
TORSDOF 0
ENDMDL
