MODEL 1
REMARK minimizedAffinity -0.982719243
REMARK minimizedRMSD -1
REMARK  0 active torsions:
REMARK  status: ('A' for Active; 'I' for Inactive)
ROOT
ATOM      1  C   UNL d   1       4.424  -4.899   0.122  0.00  0.00     0.078 C 
ATOM      2  C1  UNL d   1       3.767  -4.569  -1.185  0.00  0.00    -0.077 A 
ATOM      3  C2  UNL d   1       4.418  -4.810  -2.401  0.00  0.00    -0.001 A 
ATOM      4  C3  UNL d   1       3.798  -4.489  -3.609  0.00  0.00     0.003 A 
ATOM      5  C4  UNL d   1       2.524  -3.925  -3.614  0.00  0.00    -0.005 A 
ATOM      6  C5  UNL d   1       1.868  -3.680  -2.409  0.00  0.00     0.003 A 
ATOM      7  C6  UNL d   1       2.487  -4.000  -1.199  0.00  0.00    -0.001 A 
ENDROOT
TORSDOF 0
ENDMDL
