MODEL 1
REMARK minimizedAffinity 8.36418056
REMARK minimizedRMSD -1
REMARK  0 active torsions:
REMARK  status: ('A' for Active; 'I' for Inactive)
ROOT
ATOM      1  C   UNL d   1      -1.851   1.503   2.617  0.00  0.00     0.078 C 
ATOM      2  C1  UNL d   1      -0.792   1.464   3.678  0.00  0.00    -0.077 A 
ATOM      3  C2  UNL d   1      -1.097   1.761   5.012  0.00  0.00    -0.001 A 
ATOM      4  C3  UNL d   1      -0.100   1.731   5.988  0.00  0.00     0.003 A 
ATOM      5  C4  UNL d   1       1.209   1.405   5.641  0.00  0.00    -0.005 A 
ATOM      6  C5  UNL d   1       1.523   1.109   4.316  0.00  0.00     0.003 A 
ATOM      7  C6  UNL d   1       0.527   1.139   3.338  0.00  0.00    -0.001 A 
ENDROOT
TORSDOF 0
ENDMDL
