MODEL 1
REMARK minimizedAffinity 5.81383657
REMARK minimizedRMSD -1
REMARK  0 active torsions:
REMARK  status: ('A' for Active; 'I' for Inactive)
ROOT
ATOM      1  C   UNL d   1       3.050  -3.011  -0.727  0.00  0.00     0.078 C 
ATOM      2  C1  UNL d   1       2.561  -1.920  -1.632  0.00  0.00    -0.077 A 
ATOM      3  C2  UNL d   1       2.357  -2.153  -2.998  0.00  0.00    -0.001 A 
ATOM      4  C3  UNL d   1       1.910  -1.126  -3.830  0.00  0.00     0.003 A 
ATOM      5  C4  UNL d   1       1.666   0.143  -3.307  0.00  0.00    -0.005 A 
ATOM      6  C5  UNL d   1       1.869   0.385  -1.950  0.00  0.00     0.003 A 
ATOM      7  C6  UNL d   1       2.315  -0.642  -1.116  0.00  0.00    -0.001 A 
ENDROOT
TORSDOF 0
ENDMDL
