MODEL 1
REMARK minimizedAffinity -4.56590366
REMARK minimizedRMSD -1
REMARK  0 active torsions:
REMARK  status: ('A' for Active; 'I' for Inactive)
ROOT
ATOM      1  N1  IND d   1       1.440  -1.100   0.194  0.00  0.00    -0.196 N 
ATOM      2  C2  IND d   1       0.648  -1.240  -0.911  0.00  0.00     0.054 A 
ATOM      3  C3  IND d   1      -0.572  -0.703  -0.686  0.00  0.00    -0.031 A 
ATOM      4  C4  IND d   1      -1.453   0.546   1.386  0.00  0.00     0.051 A 
ATOM      5  C5  IND d   1      -1.108   0.892   2.663  0.00  0.00    -0.031 A 
ATOM      6  C6  IND d   1       0.130   0.588   3.191  0.00  0.00     0.015 A 
ATOM      7  C7  IND d   1       1.077  -0.067   2.456  0.00  0.00    -0.016 A 
ATOM      8  C8  IND d   1       0.728  -0.426   1.162  0.00  0.00    -0.047 A 
ATOM      9  C9  IND d   1      -0.542  -0.157   0.634  0.00  0.00    -0.096 A 
ATOM     10  HN1 IND d   1       2.247  -1.386   0.272  0.00  0.00     0.298 HD
ENDROOT
TORSDOF 0
ENDMDL
