MODEL 1
REMARK minimizedAffinity -5.04049253
REMARK minimizedRMSD -1
REMARK  0 active torsions:
REMARK  status: ('A' for Active; 'I' for Inactive)
ROOT
ATOM      1  N1  IND d   1       0.770  -0.381   0.079  0.00  0.00    -0.196 N 
ATOM      2  C2  IND d   1      -0.329  -0.612  -0.700  0.00  0.00     0.054 A 
ATOM      3  C3  IND d   1      -1.454  -0.241  -0.048  0.00  0.00    -0.031 A 
ATOM      4  C4  IND d   1      -1.716   0.860   2.265  0.00  0.00     0.051 A 
ATOM      5  C5  IND d   1      -1.000   1.234   3.367  0.00  0.00    -0.031 A 
ATOM      6  C6  IND d   1       0.371   1.089   3.429  0.00  0.00     0.015 A 
ATOM      7  C7  IND d   1       1.081   0.572   2.383  0.00  0.00    -0.016 A 
ATOM      8  C8  IND d   1       0.357   0.184   1.265  0.00  0.00    -0.047 A 
ATOM      9  C9  IND d   1      -1.039   0.290   1.212  0.00  0.00    -0.096 A 
ATOM     10  HN1 IND d   1       1.584  -0.560  -0.136  0.00  0.00     0.298 HD
ENDROOT
TORSDOF 0
ENDMDL
