MODEL 1
REMARK minimizedAffinity -5.87326527
REMARK minimizedRMSD -1
REMARK  0 active torsions:
REMARK  status: ('A' for Active; 'I' for Inactive)
ROOT
ATOM      1  N1  IND d   1       0.985  -1.057   0.059  0.00  0.00    -0.196 N 
ATOM      2  C2  IND d   1       0.064  -0.728  -0.896  0.00  0.00     0.054 A 
ATOM      3  C3  IND d   1      -0.865   0.111  -0.385  0.00  0.00    -0.031 A 
ATOM      4  C4  IND d   1      -1.010   1.153   1.965  0.00  0.00     0.051 A 
ATOM      5  C5  IND d   1      -0.416   1.123   3.195  0.00  0.00    -0.031 A 
ATOM      6  C6  IND d   1       0.700   0.351   3.447  0.00  0.00     0.015 A 
ATOM      7  C7  IND d   1       1.272  -0.414   2.471  0.00  0.00    -0.016 A 
ATOM      8  C8  IND d   1       0.667  -0.391   1.222  0.00  0.00    -0.047 A 
ATOM      9  C9  IND d   1      -0.490   0.357   0.972  0.00  0.00    -0.096 A 
ATOM     10  HN1 IND d   1       1.651  -1.591  -0.049  0.00  0.00     0.298 HD
ENDROOT
TORSDOF 0
ENDMDL
