MODEL 1
REMARK minimizedAffinity -6.5348897
REMARK minimizedRMSD -1
REMARK  0 active torsions:
REMARK  status: ('A' for Active; 'I' for Inactive)
ROOT
ATOM      1  N1  IND d   1       0.594  -0.539  -0.291  0.00  0.00    -0.196 N 
ATOM      2  C2  IND d   1      -0.571  -0.429  -0.998  0.00  0.00     0.054 A 
ATOM      3  C3  IND d   1      -1.533   0.137  -0.234  0.00  0.00    -0.031 A 
ATOM      4  C4  IND d   1      -1.386   1.054   2.167  0.00  0.00     0.051 A 
ATOM      5  C5  IND d   1      -0.539   1.145   3.235  0.00  0.00    -0.031 A 
ATOM      6  C6  IND d   1       0.757   0.673   3.180  0.00  0.00     0.015 A 
ATOM      7  C7  IND d   1       1.259   0.099   2.047  0.00  0.00    -0.016 A 
ATOM      8  C8  IND d   1       0.398  -0.002   0.962  0.00  0.00    -0.047 A 
ATOM      9  C9  IND d   1      -0.930   0.437   1.026  0.00  0.00    -0.096 A 
ATOM     10  HN1 IND d   1       1.325  -0.886  -0.581  0.00  0.00     0.298 HD
ENDROOT
TORSDOF 0
ENDMDL
