MODEL 1
REMARK minimizedAffinity -3.11186194
REMARK minimizedRMSD -1
REMARK  0 active torsions:
REMARK  status: ('A' for Active; 'I' for Inactive)
ROOT
ATOM      1  N1  IND d   1       0.771   0.309  -0.265  0.00  0.00    -0.196 N 
ATOM      2  C2  IND d   1      -0.177  -0.382  -0.966  0.00  0.00     0.054 A 
ATOM      3  C3  IND d   1      -1.272  -0.588  -0.199  0.00  0.00    -0.031 A 
ATOM      4  C4  IND d   1      -1.762   0.208   2.199  0.00  0.00     0.051 A 
ATOM      5  C5  IND d   1      -1.183   0.842   3.263  0.00  0.00    -0.031 A 
ATOM      6  C6  IND d   1       0.101   1.344   3.203  0.00  0.00     0.015 A 
ATOM      7  C7  IND d   1       0.854   1.239   2.068  0.00  0.00    -0.016 A 
ATOM      8  C8  IND d   1       0.273   0.589   0.988  0.00  0.00    -0.047 A 
ATOM      9  C9  IND d   1      -1.015   0.041   1.057  0.00  0.00    -0.096 A 
ATOM     10  HN1 IND d   1       1.549   0.531  -0.558  0.00  0.00     0.298 HD
ENDROOT
TORSDOF 0
ENDMDL
