MODEL 1
REMARK minimizedAffinity -5.06173849
REMARK minimizedRMSD -1
REMARK  0 active torsions:
REMARK  status: ('A' for Active; 'I' for Inactive)
ROOT
ATOM      1  N1  IND d   1       1.132  -0.576   0.052  0.00  0.00    -0.196 N 
ATOM      2  C2  IND d   1      -0.025  -0.455  -0.667  0.00  0.00     0.054 A 
ATOM      3  C3  IND d   1      -0.983   0.136   0.080  0.00  0.00    -0.031 A 
ATOM      4  C4  IND d   1      -0.844   1.078   2.472  0.00  0.00     0.051 A 
ATOM      5  C5  IND d   1      -0.005   1.167   3.547  0.00  0.00    -0.031 A 
ATOM      6  C6  IND d   1       1.283   0.673   3.511  0.00  0.00     0.015 A 
ATOM      7  C7  IND d   1       1.785   0.077   2.388  0.00  0.00    -0.016 A 
ATOM      8  C8  IND d   1       0.934  -0.021   1.297  0.00  0.00    -0.047 A 
ATOM      9  C9  IND d   1      -0.388   0.441   1.343  0.00  0.00    -0.096 A 
ATOM     10  HN1 IND d   1       1.860  -0.938  -0.227  0.00  0.00     0.298 HD
ENDROOT
TORSDOF 0
ENDMDL
