MODEL 1
REMARK minimizedAffinity -4.455194
REMARK minimizedRMSD -1
REMARK  0 active torsions:
REMARK  status: ('A' for Active; 'I' for Inactive)
ROOT
ATOM      1  N1  IND d   1       1.786  -0.461   1.663  0.00  0.00    -0.196 N 
ATOM      2  C2  IND d   1       2.034  -0.278   2.995  0.00  0.00     0.054 A 
ATOM      3  C3  IND d   1       1.002   0.370   3.581  0.00  0.00    -0.031 A 
ATOM      4  C4  IND d   1      -1.238   1.132   2.567  0.00  0.00     0.051 A 
ATOM      5  C5  IND d   1      -1.910   1.217   1.380  0.00  0.00    -0.031 A 
ATOM      6  C6  IND d   1      -1.374   0.735   0.203  0.00  0.00     0.015 A 
ATOM      7  C7  IND d   1      -0.146   0.137   0.172  0.00  0.00    -0.016 A 
ATOM      8  C8  IND d   1       0.542   0.055   1.374  0.00  0.00    -0.047 A 
ATOM      9  C9  IND d   1       0.022   0.580   2.564  0.00  0.00    -0.096 A 
ATOM     10  HN1 IND d   1       2.318  -0.836   1.101  0.00  0.00     0.298 HD
ENDROOT
TORSDOF 0
ENDMDL
