MODEL 1
REMARK minimizedAffinity -5.66240168
REMARK minimizedRMSD -1
REMARK  0 active torsions:
REMARK  status: ('A' for Active; 'I' for Inactive)
ROOT
ATOM      1  N1  IND d   1       1.792  -0.402   2.541  0.00  0.00    -0.196 N 
ATOM      2  C2  IND d   1       1.601  -0.089   3.858  0.00  0.00     0.054 A 
ATOM      3  C3  IND d   1       0.407   0.521   4.028  0.00  0.00    -0.031 A 
ATOM      4  C4  IND d   1      -1.438   1.015   2.301  0.00  0.00     0.051 A 
ATOM      5  C5  IND d   1      -1.707   0.946   0.963  0.00  0.00    -0.031 A 
ATOM      6  C6  IND d   1      -0.807   0.411   0.065  0.00  0.00     0.015 A 
ATOM      7  C7  IND d   1       0.398  -0.088   0.475  0.00  0.00    -0.016 A 
ATOM      8  C8  IND d   1       0.677  -0.013   1.832  0.00  0.00    -0.047 A 
ATOM      9  C9  IND d   1      -0.215   0.567   2.743  0.00  0.00    -0.096 A 
ATOM     10  HN1 IND d   1       2.491  -0.779   2.211  0.00  0.00     0.298 HD
ENDROOT
TORSDOF 0
ENDMDL
