MODEL 1
REMARK minimizedAffinity -0.170917183
REMARK minimizedRMSD -1
REMARK  0 active torsions:
REMARK  status: ('A' for Active; 'I' for Inactive)
ROOT
ATOM      1  N1  IND d   1      -1.276   0.375   2.052  0.00  0.00    -0.196 N 
ATOM      2  C2  IND d   1      -2.291   0.577   1.159  0.00  0.00     0.054 A 
ATOM      3  C3  IND d   1      -1.894   0.237  -0.088  0.00  0.00    -0.031 A 
ATOM      4  C4  IND d   1       0.342  -0.766  -0.877  0.00  0.00     0.051 A 
ATOM      5  C5  IND d   1       1.591  -1.096  -0.431  0.00  0.00    -0.031 A 
ATOM      6  C6  IND d   1       1.954  -0.953   0.892  0.00  0.00     0.015 A 
ATOM      7  C7  IND d   1       1.075  -0.482   1.826  0.00  0.00    -0.016 A 
ATOM      8  C8  IND d   1      -0.192  -0.139   1.376  0.00  0.00    -0.047 A 
ATOM      9  C9  IND d   1      -0.553  -0.242   0.026  0.00  0.00    -0.096 A 
ATOM     10  HN1 IND d   1      -1.309   0.542   2.895  0.00  0.00     0.298 HD
ENDROOT
TORSDOF 0
ENDMDL
