MODEL 1
REMARK minimizedAffinity -2.67019534
REMARK minimizedRMSD -1
REMARK  0 active torsions:
REMARK  status: ('A' for Active; 'I' for Inactive)
ROOT
ATOM      1  C2' OXE d   1      -1.469   0.502   1.496  0.00  0.00     0.078 C 
ATOM      2  C1' OXE d   1      -0.167  -0.880  -0.571  0.00  0.00     0.078 C 
ATOM      3  C1  OXE d   1       0.653   0.070   0.265  0.00  0.00    -0.078 A 
ATOM      4  C2  OXE d   1      -0.002   0.777   1.244  0.00  0.00    -0.078 A 
ATOM      5  C3  OXE d   1       0.718   1.626   2.080  0.00  0.00     0.003 A 
ATOM      6  C4  OXE d   1       2.072   1.882   1.834  0.00  0.00    -0.002 A 
ATOM      7  C5  OXE d   1       2.750   1.203   0.816  0.00  0.00    -0.002 A 
ATOM      8  C6  OXE d   1       2.066   0.264   0.052  0.00  0.00     0.003 A 
ENDROOT
TORSDOF 0
ENDMDL
