MODEL 1
REMARK minimizedAffinity 2.15622711
REMARK minimizedRMSD -1
REMARK  0 active torsions:
REMARK  status: ('A' for Active; 'I' for Inactive)
ROOT
ATOM      1  C2' OXE d   1      -0.056   1.562   2.120  0.00  0.00     0.078 C 
ATOM      2  C1' OXE d   1      -0.147  -0.089  -0.148  0.00  0.00     0.078 C 
ATOM      3  C1  OXE d   1       1.207   0.360   0.341  0.00  0.00    -0.078 A 
ATOM      4  C2  OXE d   1       1.240   1.205   1.424  0.00  0.00    -0.078 A 
ATOM      5  C3  OXE d   1       2.465   1.606   1.949  0.00  0.00     0.003 A 
ATOM      6  C4  OXE d   1       3.658   1.280   1.293  0.00  0.00    -0.002 A 
ATOM      7  C5  OXE d   1       3.645   0.453   0.165  0.00  0.00    -0.002 A 
ATOM      8  C6  OXE d   1       2.434  -0.050  -0.298  0.00  0.00     0.003 A 
ENDROOT
TORSDOF 0
ENDMDL
