MODEL 1
REMARK minimizedAffinity -4.18057013
REMARK minimizedRMSD -1
REMARK  0 active torsions:
REMARK  status: ('A' for Active; 'I' for Inactive)
ROOT
ATOM      1  C2' OXE d   1       1.871   0.752  -0.748  0.00  0.00     0.078 C 
ATOM      2  C1' OXE d   1      -0.407  -0.886  -0.839  0.00  0.00     0.078 C 
ATOM      3  C1  OXE d   1      -0.210  -0.022   0.382  0.00  0.00    -0.078 A 
ATOM      4  C2  OXE d   1       0.932   0.741   0.439  0.00  0.00    -0.078 A 
ATOM      5  C3  OXE d   1       1.136   1.596   1.518  0.00  0.00     0.003 A 
ATOM      6  C4  OXE d   1       0.268   1.572   2.616  0.00  0.00    -0.002 A 
ATOM      7  C5  OXE d   1      -0.880   0.773   2.596  0.00  0.00    -0.002 A 
ATOM      8  C6  OXE d   1      -1.155   0.003   1.471  0.00  0.00     0.003 A 
ENDROOT
TORSDOF 0
ENDMDL
