MODEL 1
REMARK minimizedAffinity -3.1793716
REMARK minimizedRMSD -1
REMARK  0 active torsions:
REMARK  status: ('A' for Active; 'I' for Inactive)
ROOT
ATOM      1  C2' OXE d   1      -0.373  -1.228  -0.442  0.00  0.00     0.078 C 
ATOM      2  C1' OXE d   1       1.954   0.264  -0.929  0.00  0.00     0.078 C 
ATOM      3  C1  OXE d   1       1.018   0.752   0.149  0.00  0.00    -0.078 A 
ATOM      4  C2  OXE d   1      -0.141   0.042   0.349  0.00  0.00    -0.078 A 
ATOM      5  C3  OXE d   1      -1.013   0.417   1.367  0.00  0.00     0.003 A 
ATOM      6  C4  OXE d   1      -0.795   1.598   2.087  0.00  0.00    -0.002 A 
ATOM      7  C5  OXE d   1       0.359   2.358   1.872  0.00  0.00    -0.002 A 
ATOM      8  C6  OXE d   1       1.295   1.927   0.938  0.00  0.00     0.003 A 
ENDROOT
TORSDOF 0
ENDMDL
