MODEL 1
REMARK minimizedAffinity -5.23808718
REMARK minimizedRMSD -1
REMARK  0 active torsions:
REMARK  status: ('A' for Active; 'I' for Inactive)
ROOT
ATOM      1  C2' OXE d   1       1.335   2.448   1.117  0.00  0.00     0.078 C 
ATOM      2  C1' OXE d   1      -0.192   1.064   3.022  0.00  0.00     0.078 C 
ATOM      3  C1  OXE d   1      -0.128   0.498   1.626  0.00  0.00    -0.078 A 
ATOM      4  C2  OXE d   1       0.583   1.207   0.688  0.00  0.00    -0.078 A 
ATOM      5  C3  OXE d   1       0.719   0.700  -0.601  0.00  0.00     0.003 A 
ATOM      6  C4  OXE d   1       0.013  -0.443  -0.992  0.00  0.00    -0.002 A 
ATOM      7  C5  OXE d   1      -0.750  -1.159  -0.063  0.00  0.00    -0.002 A 
ATOM      8  C6  OXE d   1      -0.796  -0.726   1.258  0.00  0.00     0.003 A 
ENDROOT
TORSDOF 0
ENDMDL
