MODEL 1
REMARK minimizedAffinity -3.2139771
REMARK minimizedRMSD -1
REMARK  0 active torsions:
REMARK  status: ('A' for Active; 'I' for Inactive)
ROOT
ATOM      1  C2' OXE d   1      -1.681  -0.928  -3.515  0.00  0.00     0.078 C 
ATOM      2  C1' OXE d   1      -0.801  -1.662  -0.952  0.00  0.00     0.078 C 
ATOM      3  C1  OXE d   1      -2.220  -2.003  -1.333  0.00  0.00    -0.078 A 
ATOM      4  C2  OXE d   1      -2.657  -1.598  -2.571  0.00  0.00    -0.078 A 
ATOM      5  C3  OXE d   1      -3.940  -1.934  -2.994  0.00  0.00     0.003 A 
ATOM      6  C4  OXE d   1      -4.839  -2.545  -2.112  0.00  0.00    -0.002 A 
ATOM      7  C5  OXE d   1      -4.427  -2.930  -0.832  0.00  0.00    -0.002 A 
ATOM      8  C6  OXE d   1      -3.111  -2.705  -0.443  0.00  0.00     0.003 A 
ENDROOT
TORSDOF 0
ENDMDL
