MODEL 1
REMARK minimizedAffinity -6.40695572
REMARK minimizedRMSD -1
REMARK  0 active torsions:
REMARK  status: ('A' for Active; 'I' for Inactive)
ROOT
ATOM      1  C2' OXE d   1      -0.513  -0.661   0.052  0.00  0.00     0.078 C 
ATOM      2  C1' OXE d   1      -1.756   0.198   2.417  0.00  0.00     0.078 C 
ATOM      3  C1  OXE d   1      -0.592   1.006   1.901  0.00  0.00    -0.078 A 
ATOM      4  C2  OXE d   1       0.040   0.552   0.768  0.00  0.00    -0.078 A 
ATOM      5  C3  OXE d   1       1.085   1.289   0.219  0.00  0.00     0.003 A 
ATOM      6  C4  OXE d   1       1.597   2.405   0.893  0.00  0.00    -0.002 A 
ATOM      7  C5  OXE d   1       0.993   2.861   2.070  0.00  0.00    -0.002 A 
ATOM      8  C6  OXE d   1      -0.126   2.200   2.563  0.00  0.00     0.003 A 
ENDROOT
TORSDOF 0
ENDMDL
