MODEL 1
REMARK minimizedAffinity -3.51279068
REMARK minimizedRMSD -1
REMARK  0 active torsions:
REMARK  status: ('A' for Active; 'I' for Inactive)
ROOT
ATOM      1  C2' OXE d   1      -1.151  -0.392   0.926  0.00  0.00     0.078 C 
ATOM      2  C1' OXE d   1       1.009  -0.627  -0.852  0.00  0.00     0.078 C 
ATOM      3  C1  OXE d   1      -0.348  -1.081  -1.330  0.00  0.00    -0.078 A 
ATOM      4  C2  OXE d   1      -1.390  -1.006  -0.437  0.00  0.00    -0.078 A 
ATOM      5  C3  OXE d   1      -2.673  -1.361  -0.844  0.00  0.00     0.003 A 
ATOM      6  C4  OXE d   1      -2.883  -1.937  -2.103  0.00  0.00    -0.002 A 
ATOM      7  C5  OXE d   1      -1.828  -2.059  -3.013  0.00  0.00    -0.002 A 
ATOM      8  C6  OXE d   1      -0.565  -1.598  -2.658  0.00  0.00     0.003 A 
ENDROOT
TORSDOF 0
ENDMDL
