MODEL 1
REMARK minimizedAffinity -3.62933731
REMARK minimizedRMSD -1
REMARK  0 active torsions:
REMARK  status: ('A' for Active; 'I' for Inactive)
ROOT
ATOM      1  C2' OXE d   1      -1.774   0.024   1.920  0.00  0.00     0.078 C 
ATOM      2  C1' OXE d   1      -0.716  -1.007  -0.468  0.00  0.00     0.078 C 
ATOM      3  C1  OXE d   1      -0.128   0.275   0.066  0.00  0.00    -0.078 A 
ATOM      4  C2  OXE d   1      -0.683   0.797   1.210  0.00  0.00    -0.078 A 
ATOM      5  C3  OXE d   1      -0.143   1.948   1.775  0.00  0.00     0.003 A 
ATOM      6  C4  OXE d   1       0.859   2.663   1.107  0.00  0.00    -0.002 A 
ATOM      7  C5  OXE d   1       1.411   2.170  -0.080  0.00  0.00    -0.002 A 
ATOM      8  C6  OXE d   1       0.959   0.958  -0.590  0.00  0.00     0.003 A 
ENDROOT
TORSDOF 0
ENDMDL
