MODEL 1
REMARK minimizedAffinity -5.15876961
REMARK minimizedRMSD -1
REMARK  0 active torsions:
REMARK  status: ('A' for Active; 'I' for Inactive)
ROOT
ATOM      1  C2' OXE d   1       1.379   2.531   1.094  0.00  0.00     0.078 C 
ATOM      2  C1' OXE d   1       2.726   0.895  -0.748  0.00  0.00     0.078 C 
ATOM      3  C1  OXE d   1       1.408   0.403  -0.201  0.00  0.00    -0.078 A 
ATOM      4  C2  OXE d   1       0.779   1.189   0.734  0.00  0.00    -0.078 A 
ATOM      5  C3  OXE d   1      -0.465   0.808   1.229  0.00  0.00     0.003 A 
ATOM      6  C4  OXE d   1      -1.008  -0.440   0.899  0.00  0.00    -0.002 A 
ATOM      7  C5  OXE d   1      -0.364  -1.273  -0.021  0.00  0.00    -0.002 A 
ATOM      8  C6  OXE d   1       0.821  -0.848  -0.612  0.00  0.00     0.003 A 
ENDROOT
TORSDOF 0
ENDMDL
