MODEL 1
REMARK minimizedAffinity -4.29690695
REMARK minimizedRMSD -1
REMARK  0 active torsions:
REMARK  status: ('A' for Active; 'I' for Inactive)
ROOT
ATOM      1  C2' OXE d   1      -1.120   0.799   0.740  0.00  0.00     0.078 C 
ATOM      2  C1' OXE d   1       0.485  -1.006  -0.691  0.00  0.00     0.078 C 
ATOM      3  C1  OXE d   1       1.159   0.183  -0.053  0.00  0.00    -0.078 A 
ATOM      4  C2  OXE d   1       0.360   1.086   0.605  0.00  0.00    -0.078 A 
ATOM      5  C3  OXE d   1       0.938   2.171   1.258  0.00  0.00     0.003 A 
ATOM      6  C4  OXE d   1       2.306   2.435   1.120  0.00  0.00    -0.002 A 
ATOM      7  C5  OXE d   1       3.132   1.549   0.420  0.00  0.00    -0.002 A 
ATOM      8  C6  OXE d   1       2.583   0.399  -0.135  0.00  0.00     0.003 A 
ENDROOT
TORSDOF 0
ENDMDL
