MODEL 1
REMARK minimizedAffinity -3.83323932
REMARK minimizedRMSD -1
REMARK  0 active torsions:
REMARK  status: ('A' for Active; 'I' for Inactive)
ROOT
ATOM      1  C2' OXE d   1      -1.502   1.212   1.566  0.00  0.00     0.078 C 
ATOM      2  C1' OXE d   1      -0.421  -0.310  -0.530  0.00  0.00     0.078 C 
ATOM      3  C1  OXE d   1       0.484   0.680   0.160  0.00  0.00    -0.078 A 
ATOM      4  C2  OXE d   1      -0.067   1.454   1.153  0.00  0.00    -0.078 A 
ATOM      5  C3  OXE d   1       0.737   2.345   1.858  0.00  0.00     0.003 A 
ATOM      6  C4  OXE d   1       2.062   2.570   1.463  0.00  0.00    -0.002 A 
ATOM      7  C5  OXE d   1       2.631   1.821   0.428  0.00  0.00    -0.002 A 
ATOM      8  C6  OXE d   1       1.869   0.844  -0.205  0.00  0.00     0.003 A 
ENDROOT
TORSDOF 0
ENDMDL
