MODEL 1
REMARK minimizedAffinity -6.0953846
REMARK minimizedRMSD -1
REMARK  0 active torsions:
REMARK  status: ('A' for Active; 'I' for Inactive)
ROOT
ATOM      1  C2' OXE d   1      -0.935   0.124   1.560  0.00  0.00     0.078 C 
ATOM      2  C1' OXE d   1       0.564  -1.342  -0.307  0.00  0.00     0.078 C 
ATOM      3  C1  OXE d   1       1.089   0.009   0.112  0.00  0.00    -0.078 A 
ATOM      4  C2  OXE d   1       0.325   0.739   0.990  0.00  0.00    -0.078 A 
ATOM      5  C3  OXE d   1       0.790   1.968   1.452  0.00  0.00     0.003 A 
ATOM      6  C4  OXE d   1       1.952   2.534   0.912  0.00  0.00    -0.002 A 
ATOM      7  C5  OXE d   1       2.724   1.824  -0.013  0.00  0.00    -0.002 A 
ATOM      8  C6  OXE d   1       2.330   0.545  -0.391  0.00  0.00     0.003 A 
ENDROOT
TORSDOF 0
ENDMDL
