MODEL 1
REMARK minimizedAffinity -1.72548592
REMARK minimizedRMSD -1
REMARK  0 active torsions:
REMARK  status: ('A' for Active; 'I' for Inactive)
ROOT
ATOM      1  C2' OXE d   1       0.332  -0.742  -1.284  0.00  0.00     0.078 C 
ATOM      2  C1' OXE d   1       2.606   0.744  -0.578  0.00  0.00     0.078 C 
ATOM      3  C1  OXE d   1       1.430   0.766   0.366  0.00  0.00    -0.078 A 
ATOM      4  C2  OXE d   1       0.304   0.074  -0.009  0.00  0.00    -0.078 A 
ATOM      5  C3  OXE d   1      -0.788   0.016   0.851  0.00  0.00     0.003 A 
ATOM      6  C4  OXE d   1      -0.809   0.782   2.023  0.00  0.00    -0.002 A 
ATOM      7  C5  OXE d   1       0.312   1.526   2.404  0.00  0.00    -0.002 A 
ATOM      8  C6  OXE d   1       1.453   1.495   1.610  0.00  0.00     0.003 A 
ENDROOT
TORSDOF 0
ENDMDL
