MODEL 1
REMARK minimizedAffinity 1.18379712
REMARK minimizedRMSD -1
REMARK  0 active torsions:
REMARK  status: ('A' for Active; 'I' for Inactive)
ROOT
ATOM      1  C2' OXE d   1       0.550   0.250  -2.685  0.00  0.00     0.078 C 
ATOM      2  C1' OXE d   1      -0.202  -0.844  -0.212  0.00  0.00     0.078 C 
ATOM      3  C1  OXE d   1      -1.152  -1.009  -1.372  0.00  0.00    -0.078 A 
ATOM      4  C2  OXE d   1      -0.797  -0.430  -2.567  0.00  0.00    -0.078 A 
ATOM      5  C3  OXE d   1      -1.611  -0.599  -3.683  0.00  0.00     0.003 A 
ATOM      6  C4  OXE d   1      -2.860  -1.221  -3.562  0.00  0.00    -0.002 A 
ATOM      7  C5  OXE d   1      -3.258  -1.782  -2.345  0.00  0.00    -0.002 A 
ATOM      8  C6  OXE d   1      -2.399  -1.723  -1.253  0.00  0.00     0.003 A 
ENDROOT
TORSDOF 0
ENDMDL
