MODEL 1
REMARK minimizedAffinity -3.31300592
REMARK minimizedRMSD -1
REMARK  0 active torsions:
REMARK  status: ('A' for Active; 'I' for Inactive)
ROOT
ATOM      1  C2' OXE d   1       1.348   3.080   1.180  0.00  0.00     0.078 C 
ATOM      2  C1' OXE d   1      -0.305   1.367   2.668  0.00  0.00     0.078 C 
ATOM      3  C1  OXE d   1       0.231   0.860   1.353  0.00  0.00    -0.078 A 
ATOM      4  C2  OXE d   1       1.001   1.722   0.610  0.00  0.00    -0.078 A 
ATOM      5  C3  OXE d   1       1.566   1.285  -0.585  0.00  0.00     0.003 A 
ATOM      6  C4  OXE d   1       1.232   0.031  -1.111  0.00  0.00    -0.002 A 
ATOM      7  C5  OXE d   1       0.417  -0.847  -0.389  0.00  0.00    -0.002 A 
ATOM      8  C6  OXE d   1      -0.056  -0.465   0.862  0.00  0.00     0.003 A 
ENDROOT
TORSDOF 0
ENDMDL
