MODEL 1
REMARK minimizedAffinity -3.67582345
REMARK minimizedRMSD -1
REMARK  0 active torsions:
REMARK  status: ('A' for Active; 'I' for Inactive)
ROOT
ATOM      1  C2' OXE d   1       1.485   3.399   1.087  0.00  0.00     0.078 C 
ATOM      2  C1' OXE d   1      -0.224   1.751   2.586  0.00  0.00     0.078 C 
ATOM      3  C1  OXE d   1       0.366   1.186   1.318  0.00  0.00    -0.078 A 
ATOM      4  C2  OXE d   1       1.163   2.015   0.567  0.00  0.00    -0.078 A 
ATOM      5  C3  OXE d   1       1.776   1.526  -0.583  0.00  0.00     0.003 A 
ATOM      6  C4  OXE d   1       1.466   0.248  -1.063  0.00  0.00    -0.002 A 
ATOM      7  C5  OXE d   1       0.624  -0.599  -0.334  0.00  0.00    -0.002 A 
ATOM      8  C6  OXE d   1       0.101  -0.162   0.878  0.00  0.00     0.003 A 
ENDROOT
TORSDOF 0
ENDMDL
