MODEL 1
REMARK minimizedAffinity -3.4691689
REMARK minimizedRMSD -1
REMARK  0 active torsions:
REMARK  status: ('A' for Active; 'I' for Inactive)
ROOT
ATOM      1  C2' OXE d   1      -1.795  -0.084   2.092  0.00  0.00     0.078 C 
ATOM      2  C1' OXE d   1      -0.635  -0.667  -0.397  0.00  0.00     0.078 C 
ATOM      3  C1  OXE d   1      -0.071   0.491   0.388  0.00  0.00    -0.078 A 
ATOM      4  C2  OXE d   1      -0.675   0.798   1.583  0.00  0.00    -0.078 A 
ATOM      5  C3  OXE d   1      -0.160   1.822   2.373  0.00  0.00     0.003 A 
ATOM      6  C4  OXE d   1       0.869   2.640   1.891  0.00  0.00    -0.002 A 
ATOM      7  C5  OXE d   1       1.472   2.369   0.658  0.00  0.00    -0.002 A 
ATOM      8  C6  OXE d   1       1.043   1.275  -0.085  0.00  0.00     0.003 A 
ENDROOT
TORSDOF 0
ENDMDL
