MODEL 1
REMARK minimizedAffinity 11.4389858
REMARK minimizedRMSD -1
REMARK  2 active torsions:
REMARK  status: ('A' for Active; 'I' for Inactive)
REMARK    1  A    between atoms: C2'_3  and  C1'_4 
REMARK    2  A    between atoms: C1'_4  and  C1_5 
ROOT
ATOM      1  C1  I4B d   1      -4.455  -3.613  -0.470  0.00  0.00    -0.075 A 
ATOM      2  C2  I4B d   1      -5.620  -3.026  -0.898  0.00  0.00     0.003 A 
ATOM      3  C3  I4B d   1      -5.998  -1.752  -0.409  0.00  0.00     0.002 A 
ATOM      4  C4  I4B d   1      -5.213  -1.128   0.538  0.00  0.00    -0.004 A 
ATOM      5  C5  I4B d   1      -4.020  -1.713   0.953  0.00  0.00     0.002 A 
ATOM      6  C6  I4B d   1      -3.632  -2.958   0.437  0.00  0.00     0.003 A 
ENDROOT
BRANCH   1   7
ATOM      7  C1' I4B d   1      -4.102  -4.973  -0.983  0.00  0.00     0.060 C 
BRANCH   7   8
ATOM      8  C2' I4B d   1      -4.508  -5.987   0.068  0.00  0.00    -0.013 C 
ATOM      9  C4' I4B d   1      -3.538  -5.995   1.221  0.00  0.00     0.013 C 
ATOM     10  C3' I4B d   1      -5.894  -5.647   0.529  0.00  0.00     0.013 C 
ENDBRANCH   7   8
ENDBRANCH   1   7
TORSDOF 2
ENDMDL
