MODEL 1
REMARK minimizedAffinity 6.89946604
REMARK minimizedRMSD -1
REMARK  2 active torsions:
REMARK  status: ('A' for Active; 'I' for Inactive)
REMARK    1  A    between atoms: C2'_3  and  C1'_4 
REMARK    2  A    between atoms: C1'_4  and  C1_5 
ROOT
ATOM      1  C1  I4B d   1      -4.814  -3.291   0.439  0.00  0.00    -0.075 A 
ATOM      2  C2  I4B d   1      -5.998  -3.982   0.519  0.00  0.00     0.003 A 
ATOM      3  C3  I4B d   1      -6.000  -5.352   0.876  0.00  0.00     0.002 A 
ATOM      4  C4  I4B d   1      -4.801  -6.000   1.094  0.00  0.00    -0.004 A 
ATOM      5  C5  I4B d   1      -3.604  -5.292   1.034  0.00  0.00     0.002 A 
ATOM      6  C6  I4B d   1      -3.611  -3.926   0.717  0.00  0.00     0.003 A 
ENDROOT
BRANCH   1   7
ATOM      7  C1' I4B d   1      -4.846  -1.853   0.027  0.00  0.00     0.060 C 
BRANCH   7   8
ATOM      8  C2' I4B d   1      -4.815  -1.007   1.283  0.00  0.00    -0.013 C 
ATOM      9  C4' I4B d   1      -3.528  -0.232   1.386  0.00  0.00     0.013 C 
ATOM     10  C3' I4B d   1      -5.999  -0.088   1.252  0.00  0.00     0.013 C 
ENDBRANCH   7   8
ENDBRANCH   1   7
TORSDOF 2
ENDMDL
