MODEL 1
REMARK minimizedAffinity 11.1915302
REMARK minimizedRMSD -1
REMARK  2 active torsions:
REMARK  status: ('A' for Active; 'I' for Inactive)
REMARK    1  A    between atoms: C2'_3  and  C1'_4 
REMARK    2  A    between atoms: C1'_4  and  C1_5 
ROOT
ATOM      1  C1  I4B d   1      -5.178  -3.619   0.241  0.00  0.00    -0.075 A 
ATOM      2  C2  I4B d   1      -3.847  -3.781  -0.050  0.00  0.00     0.003 A 
ATOM      3  C3  I4B d   1      -3.166  -4.954   0.358  0.00  0.00     0.002 A 
ATOM      4  C4  I4B d   1      -3.837  -5.908   1.094  0.00  0.00    -0.004 A 
ATOM      5  C5  I4B d   1      -5.193  -5.753   1.368  0.00  0.00     0.002 A 
ATOM      6  C6  I4B d   1      -5.871  -4.606   0.929  0.00  0.00     0.003 A 
ENDROOT
BRANCH   1   7
ATOM      7  C1' I4B d   1      -5.858  -2.353  -0.176  0.00  0.00     0.060 C 
BRANCH   7   8
ATOM      8  C2' I4B d   1      -5.797  -1.385   0.988  0.00  0.00    -0.013 C 
ATOM      9  C4' I4B d   1      -4.533  -1.569   1.785  0.00  0.00     0.013 C 
ATOM     10  C3' I4B d   1      -5.893   0.007   0.438  0.00  0.00     0.013 C 
ENDBRANCH   7   8
ENDBRANCH   1   7
TORSDOF 2
ENDMDL
