MODEL 1
REMARK minimizedAffinity 11.3599472
REMARK minimizedRMSD -1
REMARK  2 active torsions:
REMARK  status: ('A' for Active; 'I' for Inactive)
REMARK    1  A    between atoms: C2'_3  and  C1'_4 
REMARK    2  A    between atoms: C1'_4  and  C1_5 
ROOT
ATOM      1  C1  I4B d   1       2.924   4.719  -3.241  0.00  0.00    -0.075 A 
ATOM      2  C2  I4B d   1       4.181   4.518  -3.753  0.00  0.00     0.003 A 
ATOM      3  C3  I4B d   1       4.383   4.483  -5.154  0.00  0.00     0.002 A 
ATOM      4  C4  I4B d   1       3.299   4.602  -6.000  0.00  0.00    -0.004 A 
ATOM      5  C5  I4B d   1       2.028   4.829  -5.479  0.00  0.00     0.002 A 
ATOM      6  C6  I4B d   1       1.841   4.900  -4.091  0.00  0.00     0.003 A 
ENDROOT
BRANCH   1   7
ATOM      7  C1' I4B d   1       2.742   4.717  -1.756  0.00  0.00     0.060 C 
BRANCH   7   8
ATOM      8  C2' I4B d   1       2.290   3.332  -1.342  0.00  0.00    -0.013 C 
ATOM      9  C4' I4B d   1       3.165   2.268  -1.953  0.00  0.00     0.013 C 
ATOM     10  C3' I4B d   1       2.320   3.262   0.155  0.00  0.00     0.013 C 
ENDBRANCH   7   8
ENDBRANCH   1   7
TORSDOF 2
ENDMDL
