MODEL 1
REMARK minimizedAffinity 14.1925011
REMARK minimizedRMSD -1
REMARK  2 active torsions:
REMARK  status: ('A' for Active; 'I' for Inactive)
REMARK    1  A    between atoms: C2'_3  and  C1'_4 
REMARK    2  A    between atoms: C1'_4  and  C1_5 
ROOT
ATOM      1  C1  I4B d   1      -5.295  -4.556  -1.261  0.00  0.00    -0.075 A 
ATOM      2  C2  I4B d   1      -5.989  -4.492  -0.078  0.00  0.00     0.003 A 
ATOM      3  C3  I4B d   1      -5.360  -4.857   1.137  0.00  0.00     0.002 A 
ATOM      4  C4  I4B d   1      -4.062  -5.325   1.117  0.00  0.00    -0.004 A 
ATOM      5  C5  I4B d   1      -3.354  -5.368  -0.080  0.00  0.00     0.002 A 
ATOM      6  C6  I4B d   1      -3.969  -4.969  -1.275  0.00  0.00     0.003 A 
ENDROOT
BRANCH   1   7
ATOM      7  C1' I4B d   1      -6.000  -4.194  -2.530  0.00  0.00     0.060 C 
BRANCH   7   8
ATOM      8  C2' I4B d   1      -5.078  -3.305  -3.339  0.00  0.00    -0.013 C 
ATOM      9  C4' I4B d   1      -5.255  -3.535  -4.817  0.00  0.00     0.013 C 
ATOM     10  C3' I4B d   1      -5.372  -1.880  -2.974  0.00  0.00     0.013 C 
ENDBRANCH   7   8
ENDBRANCH   1   7
TORSDOF 2
ENDMDL
