MODEL 1
REMARK minimizedAffinity 13.9950304
REMARK minimizedRMSD -1
REMARK  2 active torsions:
REMARK  status: ('A' for Active; 'I' for Inactive)
REMARK    1  A    between atoms: C2'_3  and  C1'_4 
REMARK    2  A    between atoms: C1'_4  and  C1_5 
ROOT
ATOM      1  C1  I4B d   1       2.583   1.369  -5.421  0.00  0.00    -0.075 A 
ATOM      2  C2  I4B d   1       3.000   0.640  -4.335  0.00  0.00     0.003 A 
ATOM      3  C3  I4B d   1       2.138  -0.315  -3.743  0.00  0.00     0.002 A 
ATOM      4  C4  I4B d   1       0.858  -0.471  -4.235  0.00  0.00    -0.004 A 
ATOM      5  C5  I4B d   1       0.445   0.252  -5.351  0.00  0.00     0.002 A 
ATOM      6  C6  I4B d   1       1.317   1.169  -5.955  0.00  0.00     0.003 A 
ENDROOT
BRANCH   1   7
ATOM      7  C1' I4B d   1       3.508   2.392  -6.000  0.00  0.00     0.060 C 
BRANCH   7   8
ATOM      8  C2' I4B d   1       3.376   3.659  -5.179  0.00  0.00    -0.013 C 
ATOM      9  C4' I4B d   1       4.725   4.186  -4.768  0.00  0.00     0.013 C 
ATOM     10  C3' I4B d   1       2.628   4.667  -6.000  0.00  0.00     0.013 C 
ENDBRANCH   7   8
ENDBRANCH   1   7
TORSDOF 2
ENDMDL
