MODEL 1
REMARK minimizedAffinity 16.5790672
REMARK minimizedRMSD -1
REMARK  2 active torsions:
REMARK  status: ('A' for Active; 'I' for Inactive)
REMARK    1  A    between atoms: C2'_3  and  C1'_4 
REMARK    2  A    between atoms: C1'_4  and  C1_5 
ROOT
ATOM      1  C1  I4B d   1      -3.321  -1.528   1.102  0.00  0.00    -0.075 A 
ATOM      2  C2  I4B d   1      -2.215  -2.336   1.019  0.00  0.00     0.003 A 
ATOM      3  C3  I4B d   1      -2.340  -3.670   0.561  0.00  0.00     0.002 A 
ATOM      4  C4  I4B d   1      -3.588  -4.166   0.246  0.00  0.00    -0.004 A 
ATOM      5  C5  I4B d   1      -4.705  -3.338   0.309  0.00  0.00     0.002 A 
ATOM      6  C6  I4B d   1      -4.570  -2.007   0.728  0.00  0.00     0.003 A 
ENDROOT
BRANCH   1   7
ATOM      7  C1' I4B d   1      -3.158  -0.134   1.622  0.00  0.00     0.060 C 
BRANCH   7   8
ATOM      8  C2' I4B d   1      -1.694   0.238   1.507  0.00  0.00    -0.013 C 
ATOM      9  C4' I4B d   1      -1.500   1.411   0.583  0.00  0.00     0.013 C 
ATOM     10  C3' I4B d   1      -1.185   0.545   2.884  0.00  0.00     0.013 C 
ENDBRANCH   7   8
ENDBRANCH   1   7
TORSDOF 2
ENDMDL
