MODEL 1
REMARK minimizedAffinity 8.74547577
REMARK minimizedRMSD -1
REMARK  2 active torsions:
REMARK  status: ('A' for Active; 'I' for Inactive)
REMARK    1  A    between atoms: C2'_3  and  C1'_4 
REMARK    2  A    between atoms: C1'_4  and  C1_5 
ROOT
ATOM      1  C1  I4B d   1      -0.858  -2.000  -5.719  0.00  0.00    -0.075 A 
ATOM      2  C2  I4B d   1      -0.269  -3.237  -5.801  0.00  0.00     0.003 A 
ATOM      3  C3  I4B d   1      -1.065  -4.396  -5.970  0.00  0.00     0.002 A 
ATOM      4  C4  I4B d   1      -2.440  -4.277  -6.000  0.00  0.00    -0.004 A 
ATOM      5  C5  I4B d   1      -3.034  -3.020  -5.938  0.00  0.00     0.002 A 
ATOM      6  C6  I4B d   1      -2.238  -1.873  -5.809  0.00  0.00     0.003 A 
ENDROOT
BRANCH   1   7
ATOM      7  C1' I4B d   1       0.011  -0.801  -5.508  0.00  0.00     0.060 C 
BRANCH   7   8
ATOM      8  C2' I4B d   1       1.090  -1.175  -4.512  0.00  0.00    -0.013 C 
ATOM      9  C4' I4B d   1       2.252  -0.219  -4.582  0.00  0.00     0.013 C 
ATOM     10  C3' I4B d   1       0.475  -1.181  -3.144  0.00  0.00     0.013 C 
ENDBRANCH   7   8
ENDBRANCH   1   7
TORSDOF 2
ENDMDL
