MODEL 1
REMARK minimizedAffinity 8.42218971
REMARK minimizedRMSD -1
REMARK  2 active torsions:
REMARK  status: ('A' for Active; 'I' for Inactive)
REMARK    1  A    between atoms: C2'_3  and  C1'_4 
REMARK    2  A    between atoms: C1'_4  and  C1_5 
ROOT
ATOM      1  C1  I4B d   1      -2.230   1.786   2.347  0.00  0.00    -0.075 A 
ATOM      2  C2  I4B d   1      -3.591   1.679   2.202  0.00  0.00     0.003 A 
ATOM      3  C3  I4B d   1      -4.420   2.810   2.397  0.00  0.00     0.002 A 
ATOM      4  C4  I4B d   1      -3.855   4.008   2.782  0.00  0.00    -0.004 A 
ATOM      5  C5  I4B d   1      -2.474   4.121   2.906  0.00  0.00     0.002 A 
ATOM      6  C6  I4B d   1      -1.654   3.007   2.675  0.00  0.00     0.003 A 
ENDROOT
BRANCH   1   7
ATOM      7  C1' I4B d   1      -1.388   0.564   2.167  0.00  0.00     0.060 C 
BRANCH   7   8
ATOM      8  C2' I4B d   1      -1.731  -0.046   0.823  0.00  0.00    -0.013 C 
ATOM      9  C4' I4B d   1      -3.151  -0.545   0.797  0.00  0.00     0.013 C 
ATOM     10  C3' I4B d   1      -1.505   0.998  -0.230  0.00  0.00     0.013 C 
ENDBRANCH   7   8
ENDBRANCH   1   7
TORSDOF 2
ENDMDL
