MODEL 1
REMARK minimizedAffinity 12.1511955
REMARK minimizedRMSD -1
REMARK  2 active torsions:
REMARK  status: ('A' for Active; 'I' for Inactive)
REMARK    1  A    between atoms: C2'_3  and  C1'_4 
REMARK    2  A    between atoms: C1'_4  and  C1_5 
ROOT
ATOM      1  C1  I4B d   1      -0.591  -0.923  -5.297  0.00  0.00    -0.075 A 
ATOM      2  C2  I4B d   1      -0.204  -2.239  -5.319  0.00  0.00     0.003 A 
ATOM      3  C3  I4B d   1      -1.123  -3.246  -5.700  0.00  0.00     0.002 A 
ATOM      4  C4  I4B d   1      -2.425  -2.900  -5.999  0.00  0.00    -0.004 A 
ATOM      5  C5  I4B d   1      -2.810  -1.562  -5.998  0.00  0.00     0.002 A 
ATOM      6  C6  I4B d   1      -1.884  -0.566  -5.657  0.00  0.00     0.003 A 
ENDROOT
BRANCH   1   7
ATOM      7  C1' I4B d   1       0.397   0.112  -4.859  0.00  0.00     0.060 C 
BRANCH   7   8
ATOM      8  C2' I4B d   1       1.489  -0.588  -4.075  0.00  0.00    -0.013 C 
ATOM      9  C4' I4B d   1       2.837  -0.383  -4.715  0.00  0.00     0.013 C 
ATOM     10  C3' I4B d   1       1.467  -0.054  -2.674  0.00  0.00     0.013 C 
ENDBRANCH   7   8
ENDBRANCH   1   7
TORSDOF 2
ENDMDL
