MODEL 1
REMARK minimizedAffinity 14.4540291
REMARK minimizedRMSD -1
REMARK  0 active torsions:
REMARK  status: ('A' for Active; 'I' for Inactive)
ROOT
ATOM      1  C   UNL d   1       2.790  -2.617  -1.100  0.00  0.00     0.077 C 
ATOM      2  C1  UNL d   1       3.221  -1.181  -1.093  0.00  0.00    -0.074 A 
ATOM      3  C2  UNL d   1       2.627  -0.256  -0.228  0.00  0.00    -0.005 A 
ATOM      4  C3  UNL d   1       3.045   1.075  -0.227  0.00  0.00     0.006 A 
ATOM      5  C4  UNL d   1       4.059   1.494  -1.090  0.00  0.00    -0.005 A 
ATOM      6  C5  UNL d   1       4.665   0.583  -1.962  0.00  0.00    -0.074 A 
ATOM      7  C6  UNL d   1       5.762   1.014  -2.888  0.00  0.00     0.077 C 
ATOM      8  C7  UNL d   1       4.244  -0.754  -1.952  0.00  0.00    -0.001 A 
ENDROOT
TORSDOF 0
ENDMDL
