MODEL 1
REMARK minimizedAffinity 3.88063526
REMARK minimizedRMSD -1
REMARK  0 active torsions:
REMARK  status: ('A' for Active; 'I' for Inactive)
ROOT
ATOM      1  C   UNL d   1      -1.280   0.242  -2.855  0.00  0.00     0.077 C 
ATOM      2  C1  UNL d   1      -2.557   0.795  -3.414  0.00  0.00    -0.074 A 
ATOM      3  C2  UNL d   1      -2.757   0.887  -4.795  0.00  0.00    -0.005 A 
ATOM      4  C3  UNL d   1      -3.954   1.395  -5.300  0.00  0.00     0.006 A 
ATOM      5  C4  UNL d   1      -4.961   1.816  -4.431  0.00  0.00    -0.005 A 
ATOM      6  C5  UNL d   1      -4.780   1.730  -3.047  0.00  0.00    -0.074 A 
ATOM      7  C6  UNL d   1      -5.857   2.169  -2.099  0.00  0.00     0.077 C 
ATOM      8  C7  UNL d   1      -3.578   1.213  -2.547  0.00  0.00    -0.001 A 
ENDROOT
TORSDOF 0
ENDMDL
