MODEL 1
REMARK minimizedAffinity 9.58157444
REMARK minimizedRMSD -1
REMARK  0 active torsions:
REMARK  status: ('A' for Active; 'I' for Inactive)
ROOT
ATOM      1  C   UNL d   1       5.991   5.715  -1.112  0.00  0.00     0.077 C 
ATOM      2  C1  UNL d   1       5.986   4.318  -0.568  0.00  0.00    -0.074 A 
ATOM      3  C2  UNL d   1       5.994   3.212  -1.424  0.00  0.00    -0.005 A 
ATOM      4  C3  UNL d   1       6.000   1.919  -0.903  0.00  0.00     0.006 A 
ATOM      5  C4  UNL d   1       5.998   1.718   0.478  0.00  0.00    -0.005 A 
ATOM      6  C5  UNL d   1       5.992   2.811   1.350  0.00  0.00    -0.074 A 
ATOM      7  C6  UNL d   1       6.000   2.613   2.837  0.00  0.00     0.077 C 
ATOM      8  C7  UNL d   1       5.993   4.108   0.819  0.00  0.00    -0.001 A 
ENDROOT
TORSDOF 0
ENDMDL
