MODEL 1
REMARK minimizedAffinity 11.2228947
REMARK minimizedRMSD -1
REMARK  0 active torsions:
REMARK  status: ('A' for Active; 'I' for Inactive)
ROOT
ATOM      1  C   UNL d   1       6.000   1.533  -0.797  0.00  0.00     0.077 C 
ATOM      2  C1  UNL d   1       4.837   0.619  -0.551  0.00  0.00    -0.074 A 
ATOM      3  C2  UNL d   1       5.036  -0.719  -0.196  0.00  0.00    -0.005 A 
ATOM      4  C3  UNL d   1       3.945  -1.555   0.038  0.00  0.00     0.006 A 
ATOM      5  C4  UNL d   1       2.644  -1.063  -0.080  0.00  0.00    -0.005 A 
ATOM      6  C5  UNL d   1       2.425   0.273  -0.434  0.00  0.00    -0.074 A 
ATOM      7  C6  UNL d   1       1.034   0.820  -0.556  0.00  0.00     0.077 C 
ATOM      8  C7  UNL d   1       3.527   1.108  -0.661  0.00  0.00    -0.001 A 
ENDROOT
TORSDOF 0
ENDMDL
