MODEL 1
REMARK minimizedAffinity 8.27985001
REMARK minimizedRMSD -1
REMARK  0 active torsions:
REMARK  status: ('A' for Active; 'I' for Inactive)
ROOT
ATOM      1  C1  BNZ d   1       5.245  -2.320  -4.952  0.00  0.00     0.000 A 
ATOM      2  C2  BNZ d   1       4.068  -2.549  -5.614  0.00  0.00     0.000 A 
ATOM      3  C3  BNZ d   1       3.267  -1.509  -5.997  0.00  0.00     0.000 A 
ATOM      4  C4  BNZ d   1       3.624  -0.247  -5.684  0.00  0.00     0.000 A 
ATOM      5  C5  BNZ d   1       4.803  -0.001  -5.009  0.00  0.00     0.000 A 
ATOM      6  C6  BNZ d   1       5.626  -1.047  -4.659  0.00  0.00     0.000 A 
ENDROOT
TORSDOF 0
ENDMDL
