MODEL 1
REMARK minimizedAffinity -0.228114456
REMARK minimizedRMSD -1
REMARK  0 active torsions:
REMARK  status: ('A' for Active; 'I' for Inactive)
ROOT
ATOM      1  C1  BNZ d   1       3.299   5.094  -3.963  0.00  0.00     0.000 A 
ATOM      2  C2  BNZ d   1       3.267   5.999  -4.991  0.00  0.00     0.000 A 
ATOM      3  C3  BNZ d   1       2.351   5.882  -5.999  0.00  0.00     0.000 A 
ATOM      4  C4  BNZ d   1       1.497   4.838  -5.999  0.00  0.00     0.000 A 
ATOM      5  C5  BNZ d   1       1.523   3.912  -4.976  0.00  0.00     0.000 A 
ATOM      6  C6  BNZ d   1       2.420   4.056  -3.942  0.00  0.00     0.000 A 
ENDROOT
TORSDOF 0
ENDMDL
