MODEL 1
REMARK minimizedAffinity 4.64543295
REMARK minimizedRMSD -1
REMARK  0 active torsions:
REMARK  status: ('A' for Active; 'I' for Inactive)
ROOT
ATOM      1  C1  BNZ d   1      -1.520  -3.357  -3.746  0.00  0.00     0.000 A 
ATOM      2  C2  BNZ d   1      -0.985  -2.815  -4.885  0.00  0.00     0.000 A 
ATOM      3  C3  BNZ d   1      -1.754  -2.630  -6.000  0.00  0.00     0.000 A 
ATOM      4  C4  BNZ d   1      -3.044  -3.023  -5.988  0.00  0.00     0.000 A 
ATOM      5  C5  BNZ d   1      -3.595  -3.580  -4.851  0.00  0.00     0.000 A 
ATOM      6  C6  BNZ d   1      -2.829  -3.729  -3.718  0.00  0.00     0.000 A 
ENDROOT
TORSDOF 0
ENDMDL
