MODEL 1
REMARK minimizedAffinity 1.6315707
REMARK minimizedRMSD -1
REMARK  0 active torsions:
REMARK  status: ('A' for Active; 'I' for Inactive)
ROOT
ATOM      1  C1  BNZ d   1       2.531   2.672  -0.090  0.00  0.00     0.000 A 
ATOM      2  C2  BNZ d   1       3.300   1.541  -0.027  0.00  0.00     0.000 A 
ATOM      3  C3  BNZ d   1       3.339   0.782   1.109  0.00  0.00     0.000 A 
ATOM      4  C4  BNZ d   1       2.641   1.177   2.194  0.00  0.00     0.000 A 
ATOM      5  C5  BNZ d   1       1.868   2.320   2.149  0.00  0.00     0.000 A 
ATOM      6  C6  BNZ d   1       1.800   3.060   0.991  0.00  0.00     0.000 A 
ENDROOT
TORSDOF 0
ENDMDL
