MODEL 1
REMARK minimizedAffinity -0.733222246
REMARK minimizedRMSD -1
REMARK  0 active torsions:
REMARK  status: ('A' for Active; 'I' for Inactive)
ROOT
ATOM      1  C1  BNZ d   1       2.998   3.547  -5.688  0.00  0.00     0.000 A 
ATOM      2  C2  BNZ d   1       3.706   4.670  -5.353  0.00  0.00     0.000 A 
ATOM      3  C3  BNZ d   1       3.099   5.894  -5.314  0.00  0.00     0.000 A 
ATOM      4  C4  BNZ d   1       1.797   6.000  -5.649  0.00  0.00     0.000 A 
ATOM      5  C5  BNZ d   1       1.072   4.878  -5.998  0.00  0.00     0.000 A 
ATOM      6  C6  BNZ d   1       1.676   3.642  -5.999  0.00  0.00     0.000 A 
ENDROOT
TORSDOF 0
ENDMDL
