MODEL 1
REMARK minimizedAffinity 1.16907954
REMARK minimizedRMSD -1
REMARK  0 active torsions:
REMARK  status: ('A' for Active; 'I' for Inactive)
ROOT
ATOM      1  C1  BNZ d   1       3.474   6.000  -5.149  0.00  0.00     0.000 A 
ATOM      2  C2  BNZ d   1       3.767   4.967  -6.000  0.00  0.00     0.000 A 
ATOM      3  C3  BNZ d   1       3.027   3.818  -5.987  0.00  0.00     0.000 A 
ATOM      4  C4  BNZ d   1       2.022   3.687  -5.098  0.00  0.00     0.000 A 
ATOM      5  C5  BNZ d   1       1.720   4.715  -4.227  0.00  0.00     0.000 A 
ATOM      6  C6  BNZ d   1       2.442   5.885  -4.269  0.00  0.00     0.000 A 
ENDROOT
TORSDOF 0
ENDMDL
