MODEL 1
REMARK minimizedAffinity 1.48899877
REMARK minimizedRMSD -1
REMARK  0 active torsions:
REMARK  status: ('A' for Active; 'I' for Inactive)
ROOT
ATOM      1  C1  BNZ d   1      -1.635  -2.617  -4.824  0.00  0.00     0.000 A 
ATOM      2  C2  BNZ d   1      -2.227  -2.992  -6.000  0.00  0.00     0.000 A 
ATOM      3  C3  BNZ d   1      -3.384  -3.720  -6.000  0.00  0.00     0.000 A 
ATOM      4  C4  BNZ d   1      -3.925  -4.105  -4.826  0.00  0.00     0.000 A 
ATOM      5  C5  BNZ d   1      -3.335  -3.742  -3.632  0.00  0.00     0.000 A 
ATOM      6  C6  BNZ d   1      -2.191  -2.976  -3.635  0.00  0.00     0.000 A 
ENDROOT
TORSDOF 0
ENDMDL
