MODEL 1
REMARK minimizedAffinity 4.42710114
REMARK minimizedRMSD -1
REMARK  0 active torsions:
REMARK  status: ('A' for Active; 'I' for Inactive)
ROOT
ATOM      1  C1  BNZ d   1      -3.046  -1.699   0.086  0.00  0.00     0.000 A 
ATOM      2  C2  BNZ d   1      -2.332  -2.055   1.198  0.00  0.00     0.000 A 
ATOM      3  C3  BNZ d   1      -1.052  -2.523   1.088  0.00  0.00     0.000 A 
ATOM      4  C4  BNZ d   1      -0.504  -2.672  -0.135  0.00  0.00     0.000 A 
ATOM      5  C5  BNZ d   1      -1.215  -2.326  -1.267  0.00  0.00     0.000 A 
ATOM      6  C6  BNZ d   1      -2.489  -1.819  -1.150  0.00  0.00     0.000 A 
ENDROOT
TORSDOF 0
ENDMDL
