MODEL 1
REMARK minimizedAffinity -0.762028992
REMARK minimizedRMSD -1
REMARK  0 active torsions:
REMARK  status: ('A' for Active; 'I' for Inactive)
ROOT
ATOM      1  C1  BNZ d   1       2.041   3.514  -5.074  0.00  0.00     0.000 A 
ATOM      2  C2  BNZ d   1       2.977   3.840  -4.129  0.00  0.00     0.000 A 
ATOM      3  C3  BNZ d   1       3.528   5.091  -4.092  0.00  0.00     0.000 A 
ATOM      4  C4  BNZ d   1       3.172   6.000  -5.023  0.00  0.00     0.000 A 
ATOM      5  C5  BNZ d   1       2.236   5.683  -5.988  0.00  0.00     0.000 A 
ATOM      6  C6  BNZ d   1       1.656   4.435  -5.998  0.00  0.00     0.000 A 
ENDROOT
TORSDOF 0
ENDMDL
