MODEL 1
REMARK minimizedAffinity -2.33212829
REMARK minimizedRMSD -1
REMARK  0 active torsions:
REMARK  status: ('A' for Active; 'I' for Inactive)
ROOT
ATOM      1  C1  BNZ d   1       1.726   3.620  -5.977  0.00  0.00     0.000 A 
ATOM      2  C2  BNZ d   1       1.046   4.808  -6.000  0.00  0.00     0.000 A 
ATOM      3  C3  BNZ d   1       1.717   5.999  -5.976  0.00  0.00     0.000 A 
ATOM      4  C4  BNZ d   1       3.063   6.000  -5.889  0.00  0.00     0.000 A 
ATOM      5  C5  BNZ d   1       3.762   4.810  -5.856  0.00  0.00     0.000 A 
ATOM      6  C6  BNZ d   1       3.085   3.613  -5.919  0.00  0.00     0.000 A 
ENDROOT
TORSDOF 0
ENDMDL
