MODEL 1
REMARK minimizedAffinity 0.5258376
REMARK minimizedRMSD -1
REMARK  0 active torsions:
REMARK  status: ('A' for Active; 'I' for Inactive)
ROOT
ATOM      1  C1  BNZ d   1       2.955   5.199  -5.999  0.00  0.00     0.000 A 
ATOM      2  C2  BNZ d   1       2.247   4.027  -5.998  0.00  0.00     0.000 A 
ATOM      3  C3  BNZ d   1       1.587   3.609  -4.876  0.00  0.00     0.000 A 
ATOM      4  C4  BNZ d   1       1.670   4.342  -3.747  0.00  0.00     0.000 A 
ATOM      5  C5  BNZ d   1       2.388   5.521  -3.729  0.00  0.00     0.000 A 
ATOM      6  C6  BNZ d   1       3.018   5.958  -4.872  0.00  0.00     0.000 A 
ENDROOT
TORSDOF 0
ENDMDL
