MODEL 1
REMARK minimizedAffinity 6.25487137
REMARK minimizedRMSD -1
REMARK  0 active torsions:
REMARK  status: ('A' for Active; 'I' for Inactive)
ROOT
ATOM      1  C1  BNZ d   1      -0.336   2.255   2.897  0.00  0.00     0.000 A 
ATOM      2  C2  BNZ d   1      -1.349   3.166   2.752  0.00  0.00     0.000 A 
ATOM      3  C3  BNZ d   1      -1.188   4.272   1.965  0.00  0.00     0.000 A 
ATOM      4  C4  BNZ d   1      -0.004   4.486   1.357  0.00  0.00     0.000 A 
ATOM      5  C5  BNZ d   1       1.030   3.582   1.500  0.00  0.00     0.000 A 
ATOM      6  C6  BNZ d   1       0.852   2.450   2.262  0.00  0.00     0.000 A 
ENDROOT
TORSDOF 0
ENDMDL
