MODEL 1
REMARK minimizedAffinity 2.63142443
REMARK minimizedRMSD -1
REMARK  0 active torsions:
REMARK  status: ('A' for Active; 'I' for Inactive)
ROOT
ATOM      1  C1  BNZ d   1       1.318   2.010   2.329  0.00  0.00     0.000 A 
ATOM      2  C2  BNZ d   1       1.873   3.013   1.580  0.00  0.00     0.000 A 
ATOM      3  C3  BNZ d   1       1.157   4.136   1.274  0.00  0.00     0.000 A 
ATOM      4  C4  BNZ d   1      -0.124   4.237   1.683  0.00  0.00     0.000 A 
ATOM      5  C5  BNZ d   1      -0.701   3.231   2.431  0.00  0.00     0.000 A 
ATOM      6  C6  BNZ d   1       0.035   2.119   2.770  0.00  0.00     0.000 A 
ENDROOT
TORSDOF 0
ENDMDL
