MODEL 1
REMARK minimizedAffinity -3.43801308
REMARK minimizedRMSD -1
REMARK  0 active torsions:
REMARK  status: ('A' for Active; 'I' for Inactive)
ROOT
ATOM      1  C1  BNZ d   1       4.905   0.671  -5.745  0.00  0.00     0.000 A 
ATOM      2  C2  BNZ d   1       3.809  -0.110  -5.999  0.00  0.00     0.000 A 
ATOM      3  C3  BNZ d   1       3.792  -1.430  -5.643  0.00  0.00     0.000 A 
ATOM      4  C4  BNZ d   1       4.884  -1.976  -5.070  0.00  0.00     0.000 A 
ATOM      5  C5  BNZ d   1       6.000  -1.204  -4.816  0.00  0.00     0.000 A 
ATOM      6  C6  BNZ d   1       5.999   0.133  -5.140  0.00  0.00     0.000 A 
ENDROOT
TORSDOF 0
ENDMDL
