MODEL 1
REMARK minimizedAffinity 2.37177873
REMARK minimizedRMSD -1
REMARK  0 active torsions:
REMARK  status: ('A' for Active; 'I' for Inactive)
ROOT
ATOM      1  C1  BNZ d   1      -4.320  -2.675  -1.033  0.00  0.00     0.000 A 
ATOM      2  C2  BNZ d   1      -4.725  -3.572  -1.985  0.00  0.00     0.000 A 
ATOM      3  C3  BNZ d   1      -3.956  -3.817  -3.089  0.00  0.00     0.000 A 
ATOM      4  C4  BNZ d   1      -2.805  -3.136  -3.258  0.00  0.00     0.000 A 
ATOM      5  C5  BNZ d   1      -2.387  -2.222  -2.312  0.00  0.00     0.000 A 
ATOM      6  C6  BNZ d   1      -3.144  -2.007  -1.183  0.00  0.00     0.000 A 
ENDROOT
TORSDOF 0
ENDMDL
