MODEL 1
REMARK minimizedAffinity 0.915768325
REMARK minimizedRMSD -1
REMARK  0 active torsions:
REMARK  status: ('A' for Active; 'I' for Inactive)
ROOT
ATOM      1  C1  BNZ d   1       1.028   3.845  -0.776  0.00  0.00     0.000 A 
ATOM      2  C2  BNZ d   1      -0.001   4.325  -1.542  0.00  0.00     0.000 A 
ATOM      3  C3  BNZ d   1      -0.878   5.245  -1.040  0.00  0.00     0.000 A 
ATOM      4  C4  BNZ d   1      -0.750   5.654   0.239  0.00  0.00     0.000 A 
ATOM      5  C5  BNZ d   1       0.277   5.173   1.027  0.00  0.00     0.000 A 
ATOM      6  C6  BNZ d   1       1.181   4.276   0.506  0.00  0.00     0.000 A 
ENDROOT
TORSDOF 0
ENDMDL
