MODEL 1
REMARK minimizedAffinity -2.37270832
REMARK minimizedRMSD -1
REMARK  2 active torsions:
REMARK  status: ('A' for Active; 'I' for Inactive)
REMARK    1  A    between atoms: C1_2  and  C2_3 
REMARK    2  A    between atoms: C2_3  and  C3_4 
ROOT
ATOM      1  C3  UNL d   1      -0.207   0.474  -0.154  0.00  0.00    -0.075 A 
ATOM      2  C4  UNL d   1       1.027   0.877  -0.686  0.00  0.00     0.002 A 
ATOM      3  C5  UNL d   1       2.172   0.107  -0.479  0.00  0.00     0.002 A 
ATOM      4  C6  UNL d   1       2.101  -1.066   0.268  0.00  0.00    -0.004 A 
ATOM      5  C7  UNL d   1       0.884  -1.467   0.815  0.00  0.00     0.002 A 
ATOM      6  C8  UNL d   1      -0.264  -0.701   0.606  0.00  0.00     0.002 A 
ENDROOT
BRANCH   1   7
ATOM      7  C2  UNL d   1      -1.456   1.287  -0.399  0.00  0.00     0.056 C 
BRANCH   7   8
ATOM      8  C1  UNL d   1      -1.398   2.154  -1.661  0.00  0.00     0.007 C 
ATOM      9  C   UNL d   1      -2.689   2.127  -2.468  0.00  0.00     0.009 C 
ENDBRANCH   7   8
ENDBRANCH   1   7
TORSDOF 2
ENDMDL
