MODEL 1
REMARK minimizedAffinity -2.2157588
REMARK minimizedRMSD -1
REMARK  2 active torsions:
REMARK  status: ('A' for Active; 'I' for Inactive)
REMARK    1  A    between atoms: C1_2  and  C2_3 
REMARK    2  A    between atoms: C2_3  and  C3_4 
ROOT
ATOM      1  C3  UNL d   1      -1.027   0.880  -0.731  0.00  0.00    -0.075 A 
ATOM      2  C4  UNL d   1      -0.761   2.256  -0.803  0.00  0.00     0.002 A 
ATOM      3  C5  UNL d   1      -1.372   3.045  -1.777  0.00  0.00     0.002 A 
ATOM      4  C6  UNL d   1      -2.248   2.470  -2.696  0.00  0.00    -0.004 A 
ATOM      5  C7  UNL d   1      -2.506   1.102  -2.644  0.00  0.00     0.002 A 
ATOM      6  C8  UNL d   1      -1.899   0.310  -1.668  0.00  0.00     0.002 A 
ENDROOT
BRANCH   1   7
ATOM      7  C2  UNL d   1      -0.391   0.026   0.339  0.00  0.00     0.056 C 
BRANCH   7   8
ATOM      8  C1  UNL d   1      -1.146   0.032   1.673  0.00  0.00     0.007 C 
ATOM      9  C   UNL d   1      -0.684  -1.059   2.629  0.00  0.00     0.009 C 
ENDBRANCH   7   8
ENDBRANCH   1   7
TORSDOF 2
ENDMDL
