MODEL 1
REMARK minimizedAffinity -4.39607239
REMARK minimizedRMSD -1
REMARK  2 active torsions:
REMARK  status: ('A' for Active; 'I' for Inactive)
REMARK    1  A    between atoms: C1_2  and  C2_3 
REMARK    2  A    between atoms: C2_3  and  C3_4 
ROOT
ATOM      1  C3  UNL d   1      -0.238   0.822  -0.959  0.00  0.00    -0.075 A 
ATOM      2  C4  UNL d   1      -0.922   2.045  -0.893  0.00  0.00     0.002 A 
ATOM      3  C5  UNL d   1      -1.906   2.357  -1.831  0.00  0.00     0.002 A 
ATOM      4  C6  UNL d   1      -2.210   1.459  -2.852  0.00  0.00    -0.004 A 
ATOM      5  C7  UNL d   1      -1.525   0.249  -2.937  0.00  0.00     0.002 A 
ATOM      6  C8  UNL d   1      -0.543  -0.069  -1.997  0.00  0.00     0.002 A 
ENDROOT
BRANCH   1   7
ATOM      7  C2  UNL d   1       0.807   0.465   0.071  0.00  0.00     0.056 C 
BRANCH   7   8
ATOM      8  C1  UNL d   1       1.460  -0.903  -0.151  0.00  0.00     0.007 C 
ATOM      9  C   UNL d   1       1.779  -1.633   1.147  0.00  0.00     0.009 C 
ENDBRANCH   7   8
ENDBRANCH   1   7
TORSDOF 2
ENDMDL
