MODEL 1
REMARK minimizedAffinity -4.58340597
REMARK minimizedRMSD -1
REMARK  2 active torsions:
REMARK  status: ('A' for Active; 'I' for Inactive)
REMARK    1  A    between atoms: C1_2  and  C2_3 
REMARK    2  A    between atoms: C2_3  and  C3_4 
ROOT
ATOM      1  C3  UNL d   1       0.149   0.085  -0.036  0.00  0.00    -0.075 A 
ATOM      2  C4  UNL d   1      -0.180  -0.434   1.225  0.00  0.00     0.002 A 
ATOM      3  C5  UNL d   1       0.569  -1.472   1.780  0.00  0.00     0.002 A 
ATOM      4  C6  UNL d   1       1.646  -2.010   1.080  0.00  0.00    -0.004 A 
ATOM      5  C7  UNL d   1       1.971  -1.513  -0.181  0.00  0.00     0.002 A 
ATOM      6  C8  UNL d   1       1.226  -0.472  -0.737  0.00  0.00     0.002 A 
ENDROOT
BRANCH   1   7
ATOM      7  C2  UNL d   1      -0.639   1.229  -0.630  0.00  0.00     0.056 C 
BRANCH   7   8
ATOM      8  C1  UNL d   1      -1.379   0.871  -1.923  0.00  0.00     0.007 C 
ATOM      9  C   UNL d   1      -2.672   1.653  -2.112  0.00  0.00     0.009 C 
ENDBRANCH   7   8
ENDBRANCH   1   7
TORSDOF 2
ENDMDL
