MODEL 1
REMARK minimizedAffinity 2.44240451
REMARK minimizedRMSD -1
REMARK  2 active torsions:
REMARK  status: ('A' for Active; 'I' for Inactive)
REMARK    1  A    between atoms: C1_2  and  C2_3 
REMARK    2  A    between atoms: C2_3  and  C3_4 
ROOT
ATOM      1  C3  UNL d   1      -0.529   1.346  -1.224  0.00  0.00    -0.075 A 
ATOM      2  C4  UNL d   1      -1.775   0.713  -1.339  0.00  0.00     0.002 A 
ATOM      3  C5  UNL d   1      -2.594   0.958  -2.441  0.00  0.00     0.002 A 
ATOM      4  C6  UNL d   1      -2.185   1.845  -3.434  0.00  0.00    -0.004 A 
ATOM      5  C7  UNL d   1      -0.957   2.493  -3.321  0.00  0.00     0.002 A 
ATOM      6  C8  UNL d   1      -0.132   2.246  -2.222  0.00  0.00     0.002 A 
ENDROOT
BRANCH   1   7
ATOM      7  C2  UNL d   1       0.376   1.063  -0.048  0.00  0.00     0.056 C 
BRANCH   7   8
ATOM      8  C1  UNL d   1       1.711   0.415  -0.431  0.00  0.00     0.007 C 
ATOM      9  C   UNL d   1       1.976  -0.892   0.304  0.00  0.00     0.009 C 
ENDBRANCH   7   8
ENDBRANCH   1   7
TORSDOF 2
ENDMDL
