MODEL 1
REMARK minimizedAffinity -4.33730125
REMARK minimizedRMSD -1
REMARK  2 active torsions:
REMARK  status: ('A' for Active; 'I' for Inactive)
REMARK    1  A    between atoms: C1_2  and  C2_3 
REMARK    2  A    between atoms: C2_3  and  C3_4 
ROOT
ATOM      1  C3  UNL d   1      -0.725   0.771  -0.858  0.00  0.00    -0.075 A 
ATOM      2  C4  UNL d   1      -1.696   0.057  -1.576  0.00  0.00     0.002 A 
ATOM      3  C5  UNL d   1      -2.497   0.703  -2.518  0.00  0.00     0.002 A 
ATOM      4  C6  UNL d   1      -2.346   2.068  -2.747  0.00  0.00    -0.004 A 
ATOM      5  C7  UNL d   1      -1.396   2.791  -2.028  0.00  0.00     0.002 A 
ATOM      6  C8  UNL d   1      -0.590   2.147  -1.088  0.00  0.00     0.002 A 
ENDROOT
BRANCH   1   7
ATOM      7  C2  UNL d   1       0.165   0.073   0.142  0.00  0.00     0.056 C 
BRANCH   7   8
ATOM      8  C1  UNL d   1       1.648   0.058  -0.246  0.00  0.00     0.007 C 
ATOM      9  C   UNL d   1       2.218  -1.347  -0.384  0.00  0.00     0.009 C 
ENDBRANCH   7   8
ENDBRANCH   1   7
TORSDOF 2
ENDMDL
