MODEL 1
REMARK minimizedAffinity -2.8581028
REMARK minimizedRMSD -1
REMARK  2 active torsions:
REMARK  status: ('A' for Active; 'I' for Inactive)
REMARK    1  A    between atoms: C1_2  and  C2_3 
REMARK    2  A    between atoms: C2_3  and  C3_4 
ROOT
ATOM      1  C3  UNL d   1       0.411  -0.353   0.659  0.00  0.00    -0.075 A 
ATOM      2  C4  UNL d   1      -0.665  -0.468   1.551  0.00  0.00     0.002 A 
ATOM      3  C5  UNL d   1      -0.585  -1.323   2.650  0.00  0.00     0.002 A 
ATOM      4  C6  UNL d   1       0.565  -2.080   2.866  0.00  0.00    -0.004 A 
ATOM      5  C7  UNL d   1       1.633  -1.985   1.977  0.00  0.00     0.002 A 
ATOM      6  C8  UNL d   1       1.558  -1.127   0.879  0.00  0.00     0.002 A 
ENDROOT
BRANCH   1   7
ATOM      7  C2  UNL d   1       0.342   0.593  -0.517  0.00  0.00     0.056 C 
BRANCH   7   8
ATOM      8  C1  UNL d   1      -0.958   1.400  -0.592  0.00  0.00     0.007 C 
ATOM      9  C   UNL d   1      -1.079   2.226  -1.866  0.00  0.00     0.009 C 
ENDBRANCH   7   8
ENDBRANCH   1   7
TORSDOF 2
ENDMDL
