MODEL 1
REMARK minimizedAffinity -1.30427253
REMARK minimizedRMSD -1
REMARK  2 active torsions:
REMARK  status: ('A' for Active; 'I' for Inactive)
REMARK    1  A    between atoms: C1_2  and  C2_3 
REMARK    2  A    between atoms: C2_3  and  C3_4 
ROOT
ATOM      1  C3  UNL d   1       0.047   0.250   0.146  0.00  0.00    -0.075 A 
ATOM      2  C4  UNL d   1       1.404   0.589   0.052  0.00  0.00     0.002 A 
ATOM      3  C5  UNL d   1       2.374  -0.186   0.689  0.00  0.00     0.002 A 
ATOM      4  C6  UNL d   1       1.998  -1.302   1.434  0.00  0.00    -0.004 A 
ATOM      5  C7  UNL d   1       0.651  -1.638   1.548  0.00  0.00     0.002 A 
ATOM      6  C8  UNL d   1      -0.320  -0.867   0.908  0.00  0.00     0.002 A 
ENDROOT
BRANCH   1   7
ATOM      7  C2  UNL d   1      -1.005   1.068  -0.566  0.00  0.00     0.056 C 
BRANCH   7   8
ATOM      8  C1  UNL d   1      -0.435   2.159  -1.479  0.00  0.00     0.007 C 
ATOM      9  C   UNL d   1      -1.447   2.689  -2.485  0.00  0.00     0.009 C 
ENDBRANCH   7   8
ENDBRANCH   1   7
TORSDOF 2
ENDMDL
