MODEL 1
REMARK minimizedAffinity -3.60557342
REMARK minimizedRMSD -1
REMARK  2 active torsions:
REMARK  status: ('A' for Active; 'I' for Inactive)
REMARK    1  A    between atoms: C1_2  and  C2_3 
REMARK    2  A    between atoms: C2_3  and  C3_4 
ROOT
ATOM      1  C3  UNL d   1       1.047  -1.515   1.296  0.00  0.00    -0.075 A 
ATOM      2  C4  UNL d   1       2.350  -1.424   0.786  0.00  0.00     0.002 A 
ATOM      3  C5  UNL d   1       2.627  -0.603  -0.308  0.00  0.00     0.002 A 
ATOM      4  C6  UNL d   1       1.605   0.128  -0.909  0.00  0.00    -0.004 A 
ATOM      5  C7  UNL d   1       0.304   0.033  -0.421  0.00  0.00     0.002 A 
ATOM      6  C8  UNL d   1       0.025  -0.785   0.676  0.00  0.00     0.002 A 
ENDROOT
BRANCH   1   7
ATOM      7  C2  UNL d   1       0.747  -2.380   2.498  0.00  0.00     0.056 C 
BRANCH   7   8
ATOM      8  C1  UNL d   1      -0.020  -1.657   3.610  0.00  0.00     0.007 C 
ATOM      9  C   UNL d   1      -1.522  -1.604   3.367  0.00  0.00     0.009 C 
ENDBRANCH   7   8
ENDBRANCH   1   7
TORSDOF 2
ENDMDL
