MODEL 1
REMARK minimizedAffinity -4.60858631
REMARK minimizedRMSD -1
REMARK  2 active torsions:
REMARK  status: ('A' for Active; 'I' for Inactive)
REMARK    1  A    between atoms: C1_2  and  C2_3 
REMARK    2  A    between atoms: C2_3  and  C3_4 
ROOT
ATOM      1  C3  UNL d   1       0.115   0.315   0.101  0.00  0.00    -0.075 A 
ATOM      2  C4  UNL d   1       1.469   0.035  -0.135  0.00  0.00     0.002 A 
ATOM      3  C5  UNL d   1       2.054  -1.120   0.384  0.00  0.00     0.002 A 
ATOM      4  C6  UNL d   1       1.299  -2.002   1.153  0.00  0.00    -0.004 A 
ATOM      5  C7  UNL d   1      -0.043  -1.726   1.407  0.00  0.00     0.002 A 
ATOM      6  C8  UNL d   1      -0.633  -0.573   0.885  0.00  0.00     0.002 A 
ENDROOT
BRANCH   1   7
ATOM      7  C2  UNL d   1      -0.532   1.548  -0.483  0.00  0.00     0.056 C 
BRANCH   7   8
ATOM      8  C1  UNL d   1      -1.423   1.269  -1.698  0.00  0.00     0.007 C 
ATOM      9  C   UNL d   1      -1.589   2.477  -2.611  0.00  0.00     0.009 C 
ENDBRANCH   7   8
ENDBRANCH   1   7
TORSDOF 2
ENDMDL
