MODEL 1
REMARK minimizedAffinity -3.4250536
REMARK minimizedRMSD -1
REMARK  2 active torsions:
REMARK  status: ('A' for Active; 'I' for Inactive)
REMARK    1  A    between atoms: C1_2  and  C2_3 
REMARK    2  A    between atoms: C2_3  and  C3_4 
ROOT
ATOM      1  C3  UNL d   1      -0.379   0.911  -0.560  0.00  0.00    -0.075 A 
ATOM      2  C4  UNL d   1      -1.373   0.104   0.013  0.00  0.00     0.002 A 
ATOM      3  C5  UNL d   1      -2.683   0.147  -0.466  0.00  0.00     0.002 A 
ATOM      4  C6  UNL d   1      -3.017   1.001  -1.514  0.00  0.00    -0.004 A 
ATOM      5  C7  UNL d   1      -2.041   1.819  -2.079  0.00  0.00     0.002 A 
ATOM      6  C8  UNL d   1      -0.729   1.775  -1.605  0.00  0.00     0.002 A 
ENDROOT
BRANCH   1   7
ATOM      7  C2  UNL d   1       1.047   0.848  -0.066  0.00  0.00     0.056 C 
BRANCH   7   8
ATOM      8  C1  UNL d   1       1.821  -0.382  -0.550  0.00  0.00     0.007 C 
ATOM      9  C   UNL d   1       2.521  -1.133   0.575  0.00  0.00     0.009 C 
ENDBRANCH   7   8
ENDBRANCH   1   7
TORSDOF 2
ENDMDL
