MODEL 1
REMARK minimizedAffinity 10.4559164
REMARK minimizedRMSD -1
REMARK  0 active torsions:
REMARK  status: ('A' for Active; 'I' for Inactive)
ROOT
ATOM      1  C4' PXY d   1       4.611  -0.002  -4.472  0.00  0.00     0.077 C 
ATOM      2  C1' PXY d   1       1.910  -3.805  -1.057  0.00  0.00     0.077 C 
ATOM      3  C1  PXY d   1       2.615  -2.798  -1.945  0.00  0.00    -0.082 A 
ATOM      4  C2  PXY d   1       2.772  -3.057  -3.233  0.00  0.00     0.003 A 
ATOM      5  C3  PXY d   1       3.435  -2.172  -4.043  0.00  0.00     0.003 A 
ATOM      6  C4  PXY d   1       3.897  -0.985  -3.541  0.00  0.00    -0.082 A 
ATOM      7  C5  PXY d   1       3.732  -0.708  -2.230  0.00  0.00     0.003 A 
ATOM      8  C6  PXY d   1       3.092  -1.638  -1.416  0.00  0.00     0.003 A 
ENDROOT
TORSDOF 0
ENDMDL
