MODEL 1
REMARK minimizedAffinity 4.68975782
REMARK minimizedRMSD -1
REMARK  0 active torsions:
REMARK  status: ('A' for Active; 'I' for Inactive)
ROOT
ATOM      1  C4' PXY d   1       6.000   6.000  -5.999  0.00  0.00     0.077 C 
ATOM      2  C1' PXY d   1       3.116   4.836  -1.126  0.00  0.00     0.077 C 
ATOM      3  C1  PXY d   1       3.879   5.151  -2.398  0.00  0.00    -0.082 A 
ATOM      4  C2  PXY d   1       3.334   4.877  -3.572  0.00  0.00     0.003 A 
ATOM      5  C3  PXY d   1       4.024   5.126  -4.731  0.00  0.00     0.003 A 
ATOM      6  C4  PXY d   1       5.262   5.708  -4.689  0.00  0.00    -0.082 A 
ATOM      7  C5  PXY d   1       5.820   6.000  -3.496  0.00  0.00     0.003 A 
ATOM      8  C6  PXY d   1       5.121   5.702  -2.329  0.00  0.00     0.003 A 
ENDROOT
TORSDOF 0
ENDMDL
