MODEL 1
REMARK minimizedAffinity 5.21150398
REMARK minimizedRMSD -1
REMARK  0 active torsions:
REMARK  status: ('A' for Active; 'I' for Inactive)
ROOT
ATOM      1  C4' PXY d   1      -5.948  -2.867  -5.999  0.00  0.00     0.077 C 
ATOM      2  C1' PXY d   1      -4.073  -5.349  -1.127  0.00  0.00     0.077 C 
ATOM      3  C1  PXY d   1      -4.558  -4.707  -2.412  0.00  0.00    -0.082 A 
ATOM      4  C2  PXY d   1      -4.933  -3.438  -2.408  0.00  0.00     0.003 A 
ATOM      5  C3  PXY d   1      -5.405  -2.851  -3.553  0.00  0.00     0.003 A 
ATOM      6  C4  PXY d   1      -5.442  -3.554  -4.728  0.00  0.00    -0.082 A 
ATOM      7  C5  PXY d   1      -5.050  -4.846  -4.742  0.00  0.00     0.003 A 
ATOM      8  C6  PXY d   1      -4.614  -5.435  -3.559  0.00  0.00     0.003 A 
ENDROOT
TORSDOF 0
ENDMDL
