MODEL 1
REMARK minimizedAffinity 5.02149582
REMARK minimizedRMSD -1
REMARK  0 active torsions:
REMARK  status: ('A' for Active; 'I' for Inactive)
ROOT
ATOM      1  C4' PXY d   1      -0.424   2.168   1.186  0.00  0.00     0.077 C 
ATOM      2  C1' PXY d   1       0.760  -3.441   0.441  0.00  0.00     0.077 C 
ATOM      3  C1  PXY d   1       0.439  -1.971   0.629  0.00  0.00    -0.082 A 
ATOM      4  C2  PXY d   1       1.405  -1.127   0.950  0.00  0.00     0.003 A 
ATOM      5  C3  PXY d   1       1.127   0.200   1.155  0.00  0.00     0.003 A 
ATOM      6  C4  PXY d   1      -0.144   0.677   0.977  0.00  0.00    -0.082 A 
ATOM      7  C5  PXY d   1      -1.134  -0.177   0.639  0.00  0.00     0.003 A 
ATOM      8  C6  PXY d   1      -0.838  -1.527   0.476  0.00  0.00     0.003 A 
ENDROOT
TORSDOF 0
ENDMDL
