MODEL 1
REMARK minimizedAffinity 9.20618439
REMARK minimizedRMSD -1
REMARK  0 active torsions:
REMARK  status: ('A' for Active; 'I' for Inactive)
ROOT
ATOM      1  C4' PXY d   1      -5.974  -5.999  -4.695  0.00  0.00     0.077 C 
ATOM      2  C1' PXY d   1      -5.320  -0.260  -4.907  0.00  0.00     0.077 C 
ATOM      3  C1  PXY d   1      -5.499  -1.764  -4.862  0.00  0.00    -0.082 A 
ATOM      4  C2  PXY d   1      -5.340  -2.408  -3.717  0.00  0.00     0.003 A 
ATOM      5  C3  PXY d   1      -5.467  -3.772  -3.665  0.00  0.00     0.003 A 
ATOM      6  C4  PXY d   1      -5.812  -4.479  -4.785  0.00  0.00    -0.082 A 
ATOM      7  C5  PXY d   1      -5.987  -3.829  -5.955  0.00  0.00     0.003 A 
ATOM      8  C6  PXY d   1      -5.813  -2.448  -5.996  0.00  0.00     0.003 A 
ENDROOT
TORSDOF 0
ENDMDL
