MODEL 1
REMARK minimizedAffinity 5.74798727
REMARK minimizedRMSD -1
REMARK  0 active torsions:
REMARK  status: ('A' for Active; 'I' for Inactive)
ROOT
ATOM      1  C4' PXY d   1       3.091   3.651   0.248  0.00  0.00     0.077 C 
ATOM      2  C1' PXY d   1       2.115  -1.781   1.966  0.00  0.00     0.077 C 
ATOM      3  C1  PXY d   1       2.358  -0.354   1.517  0.00  0.00    -0.082 A 
ATOM      4  C2  PXY d   1       3.412  -0.075   0.767  0.00  0.00     0.003 A 
ATOM      5  C3  PXY d   1       3.664   1.216   0.379  0.00  0.00     0.003 A 
ATOM      6  C4  PXY d   1       2.801   2.223   0.717  0.00  0.00    -0.082 A 
ATOM      7  C5  PXY d   1       1.718   1.944   1.473  0.00  0.00     0.003 A 
ATOM      8  C6  PXY d   1       1.502   0.635   1.892  0.00  0.00     0.003 A 
ENDROOT
TORSDOF 0
ENDMDL
