MODEL 1
REMARK minimizedAffinity 0.0713620558
REMARK minimizedRMSD -1
REMARK  0 active torsions:
REMARK  status: ('A' for Active; 'I' for Inactive)
ROOT
ATOM      1  C4' PXY d   1       1.592  -2.741   6.000  0.00  0.00     0.077 C 
ATOM      2  C1' PXY d   1       1.232   0.588   1.288  0.00  0.00     0.077 C 
ATOM      3  C1  PXY d   1       1.327  -0.296   2.516  0.00  0.00    -0.082 A 
ATOM      4  C2  PXY d   1       0.875   0.148   3.677  0.00  0.00     0.003 A 
ATOM      5  C3  PXY d   1       0.982  -0.625   4.805  0.00  0.00     0.003 A 
ATOM      6  C4  PXY d   1       1.509  -1.887   4.732  0.00  0.00    -0.082 A 
ATOM      7  C5  PXY d   1       1.963  -2.351   3.548  0.00  0.00     0.003 A 
ATOM      8  C6  PXY d   1       1.883  -1.534   2.424  0.00  0.00     0.003 A 
ENDROOT
TORSDOF 0
ENDMDL
