MODEL 1
REMARK minimizedAffinity 2.71289802
REMARK minimizedRMSD -1
REMARK  0 active torsions:
REMARK  status: ('A' for Active; 'I' for Inactive)
ROOT
ATOM      1  C4' PXY d   1       1.341   0.826   4.947  0.00  0.00     0.077 C 
ATOM      2  C1' PXY d   1       2.682  -3.055   0.879  0.00  0.00     0.077 C 
ATOM      3  C1  PXY d   1       2.328  -2.047   1.954  0.00  0.00    -0.082 A 
ATOM      4  C2  PXY d   1       1.881  -0.851   1.608  0.00  0.00     0.003 A 
ATOM      5  C3  PXY d   1       1.587   0.084   2.567  0.00  0.00     0.003 A 
ATOM      6  C4  PXY d   1       1.701  -0.226   3.895  0.00  0.00    -0.082 A 
ATOM      7  C5  PXY d   1       2.147  -1.448   4.257  0.00  0.00     0.003 A 
ATOM      8  C6  PXY d   1       2.479  -2.369   3.268  0.00  0.00     0.003 A 
ENDROOT
TORSDOF 0
ENDMDL
