MODEL 1
REMARK minimizedAffinity -1.60015154
REMARK minimizedRMSD -1
REMARK  0 active torsions:
REMARK  status: ('A' for Active; 'I' for Inactive)
ROOT
ATOM      1  C4' PXY d   1       1.794   5.270  -0.319  0.00  0.00     0.077 C 
ATOM      2  C1' PXY d   1       2.057   0.135   2.321  0.00  0.00     0.077 C 
ATOM      3  C1  PXY d   1       1.975   1.480   1.627  0.00  0.00    -0.082 A 
ATOM      4  C2  PXY d   1       3.062   2.001   1.080  0.00  0.00     0.003 A 
ATOM      5  C3  PXY d   1       3.013   3.231   0.476  0.00  0.00     0.003 A 
ATOM      6  C4  PXY d   1       1.828   3.910   0.384  0.00  0.00    -0.082 A 
ATOM      7  C5  PXY d   1       0.713   3.381   0.930  0.00  0.00     0.003 A 
ATOM      8  C6  PXY d   1       0.792   2.150   1.575  0.00  0.00     0.003 A 
ENDROOT
TORSDOF 0
ENDMDL
