MODEL 1
REMARK minimizedAffinity -2.04653907
REMARK minimizedRMSD -1
REMARK  1 active torsions:
REMARK  status: ('A' for Active; 'I' for Inactive)
REMARK    1  A    between atoms: C1_2  and  C2_3 
ROOT
ATOM      1  C2  UNL d   1      -0.208   1.284   0.870  0.00  0.00    -0.076 A 
ATOM      2  C3  UNL d   1      -0.438   1.906  -0.370  0.00  0.00     0.004 A 
ATOM      3  C4  UNL d   1      -0.087   1.279  -1.563  0.00  0.00    -0.003 A 
ATOM      4  C5  UNL d   1       0.499   0.018  -1.537  0.00  0.00     0.000 A 
ATOM      5  C6  UNL d   1       0.718  -0.622  -0.318  0.00  0.00     0.000 A 
ATOM      6  C7  UNL d   1       0.355  -0.009   0.894  0.00  0.00    -0.073 A 
ATOM      7  C8  UNL d   1       0.620  -0.742   2.181  0.00  0.00     0.078 C 
ENDROOT
BRANCH   1   8
ATOM      8  C1  UNL d   1      -0.585   2.025   2.133  0.00  0.00     0.053 C 
ATOM      9  C   UNL d   1      -1.511   3.201   1.864  0.00  0.00     0.018 C 
ENDBRANCH   1   8
TORSDOF 1
ENDMDL
