MODEL 1
REMARK minimizedAffinity -5.69906664
REMARK minimizedRMSD -1
REMARK  1 active torsions:
REMARK  status: ('A' for Active; 'I' for Inactive)
REMARK    1  A    between atoms: C1_2  and  C2_3 
ROOT
ATOM      1  C2  UNL d   1       0.130   0.005  -0.258  0.00  0.00    -0.076 A 
ATOM      2  C3  UNL d   1      -0.559   0.979  -1.001  0.00  0.00     0.004 A 
ATOM      3  C4  UNL d   1      -1.111   2.098  -0.380  0.00  0.00    -0.003 A 
ATOM      4  C5  UNL d   1      -0.982   2.261   0.995  0.00  0.00     0.000 A 
ATOM      5  C6  UNL d   1      -0.287   1.314   1.745  0.00  0.00     0.000 A 
ATOM      6  C7  UNL d   1       0.290   0.188   1.132  0.00  0.00    -0.073 A 
ATOM      7  C8  UNL d   1       1.024  -0.805   1.991  0.00  0.00     0.078 C 
ENDROOT
BRANCH   1   8
ATOM      8  C1  UNL d   1       0.684  -1.201  -0.982  0.00  0.00     0.053 C 
ATOM      9  C   UNL d   1      -0.325  -2.335  -1.083  0.00  0.00     0.018 C 
ENDBRANCH   1   8
TORSDOF 1
ENDMDL
