MODEL 1
REMARK minimizedAffinity -3.00353384
REMARK minimizedRMSD -1
REMARK  1 active torsions:
REMARK  status: ('A' for Active; 'I' for Inactive)
REMARK    1  A    between atoms: C1_2  and  C2_3 
ROOT
ATOM      1  C2  UNL d   1      -0.494   1.250   0.496  0.00  0.00    -0.076 A 
ATOM      2  C3  UNL d   1      -0.494   1.415  -0.900  0.00  0.00     0.004 A 
ATOM      3  C4  UNL d   1       0.331   0.642  -1.714  0.00  0.00    -0.003 A 
ATOM      4  C5  UNL d   1       1.170  -0.310  -1.145  0.00  0.00     0.000 A 
ATOM      5  C6  UNL d   1       1.171  -0.500   0.236  0.00  0.00     0.000 A 
ATOM      6  C7  UNL d   1       0.333   0.261   1.070  0.00  0.00    -0.073 A 
ATOM      7  C8  UNL d   1       0.379   0.019   2.554  0.00  0.00     0.078 C 
ENDROOT
BRANCH   1   8
ATOM      8  C1  UNL d   1      -1.390   2.137   1.331  0.00  0.00     0.053 C 
ATOM      9  C   UNL d   1      -2.546   1.372   1.958  0.00  0.00     0.018 C 
ENDBRANCH   1   8
TORSDOF 1
ENDMDL
