MODEL 1
REMARK minimizedAffinity -4.47024536
REMARK minimizedRMSD -1
REMARK  1 active torsions:
REMARK  status: ('A' for Active; 'I' for Inactive)
REMARK    1  A    between atoms: C1_2  and  C2_3 
ROOT
ATOM      1  C2  UNL d   1       0.089   0.109  -0.208  0.00  0.00    -0.076 A 
ATOM      2  C3  UNL d   1      -0.971   0.867  -0.735  0.00  0.00     0.004 A 
ATOM      3  C4  UNL d   1      -1.595   1.854   0.026  0.00  0.00    -0.003 A 
ATOM      4  C5  UNL d   1      -1.169   2.100   1.326  0.00  0.00     0.000 A 
ATOM      5  C6  UNL d   1      -0.107   1.370   1.860  0.00  0.00     0.000 A 
ATOM      6  C7  UNL d   1       0.543   0.382   1.100  0.00  0.00    -0.073 A 
ATOM      7  C8  UNL d   1       1.679  -0.380   1.727  0.00  0.00     0.078 C 
ENDROOT
BRANCH   1   8
ATOM      8  C1  UNL d   1       0.709  -0.967  -1.070  0.00  0.00     0.053 C 
ATOM      9  C   UNL d   1      -0.282  -2.059  -1.442  0.00  0.00     0.018 C 
ENDBRANCH   1   8
TORSDOF 1
ENDMDL
