MODEL 1
REMARK minimizedAffinity -1.3593787
REMARK minimizedRMSD -1
REMARK  1 active torsions:
REMARK  status: ('A' for Active; 'I' for Inactive)
REMARK    1  A    between atoms: C1_2  and  C2_3 
ROOT
ATOM      1  C2  UNL d   1       0.673  -0.999  -0.795  0.00  0.00    -0.076 A 
ATOM      2  C3  UNL d   1       1.031  -0.055  -1.774  0.00  0.00     0.004 A 
ATOM      3  C4  UNL d   1       0.441   1.207  -1.803  0.00  0.00    -0.003 A 
ATOM      4  C5  UNL d   1      -0.516   1.547  -0.853  0.00  0.00     0.000 A 
ATOM      5  C6  UNL d   1      -0.870   0.630   0.136  0.00  0.00     0.000 A 
ATOM      6  C7  UNL d   1      -0.273  -0.641   0.189  0.00  0.00    -0.073 A 
ATOM      7  C8  UNL d   1      -0.697  -1.593   1.274  0.00  0.00     0.078 C 
ENDROOT
BRANCH   1   8
ATOM      8  C1  UNL d   1       1.327  -2.362  -0.830  0.00  0.00     0.053 C 
ATOM      9  C   UNL d   1       0.324  -3.483  -1.051  0.00  0.00     0.018 C 
ENDBRANCH   1   8
TORSDOF 1
ENDMDL
