MODEL 1
REMARK minimizedAffinity -2.57648969
REMARK minimizedRMSD -1
REMARK  1 active torsions:
REMARK  status: ('A' for Active; 'I' for Inactive)
REMARK    1  A    between atoms: C1_2  and  C2_3 
ROOT
ATOM      1  C2  UNL d   1      -0.444  -1.248  -0.296  0.00  0.00    -0.076 A 
ATOM      2  C3  UNL d   1      -1.618  -2.019  -0.236  0.00  0.00     0.004 A 
ATOM      3  C4  UNL d   1      -1.646  -3.324  -0.726  0.00  0.00    -0.003 A 
ATOM      4  C5  UNL d   1      -0.499  -3.880  -1.282  0.00  0.00     0.000 A 
ATOM      5  C6  UNL d   1       0.679  -3.136  -1.334  0.00  0.00     0.000 A 
ATOM      6  C7  UNL d   1       0.729  -1.825  -0.830  0.00  0.00    -0.073 A 
ATOM      7  C8  UNL d   1       2.025  -1.066  -0.917  0.00  0.00     0.078 C 
ENDROOT
BRANCH   1   8
ATOM      8  C1  UNL d   1      -0.481   0.170   0.225  0.00  0.00     0.053 C 
ATOM      9  C   UNL d   1      -0.068   0.265   1.686  0.00  0.00     0.018 C 
ENDBRANCH   1   8
TORSDOF 1
ENDMDL
