MODEL 1
REMARK minimizedAffinity -2.54246664
REMARK minimizedRMSD -1
REMARK  1 active torsions:
REMARK  status: ('A' for Active; 'I' for Inactive)
REMARK    1  A    between atoms: C1_2  and  C2_3 
ROOT
ATOM      1  C2  UNL d   1      -0.080   0.166   0.247  0.00  0.00    -0.076 A 
ATOM      2  C3  UNL d   1      -0.990   0.989  -0.439  0.00  0.00     0.004 A 
ATOM      3  C4  UNL d   1      -1.628   2.047   0.206  0.00  0.00    -0.003 A 
ATOM      4  C5  UNL d   1      -1.365   2.299   1.548  0.00  0.00     0.000 A 
ATOM      5  C6  UNL d   1      -0.452   1.504   2.240  0.00  0.00     0.000 A 
ATOM      6  C7  UNL d   1       0.211   0.443   1.599  0.00  0.00    -0.073 A 
ATOM      7  C8  UNL d   1       1.182  -0.386   2.395  0.00  0.00     0.078 C 
ENDROOT
BRANCH   1   8
ATOM      8  C1  UNL d   1       0.560  -0.984  -0.498  0.00  0.00     0.053 C 
ATOM      9  C   UNL d   1      -0.296  -2.241  -0.477  0.00  0.00     0.018 C 
ENDBRANCH   1   8
TORSDOF 1
ENDMDL
