MODEL 1
REMARK minimizedAffinity -5.57123518
REMARK minimizedRMSD -1
REMARK  1 active torsions:
REMARK  status: ('A' for Active; 'I' for Inactive)
REMARK    1  A    between atoms: C1_2  and  C2_3 
ROOT
ATOM      1  C2  UNL d   1       0.168   0.192   0.025  0.00  0.00    -0.076 A 
ATOM      2  C3  UNL d   1      -0.617   1.099  -0.707  0.00  0.00     0.004 A 
ATOM      3  C4  UNL d   1      -1.201   2.204  -0.089  0.00  0.00    -0.003 A 
ATOM      4  C5  UNL d   1      -1.008   2.420   1.271  0.00  0.00     0.000 A 
ATOM      5  C6  UNL d   1      -0.217   1.539   2.009  0.00  0.00     0.000 A 
ATOM      6  C7  UNL d   1       0.391   0.429   1.398  0.00  0.00    -0.073 A 
ATOM      7  C8  UNL d   1       1.229  -0.491   2.243  0.00  0.00     0.078 C 
ENDROOT
BRANCH   1   8
ATOM      8  C1  UNL d   1       0.753  -1.003  -0.693  0.00  0.00     0.053 C 
ATOM      9  C   UNL d   1      -0.255  -2.128  -0.870  0.00  0.00     0.018 C 
ENDBRANCH   1   8
TORSDOF 1
ENDMDL
