MODEL 1
REMARK minimizedAffinity 14.6490631
REMARK minimizedRMSD -1
REMARK  0 active torsions:
REMARK  status: ('A' for Active; 'I' for Inactive)
ROOT
ATOM      1  N1  IND d   1       5.005   4.023  -2.511  0.00  0.00    -0.196 N 
ATOM      2  C2  IND d   1       5.282   5.187  -1.850  0.00  0.00     0.054 A 
ATOM      3  C3  IND d   1       4.201   5.999  -1.854  0.00  0.00    -0.031 A 
ATOM      4  C4  IND d   1       1.843   5.578  -2.798  0.00  0.00     0.051 A 
ATOM      5  C5  IND d   1       1.118   4.674  -3.523  0.00  0.00    -0.031 A 
ATOM      6  C6  IND d   1       1.662   3.481  -3.954  0.00  0.00     0.015 A 
ATOM      7  C7  IND d   1       2.954   3.142  -3.665  0.00  0.00    -0.016 A 
ATOM      8  C8  IND d   1       3.695   4.060  -2.935  0.00  0.00    -0.047 A 
ATOM      9  C9  IND d   1       3.161   5.291  -2.531  0.00  0.00    -0.096 A 
ATOM     10  HN1 IND d   1       5.556   3.376  -2.640  0.00  0.00     0.298 HD
ENDROOT
TORSDOF 0
ENDMDL
