MODEL 1
REMARK minimizedAffinity 14.1453228
REMARK minimizedRMSD -1
REMARK  0 active torsions:
REMARK  status: ('A' for Active; 'I' for Inactive)
ROOT
ATOM      1  N1  IND d   1      -2.767  -3.577   1.228  0.00  0.00    -0.196 N 
ATOM      2  C2  IND d   1      -3.960  -3.708   1.883  0.00  0.00     0.054 A 
ATOM      3  C3  IND d   1      -4.255  -2.572   2.555  0.00  0.00    -0.031 A 
ATOM      4  C4  IND d   1      -2.974  -0.341   2.637  0.00  0.00     0.051 A 
ATOM      5  C5  IND d   1      -1.811   0.250   2.228  0.00  0.00    -0.031 A 
ATOM      6  C6  IND d   1      -0.890  -0.418   1.446  0.00  0.00     0.015 A 
ATOM      7  C7  IND d   1      -1.104  -1.703   1.034  0.00  0.00    -0.016 A 
ATOM      8  C8  IND d   1      -2.280  -2.308   1.453  0.00  0.00    -0.047 A 
ATOM      9  C9  IND d   1      -3.199  -1.650   2.281  0.00  0.00    -0.096 A 
ATOM     10  HN1 IND d   1      -2.385  -4.184   0.755  0.00  0.00     0.298 HD
ENDROOT
TORSDOF 0
ENDMDL
