MODEL 1
REMARK minimizedAffinity 6.28649712
REMARK minimizedRMSD -1
REMARK  0 active torsions:
REMARK  status: ('A' for Active; 'I' for Inactive)
ROOT
ATOM      1  N1  IND d   1      -4.157  -2.783   3.465  0.00  0.00    -0.196 N 
ATOM      2  C2  IND d   1      -3.892  -3.300   2.227  0.00  0.00     0.054 A 
ATOM      3  C3  IND d   1      -4.318  -4.581   2.152  0.00  0.00    -0.031 A 
ATOM      4  C4  IND d   1      -5.566  -5.995   3.904  0.00  0.00     0.051 A 
ATOM      5  C5  IND d   1      -6.000  -5.968   5.200  0.00  0.00    -0.031 A 
ATOM      6  C6  IND d   1      -5.841  -4.854   5.999  0.00  0.00     0.015 A 
ATOM      7  C7  IND d   1      -5.249  -3.717   5.526  0.00  0.00    -0.016 A 
ATOM      8  C8  IND d   1      -4.801  -3.743   4.213  0.00  0.00    -0.047 A 
ATOM      9  C9  IND d   1      -4.922  -4.885   3.411  0.00  0.00    -0.096 A 
ATOM     10  HN1 IND d   1      -3.954  -1.991   3.731  0.00  0.00     0.298 HD
ENDROOT
TORSDOF 0
ENDMDL
