MODEL 1
REMARK minimizedAffinity 16.2209606
REMARK minimizedRMSD -1
REMARK  0 active torsions:
REMARK  status: ('A' for Active; 'I' for Inactive)
ROOT
ATOM      1  N1  IND d   1      -5.997  -5.999   4.732  0.00  0.00    -0.196 N 
ATOM      2  C2  IND d   1      -5.960  -5.480   5.996  0.00  0.00     0.054 A 
ATOM      3  C3  IND d   1      -5.301  -4.299   5.999  0.00  0.00    -0.031 A 
ATOM      4  C4  IND d   1      -4.293  -2.982   4.030  0.00  0.00     0.051 A 
ATOM      5  C5  IND d   1      -4.048  -3.070   2.689  0.00  0.00    -0.031 A 
ATOM      6  C6  IND d   1      -4.451  -4.160   1.944  0.00  0.00     0.015 A 
ATOM      7  C7  IND d   1      -5.127  -5.201   2.513  0.00  0.00    -0.016 A 
ATOM      8  C8  IND d   1      -5.371  -5.119   3.877  0.00  0.00    -0.047 A 
ATOM      9  C9  IND d   1      -4.927  -4.035   4.646  0.00  0.00    -0.096 A 
ATOM     10  HN1 IND d   1      -6.352  -6.750   4.508  0.00  0.00     0.298 HD
ENDROOT
TORSDOF 0
ENDMDL
