MODEL 1
REMARK minimizedAffinity 12.3772726
REMARK minimizedRMSD -1
REMARK  0 active torsions:
REMARK  status: ('A' for Active; 'I' for Inactive)
ROOT
ATOM      1  N1  IND d   1       4.203   4.955  -1.482  0.00  0.00    -0.196 N 
ATOM      2  C2  IND d   1       5.142   5.921  -1.252  0.00  0.00     0.054 A 
ATOM      3  C3  IND d   1       6.000   6.000  -2.294  0.00  0.00    -0.031 A 
ATOM      4  C4  IND d   1       5.989   4.711  -4.523  0.00  0.00     0.051 A 
ATOM      5  C5  IND d   1       5.347   3.698  -5.178  0.00  0.00    -0.031 A 
ATOM      6  C6  IND d   1       4.267   3.041  -4.625  0.00  0.00     0.015 A 
ATOM      7  C7  IND d   1       3.780   3.381  -3.395  0.00  0.00    -0.016 A 
ATOM      8  C8  IND d   1       4.434   4.405  -2.723  0.00  0.00    -0.047 A 
ATOM      9  C9  IND d   1       5.556   5.047  -3.262  0.00  0.00    -0.096 A 
ATOM     10  HN1 IND d   1       3.573   4.728  -0.941  0.00  0.00     0.298 HD
ENDROOT
TORSDOF 0
ENDMDL
