MODEL 1
REMARK minimizedAffinity 12.1754169
REMARK minimizedRMSD -1
REMARK  0 active torsions:
REMARK  status: ('A' for Active; 'I' for Inactive)
ROOT
ATOM      1  N1  IND d   1       5.160   2.752   2.051  0.00  0.00    -0.196 N 
ATOM      2  C2  IND d   1       6.000   3.362   1.160  0.00  0.00     0.054 A 
ATOM      3  C3  IND d   1       5.758   2.918  -0.093  0.00  0.00    -0.031 A 
ATOM      4  C4  IND d   1       3.965   1.270  -0.928  0.00  0.00     0.051 A 
ATOM      5  C5  IND d   1       2.988   0.425  -0.482  0.00  0.00    -0.031 A 
ATOM      6  C6  IND d   1       2.676   0.313   0.857  0.00  0.00     0.015 A 
ATOM      7  C7  IND d   1       3.326   1.053   1.804  0.00  0.00    -0.016 A 
ATOM      8  C8  IND d   1       4.324   1.906   1.356  0.00  0.00    -0.047 A 
ATOM      9  C9  IND d   1       4.673   1.993   0.002  0.00  0.00    -0.096 A 
ATOM     10  HN1 IND d   1       5.155   2.877   2.901  0.00  0.00     0.298 HD
ENDROOT
TORSDOF 0
ENDMDL
