MODEL 1
REMARK minimizedAffinity 14.252099
REMARK minimizedRMSD -1
REMARK  0 active torsions:
REMARK  status: ('A' for Active; 'I' for Inactive)
ROOT
ATOM      1  N1  IND d   1       4.876   3.287  -5.261  0.00  0.00    -0.196 N 
ATOM      2  C2  IND d   1       5.890   4.172  -5.024  0.00  0.00     0.054 A 
ATOM      3  C3  IND d   1       5.632   4.896  -3.911  0.00  0.00    -0.031 A 
ATOM      4  C4  IND d   1       3.656   4.724  -2.271  0.00  0.00     0.051 A 
ATOM      5  C5  IND d   1       2.460   4.087  -2.087  0.00  0.00    -0.031 A 
ATOM      6  C6  IND d   1       2.001   3.130  -2.969  0.00  0.00     0.015 A 
ATOM      7  C7  IND d   1       2.729   2.764  -4.065  0.00  0.00    -0.016 A 
ATOM      8  C8  IND d   1       3.940   3.413  -4.259  0.00  0.00    -0.047 A 
ATOM      9  C9  IND d   1       4.391   4.416  -3.391  0.00  0.00    -0.096 A 
ATOM     10  HN1 IND d   1       4.831   2.742  -5.925  0.00  0.00     0.298 HD
ENDROOT
TORSDOF 0
ENDMDL
