MODEL 1
REMARK minimizedAffinity 15.1700764
REMARK minimizedRMSD -1
REMARK  0 active torsions:
REMARK  status: ('A' for Active; 'I' for Inactive)
ROOT
ATOM      1  N1  IND d   1      -3.038  -4.115   1.235  0.00  0.00    -0.196 N 
ATOM      2  C2  IND d   1      -4.165  -4.195   2.004  0.00  0.00     0.054 A 
ATOM      3  C3  IND d   1      -4.325  -3.060   2.722  0.00  0.00    -0.031 A 
ATOM      4  C4  IND d   1      -2.917  -0.906   2.712  0.00  0.00     0.051 A 
ATOM      5  C5  IND d   1      -1.768  -0.372   2.198  0.00  0.00    -0.031 A 
ATOM      6  C6  IND d   1      -0.970  -1.071   1.316  0.00  0.00     0.015 A 
ATOM      7  C7  IND d   1      -1.297  -2.333   0.906  0.00  0.00    -0.016 A 
ATOM      8  C8  IND d   1      -2.459  -2.881   1.431  0.00  0.00    -0.047 A 
ATOM      9  C9  IND d   1      -3.251  -2.192   2.359  0.00  0.00    -0.096 A 
ATOM     10  HN1 IND d   1      -2.740  -4.733   0.715  0.00  0.00     0.298 HD
ENDROOT
TORSDOF 0
ENDMDL
