MODEL 1
REMARK minimizedAffinity 12.3089361
REMARK minimizedRMSD -1
REMARK  0 active torsions:
REMARK  status: ('A' for Active; 'I' for Inactive)
ROOT
ATOM      1  N1  IND d   1       0.842  -1.195   3.895  0.00  0.00    -0.196 N 
ATOM      2  C2  IND d   1       1.535  -2.208   3.293  0.00  0.00     0.054 A 
ATOM      3  C3  IND d   1       0.901  -2.607   2.168  0.00  0.00    -0.031 A 
ATOM      4  C4  IND d   1      -1.230  -1.668   1.070  0.00  0.00     0.051 A 
ATOM      5  C5  IND d   1      -2.235  -0.763   1.269  0.00  0.00    -0.031 A 
ATOM      6  C6  IND d   1      -2.265   0.062   2.375  0.00  0.00     0.015 A 
ATOM      7  C7  IND d   1      -1.280   0.021   3.321  0.00  0.00    -0.016 A 
ATOM      8  C8  IND d   1      -0.262  -0.901   3.126  0.00  0.00    -0.047 A 
ATOM      9  C9  IND d   1      -0.248  -1.771   2.028  0.00  0.00    -0.096 A 
ATOM     10  HN1 IND d   1       1.060  -0.807   4.631  0.00  0.00     0.298 HD
ENDROOT
TORSDOF 0
ENDMDL
