MODEL 1
REMARK minimizedAffinity 9.96734238
REMARK minimizedRMSD -1
REMARK  0 active torsions:
REMARK  status: ('A' for Active; 'I' for Inactive)
ROOT
ATOM      1  N1  IND d   1      -3.778   2.876   5.059  0.00  0.00    -0.196 N 
ATOM      2  C2  IND d   1      -4.952   3.323   5.597  0.00  0.00     0.054 A 
ATOM      3  C3  IND d   1      -5.988   3.020   4.783  0.00  0.00    -0.031 A 
ATOM      4  C4  IND d   1      -5.998   1.706   2.569  0.00  0.00     0.051 A 
ATOM      5  C5  IND d   1      -5.162   1.127   1.657  0.00  0.00    -0.031 A 
ATOM      6  C6  IND d   1      -3.794   1.097   1.837  0.00  0.00     0.015 A 
ATOM      7  C7  IND d   1      -3.210   1.639   2.946  0.00  0.00    -0.016 A 
ATOM      8  C8  IND d   1      -4.055   2.235   3.872  0.00  0.00    -0.047 A 
ATOM      9  C9  IND d   1      -5.440   2.305   3.674  0.00  0.00    -0.096 A 
ATOM     10  HN1 IND d   1      -2.997   2.978   5.404  0.00  0.00     0.298 HD
ENDROOT
TORSDOF 0
ENDMDL
