MODEL 1
REMARK minimizedAffinity 14.3889027
REMARK minimizedRMSD -1
REMARK  0 active torsions:
REMARK  status: ('A' for Active; 'I' for Inactive)
ROOT
ATOM      1  N1  IND d   1       3.312   1.554  -3.050  0.00  0.00    -0.196 N 
ATOM      2  C2  IND d   1       2.634   2.701  -3.356  0.00  0.00     0.054 A 
ATOM      3  C3  IND d   1       2.022   3.194  -2.256  0.00  0.00    -0.031 A 
ATOM      4  C4  IND d   1       2.082   2.337   0.171  0.00  0.00     0.051 A 
ATOM      5  C5  IND d   1       2.540   1.302   0.937  0.00  0.00    -0.031 A 
ATOM      6  C6  IND d   1       3.296   0.278   0.402  0.00  0.00     0.015 A 
ATOM      7  C7  IND d   1       3.633   0.258  -0.921  0.00  0.00    -0.016 A 
ATOM      8  C8  IND d   1       3.164   1.304  -1.703  0.00  0.00    -0.047 A 
ATOM      9  C9  IND d   1       2.361   2.323  -1.176  0.00  0.00    -0.096 A 
ATOM     10  HN1 IND d   1       3.756   1.070  -3.605  0.00  0.00     0.298 HD
ENDROOT
TORSDOF 0
ENDMDL
