MODEL 1
REMARK minimizedAffinity 11.1036177
REMARK minimizedRMSD -1
REMARK  0 active torsions:
REMARK  status: ('A' for Active; 'I' for Inactive)
ROOT
ATOM      1  N1  IND d   1       0.428  -4.133  -3.213  0.00  0.00    -0.196 N 
ATOM      2  C2  IND d   1      -0.353  -3.692  -2.182  0.00  0.00     0.054 A 
ATOM      3  C3  IND d   1      -1.644  -4.035  -2.390  0.00  0.00    -0.031 A 
ATOM      4  C4  IND d   1      -2.683  -5.410  -4.302  0.00  0.00     0.051 A 
ATOM      5  C5  IND d   1      -2.374  -6.000  -5.496  0.00  0.00    -0.031 A 
ATOM      6  C6  IND d   1      -1.089  -6.000  -5.998  0.00  0.00     0.015 A 
ATOM      7  C7  IND d   1      -0.058  -5.417  -5.317  0.00  0.00    -0.016 A 
ATOM      8  C8  IND d   1      -0.369  -4.811  -4.108  0.00  0.00    -0.047 A 
ATOM      9  C9  IND d   1      -1.679  -4.771  -3.614  0.00  0.00    -0.096 A 
ATOM     10  HN1 IND d   1       1.276  -4.007  -3.290  0.00  0.00     0.298 HD
ENDROOT
TORSDOF 0
ENDMDL
