MODEL 1
REMARK minimizedAffinity 5.18115568
REMARK minimizedRMSD -1
REMARK  0 active torsions:
REMARK  status: ('A' for Active; 'I' for Inactive)
ROOT
ATOM      1  N1  IND d   1       4.409   2.776   2.058  0.00  0.00    -0.196 N 
ATOM      2  C2  IND d   1       5.557   3.296   1.528  0.00  0.00     0.054 A 
ATOM      3  C3  IND d   1       5.530   3.218   0.179  0.00  0.00    -0.031 A 
ATOM      4  C4  IND d   1       3.659   2.369  -1.372  0.00  0.00     0.051 A 
ATOM      5  C5  IND d   1       2.433   1.764  -1.351  0.00  0.00    -0.031 A 
ATOM      6  C6  IND d   1       1.790   1.462  -0.169  0.00  0.00     0.015 A 
ATOM      7  C7  IND d   1       2.345   1.765   1.042  0.00  0.00    -0.016 A 
ATOM      8  C8  IND d   1       3.592   2.373   1.025  0.00  0.00    -0.047 A 
ATOM      9  C9  IND d   1       4.269   2.644  -0.172  0.00  0.00    -0.096 A 
ATOM     10  HN1 IND d   1       4.228   2.712   2.896  0.00  0.00     0.298 HD
ENDROOT
TORSDOF 0
ENDMDL
