MODEL 1
REMARK minimizedAffinity 3.8424108
REMARK minimizedRMSD -1
REMARK  0 active torsions:
REMARK  status: ('A' for Active; 'I' for Inactive)
ROOT
ATOM      1  N1  IND d   1      -5.228  -5.383   0.424  0.00  0.00    -0.196 N 
ATOM      2  C2  IND d   1      -6.000  -6.000   1.369  0.00  0.00     0.054 A 
ATOM      3  C3  IND d   1      -5.987  -5.293   2.521  0.00  0.00    -0.031 A 
ATOM      4  C4  IND d   1      -4.849  -3.044   3.047  0.00  0.00     0.051 A 
ATOM      5  C5  IND d   1      -4.004  -2.113   2.512  0.00  0.00    -0.031 A 
ATOM      6  C6  IND d   1      -3.515  -2.226   1.227  0.00  0.00     0.015 A 
ATOM      7  C7  IND d   1      -3.865  -3.272   0.421  0.00  0.00    -0.016 A 
ATOM      8  C8  IND d   1      -4.718  -4.223   0.963  0.00  0.00    -0.047 A 
ATOM      9  C9  IND d   1      -5.183  -4.136   2.282  0.00  0.00    -0.096 A 
ATOM     10  HN1 IND d   1      -5.085  -5.672  -0.374  0.00  0.00     0.298 HD
ENDROOT
TORSDOF 0
ENDMDL
