MODEL 1
REMARK minimizedAffinity 4.60965919
REMARK minimizedRMSD -1
REMARK  0 active torsions:
REMARK  status: ('A' for Active; 'I' for Inactive)
ROOT
ATOM      1  N1  IND d   1       3.633  -5.468   0.337  0.00  0.00    -0.196 N 
ATOM      2  C2  IND d   1       4.944  -5.224   0.034  0.00  0.00     0.054 A 
ATOM      3  C3  IND d   1       5.145  -3.900  -0.152  0.00  0.00    -0.031 A 
ATOM      4  C4  IND d   1       3.488  -1.944   0.092  0.00  0.00     0.051 A 
ATOM      5  C5  IND d   1       2.168  -1.672   0.318  0.00  0.00    -0.031 A 
ATOM      6  C6  IND d   1       1.251  -2.672   0.570  0.00  0.00     0.015 A 
ATOM      7  C7  IND d   1       1.624  -3.986   0.617  0.00  0.00    -0.016 A 
ATOM      8  C8  IND d   1       2.962  -4.266   0.380  0.00  0.00    -0.047 A 
ATOM      9  C9  IND d   1       3.889  -3.259   0.082  0.00  0.00    -0.096 A 
ATOM     10  HN1 IND d   1       3.287  -6.242   0.477  0.00  0.00     0.298 HD
ENDROOT
TORSDOF 0
ENDMDL
