MODEL 1
REMARK minimizedAffinity 1.12384343
REMARK minimizedRMSD -1
REMARK  0 active torsions:
REMARK  status: ('A' for Active; 'I' for Inactive)
ROOT
ATOM      1  N1  IND d   1      -5.666  -1.826  -2.918  0.00  0.00    -0.196 N 
ATOM      2  C2  IND d   1      -5.403  -0.781  -2.077  0.00  0.00     0.054 A 
ATOM      3  C3  IND d   1      -4.069  -0.599  -1.956  0.00  0.00    -0.031 A 
ATOM      4  C4  IND d   1      -2.137  -1.832  -3.128  0.00  0.00     0.051 A 
ATOM      5  C5  IND d   1      -1.879  -2.886  -3.959  0.00  0.00    -0.031 A 
ATOM      6  C6  IND d   1      -2.890  -3.654  -4.499  0.00  0.00     0.015 A 
ATOM      7  C7  IND d   1      -4.204  -3.389  -4.235  0.00  0.00    -0.016 A 
ATOM      8  C8  IND d   1      -4.470  -2.324  -3.386  0.00  0.00    -0.047 A 
ATOM      9  C9  IND d   1      -3.446  -1.567  -2.802  0.00  0.00    -0.096 A 
ATOM     10  HN1 IND d   1      -6.448  -2.123  -3.121  0.00  0.00     0.298 HD
ENDROOT
TORSDOF 0
ENDMDL
