MODEL 1
REMARK minimizedAffinity 3.25333643
REMARK minimizedRMSD -1
REMARK  0 active torsions:
REMARK  status: ('A' for Active; 'I' for Inactive)
ROOT
ATOM      1  N1  IND d   1       3.504  -5.842   0.301  0.00  0.00    -0.196 N 
ATOM      2  C2  IND d   1       4.812  -5.449   0.245  0.00  0.00     0.054 A 
ATOM      3  C3  IND d   1       4.897  -4.099   0.224  0.00  0.00    -0.031 A 
ATOM      4  C4  IND d   1       3.023  -2.341   0.375  0.00  0.00     0.051 A 
ATOM      5  C5  IND d   1       1.662  -2.216   0.404  0.00  0.00    -0.031 A 
ATOM      6  C6  IND d   1       0.829  -3.317   0.403  0.00  0.00     0.015 A 
ATOM      7  C7  IND d   1       1.328  -4.588   0.384  0.00  0.00    -0.016 A 
ATOM      8  C8  IND d   1       2.709  -4.718   0.347  0.00  0.00    -0.047 A 
ATOM      9  C9  IND d   1       3.559  -3.605   0.306  0.00  0.00    -0.096 A 
ATOM     10  HN1 IND d   1       3.225  -6.656   0.306  0.00  0.00     0.298 HD
ENDROOT
TORSDOF 0
ENDMDL
