MODEL 1
REMARK minimizedAffinity -2.31481361
REMARK minimizedRMSD -1
REMARK  0 active torsions:
REMARK  status: ('A' for Active; 'I' for Inactive)
ROOT
ATOM      1  N1  IND d   1      -4.961  -2.204   4.544  0.00  0.00    -0.196 N 
ATOM      2  C2  IND d   1      -5.424  -2.394   5.816  0.00  0.00     0.054 A 
ATOM      3  C3  IND d   1      -5.790  -3.683   5.996  0.00  0.00    -0.031 A 
ATOM      4  C4  IND d   1      -5.620  -5.674   4.372  0.00  0.00     0.051 A 
ATOM      5  C5  IND d   1      -5.295  -5.987   3.082  0.00  0.00    -0.031 A 
ATOM      6  C6  IND d   1      -4.830  -5.036   2.196  0.00  0.00     0.015 A 
ATOM      7  C7  IND d   1      -4.661  -3.734   2.573  0.00  0.00    -0.016 A 
ATOM      8  C8  IND d   1      -4.997  -3.411   3.880  0.00  0.00    -0.047 A 
ATOM      9  C9  IND d   1      -5.510  -4.362   4.771  0.00  0.00    -0.096 A 
ATOM     10  HN1 IND d   1      -4.693  -1.457   4.214  0.00  0.00     0.298 HD
ENDROOT
TORSDOF 0
ENDMDL
