MODEL 1
REMARK minimizedAffinity -2.633744
REMARK minimizedRMSD -1
REMARK  0 active torsions:
REMARK  status: ('A' for Active; 'I' for Inactive)
ROOT
ATOM      1  C   UNL d   1      -1.117   0.421   3.276  0.00  0.00     0.023 A 
ATOM      2  C1  UNL d   1      -2.093   0.337   2.283  0.00  0.00     0.003 A 
ATOM      3  C2  UNL d   1      -1.718   0.219   0.943  0.00  0.00     0.048 A 
ATOM      4  C3  UNL d   1      -0.366   0.185   0.603  0.00  0.00     0.023 A 
ATOM      5  C4  UNL d   1       0.614   0.268   1.594  0.00  0.00     0.048 A 
ATOM      6  C5  UNL d   1       0.234   0.387   2.932  0.00  0.00     0.003 A 
ATOM      7  I   UNL d   1       0.194   0.010  -1.391  0.00  0.00    -0.146 I 
ENDROOT
TORSDOF 0
ENDMDL
