MODEL 1
REMARK minimizedAffinity -3.33135033
REMARK minimizedRMSD -1
REMARK  0 active torsions:
REMARK  status: ('A' for Active; 'I' for Inactive)
ROOT
ATOM      1  C   UNL d   1      -0.476   0.889   3.174  0.00  0.00     0.023 A 
ATOM      2  C1  UNL d   1      -1.461   0.990   2.192  0.00  0.00     0.003 A 
ATOM      3  C2  UNL d   1      -1.211   0.526   0.899  0.00  0.00     0.048 A 
ATOM      4  C3  UNL d   1       0.027  -0.040   0.595  0.00  0.00     0.023 A 
ATOM      5  C4  UNL d   1       1.016  -0.144   1.574  0.00  0.00     0.048 A 
ATOM      6  C5  UNL d   1       0.761   0.322   2.866  0.00  0.00     0.003 A 
ATOM      7  I   UNL d   1       0.402  -0.731  -1.329  0.00  0.00    -0.146 I 
ENDROOT
TORSDOF 0
ENDMDL
