MODEL 1
REMARK minimizedAffinity -5.00284433
REMARK minimizedRMSD -1
REMARK  0 active torsions:
REMARK  status: ('A' for Active; 'I' for Inactive)
ROOT
ATOM      1  C   UNL d   1       0.502   0.985   4.087  0.00  0.00     0.023 A 
ATOM      2  C1  UNL d   1       1.574   0.349   3.460  0.00  0.00     0.003 A 
ATOM      3  C2  UNL d   1       1.476  -0.029   2.120  0.00  0.00     0.048 A 
ATOM      4  C3  UNL d   1       0.304   0.233   1.411  0.00  0.00     0.023 A 
ATOM      5  C4  UNL d   1      -0.771   0.870   2.034  0.00  0.00     0.048 A 
ATOM      6  C5  UNL d   1      -0.669   1.245   3.375  0.00  0.00     0.003 A 
ATOM      7  I   UNL d   1       0.156  -0.329  -0.584  0.00  0.00    -0.146 I 
ENDROOT
TORSDOF 0
ENDMDL
