MODEL 1
REMARK minimizedAffinity -5.6262455
REMARK minimizedRMSD -1
REMARK  0 active torsions:
REMARK  status: ('A' for Active; 'I' for Inactive)
ROOT
ATOM      1  C   UNL d   1      -0.594   0.842   3.018  0.00  0.00     0.023 A 
ATOM      2  C1  UNL d   1      -1.509   1.055   1.987  0.00  0.00     0.003 A 
ATOM      3  C2  UNL d   1      -1.153   0.771   0.667  0.00  0.00     0.048 A 
ATOM      4  C3  UNL d   1       0.119   0.273   0.385  0.00  0.00     0.023 A 
ATOM      5  C4  UNL d   1       1.037   0.057   1.414  0.00  0.00     0.048 A 
ATOM      6  C5  UNL d   1       0.677   0.343   2.732  0.00  0.00     0.003 A 
ATOM      7  I   UNL d   1       0.650  -0.150  -1.579  0.00  0.00    -0.146 I 
ENDROOT
TORSDOF 0
ENDMDL
