MODEL 1
REMARK minimizedAffinity -4.80848074
REMARK minimizedRMSD -1
REMARK  0 active torsions:
REMARK  status: ('A' for Active; 'I' for Inactive)
ROOT
ATOM      1  C   UNL d   1      -0.380   1.124   3.638  0.00  0.00     0.023 A 
ATOM      2  C1  UNL d   1      -1.157   1.514   2.547  0.00  0.00     0.003 A 
ATOM      3  C2  UNL d   1      -0.862   1.032   1.270  0.00  0.00     0.048 A 
ATOM      4  C3  UNL d   1       0.210   0.159   1.091  0.00  0.00     0.023 A 
ATOM      5  C4  UNL d   1       0.989  -0.236   2.180  0.00  0.00     0.048 A 
ATOM      6  C5  UNL d   1       0.692   0.250   3.455  0.00  0.00     0.003 A 
ATOM      7  I   UNL d   1       0.650  -0.561  -0.808  0.00  0.00    -0.146 I 
ENDROOT
TORSDOF 0
ENDMDL
