MODEL 1
REMARK minimizedAffinity -5.02388573
REMARK minimizedRMSD -1
REMARK  0 active torsions:
REMARK  status: ('A' for Active; 'I' for Inactive)
ROOT
ATOM      1  C   UNL d   1       0.403   0.621   3.761  0.00  0.00     0.023 A 
ATOM      2  C1  UNL d   1      -0.652   1.148   3.015  0.00  0.00     0.003 A 
ATOM      3  C2  UNL d   1      -0.705   0.941   1.635  0.00  0.00     0.048 A 
ATOM      4  C3  UNL d   1       0.299   0.206   1.007  0.00  0.00     0.023 A 
ATOM      5  C4  UNL d   1       1.357  -0.323   1.749  0.00  0.00     0.048 A 
ATOM      6  C5  UNL d   1       1.406  -0.113   3.128  0.00  0.00     0.003 A 
ATOM      7  I   UNL d   1       0.222  -0.103  -1.047  0.00  0.00    -0.146 I 
ENDROOT
TORSDOF 0
ENDMDL
