MODEL 1
REMARK minimizedAffinity -5.50511026
REMARK minimizedRMSD -1
REMARK  0 active torsions:
REMARK  status: ('A' for Active; 'I' for Inactive)
ROOT
ATOM      1  C   UNL d   1      -1.071   1.330   2.706  0.00  0.00     0.023 A 
ATOM      2  C1  UNL d   1      -1.940   0.577   1.916  0.00  0.00     0.003 A 
ATOM      3  C2  UNL d   1      -1.469  -0.050   0.760  0.00  0.00     0.048 A 
ATOM      4  C3  UNL d   1      -0.128   0.080   0.401  0.00  0.00     0.023 A 
ATOM      5  C4  UNL d   1       0.745   0.832   1.189  0.00  0.00     0.048 A 
ATOM      6  C5  UNL d   1       0.270   1.458   2.343  0.00  0.00     0.003 A 
ATOM      7  I   UNL d   1       0.576  -0.852  -1.319  0.00  0.00    -0.146 I 
ENDROOT
TORSDOF 0
ENDMDL
