MODEL 1
REMARK minimizedAffinity 0.74348563
REMARK minimizedRMSD -1
REMARK  1 active torsions:
REMARK  status: ('A' for Active; 'I' for Inactive)
REMARK    1  A    between atoms: C1_2  and  C2_3 
ROOT
ATOM      1  C2  UNL d   1       0.210  -3.978   0.747  0.00  0.00    -0.077 A 
ATOM      2  C3  UNL d   1      -0.833  -3.121   0.368  0.00  0.00     0.002 A 
ATOM      3  C4  UNL d   1      -0.552  -1.872  -0.188  0.00  0.00     0.002 A 
ATOM      4  C5  UNL d   1       0.769  -1.471  -0.375  0.00  0.00    -0.004 A 
ATOM      5  C6  UNL d   1       1.813  -2.315   0.001  0.00  0.00     0.002 A 
ATOM      6  C7  UNL d   1       1.534  -3.564   0.559  0.00  0.00     0.002 A 
ENDROOT
BRANCH   1   7
ATOM      7  C1  UNL d   1      -0.091  -5.346   1.302  0.00  0.00     0.055 C 
ATOM      8  C   UNL d   1       1.160  -6.000   1.872  0.00  0.00     0.019 C 
ENDBRANCH   1   7
TORSDOF 1
ENDMDL
