MODEL 1
REMARK minimizedAffinity -4.12301779
REMARK minimizedRMSD -1
REMARK  1 active torsions:
REMARK  status: ('A' for Active; 'I' for Inactive)
REMARK    1  A    between atoms: C1_2  and  C2_3 
ROOT
ATOM      1  C2  UNL d   1       1.018  -2.416  -0.472  0.00  0.00    -0.077 A 
ATOM      2  C3  UNL d   1      -0.329  -2.370  -0.086  0.00  0.00     0.002 A 
ATOM      3  C4  UNL d   1      -1.037  -1.169  -0.135  0.00  0.00     0.002 A 
ATOM      4  C5  UNL d   1      -0.410  -0.005  -0.574  0.00  0.00    -0.004 A 
ATOM      5  C6  UNL d   1       0.930  -0.039  -0.959  0.00  0.00     0.002 A 
ATOM      6  C7  UNL d   1       1.641  -1.239  -0.909  0.00  0.00     0.002 A 
ENDROOT
BRANCH   1   7
ATOM      7  C1  UNL d   1       1.771  -3.721  -0.466  0.00  0.00     0.055 C 
ATOM      8  C   UNL d   1       0.919  -4.848   0.098  0.00  0.00     0.019 C 
ENDBRANCH   1   7
TORSDOF 1
ENDMDL
