MODEL 1
REMARK minimizedAffinity 5.67501163
REMARK minimizedRMSD -1
REMARK  1 active torsions:
REMARK  status: ('A' for Active; 'I' for Inactive)
REMARK    1  A    between atoms: C1_2  and  C2_3 
ROOT
ATOM      1  C2  UNL d   1       1.140  -3.687  -0.084  0.00  0.00    -0.077 A 
ATOM      2  C3  UNL d   1       1.852  -4.788   0.413  0.00  0.00     0.002 A 
ATOM      3  C4  UNL d   1       1.183  -5.828   1.061  0.00  0.00     0.002 A 
ATOM      4  C5  UNL d   1      -0.201  -5.779   1.214  0.00  0.00    -0.004 A 
ATOM      5  C6  UNL d   1      -0.918  -4.688   0.725  0.00  0.00     0.002 A 
ATOM      6  C7  UNL d   1      -0.250  -3.647   0.079  0.00  0.00     0.002 A 
ENDROOT
BRANCH   1   7
ATOM      7  C1  UNL d   1       1.855  -2.588  -0.826  0.00  0.00     0.055 C 
ATOM      8  C   UNL d   1       2.915  -1.930   0.045  0.00  0.00     0.019 C 
ENDBRANCH   1   7
TORSDOF 1
ENDMDL
