MODEL 1
REMARK minimizedAffinity -5.80792141
REMARK minimizedRMSD -1
REMARK  1 active torsions:
REMARK  status: ('A' for Active; 'I' for Inactive)
REMARK    1  A    between atoms: C1_2  and  C2_3 
ROOT
ATOM      1  C2  UNL d   1       0.490  -3.678   0.419  0.00  0.00    -0.077 A 
ATOM      2  C3  UNL d   1      -0.602  -2.811   0.272  0.00  0.00     0.002 A 
ATOM      3  C4  UNL d   1      -0.440  -1.569  -0.344  0.00  0.00     0.002 A 
ATOM      4  C5  UNL d   1       0.810  -1.184  -0.822  0.00  0.00    -0.004 A 
ATOM      5  C6  UNL d   1       1.903  -2.038  -0.680  0.00  0.00     0.002 A 
ATOM      6  C7  UNL d   1       1.744  -3.280  -0.063  0.00  0.00     0.002 A 
ENDROOT
BRANCH   1   7
ATOM      7  C1  UNL d   1       0.307  -5.038   1.039  0.00  0.00     0.055 C 
ATOM      8  C   UNL d   1       1.454  -5.970   0.677  0.00  0.00     0.019 C 
ENDBRANCH   1   7
TORSDOF 1
ENDMDL
