MODEL 1
REMARK minimizedAffinity -3.32384872
REMARK minimizedRMSD -1
REMARK  1 active torsions:
REMARK  status: ('A' for Active; 'I' for Inactive)
REMARK    1  A    between atoms: C1_2  and  C2_3 
ROOT
ATOM      1  C2  UNL d   1       1.481  -2.460   0.114  0.00  0.00    -0.077 A 
ATOM      2  C3  UNL d   1       2.169  -1.967  -1.002  0.00  0.00     0.002 A 
ATOM      3  C4  UNL d   1       1.700  -0.841  -1.681  0.00  0.00     0.002 A 
ATOM      4  C5  UNL d   1       0.542  -0.197  -1.248  0.00  0.00    -0.004 A 
ATOM      5  C6  UNL d   1      -0.151  -0.681  -0.140  0.00  0.00     0.002 A 
ATOM      6  C7  UNL d   1       0.316  -1.808   0.539  0.00  0.00     0.002 A 
ENDROOT
BRANCH   1   7
ATOM      7  C1  UNL d   1       2.013  -3.645   0.877  0.00  0.00     0.055 C 
ATOM      8  C   UNL d   1       0.931  -4.692   1.099  0.00  0.00     0.019 C 
ENDBRANCH   1   7
TORSDOF 1
ENDMDL
