MODEL 1
REMARK minimizedAffinity 2.35721135
REMARK minimizedRMSD -1
REMARK  1 active torsions:
REMARK  status: ('A' for Active; 'I' for Inactive)
REMARK    1  A    between atoms: C1_2  and  C2_3 
ROOT
ATOM      1  C2  UNL d   1       1.073  -2.818   0.245  0.00  0.00    -0.077 A 
ATOM      2  C3  UNL d   1      -0.302  -2.548   0.188  0.00  0.00     0.002 A 
ATOM      3  C4  UNL d   1      -0.777  -1.453  -0.536  0.00  0.00     0.002 A 
ATOM      4  C5  UNL d   1       0.114  -0.623  -1.213  0.00  0.00    -0.004 A 
ATOM      5  C6  UNL d   1       1.483  -0.882  -1.161  0.00  0.00     0.002 A 
ATOM      6  C7  UNL d   1       1.960  -1.975  -0.437  0.00  0.00     0.002 A 
ENDROOT
BRANCH   1   7
ATOM      7  C1  UNL d   1       1.583  -4.027   0.985  0.00  0.00     0.055 C 
ATOM      8  C   UNL d   1       0.499  -5.084   1.132  0.00  0.00     0.019 C 
ENDBRANCH   1   7
TORSDOF 1
ENDMDL
