MODEL 1
REMARK minimizedAffinity -3.20793486
REMARK minimizedRMSD -1
REMARK  1 active torsions:
REMARK  status: ('A' for Active; 'I' for Inactive)
REMARK    1  A    between atoms: C1_2  and  C2_3 
ROOT
ATOM      1  C2  UNL d   1      -0.263  -3.042   0.083  0.00  0.00    -0.077 A 
ATOM      2  C3  UNL d   1      -1.025  -2.021  -0.502  0.00  0.00     0.002 A 
ATOM      3  C4  UNL d   1      -0.402  -1.000  -1.223  0.00  0.00     0.002 A 
ATOM      4  C5  UNL d   1       0.983  -0.994  -1.371  0.00  0.00    -0.004 A 
ATOM      5  C6  UNL d   1       1.750  -2.004  -0.791  0.00  0.00     0.002 A 
ATOM      6  C7  UNL d   1       1.130  -3.024  -0.069  0.00  0.00     0.002 A 
ENDROOT
BRANCH   1   7
ATOM      7  C1  UNL d   1      -0.936  -4.170   0.820  0.00  0.00     0.055 C 
ATOM      8  C   UNL d   1      -2.026  -4.812  -0.027  0.00  0.00     0.019 C 
ENDBRANCH   1   7
TORSDOF 1
ENDMDL
