MODEL 1
REMARK minimizedAffinity 5.52140331
REMARK minimizedRMSD -1
REMARK  1 active torsions:
REMARK  status: ('A' for Active; 'I' for Inactive)
REMARK    1  A    between atoms: C1_2  and  C2_3 
ROOT
ATOM      1  C2  UNL d   1       1.737  -1.969  -0.349  0.00  0.00    -0.077 A 
ATOM      2  C3  UNL d   1       0.461  -2.446  -0.680  0.00  0.00     0.002 A 
ATOM      3  C4  UNL d   1      -0.496  -1.585  -1.221  0.00  0.00     0.002 A 
ATOM      4  C5  UNL d   1      -0.186  -0.244  -1.439  0.00  0.00    -0.004 A 
ATOM      5  C6  UNL d   1       1.080   0.240  -1.112  0.00  0.00     0.002 A 
ATOM      6  C7  UNL d   1       2.037  -0.619  -0.570  0.00  0.00     0.002 A 
ENDROOT
BRANCH   1   7
ATOM      7  C1  UNL d   1       2.786  -2.906   0.189  0.00  0.00     0.055 C 
ATOM      8  C   UNL d   1       2.357  -4.359   0.045  0.00  0.00     0.019 C 
ENDBRANCH   1   7
TORSDOF 1
ENDMDL
