MODEL 1
REMARK minimizedAffinity -3.30555797
REMARK minimizedRMSD -1
REMARK  1 active torsions:
REMARK  status: ('A' for Active; 'I' for Inactive)
REMARK    1  A    between atoms: C1_2  and  C2_3 
ROOT
ATOM      1  C2  UNL d   1       1.034  -2.402   0.068  0.00  0.00    -0.077 A 
ATOM      2  C3  UNL d   1      -0.349  -2.511   0.274  0.00  0.00     0.002 A 
ATOM      3  C4  UNL d   1      -1.221  -1.569  -0.275  0.00  0.00     0.002 A 
ATOM      4  C5  UNL d   1      -0.721  -0.515  -1.037  0.00  0.00    -0.004 A 
ATOM      5  C6  UNL d   1       0.652  -0.397  -1.246  0.00  0.00     0.002 A 
ATOM      6  C7  UNL d   1       1.526  -1.336  -0.697  0.00  0.00     0.002 A 
ENDROOT
BRANCH   1   7
ATOM      7  C1  UNL d   1       1.972  -3.444   0.617  0.00  0.00     0.055 C 
ATOM      8  C   UNL d   1       1.298  -4.806   0.702  0.00  0.00     0.019 C 
ENDBRANCH   1   7
TORSDOF 1
ENDMDL
