MODEL 1
REMARK minimizedAffinity -5.26653719
REMARK minimizedRMSD -1
REMARK  1 active torsions:
REMARK  status: ('A' for Active; 'I' for Inactive)
REMARK    1  A    between atoms: C1_2  and  C2_3 
ROOT
ATOM      1  C2  UNL d   1       0.717  -2.965   0.277  0.00  0.00    -0.077 A 
ATOM      2  C3  UNL d   1      -0.244  -1.945   0.313  0.00  0.00     0.002 A 
ATOM      3  C4  UNL d   1      -0.035  -0.754  -0.387  0.00  0.00     0.002 A 
ATOM      4  C5  UNL d   1       1.130  -0.575  -1.129  0.00  0.00    -0.004 A 
ATOM      5  C6  UNL d   1       2.092  -1.583  -1.169  0.00  0.00     0.002 A 
ATOM      6  C7  UNL d   1       1.886  -2.773  -0.470  0.00  0.00     0.002 A 
ENDROOT
BRANCH   1   7
ATOM      7  C1  UNL d   1       0.472  -4.269   0.991  0.00  0.00     0.055 C 
ATOM      8  C   UNL d   1       1.589  -5.267   0.719  0.00  0.00     0.019 C 
ENDBRANCH   1   7
TORSDOF 1
ENDMDL
