MODEL 1
REMARK minimizedAffinity -2.45451498
REMARK minimizedRMSD -1
REMARK  1 active torsions:
REMARK  status: ('A' for Active; 'I' for Inactive)
REMARK    1  A    between atoms: C1_2  and  C2_3 
ROOT
ATOM      1  C2  UNL d   1       1.340  -3.143  -0.102  0.00  0.00    -0.077 A 
ATOM      2  C3  UNL d   1      -0.049  -2.961  -0.164  0.00  0.00     0.002 A 
ATOM      3  C4  UNL d   1      -0.583  -1.729  -0.544  0.00  0.00     0.002 A 
ATOM      4  C5  UNL d   1       0.263  -0.670  -0.869  0.00  0.00    -0.004 A 
ATOM      5  C6  UNL d   1       1.645  -0.841  -0.808  0.00  0.00     0.002 A 
ATOM      6  C7  UNL d   1       2.182  -2.071  -0.428  0.00  0.00     0.002 A 
ENDROOT
BRANCH   1   7
ATOM      7  C1  UNL d   1       1.919  -4.486   0.260  0.00  0.00     0.055 C 
ATOM      8  C   UNL d   1       0.853  -5.414   0.823  0.00  0.00     0.019 C 
ENDBRANCH   1   7
TORSDOF 1
ENDMDL
