MODEL 1
REMARK minimizedAffinity 0.198541209
REMARK minimizedRMSD -1
REMARK  1 active torsions:
REMARK  status: ('A' for Active; 'I' for Inactive)
REMARK    1  A    between atoms: C1_2  and  C2_3 
ROOT
ATOM      1  C2  UNL d   1       1.269  -2.708  -0.295  0.00  0.00    -0.077 A 
ATOM      2  C3  UNL d   1       1.973  -3.875   0.032  0.00  0.00     0.002 A 
ATOM      3  C4  UNL d   1       1.322  -4.941   0.656  0.00  0.00     0.002 A 
ATOM      4  C5  UNL d   1      -0.037  -4.853   0.952  0.00  0.00    -0.004 A 
ATOM      5  C6  UNL d   1      -0.745  -3.695   0.632  0.00  0.00     0.002 A 
ATOM      6  C7  UNL d   1      -0.095  -2.628   0.010  0.00  0.00     0.002 A 
ENDROOT
BRANCH   1   7
ATOM      7  C1  UNL d   1       1.959  -1.577  -1.012  0.00  0.00     0.055 C 
ATOM      8  C   UNL d   1       1.091  -1.020  -2.131  0.00  0.00     0.019 C 
ENDBRANCH   1   7
TORSDOF 1
ENDMDL
