MODEL 1
REMARK minimizedAffinity -4.17720938
REMARK minimizedRMSD -1
REMARK  1 active torsions:
REMARK  status: ('A' for Active; 'I' for Inactive)
REMARK    1  A    between atoms: C1_2  and  C2_3 
ROOT
ATOM      1  C2  UNL d   1       1.556  -3.509   0.515  0.00  0.00    -0.077 A 
ATOM      2  C3  UNL d   1       2.526  -2.659  -0.034  0.00  0.00     0.002 A 
ATOM      3  C4  UNL d   1       2.147  -1.555  -0.800  0.00  0.00     0.002 A 
ATOM      4  C5  UNL d   1       0.798  -1.289  -1.021  0.00  0.00    -0.004 A 
ATOM      5  C6  UNL d   1      -0.175  -2.130  -0.481  0.00  0.00     0.002 A 
ATOM      6  C7  UNL d   1       0.202  -3.234   0.284  0.00  0.00     0.002 A 
ENDROOT
BRANCH   1   7
ATOM      7  C1  UNL d   1       1.961  -4.672   1.382  0.00  0.00     0.055 C 
ATOM      8  C   UNL d   1       1.544  -5.997   0.762  0.00  0.00     0.019 C 
ENDBRANCH   1   7
TORSDOF 1
ENDMDL
