MODEL 1
REMARK minimizedAffinity -3.39775872
REMARK minimizedRMSD -1
REMARK  1 active torsions:
REMARK  status: ('A' for Active; 'I' for Inactive)
REMARK    1  A    between atoms: C1_2  and  C2_3 
ROOT
ATOM      1  C2  UNL d   1      -0.090  -1.956  -0.031  0.00  0.00    -0.077 A 
ATOM      2  C3  UNL d   1       0.028  -0.634  -0.481  0.00  0.00     0.002 A 
ATOM      3  C4  UNL d   1       1.269  -0.131  -0.877  0.00  0.00     0.002 A 
ATOM      4  C5  UNL d   1       2.399  -0.945  -0.832  0.00  0.00    -0.004 A 
ATOM      5  C6  UNL d   1       2.292  -2.261  -0.384  0.00  0.00     0.002 A 
ATOM      6  C7  UNL d   1       1.053  -2.765   0.014  0.00  0.00     0.002 A 
ENDROOT
BRANCH   1   7
ATOM      7  C1  UNL d   1      -1.436  -2.515   0.350  0.00  0.00     0.055 C 
ATOM      8  C   UNL d   1      -1.509  -4.012   0.084  0.00  0.00     0.019 C 
ENDBRANCH   1   7
TORSDOF 1
ENDMDL
