MODEL 1
REMARK minimizedAffinity -4.61670971
REMARK minimizedRMSD -1
REMARK  0 active torsions:
REMARK  status: ('A' for Active; 'I' for Inactive)
ROOT
ATOM      1  C   UNL d   1      -0.707   3.731   0.958  0.00  0.00    -0.002 A 
ATOM      2  C1  UNL d   1       0.171   3.661   2.030  0.00  0.00     0.010 A 
ATOM      3  C2  UNL d   1       0.745   2.443   2.400  0.00  0.00     0.041 A 
ATOM      4  C3  UNL d   1       0.420   1.286   1.665  0.00  0.00    -0.075 A 
ATOM      5  S   UNL d   1       1.002  -0.315   1.935  0.00  0.00     0.015 SA
ATOM      6  C4  UNL d   1       0.100  -0.943   0.633  0.00  0.00     0.022 A 
ATOM      7  C5  UNL d   1      -0.634   0.031  -0.004  0.00  0.00     0.026 A 
ATOM      8  C6  UNL d   1      -0.461   1.331   0.581  0.00  0.00    -0.082 A 
ATOM      9  C7  UNL d   1      -1.027   2.581   0.231  0.00  0.00     0.045 A 
ENDROOT
TORSDOF 0
ENDMDL
