MODEL 1
REMARK minimizedAffinity -4.3527441
REMARK minimizedRMSD -1
REMARK  0 active torsions:
REMARK  status: ('A' for Active; 'I' for Inactive)
ROOT
ATOM      1  C   UNL d   1      -0.677   2.963   1.444  0.00  0.00    -0.002 A 
ATOM      2  C1  UNL d   1      -1.033   2.888   0.105  0.00  0.00     0.010 A 
ATOM      3  C2  UNL d   1      -0.708   1.762  -0.654  0.00  0.00     0.041 A 
ATOM      4  C3  UNL d   1      -0.014   0.702  -0.039  0.00  0.00    -0.075 A 
ATOM      5  S   UNL d   1       0.489  -0.775  -0.772  0.00  0.00     0.015 SA
ATOM      6  C4  UNL d   1       1.188  -1.342   0.675  0.00  0.00     0.022 A 
ATOM      7  C5  UNL d   1       1.051  -0.439   1.703  0.00  0.00     0.026 A 
ATOM      8  C6  UNL d   1       0.355   0.754   1.308  0.00  0.00    -0.082 A 
ATOM      9  C7  UNL d   1       0.012   1.909   2.051  0.00  0.00     0.045 A 
ENDROOT
TORSDOF 0
ENDMDL
