MODEL 1
REMARK minimizedAffinity -4.89960003
REMARK minimizedRMSD -1
REMARK  0 active torsions:
REMARK  status: ('A' for Active; 'I' for Inactive)
ROOT
ATOM      1  C   UNL d   1      -1.010   3.282   1.352  0.00  0.00    -0.002 A 
ATOM      2  C1  UNL d   1      -1.031   3.477  -0.021  0.00  0.00     0.010 A 
ATOM      3  C2  UNL d   1      -0.625   2.461  -0.889  0.00  0.00     0.041 A 
ATOM      4  C3  UNL d   1      -0.195   1.234  -0.348  0.00  0.00    -0.075 A 
ATOM      5  S   UNL d   1       0.346  -0.153  -1.217  0.00  0.00     0.015 SA
ATOM      6  C4  UNL d   1       0.618  -1.037   0.215  0.00  0.00     0.022 A 
ATOM      7  C5  UNL d   1       0.308  -0.307   1.338  0.00  0.00     0.026 A 
ATOM      8  C6  UNL d   1      -0.166   1.014   1.032  0.00  0.00    -0.082 A 
ATOM      9  C7  UNL d   1      -0.583   2.063   1.886  0.00  0.00     0.045 A 
ENDROOT
TORSDOF 0
ENDMDL
