MODEL 1
REMARK minimizedAffinity 2.95722222
REMARK minimizedRMSD -1
REMARK  0 active torsions:
REMARK  status: ('A' for Active; 'I' for Inactive)
ROOT
ATOM      1  C1  BNZ d   1      -5.846   0.242   4.796  0.00  0.00     0.000 A 
ATOM      2  C2  BNZ d   1      -5.839  -0.468   3.625  0.00  0.00     0.000 A 
ATOM      3  C3  BNZ d   1      -5.935  -1.831   3.633  0.00  0.00     0.000 A 
ATOM      4  C4  BNZ d   1      -5.999  -2.485   4.811  0.00  0.00     0.000 A 
ATOM      5  C5  BNZ d   1      -5.998  -1.784   6.000  0.00  0.00     0.000 A 
ATOM      6  C6  BNZ d   1      -5.940  -0.409   5.987  0.00  0.00     0.000 A 
ENDROOT
TORSDOF 0
ENDMDL
