MODEL 1
REMARK minimizedAffinity 3.16966128
REMARK minimizedRMSD -1
REMARK  0 active torsions:
REMARK  status: ('A' for Active; 'I' for Inactive)
ROOT
ATOM      1  C1  BNZ d   1       1.329   3.927   0.322  0.00  0.00     0.000 A 
ATOM      2  C2  BNZ d   1       1.774   3.744   1.604  0.00  0.00     0.000 A 
ATOM      3  C3  BNZ d   1       1.102   2.925   2.468  0.00  0.00     0.000 A 
ATOM      4  C4  BNZ d   1      -0.034   2.324   2.062  0.00  0.00     0.000 A 
ATOM      5  C5  BNZ d   1      -0.501   2.506   0.776  0.00  0.00     0.000 A 
ATOM      6  C6  BNZ d   1       0.199   3.299  -0.103  0.00  0.00     0.000 A 
ENDROOT
TORSDOF 0
ENDMDL
