MODEL 1
REMARK minimizedAffinity -0.656190932
REMARK minimizedRMSD -1
REMARK  0 active torsions:
REMARK  status: ('A' for Active; 'I' for Inactive)
ROOT
ATOM      1  C1  BNZ d   1      -0.235   4.037   0.429  0.00  0.00     0.000 A 
ATOM      2  C2  BNZ d   1       0.331   4.251  -0.800  0.00  0.00     0.000 A 
ATOM      3  C3  BNZ d   1       0.226   3.316  -1.791  0.00  0.00     0.000 A 
ATOM      4  C4  BNZ d   1      -0.408   2.152  -1.540  0.00  0.00     0.000 A 
ATOM      5  C5  BNZ d   1      -0.976   1.918  -0.304  0.00  0.00     0.000 A 
ATOM      6  C6  BNZ d   1      -0.902   2.878   0.679  0.00  0.00     0.000 A 
ENDROOT
TORSDOF 0
ENDMDL
