MODEL 1
REMARK minimizedAffinity 3.09550095
REMARK minimizedRMSD -1
REMARK  0 active torsions:
REMARK  status: ('A' for Active; 'I' for Inactive)
ROOT
ATOM      1  C1  BNZ d   1      -3.840   2.687  -4.322  0.00  0.00     0.000 A 
ATOM      2  C2  BNZ d   1      -3.327   3.645  -5.155  0.00  0.00     0.000 A 
ATOM      3  C3  BNZ d   1      -4.144   4.367  -5.980  0.00  0.00     0.000 A 
ATOM      4  C4  BNZ d   1      -5.466   4.103  -6.000  0.00  0.00     0.000 A 
ATOM      5  C5  BNZ d   1      -5.998   3.133  -5.173  0.00  0.00     0.000 A 
ATOM      6  C6  BNZ d   1      -5.178   2.436  -4.316  0.00  0.00     0.000 A 
ENDROOT
TORSDOF 0
ENDMDL
