MODEL 1
REMARK minimizedAffinity 2.5667038
REMARK minimizedRMSD -1
REMARK  0 active torsions:
REMARK  status: ('A' for Active; 'I' for Inactive)
ROOT
ATOM      1  C1  BNZ d   1      -0.524   2.762  -2.024  0.00  0.00     0.000 A 
ATOM      2  C2  BNZ d   1       0.472   2.245  -1.238  0.00  0.00     0.000 A 
ATOM      3  C3  BNZ d   1       0.695   2.733   0.019  0.00  0.00     0.000 A 
ATOM      4  C4  BNZ d   1      -0.050   3.762   0.473  0.00  0.00     0.000 A 
ATOM      5  C5  BNZ d   1      -1.051   4.299  -0.311  0.00  0.00     0.000 A 
ATOM      6  C6  BNZ d   1      -1.298   3.780  -1.561  0.00  0.00     0.000 A 
ENDROOT
TORSDOF 0
ENDMDL
