MODEL 1
REMARK minimizedAffinity 0.963870108
REMARK minimizedRMSD -1
REMARK  0 active torsions:
REMARK  status: ('A' for Active; 'I' for Inactive)
ROOT
ATOM      1  C1  BNZ d   1       0.350   5.317  -1.456  0.00  0.00     0.000 A 
ATOM      2  C2  BNZ d   1       0.992   4.363  -0.712  0.00  0.00     0.000 A 
ATOM      3  C3  BNZ d   1       0.335   3.236  -0.301  0.00  0.00     0.000 A 
ATOM      4  C4  BNZ d   1      -0.971   3.084  -0.600  0.00  0.00     0.000 A 
ATOM      5  C5  BNZ d   1      -1.635   4.042  -1.342  0.00  0.00     0.000 A 
ATOM      6  C6  BNZ d   1      -0.960   5.156  -1.786  0.00  0.00     0.000 A 
ENDROOT
TORSDOF 0
ENDMDL
