MODEL 1
REMARK minimizedAffinity 2.26667047
REMARK minimizedRMSD -1
REMARK  0 active torsions:
REMARK  status: ('A' for Active; 'I' for Inactive)
ROOT
ATOM      1  C1  BNZ d   1      -0.733   5.233   0.469  0.00  0.00     0.000 A 
ATOM      2  C2  BNZ d   1      -0.965   3.965   0.931  0.00  0.00     0.000 A 
ATOM      3  C3  BNZ d   1      -0.031   2.980   0.771  0.00  0.00     0.000 A 
ATOM      4  C4  BNZ d   1       1.115   3.253   0.114  0.00  0.00     0.000 A 
ATOM      5  C5  BNZ d   1       1.359   4.524  -0.366  0.00  0.00     0.000 A 
ATOM      6  C6  BNZ d   1       0.434   5.523  -0.169  0.00  0.00     0.000 A 
ENDROOT
TORSDOF 0
ENDMDL
