MODEL 1
REMARK minimizedAffinity -0.742605984
REMARK minimizedRMSD -1
REMARK  0 active torsions:
REMARK  status: ('A' for Active; 'I' for Inactive)
ROOT
ATOM      1  C1  BNZ d   1      -0.548   3.053   0.215  0.00  0.00     0.000 A 
ATOM      2  C2  BNZ d   1      -1.563   3.722  -0.416  0.00  0.00     0.000 A 
ATOM      3  C3  BNZ d   1      -1.301   4.579  -1.448  0.00  0.00     0.000 A 
ATOM      4  C4  BNZ d   1      -0.023   4.797  -1.820  0.00  0.00     0.000 A 
ATOM      5  C5  BNZ d   1       1.012   4.138  -1.188  0.00  0.00     0.000 A 
ATOM      6  C6  BNZ d   1       0.741   3.246  -0.175  0.00  0.00     0.000 A 
ENDROOT
TORSDOF 0
ENDMDL
