MODEL 1
REMARK minimizedAffinity 0.0794591904
REMARK minimizedRMSD -1
REMARK  0 active torsions:
REMARK  status: ('A' for Active; 'I' for Inactive)
ROOT
ATOM      1  C1  BNZ d   1      -5.088   1.911  -3.029  0.00  0.00     0.000 A 
ATOM      2  C2  BNZ d   1      -4.168   2.616  -3.758  0.00  0.00     0.000 A 
ATOM      3  C3  BNZ d   1      -4.143   3.982  -3.720  0.00  0.00     0.000 A 
ATOM      4  C4  BNZ d   1      -5.060   4.642  -2.984  0.00  0.00     0.000 A 
ATOM      5  C5  BNZ d   1      -6.000   3.946  -2.250  0.00  0.00     0.000 A 
ATOM      6  C6  BNZ d   1      -5.998   2.570  -2.261  0.00  0.00     0.000 A 
ENDROOT
TORSDOF 0
ENDMDL
