MODEL 1
REMARK minimizedAffinity -1.22946024
REMARK minimizedRMSD -1
REMARK  0 active torsions:
REMARK  status: ('A' for Active; 'I' for Inactive)
ROOT
ATOM      1  C1  BNZ d   1      -4.432   3.083  -3.868  0.00  0.00     0.000 A 
ATOM      2  C2  BNZ d   1      -4.436   1.826  -3.325  0.00  0.00     0.000 A 
ATOM      3  C3  BNZ d   1      -5.236   1.527  -2.258  0.00  0.00     0.000 A 
ATOM      4  C4  BNZ d   1      -6.000   2.495  -1.710  0.00  0.00     0.000 A 
ATOM      5  C5  BNZ d   1      -6.000   3.769  -2.241  0.00  0.00     0.000 A 
ATOM      6  C6  BNZ d   1      -5.223   4.056  -3.339  0.00  0.00     0.000 A 
ENDROOT
TORSDOF 0
ENDMDL
