MODEL 1
REMARK minimizedAffinity -1.41512167
REMARK minimizedRMSD -1
REMARK  0 active torsions:
REMARK  status: ('A' for Active; 'I' for Inactive)
ROOT
ATOM      1  C1  BNZ d   1      -5.225   2.625  -3.785  0.00  0.00     0.000 A 
ATOM      2  C2  BNZ d   1      -5.991   2.996  -4.858  0.00  0.00     0.000 A 
ATOM      3  C3  BNZ d   1      -5.416   3.539  -5.973  0.00  0.00     0.000 A 
ATOM      4  C4  BNZ d   1      -4.084   3.746  -5.999  0.00  0.00     0.000 A 
ATOM      5  C5  BNZ d   1      -3.299   3.385  -4.922  0.00  0.00     0.000 A 
ATOM      6  C6  BNZ d   1      -3.876   2.804  -3.816  0.00  0.00     0.000 A 
ENDROOT
TORSDOF 0
ENDMDL
