MODEL 1
REMARK minimizedAffinity -1.13774014
REMARK minimizedRMSD -1
REMARK  0 active torsions:
REMARK  status: ('A' for Active; 'I' for Inactive)
ROOT
ATOM      1  C1  BNZ d   1      -5.991   3.035  -5.248  0.00  0.00     0.000 A 
ATOM      2  C2  BNZ d   1      -5.998   2.619  -3.943  0.00  0.00     0.000 A 
ATOM      3  C3  BNZ d   1      -4.899   2.790  -3.149  0.00  0.00     0.000 A 
ATOM      4  C4  BNZ d   1      -3.783   3.341  -3.670  0.00  0.00     0.000 A 
ATOM      5  C5  BNZ d   1      -3.758   3.757  -4.986  0.00  0.00     0.000 A 
ATOM      6  C6  BNZ d   1      -4.879   3.618  -5.772  0.00  0.00     0.000 A 
ENDROOT
TORSDOF 0
ENDMDL
