MODEL 1
REMARK minimizedAffinity -2.11754012
REMARK minimizedRMSD -1
REMARK  0 active torsions:
REMARK  status: ('A' for Active; 'I' for Inactive)
ROOT
ATOM      1  C1  DEN d   1       1.104  -3.691   2.559  0.00  0.00     0.130 A 
ATOM      2  C2  DEN d   1       1.913  -4.468   1.624  0.00  0.00    -0.031 A 
ATOM      3  C3  DEN d   1       1.899  -3.773   0.321  0.00  0.00     0.027 A 
ATOM      4  C4  DEN d   1       0.713  -1.578  -0.335  0.00  0.00     0.027 A 
ATOM      5  C5  DEN d   1      -0.102  -0.564   0.118  0.00  0.00    -0.003 A 
ATOM      6  C6  DEN d   1      -0.595  -0.539   1.395  0.00  0.00     0.001 A 
ATOM      7  C7  DEN d   1      -0.241  -1.524   2.279  0.00  0.00     0.017 A 
ATOM      8  C8  DEN d   1       0.574  -2.554   1.828  0.00  0.00    -0.094 A 
ATOM      9  C9  DEN d   1       1.072  -2.555   0.536  0.00  0.00    -0.072 A 
ENDROOT
TORSDOF 0
ENDMDL
