MODEL 1
REMARK minimizedAffinity -3.90482306
REMARK minimizedRMSD -1
REMARK  0 active torsions:
REMARK  status: ('A' for Active; 'I' for Inactive)
ROOT
ATOM      1  C1  DEN d   1      -0.172  -0.416   0.775  0.00  0.00     0.130 A 
ATOM      2  C2  DEN d   1      -1.211  -0.180   1.774  0.00  0.00    -0.031 A 
ATOM      3  C3  DEN d   1      -1.213  -1.322   2.710  0.00  0.00     0.027 A 
ATOM      4  C4  DEN d   1       0.288  -3.420   2.712  0.00  0.00     0.027 A 
ATOM      5  C5  DEN d   1       1.308  -4.071   2.054  0.00  0.00    -0.003 A 
ATOM      6  C6  DEN d   1       1.879  -3.570   0.914  0.00  0.00     0.001 A 
ATOM      7  C7  DEN d   1       1.463  -2.361   0.422  0.00  0.00     0.017 A 
ATOM      8  C8  DEN d   1       0.430  -1.702   1.075  0.00  0.00    -0.094 A 
ATOM      9  C9  DEN d   1      -0.126  -2.219   2.233  0.00  0.00    -0.072 A 
ENDROOT
TORSDOF 0
ENDMDL
