MODEL 1
REMARK minimizedAffinity 4.53888893
REMARK minimizedRMSD -1
REMARK  0 active torsions:
REMARK  status: ('A' for Active; 'I' for Inactive)
ROOT
ATOM      1  C1  DEN d   1      -2.510  -0.554   1.064  0.00  0.00     0.130 A 
ATOM      2  C2  DEN d   1      -3.394  -0.263  -0.061  0.00  0.00    -0.031 A 
ATOM      3  C3  DEN d   1      -2.576  -0.237  -1.290  0.00  0.00     0.027 A 
ATOM      4  C4  DEN d   1      -0.039  -0.621  -1.559  0.00  0.00     0.027 A 
ATOM      5  C5  DEN d   1       1.133  -0.889  -0.887  0.00  0.00    -0.003 A 
ATOM      6  C6  DEN d   1       1.178  -1.028   0.475  0.00  0.00     0.001 A 
ATOM      7  C7  DEN d   1       0.022  -0.946   1.205  0.00  0.00     0.017 A 
ATOM      8  C8  DEN d   1      -1.163  -0.669   0.535  0.00  0.00    -0.094 A 
ATOM      9  C9  DEN d   1      -1.190  -0.544  -0.843  0.00  0.00    -0.072 A 
ENDROOT
TORSDOF 0
ENDMDL
