MODEL 1
REMARK minimizedAffinity 1.34847414
REMARK minimizedRMSD -1
REMARK  0 active torsions:
REMARK  status: ('A' for Active; 'I' for Inactive)
ROOT
ATOM      1  C1  DEN d   1      -2.146   1.183   0.311  0.00  0.00     0.130 A 
ATOM      2  C2  DEN d   1      -0.990   0.617  -0.381  0.00  0.00    -0.031 A 
ATOM      3  C3  DEN d   1      -0.387  -0.405   0.498  0.00  0.00     0.027 A 
ATOM      4  C4  DEN d   1      -1.130  -1.167   2.848  0.00  0.00     0.027 A 
ATOM      5  C5  DEN d   1      -2.050  -0.968   3.854  0.00  0.00    -0.003 A 
ATOM      6  C6  DEN d   1      -3.037  -0.023   3.764  0.00  0.00     0.001 A 
ATOM      7  C7  DEN d   1      -3.156   0.729   2.625  0.00  0.00     0.017 A 
ATOM      8  C8  DEN d   1      -2.228   0.539   1.610  0.00  0.00    -0.094 A 
ATOM      9  C9  DEN d   1      -1.244  -0.429   1.714  0.00  0.00    -0.072 A 
ENDROOT
TORSDOF 0
ENDMDL
