MODEL 1
REMARK minimizedAffinity 0.569778562
REMARK minimizedRMSD -1
REMARK  0 active torsions:
REMARK  status: ('A' for Active; 'I' for Inactive)
ROOT
ATOM      1  C1  DEN d   1      -0.850  -0.389  -1.011  0.00  0.00     0.130 A 
ATOM      2  C2  DEN d   1       0.467  -0.878  -1.411  0.00  0.00    -0.031 A 
ATOM      3  C3  DEN d   1       1.124  -1.447  -0.217  0.00  0.00     0.027 A 
ATOM      4  C4  DEN d   1       0.234  -1.623   2.197  0.00  0.00     0.027 A 
ATOM      5  C5  DEN d   1      -0.828  -1.334   3.025  0.00  0.00    -0.003 A 
ATOM      6  C6  DEN d   1      -1.948  -0.685   2.578  0.00  0.00     0.001 A 
ATOM      7  C7  DEN d   1      -2.052  -0.343   1.255  0.00  0.00     0.017 A 
ATOM      8  C8  DEN d   1      -0.982  -0.624   0.415  0.00  0.00    -0.094 A 
ATOM      9  C9  DEN d   1       0.137  -1.292   0.884  0.00  0.00    -0.072 A 
ENDROOT
TORSDOF 0
ENDMDL
