MODEL 1
REMARK minimizedAffinity 0.949493527
REMARK minimizedRMSD -1
REMARK  0 active torsions:
REMARK  status: ('A' for Active; 'I' for Inactive)
ROOT
ATOM      1  C1  DEN d   1       0.110   6.000   5.998  0.00  0.00     0.130 A 
ATOM      2  C2  DEN d   1      -1.216   5.505   5.636  0.00  0.00    -0.031 A 
ATOM      3  C3  DEN d   1      -1.125   4.895   4.295  0.00  0.00     0.027 A 
ATOM      4  C4  DEN d   1       0.930   4.666   2.752  0.00  0.00     0.027 A 
ATOM      5  C5  DEN d   1       2.272   4.945   2.622  0.00  0.00    -0.003 A 
ATOM      6  C6  DEN d   1       2.974   5.620   3.585  0.00  0.00     0.001 A 
ATOM      7  C7  DEN d   1       2.347   5.999   4.742  0.00  0.00     0.017 A 
ATOM      8  C8  DEN d   1       0.992   5.728   4.878  0.00  0.00    -0.094 A 
ATOM      9  C9  DEN d   1       0.302   5.033   3.898  0.00  0.00    -0.072 A 
ENDROOT
TORSDOF 0
ENDMDL
