MODEL 1
REMARK minimizedAffinity 4.04498053
REMARK minimizedRMSD -1
REMARK  0 active torsions:
REMARK  status: ('A' for Active; 'I' for Inactive)
ROOT
ATOM      1  C1  DEN d   1      -0.581  -2.502   2.613  0.00  0.00     0.130 A 
ATOM      2  C2  DEN d   1       0.787  -2.621   2.115  0.00  0.00    -0.031 A 
ATOM      3  C3  DEN d   1       0.906  -1.787   0.902  0.00  0.00     0.027 A 
ATOM      4  C4  DEN d   1      -0.885  -0.327  -0.244  0.00  0.00     0.027 A 
ATOM      5  C5  DEN d   1      -2.199   0.083  -0.195  0.00  0.00    -0.003 A 
ATOM      6  C6  DEN d   1      -3.067  -0.362   0.765  0.00  0.00     0.001 A 
ATOM      7  C7  DEN d   1      -2.620  -1.211   1.744  0.00  0.00     0.017 A 
ATOM      8  C8  DEN d   1      -1.299  -1.634   1.697  0.00  0.00    -0.094 A 
ATOM      9  C9  DEN d   1      -0.433  -1.163   0.725  0.00  0.00    -0.072 A 
ENDROOT
TORSDOF 0
ENDMDL
