MODEL 1
REMARK minimizedAffinity -2.4523983
REMARK minimizedRMSD -1
REMARK  0 active torsions:
REMARK  status: ('A' for Active; 'I' for Inactive)
ROOT
ATOM      1  C1  DEN d   1      -2.483   0.014   1.181  0.00  0.00     0.130 A 
ATOM      2  C2  DEN d   1      -3.251  -0.203   2.404  0.00  0.00    -0.031 A 
ATOM      3  C3  DEN d   1      -2.478  -1.112   3.274  0.00  0.00     0.027 A 
ATOM      4  C4  DEN d   1      -0.176  -2.196   2.849  0.00  0.00     0.027 A 
ATOM      5  C5  DEN d   1       0.858  -2.318   1.948  0.00  0.00    -0.003 A 
ATOM      6  C6  DEN d   1       0.836  -1.703   0.724  0.00  0.00     0.001 A 
ATOM      7  C7  DEN d   1      -0.223  -0.902   0.386  0.00  0.00     0.017 A 
ATOM      8  C8  DEN d   1      -1.272  -0.780   1.286  0.00  0.00    -0.094 A 
ATOM      9  C9  DEN d   1      -1.226  -1.399   2.524  0.00  0.00    -0.072 A 
ENDROOT
TORSDOF 0
ENDMDL
