MODEL 1
REMARK minimizedAffinity 1.569875
REMARK minimizedRMSD -1
REMARK  0 active torsions:
REMARK  status: ('A' for Active; 'I' for Inactive)
ROOT
ATOM      1  C1  DEN d   1       0.801  -3.553   2.916  0.00  0.00     0.130 A 
ATOM      2  C2  DEN d   1       1.913  -4.275   2.303  0.00  0.00    -0.031 A 
ATOM      3  C3  DEN d   1       2.226  -3.622   1.016  0.00  0.00     0.027 A 
ATOM      4  C4  DEN d   1       1.107  -1.573  -0.079  0.00  0.00     0.027 A 
ATOM      5  C5  DEN d   1       0.112  -0.629   0.058  0.00  0.00    -0.003 A 
ATOM      6  C6  DEN d   1      -0.737  -0.615   1.133  0.00  0.00     0.001 A 
ATOM      7  C7  DEN d   1      -0.579  -1.536   2.135  0.00  0.00     0.017 A 
ATOM      8  C8  DEN d   1       0.417  -2.494   2.000  0.00  0.00    -0.094 A 
ATOM      9  C9  DEN d   1       1.273  -2.484   0.912  0.00  0.00    -0.072 A 
ENDROOT
TORSDOF 0
ENDMDL
