MODEL 1
REMARK minimizedAffinity 3.05383325
REMARK minimizedRMSD -1
REMARK  0 active torsions:
REMARK  status: ('A' for Active; 'I' for Inactive)
ROOT
ATOM      1  C4' PXY d   1       4.905   4.872  -4.523  0.00  0.00     0.077 C 
ATOM      2  C1' PXY d   1       5.760  -0.801  -5.228  0.00  0.00     0.077 C 
ATOM      3  C1  PXY d   1       5.546   0.689  -5.051  0.00  0.00    -0.082 A 
ATOM      4  C2  PXY d   1       4.910   1.136  -3.980  0.00  0.00     0.003 A 
ATOM      5  C3  PXY d   1       4.680   2.478  -3.820  0.00  0.00     0.003 A 
ATOM      6  C4  PXY d   1       5.152   3.376  -4.739  0.00  0.00    -0.082 A 
ATOM      7  C5  PXY d   1       5.811   2.929  -5.829  0.00  0.00     0.003 A 
ATOM      8  C6  PXY d   1       5.999   1.560  -5.994  0.00  0.00     0.003 A 
ENDROOT
TORSDOF 0
ENDMDL
