MODEL 1
REMARK minimizedAffinity 8.48272514
REMARK minimizedRMSD -1
REMARK  0 active torsions:
REMARK  status: ('A' for Active; 'I' for Inactive)
ROOT
ATOM      1  C4' PXY d   1       1.155   0.750   1.839  0.00  0.00     0.077 C 
ATOM      2  C1' PXY d   1       5.255   4.779   1.230  0.00  0.00     0.077 C 
ATOM      3  C1  PXY d   1       4.188   3.715   1.398  0.00  0.00    -0.082 A 
ATOM      4  C2  PXY d   1       3.238   3.592   0.484  0.00  0.00     0.003 A 
ATOM      5  C3  PXY d   1       2.247   2.657   0.636  0.00  0.00     0.003 A 
ATOM      6  C4  PXY d   1       2.258   1.803   1.707  0.00  0.00    -0.082 A 
ATOM      7  C5  PXY d   1       3.230   1.916   2.637  0.00  0.00     0.003 A 
ATOM      8  C6  PXY d   1       4.203   2.899   2.486  0.00  0.00     0.003 A 
ENDROOT
TORSDOF 0
ENDMDL
