MODEL 1
REMARK minimizedAffinity 4.82364845
REMARK minimizedRMSD -1
REMARK  0 active torsions:
REMARK  status: ('A' for Active; 'I' for Inactive)
ROOT
ATOM      1  C4' PXY d   1       4.779   5.452  -4.499  0.00  0.00     0.077 C 
ATOM      2  C1' PXY d   1       5.140  -0.125  -5.976  0.00  0.00     0.077 C 
ATOM      3  C1  PXY d   1       5.038   1.340  -5.599  0.00  0.00    -0.082 A 
ATOM      4  C2  PXY d   1       6.000   1.900  -4.883  0.00  0.00     0.003 A 
ATOM      5  C3  PXY d   1       5.907   3.215  -4.506  0.00  0.00     0.003 A 
ATOM      6  C4  PXY d   1       4.845   3.979  -4.911  0.00  0.00    -0.082 A 
ATOM      7  C5  PXY d   1       3.865   3.417  -5.650  0.00  0.00     0.003 A 
ATOM      8  C6  PXY d   1       3.958   2.070  -5.987  0.00  0.00     0.003 A 
ENDROOT
TORSDOF 0
ENDMDL
