MODEL 1
REMARK minimizedAffinity 2.06512523
REMARK minimizedRMSD -1
REMARK  0 active torsions:
REMARK  status: ('A' for Active; 'I' for Inactive)
ROOT
ATOM      1  C4' PXY d   1       5.634  -0.702  -4.454  0.00  0.00     0.077 C 
ATOM      2  C1' PXY d   1       3.645   4.501  -6.000  0.00  0.00     0.077 C 
ATOM      3  C1  PXY d   1       4.179   3.142  -5.593  0.00  0.00    -0.082 A 
ATOM      4  C2  PXY d   1       3.552   2.047  -5.991  0.00  0.00     0.003 A 
ATOM      5  C3  PXY d   1       4.002   0.810  -5.606  0.00  0.00     0.003 A 
ATOM      6  C4  PXY d   1       5.137   0.691  -4.849  0.00  0.00    -0.082 A 
ATOM      7  C5  PXY d   1       5.788   1.803  -4.447  0.00  0.00     0.003 A 
ATOM      8  C6  PXY d   1       5.291   3.050  -4.815  0.00  0.00     0.003 A 
ENDROOT
TORSDOF 0
ENDMDL
