MODEL 1
REMARK minimizedAffinity -2.59634161
REMARK minimizedRMSD -1
REMARK  0 active torsions:
REMARK  status: ('A' for Active; 'I' for Inactive)
ROOT
ATOM      1  C4' PXY d   1       4.470   2.089   3.901  0.00  0.00     0.077 C 
ATOM      2  C1' PXY d   1       1.404   3.264  -0.856  0.00  0.00     0.077 C 
ATOM      3  C1  PXY d   1       2.219   2.962   0.386  0.00  0.00    -0.082 A 
ATOM      4  C2  PXY d   1       1.853   1.970   1.182  0.00  0.00     0.003 A 
ATOM      5  C3  PXY d   1       2.560   1.704   2.327  0.00  0.00     0.003 A 
ATOM      6  C4  PXY d   1       3.683   2.425   2.631  0.00  0.00    -0.082 A 
ATOM      7  C5  PXY d   1       4.069   3.430   1.818  0.00  0.00     0.003 A 
ATOM      8  C6  PXY d   1       3.314   3.712   0.683  0.00  0.00     0.003 A 
ENDROOT
TORSDOF 0
ENDMDL
