MODEL 1
REMARK minimizedAffinity 0.988395154
REMARK minimizedRMSD -1
REMARK  0 active torsions:
REMARK  status: ('A' for Active; 'I' for Inactive)
ROOT
ATOM      1  C4' PXY d   1       4.901   2.846   4.980  0.00  0.00     0.077 C 
ATOM      2  C1' PXY d   1       2.844   3.282  -0.405  0.00  0.00     0.077 C 
ATOM      3  C1  PXY d   1       3.394   3.174   1.004  0.00  0.00    -0.082 A 
ATOM      4  C2  PXY d   1       2.953   2.220   1.807  0.00  0.00     0.003 A 
ATOM      5  C3  PXY d   1       3.416   2.127   3.094  0.00  0.00     0.003 A 
ATOM      6  C4  PXY d   1       4.381   2.987   3.547  0.00  0.00    -0.082 A 
ATOM      7  C5  PXY d   1       4.844   3.957   2.730  0.00  0.00     0.003 A 
ATOM      8  C6  PXY d   1       4.331   4.060   1.440  0.00  0.00     0.003 A 
ENDROOT
TORSDOF 0
ENDMDL
