MODEL 1
REMARK minimizedAffinity 3.88957429
REMARK minimizedRMSD -1
REMARK  0 active torsions:
REMARK  status: ('A' for Active; 'I' for Inactive)
ROOT
ATOM      1  C4' PXY d   1      -2.109  -2.398   2.598  0.00  0.00     0.077 C 
ATOM      2  C1' PXY d   1       0.193  -2.965  -2.674  0.00  0.00     0.077 C 
ATOM      3  C1  PXY d   1      -0.400  -2.811  -1.287  0.00  0.00    -0.082 A 
ATOM      4  C2  PXY d   1      -1.404  -3.587  -0.915  0.00  0.00     0.003 A 
ATOM      5  C3  PXY d   1      -1.973  -3.440   0.324  0.00  0.00     0.003 A 
ATOM      6  C4  PXY d   1      -1.473  -2.524   1.211  0.00  0.00    -0.082 A 
ATOM      7  C5  PXY d   1      -0.442  -1.735   0.842  0.00  0.00     0.003 A 
ATOM      8  C6  PXY d   1       0.095  -1.872  -0.435  0.00  0.00     0.003 A 
ENDROOT
TORSDOF 0
ENDMDL
