MODEL 1
REMARK minimizedAffinity -1.33982217
REMARK minimizedRMSD -1
REMARK  0 active torsions:
REMARK  status: ('A' for Active; 'I' for Inactive)
ROOT
ATOM      1  C4' PXY d   1      -1.344  -3.728  -1.335  0.00  0.00     0.077 C 
ATOM      2  C1' PXY d   1      -1.572  -4.666   4.365  0.00  0.00     0.077 C 
ATOM      3  C1  PXY d   1      -1.505  -4.431   2.869  0.00  0.00    -0.082 A 
ATOM      4  C2  PXY d   1      -1.678  -3.209   2.390  0.00  0.00     0.003 A 
ATOM      5  C3  PXY d   1      -1.653  -2.984   1.038  0.00  0.00     0.003 A 
ATOM      6  C4  PXY d   1      -1.394  -4.011   0.169  0.00  0.00    -0.082 A 
ATOM      7  C5  PXY d   1      -1.205  -5.258   0.651  0.00  0.00     0.003 A 
ATOM      8  C6  PXY d   1      -1.276  -5.472   2.024  0.00  0.00     0.003 A 
ENDROOT
TORSDOF 0
ENDMDL
