MODEL 1
REMARK minimizedAffinity 0.299926311
REMARK minimizedRMSD -1
REMARK  0 active torsions:
REMARK  status: ('A' for Active; 'I' for Inactive)
ROOT
ATOM      1  C4' PXY d   1       0.688   1.638   0.413  0.00  0.00     0.077 C 
ATOM      2  C1' PXY d   1       5.377   3.970   2.860  0.00  0.00     0.077 C 
ATOM      3  C1  PXY d   1       4.146   3.369   2.211  0.00  0.00    -0.082 A 
ATOM      4  C2  PXY d   1       3.446   2.453   2.860  0.00  0.00     0.003 A 
ATOM      5  C3  PXY d   1       2.349   1.876   2.274  0.00  0.00     0.003 A 
ATOM      6  C4  PXY d   1       1.933   2.279   1.034  0.00  0.00    -0.082 A 
ATOM      7  C5  PXY d   1       2.636   3.221   0.370  0.00  0.00     0.003 A 
ATOM      8  C6  PXY d   1       3.771   3.765   0.964  0.00  0.00     0.003 A 
ENDROOT
TORSDOF 0
ENDMDL
