MODEL 1
REMARK minimizedAffinity 2.50364947
REMARK minimizedRMSD -1
REMARK  0 active torsions:
REMARK  status: ('A' for Active; 'I' for Inactive)
ROOT
ATOM      1  C4' PXY d   1       5.109   2.256   4.208  0.00  0.00     0.077 C 
ATOM      2  C1' PXY d   1       2.098   3.053  -0.662  0.00  0.00     0.077 C 
ATOM      3  C1  PXY d   1       2.897   2.851   0.611  0.00  0.00    -0.082 A 
ATOM      4  C2  PXY d   1       2.637   1.813   1.389  0.00  0.00     0.003 A 
ATOM      5  C3  PXY d   1       3.328   1.633   2.559  0.00  0.00     0.003 A 
ATOM      6  C4  PXY d   1       4.333   2.494   2.910  0.00  0.00    -0.082 A 
ATOM      7  C5  PXY d   1       4.613   3.549   2.115  0.00  0.00     0.003 A 
ATOM      8  C6  PXY d   1       3.871   3.738   0.952  0.00  0.00     0.003 A 
ENDROOT
TORSDOF 0
ENDMDL
