MODEL 1
REMARK minimizedAffinity 3.54669213
REMARK minimizedRMSD -1
REMARK  0 active torsions:
REMARK  status: ('A' for Active; 'I' for Inactive)
ROOT
ATOM      1  C4' PXY d   1       5.225   4.102   2.586  0.00  0.00     0.077 C 
ATOM      2  C1' PXY d   1       0.902   0.689   0.830  0.00  0.00     0.077 C 
ATOM      3  C1  PXY d   1       2.039   1.587   1.278  0.00  0.00    -0.082 A 
ATOM      4  C2  PXY d   1       2.577   1.413   2.474  0.00  0.00     0.003 A 
ATOM      5  C3  PXY d   1       3.584   2.236   2.908  0.00  0.00     0.003 A 
ATOM      6  C4  PXY d   1       4.082   3.213   2.088  0.00  0.00    -0.082 A 
ATOM      7  C5  PXY d   1       3.546   3.389   0.862  0.00  0.00     0.003 A 
ATOM      8  C6  PXY d   1       2.496   2.570   0.456  0.00  0.00     0.003 A 
ENDROOT
TORSDOF 0
ENDMDL
