MODEL 1
REMARK minimizedAffinity 0.631429732
REMARK minimizedRMSD -1
REMARK  0 active torsions:
REMARK  status: ('A' for Active; 'I' for Inactive)
ROOT
ATOM      1  C4' PXY d   1       0.144   1.238   1.315  0.00  0.00     0.077 C 
ATOM      2  C1' PXY d   1       5.207   3.954   1.958  0.00  0.00     0.077 C 
ATOM      3  C1  PXY d   1       3.883   3.232   1.798  0.00  0.00    -0.082 A 
ATOM      4  C2  PXY d   1       3.149   3.445   0.718  0.00  0.00     0.003 A 
ATOM      5  C3  PXY d   1       1.934   2.826   0.572  0.00  0.00     0.003 A 
ATOM      6  C4  PXY d   1       1.492   1.938   1.515  0.00  0.00    -0.082 A 
ATOM      7  C5  PXY d   1       2.240   1.706   2.614  0.00  0.00     0.003 A 
ATOM      8  C6  PXY d   1       3.451   2.377   2.764  0.00  0.00     0.003 A 
ENDROOT
TORSDOF 0
ENDMDL
