MODEL 1
REMARK minimizedAffinity -1.62193418
REMARK minimizedRMSD -1
REMARK  0 active torsions:
REMARK  status: ('A' for Active; 'I' for Inactive)
ROOT
ATOM      1  C4' PXY d   1       5.371   2.526   4.261  0.00  0.00     0.077 C 
ATOM      2  C1' PXY d   1       1.626   3.137  -0.100  0.00  0.00     0.077 C 
ATOM      3  C1  PXY d   1       2.616   2.985   1.038  0.00  0.00    -0.082 A 
ATOM      4  C2  PXY d   1       2.578   1.902   1.798  0.00  0.00     0.003 A 
ATOM      5  C3  PXY d   1       3.446   1.763   2.850  0.00  0.00     0.003 A 
ATOM      6  C4  PXY d   1       4.396   2.717   3.095  0.00  0.00    -0.082 A 
ATOM      7  C5  PXY d   1       4.448   3.820   2.318  0.00  0.00     0.003 A 
ATOM      8  C6  PXY d   1       3.532   3.961   1.280  0.00  0.00     0.003 A 
ENDROOT
TORSDOF 0
ENDMDL
