MODEL 1
REMARK minimizedAffinity 0.463129461
REMARK minimizedRMSD -1
REMARK  0 active torsions:
REMARK  status: ('A' for Active; 'I' for Inactive)
ROOT
ATOM      1  C4' PXY d   1      -0.053  -1.863   0.874  0.00  0.00     0.077 C 
ATOM      2  C1' PXY d   1       3.418   2.715   1.509  0.00  0.00     0.077 C 
ATOM      3  C1  PXY d   1       2.518   1.507   1.340  0.00  0.00    -0.082 A 
ATOM      4  C2  PXY d   1       1.240   1.680   1.043  0.00  0.00     0.003 A 
ATOM      5  C3  PXY d   1       0.405   0.599   0.917  0.00  0.00     0.003 A 
ATOM      6  C4  PXY d   1       0.894  -0.673   1.045  0.00  0.00    -0.082 A 
ATOM      7  C5  PXY d   1       2.199  -0.858   1.338  0.00  0.00     0.003 A 
ATOM      8  C6  PXY d   1       3.021   0.253   1.501  0.00  0.00     0.003 A 
ENDROOT
TORSDOF 0
ENDMDL
