MODEL 1
REMARK minimizedAffinity 5.40395832
REMARK minimizedRMSD -1
REMARK  0 active torsions:
REMARK  status: ('A' for Active; 'I' for Inactive)
ROOT
ATOM      1  C4' PXY d   1       3.528   5.036  -5.990  0.00  0.00     0.077 C 
ATOM      2  C1' PXY d   1       5.725  -0.128  -4.602  0.00  0.00     0.077 C 
ATOM      3  C1  PXY d   1       5.160   1.232  -4.961  0.00  0.00    -0.082 A 
ATOM      4  C2  PXY d   1       3.849   1.396  -5.040  0.00  0.00     0.003 A 
ATOM      5  C3  PXY d   1       3.322   2.611  -5.395  0.00  0.00     0.003 A 
ATOM      6  C4  PXY d   1       4.143   3.683  -5.621  0.00  0.00    -0.082 A 
ATOM      7  C5  PXY d   1       5.481   3.527  -5.532  0.00  0.00     0.003 A 
ATOM      8  C6  PXY d   1       5.997   2.275  -5.210  0.00  0.00     0.003 A 
ENDROOT
TORSDOF 0
ENDMDL
