MODEL 1
REMARK minimizedAffinity 4.1875267
REMARK minimizedRMSD -1
REMARK  0 active torsions:
REMARK  status: ('A' for Active; 'I' for Inactive)
ROOT
ATOM      1  C4' PXY d   1       4.184   4.857  -0.760  0.00  0.00     0.077 C 
ATOM      2  C1' PXY d   1       4.512   2.199   4.362  0.00  0.00     0.077 C 
ATOM      3  C1  PXY d   1       4.423   2.885   3.013  0.00  0.00    -0.082 A 
ATOM      4  C2  PXY d   1       5.067   4.023   2.814  0.00  0.00     0.003 A 
ATOM      5  C3  PXY d   1       4.972   4.673   1.611  0.00  0.00     0.003 A 
ATOM      6  C4  PXY d   1       4.253   4.125   0.583  0.00  0.00    -0.082 A 
ATOM      7  C5  PXY d   1       3.601   2.958   0.774  0.00  0.00     0.003 A 
ATOM      8  C6  PXY d   1       3.677   2.335   2.016  0.00  0.00     0.003 A 
ENDROOT
TORSDOF 0
ENDMDL
