MODEL 1
REMARK minimizedAffinity 2.08513713
REMARK minimizedRMSD -1
REMARK  0 active torsions:
REMARK  status: ('A' for Active; 'I' for Inactive)
ROOT
ATOM      1  C4' PXY d   1       1.200   2.942  -0.549  0.00  0.00     0.077 C 
ATOM      2  C1' PXY d   1       5.572   2.989   3.231  0.00  0.00     0.077 C 
ATOM      3  C1  PXY d   1       4.423   2.964   2.243  0.00  0.00    -0.082 A 
ATOM      4  C2  PXY d   1       4.401   3.832   1.244  0.00  0.00     0.003 A 
ATOM      5  C3  PXY d   1       3.353   3.845   0.360  0.00  0.00     0.003 A 
ATOM      6  C4  PXY d   1       2.345   2.924   0.467  0.00  0.00    -0.082 A 
ATOM      7  C5  PXY d   1       2.366   2.029   1.477  0.00  0.00     0.003 A 
ATOM      8  C6  PXY d   1       3.418   2.059   2.388  0.00  0.00     0.003 A 
ENDROOT
TORSDOF 0
ENDMDL
