MODEL 1
REMARK minimizedAffinity -0.260640949
REMARK minimizedRMSD -1
REMARK  0 active torsions:
REMARK  status: ('A' for Active; 'I' for Inactive)
ROOT
ATOM      1  C4' PXY d   1       5.518   2.952   2.685  0.00  0.00     0.077 C 
ATOM      2  C1' PXY d   1       0.300   2.762   0.205  0.00  0.00     0.077 C 
ATOM      3  C1  PXY d   1       1.663   2.807   0.867  0.00  0.00    -0.082 A 
ATOM      4  C2  PXY d   1       2.582   3.646   0.415  0.00  0.00     0.003 A 
ATOM      5  C3  PXY d   1       3.830   3.677   0.981  0.00  0.00     0.003 A 
ATOM      6  C4  PXY d   1       4.124   2.879   2.054  0.00  0.00    -0.082 A 
ATOM      7  C5  PXY d   1       3.189   2.029   2.527  0.00  0.00     0.003 A 
ATOM      8  C6  PXY d   1       1.941   1.983   1.913  0.00  0.00     0.003 A 
ENDROOT
TORSDOF 0
ENDMDL
