MODEL 1
REMARK minimizedAffinity -4.03109598
REMARK minimizedRMSD -1
REMARK  0 active torsions:
REMARK  status: ('A' for Active; 'I' for Inactive)
ROOT
ATOM      1  C4' PXY d   1      -1.434  -3.238  -2.634  0.00  0.00     0.077 C 
ATOM      2  C1' PXY d   1       1.811   0.719   0.053  0.00  0.00     0.077 C 
ATOM      3  C1  PXY d   1       0.955  -0.322  -0.640  0.00  0.00    -0.082 A 
ATOM      4  C2  PXY d   1       1.361  -0.846  -1.785  0.00  0.00     0.003 A 
ATOM      5  C3  PXY d   1       0.584  -1.765  -2.441  0.00  0.00     0.003 A 
ATOM      6  C4  PXY d   1      -0.597  -2.191  -1.894  0.00  0.00    -0.082 A 
ATOM      7  C5  PXY d   1      -1.013  -1.668  -0.721  0.00  0.00     0.003 A 
ATOM      8  C6  PXY d   1      -0.229  -0.706  -0.091  0.00  0.00     0.003 A 
ENDROOT
TORSDOF 0
ENDMDL
