MODEL 1
REMARK minimizedAffinity -2.7996304
REMARK minimizedRMSD -1
REMARK  0 active torsions:
REMARK  status: ('A' for Active; 'I' for Inactive)
ROOT
ATOM      1  C   UNL d   1      -0.818   0.985  -0.627  0.00  0.00     0.078 C 
ATOM      2  C1  UNL d   1       0.340   0.210  -0.073  0.00  0.00    -0.077 A 
ATOM      3  C2  UNL d   1       0.172  -0.665   1.006  0.00  0.00    -0.001 A 
ATOM      4  C3  UNL d   1       1.260  -1.373   1.518  0.00  0.00     0.003 A 
ATOM      5  C4  UNL d   1       2.526  -1.212   0.957  0.00  0.00    -0.005 A 
ATOM      6  C5  UNL d   1       2.704  -0.342  -0.117  0.00  0.00     0.003 A 
ATOM      7  C6  UNL d   1       1.616   0.367  -0.630  0.00  0.00    -0.001 A 
ENDROOT
TORSDOF 0
ENDMDL
