MODEL 1
REMARK minimizedAffinity -4.33539295
REMARK minimizedRMSD -1
REMARK  0 active torsions:
REMARK  status: ('A' for Active; 'I' for Inactive)
ROOT
ATOM      1  C   UNL d   1      -0.394   1.356  -0.394  0.00  0.00     0.078 C 
ATOM      2  C1  UNL d   1       0.695   0.337  -0.233  0.00  0.00    -0.077 A 
ATOM      3  C2  UNL d   1       1.904   0.458  -0.929  0.00  0.00    -0.001 A 
ATOM      4  C3  UNL d   1       2.905  -0.502  -0.778  0.00  0.00     0.003 A 
ATOM      5  C4  UNL d   1       2.706  -1.592   0.068  0.00  0.00    -0.005 A 
ATOM      6  C5  UNL d   1       1.506  -1.722   0.763  0.00  0.00     0.003 A 
ATOM      7  C6  UNL d   1       0.504  -0.762   0.613  0.00  0.00    -0.001 A 
ENDROOT
TORSDOF 0
ENDMDL
