MODEL 1
REMARK minimizedAffinity -4.87399578
REMARK minimizedRMSD -1
REMARK  0 active torsions:
REMARK  status: ('A' for Active; 'I' for Inactive)
ROOT
ATOM      1  C   UNL d   1       3.266   0.442  -0.523  0.00  0.00     0.078 C 
ATOM      2  C1  UNL d   1       1.918   0.122   0.052  0.00  0.00    -0.077 A 
ATOM      3  C2  UNL d   1       0.806   0.928  -0.225  0.00  0.00    -0.001 A 
ATOM      4  C3  UNL d   1      -0.440   0.624   0.324  0.00  0.00     0.003 A 
ATOM      5  C4  UNL d   1      -0.587  -0.485   1.155  0.00  0.00    -0.005 A 
ATOM      6  C5  UNL d   1       0.513  -1.291   1.438  0.00  0.00     0.003 A 
ATOM      7  C6  UNL d   1       1.761  -0.989   0.890  0.00  0.00    -0.001 A 
ENDROOT
TORSDOF 0
ENDMDL
