MODEL 1
REMARK minimizedAffinity -4.64384699
REMARK minimizedRMSD -1
REMARK  0 active torsions:
REMARK  status: ('A' for Active; 'I' for Inactive)
ROOT
ATOM      1  C   UNL d   1       3.596  -0.021  -0.750  0.00  0.00     0.078 C 
ATOM      2  C1  UNL d   1       2.296  -0.379  -0.094  0.00  0.00    -0.077 A 
ATOM      3  C2  UNL d   1       2.180  -1.530   0.696  0.00  0.00    -0.001 A 
ATOM      4  C3  UNL d   1       0.961  -1.857   1.292  0.00  0.00     0.003 A 
ATOM      5  C4  UNL d   1      -0.151  -1.038   1.105  0.00  0.00    -0.005 A 
ATOM      6  C5  UNL d   1      -0.046   0.108   0.320  0.00  0.00     0.003 A 
ATOM      7  C6  UNL d   1       1.172   0.436  -0.278  0.00  0.00    -0.001 A 
ENDROOT
TORSDOF 0
ENDMDL
