MODEL 1
REMARK minimizedAffinity -5.07392406
REMARK minimizedRMSD -1
REMARK  0 active torsions:
REMARK  status: ('A' for Active; 'I' for Inactive)
ROOT
ATOM      1  C   UNL d   1       1.531  -3.350   1.523  0.00  0.00     0.078 C 
ATOM      2  C1  UNL d   1       0.485  -2.296   1.317  0.00  0.00    -0.077 A 
ATOM      3  C2  UNL d   1       0.720  -1.201   0.476  0.00  0.00    -0.001 A 
ATOM      4  C3  UNL d   1      -0.260  -0.222   0.302  0.00  0.00     0.003 A 
ATOM      5  C4  UNL d   1      -1.481  -0.328   0.965  0.00  0.00    -0.005 A 
ATOM      6  C5  UNL d   1      -1.723  -1.413   1.805  0.00  0.00     0.003 A 
ATOM      7  C6  UNL d   1      -0.745  -2.393   1.981  0.00  0.00    -0.001 A 
ENDROOT
TORSDOF 0
ENDMDL
