MODEL 1
REMARK minimizedAffinity -4.17589331
REMARK minimizedRMSD -1
REMARK  0 active torsions:
REMARK  status: ('A' for Active; 'I' for Inactive)
ROOT
ATOM      1  C   UNL d   1      -0.654   0.995  -0.438  0.00  0.00     0.078 C 
ATOM      2  C1  UNL d   1       0.125  -0.181   0.071  0.00  0.00    -0.077 A 
ATOM      3  C2  UNL d   1       1.509  -0.265  -0.119  0.00  0.00    -0.001 A 
ATOM      4  C3  UNL d   1       2.220  -1.370   0.353  0.00  0.00     0.003 A 
ATOM      5  C4  UNL d   1       1.555  -2.399   1.015  0.00  0.00    -0.005 A 
ATOM      6  C5  UNL d   1       0.177  -2.325   1.207  0.00  0.00     0.003 A 
ATOM      7  C6  UNL d   1      -0.536  -1.221   0.736  0.00  0.00    -0.001 A 
ENDROOT
TORSDOF 0
ENDMDL
