MODEL 1
REMARK minimizedAffinity -4.39628553
REMARK minimizedRMSD -1
REMARK  0 active torsions:
REMARK  status: ('A' for Active; 'I' for Inactive)
ROOT
ATOM      1  C   UNL d   1       0.137   1.127   0.028  0.00  0.00     0.078 C 
ATOM      2  C1  UNL d   1      -0.697   1.117  -1.219  0.00  0.00    -0.077 A 
ATOM      3  C2  UNL d   1      -1.478   0.005  -1.555  0.00  0.00    -0.001 A 
ATOM      4  C3  UNL d   1      -2.242   0.006  -2.723  0.00  0.00     0.003 A 
ATOM      5  C4  UNL d   1      -2.231   1.116  -3.565  0.00  0.00    -0.005 A 
ATOM      6  C5  UNL d   1      -1.455   2.227  -3.240  0.00  0.00     0.003 A 
ATOM      7  C6  UNL d   1      -0.690   2.228  -2.072  0.00  0.00    -0.001 A 
ENDROOT
TORSDOF 0
ENDMDL
