MODEL 1
REMARK minimizedAffinity -4.52726221
REMARK minimizedRMSD -1
REMARK  0 active torsions:
REMARK  status: ('A' for Active; 'I' for Inactive)
ROOT
ATOM      1  C   UNL d   1      -0.523   1.466  -0.133  0.00  0.00     0.078 C 
ATOM      2  C1  UNL d   1       0.310   0.319   0.357  0.00  0.00    -0.077 A 
ATOM      3  C2  UNL d   1       1.692   0.284   0.133  0.00  0.00    -0.001 A 
ATOM      4  C3  UNL d   1       2.453  -0.795   0.586  0.00  0.00     0.003 A 
ATOM      5  C4  UNL d   1       1.841  -1.847   1.264  0.00  0.00    -0.005 A 
ATOM      6  C5  UNL d   1       0.466  -1.822   1.489  0.00  0.00     0.003 A 
ATOM      7  C6  UNL d   1      -0.296  -0.744   1.037  0.00  0.00    -0.001 A 
ENDROOT
TORSDOF 0
ENDMDL
