MODEL 1
REMARK minimizedAffinity -2.98454762
REMARK minimizedRMSD -1
REMARK  0 active torsions:
REMARK  status: ('A' for Active; 'I' for Inactive)
ROOT
ATOM      1  C   UNL d   1       1.544   1.501  -0.979  0.00  0.00     0.078 C 
ATOM      2  C1  UNL d   1       0.510   0.827  -0.126  0.00  0.00    -0.077 A 
ATOM      3  C2  UNL d   1      -0.581   1.542   0.383  0.00  0.00    -0.001 A 
ATOM      4  C3  UNL d   1      -1.530   0.904   1.184  0.00  0.00     0.003 A 
ATOM      5  C4  UNL d   1      -1.397  -0.450   1.483  0.00  0.00    -0.005 A 
ATOM      6  C5  UNL d   1      -0.313  -1.168   0.983  0.00  0.00     0.003 A 
ATOM      7  C6  UNL d   1       0.637  -0.533   0.182  0.00  0.00    -0.001 A 
ENDROOT
TORSDOF 0
ENDMDL
