MODEL 1
REMARK minimizedAffinity -4.93666506
REMARK minimizedRMSD -1
REMARK  0 active torsions:
REMARK  status: ('A' for Active; 'I' for Inactive)
ROOT
ATOM      1  C   UNL d   1      -0.636   0.995   0.088  0.00  0.00     0.078 C 
ATOM      2  C1  UNL d   1       0.166  -0.194   0.525  0.00  0.00    -0.077 A 
ATOM      3  C2  UNL d   1      -0.456  -1.316   1.086  0.00  0.00    -0.001 A 
ATOM      4  C3  UNL d   1       0.304  -2.412   1.498  0.00  0.00     0.003 A 
ATOM      5  C4  UNL d   1       1.690  -2.396   1.355  0.00  0.00    -0.005 A 
ATOM      6  C5  UNL d   1       2.318  -1.282   0.801  0.00  0.00     0.003 A 
ATOM      7  C6  UNL d   1       1.560  -0.185   0.388  0.00  0.00    -0.001 A 
ENDROOT
TORSDOF 0
ENDMDL
