MODEL 1
REMARK minimizedAffinity -5.94948149
REMARK minimizedRMSD -1
REMARK  0 active torsions:
REMARK  status: ('A' for Active; 'I' for Inactive)
ROOT
ATOM      1  C   UNL d   1      -0.714   0.051   1.093  0.00  0.00     0.077 C 
ATOM      2  C1  UNL d   1       0.273  -0.064  -0.030  0.00  0.00    -0.074 A 
ATOM      3  C2  UNL d   1       0.921   1.067  -0.536  0.00  0.00    -0.005 A 
ATOM      4  C3  UNL d   1       1.845   0.943  -1.574  0.00  0.00     0.006 A 
ATOM      5  C4  UNL d   1       2.128  -0.311  -2.116  0.00  0.00    -0.005 A 
ATOM      6  C5  UNL d   1       1.490  -1.453  -1.623  0.00  0.00    -0.074 A 
ATOM      7  C6  UNL d   1       1.791  -2.810  -2.188  0.00  0.00     0.077 C 
ATOM      8  C7  UNL d   1       0.569  -1.322  -0.575  0.00  0.00    -0.001 A 
ENDROOT
TORSDOF 0
ENDMDL
