MODEL 1
REMARK minimizedAffinity -2.71328068
REMARK minimizedRMSD -1
REMARK  0 active torsions:
REMARK  status: ('A' for Active; 'I' for Inactive)
ROOT
ATOM      1  C   UNL d   1      -1.923   0.424   1.898  0.00  0.00     0.077 C 
ATOM      2  C1  UNL d   1      -0.938   0.225   0.785  0.00  0.00    -0.074 A 
ATOM      3  C2  UNL d   1      -0.199   1.299   0.278  0.00  0.00    -0.005 A 
ATOM      4  C3  UNL d   1       0.720   1.097  -0.751  0.00  0.00     0.006 A 
ATOM      5  C4  UNL d   1       0.909  -0.178  -1.284  0.00  0.00    -0.005 A 
ATOM      6  C5  UNL d   1       0.180  -1.265  -0.790  0.00  0.00    -0.074 A 
ATOM      7  C6  UNL d   1       0.378  -2.644  -1.345  0.00  0.00     0.077 C 
ATOM      8  C7  UNL d   1      -0.737  -1.055   0.249  0.00  0.00    -0.001 A 
ENDROOT
TORSDOF 0
ENDMDL
