MODEL 1
REMARK minimizedAffinity -2.22801423
REMARK minimizedRMSD -1
REMARK  0 active torsions:
REMARK  status: ('A' for Active; 'I' for Inactive)
ROOT
ATOM      1  C   UNL d   1       1.409   2.448   0.815  0.00  0.00     0.077 C 
ATOM      2  C1  UNL d   1       1.084   1.129   0.178  0.00  0.00    -0.074 A 
ATOM      3  C2  UNL d   1       0.311   0.177   0.850  0.00  0.00    -0.005 A 
ATOM      4  C3  UNL d   1       0.009  -1.041   0.240  0.00  0.00     0.006 A 
ATOM      5  C4  UNL d   1       0.476  -1.318  -1.045  0.00  0.00    -0.005 A 
ATOM      6  C5  UNL d   1       1.250  -0.378  -1.732  0.00  0.00    -0.074 A 
ATOM      7  C6  UNL d   1       1.752  -0.657  -3.118  0.00  0.00     0.077 C 
ATOM      8  C7  UNL d   1       1.543   0.846  -1.116  0.00  0.00    -0.001 A 
ENDROOT
TORSDOF 0
ENDMDL
