MODEL 1
REMARK minimizedAffinity -5.47908878
REMARK minimizedRMSD -1
REMARK  0 active torsions:
REMARK  status: ('A' for Active; 'I' for Inactive)
ROOT
ATOM      1  C   UNL d   1       1.181  -4.182  -1.201  0.00  0.00     0.077 C 
ATOM      2  C1  UNL d   1       1.312  -2.737  -1.584  0.00  0.00    -0.074 A 
ATOM      3  C2  UNL d   1       2.009  -2.359  -2.736  0.00  0.00    -0.005 A 
ATOM      4  C3  UNL d   1       2.114  -1.013  -3.084  0.00  0.00     0.006 A 
ATOM      5  C4  UNL d   1       1.523  -0.032  -2.286  0.00  0.00    -0.005 A 
ATOM      6  C5  UNL d   1       0.821  -0.392  -1.131  0.00  0.00    -0.074 A 
ATOM      7  C6  UNL d   1       0.172   0.649  -0.268  0.00  0.00     0.077 C 
ATOM      8  C7  UNL d   1       0.714  -1.747  -0.791  0.00  0.00    -0.001 A 
ENDROOT
TORSDOF 0
ENDMDL
