MODEL 1
REMARK minimizedAffinity -5.12116957
REMARK minimizedRMSD -1
REMARK  0 active torsions:
REMARK  status: ('A' for Active; 'I' for Inactive)
ROOT
ATOM      1  C   UNL d   1      -0.440  -0.163   0.875  0.00  0.00     0.077 C 
ATOM      2  C1  UNL d   1       0.462  -0.292  -0.315  0.00  0.00    -0.074 A 
ATOM      3  C2  UNL d   1       1.178   0.808  -0.797  0.00  0.00    -0.005 A 
ATOM      4  C3  UNL d   1       2.022   0.671  -1.900  0.00  0.00     0.006 A 
ATOM      5  C4  UNL d   1       2.157  -0.567  -2.530  0.00  0.00    -0.005 A 
ATOM      6  C5  UNL d   1       1.450  -1.678  -2.062  0.00  0.00    -0.074 A 
ATOM      7  C6  UNL d   1       1.592  -3.018  -2.722  0.00  0.00     0.077 C 
ATOM      8  C7  UNL d   1       0.610  -1.534  -0.950  0.00  0.00    -0.001 A 
ENDROOT
TORSDOF 0
ENDMDL
