MODEL 1
REMARK minimizedAffinity -3.5118835
REMARK minimizedRMSD -1
REMARK  0 active torsions:
REMARK  status: ('A' for Active; 'I' for Inactive)
ROOT
ATOM      1  C   UNL d   1       1.314   0.121  -3.129  0.00  0.00     0.077 C 
ATOM      2  C1  UNL d   1       1.087  -0.025  -1.654  0.00  0.00    -0.074 A 
ATOM      3  C2  UNL d   1       1.216   1.070  -0.794  0.00  0.00    -0.005 A 
ATOM      4  C3  UNL d   1       0.993   0.921   0.575  0.00  0.00     0.006 A 
ATOM      5  C4  UNL d   1       0.638  -0.324   1.097  0.00  0.00    -0.005 A 
ATOM      6  C5  UNL d   1       0.503  -1.431   0.252  0.00  0.00    -0.074 A 
ATOM      7  C6  UNL d   1       0.114  -2.773   0.796  0.00  0.00     0.077 C 
ATOM      8  C7  UNL d   1       0.723  -1.271  -1.123  0.00  0.00    -0.001 A 
ENDROOT
TORSDOF 0
ENDMDL
