MODEL 1
REMARK minimizedAffinity -3.93882322
REMARK minimizedRMSD -1
REMARK  0 active torsions:
REMARK  status: ('A' for Active; 'I' for Inactive)
ROOT
ATOM      1  C   UNL d   1       1.368   0.375  -2.671  0.00  0.00     0.077 C 
ATOM      2  C1  UNL d   1       0.804  -0.356  -1.489  0.00  0.00    -0.074 A 
ATOM      3  C2  UNL d   1       0.846  -1.753  -1.421  0.00  0.00    -0.005 A 
ATOM      4  C3  UNL d   1       0.325  -2.419  -0.312  0.00  0.00     0.006 A 
ATOM      5  C4  UNL d   1      -0.241  -1.696   0.739  0.00  0.00    -0.005 A 
ATOM      6  C5  UNL d   1      -0.292  -0.300   0.689  0.00  0.00    -0.074 A 
ATOM      7  C6  UNL d   1      -0.889   0.492   1.814  0.00  0.00     0.077 C 
ATOM      8  C7  UNL d   1       0.239   0.362  -0.426  0.00  0.00    -0.001 A 
ENDROOT
TORSDOF 0
ENDMDL
