MODEL 1
REMARK minimizedAffinity -1.97534001
REMARK minimizedRMSD -1
REMARK  0 active torsions:
REMARK  status: ('A' for Active; 'I' for Inactive)
ROOT
ATOM      1  C   UNL d   1       1.443   0.060  -3.341  0.00  0.00     0.077 C 
ATOM      2  C1  UNL d   1       0.778  -0.561  -2.149  0.00  0.00    -0.074 A 
ATOM      3  C2  UNL d   1       0.504  -1.932  -2.112  0.00  0.00    -0.005 A 
ATOM      4  C3  UNL d   1      -0.105  -2.498  -0.992  0.00  0.00     0.006 A 
ATOM      5  C4  UNL d   1      -0.447  -1.700   0.100  0.00  0.00    -0.005 A 
ATOM      6  C5  UNL d   1      -0.180  -0.327   0.082  0.00  0.00    -0.074 A 
ATOM      7  C6  UNL d   1      -0.531   0.543   1.252  0.00  0.00     0.077 C 
ATOM      8  C7  UNL d   1       0.439   0.233  -1.044  0.00  0.00    -0.001 A 
ENDROOT
TORSDOF 0
ENDMDL
