MODEL 1
REMARK minimizedAffinity -5.2201581
REMARK minimizedRMSD -1
REMARK  0 active torsions:
REMARK  status: ('A' for Active; 'I' for Inactive)
ROOT
ATOM      1  C   UNL d   1      -1.456   0.384   0.583  0.00  0.00     0.077 C 
ATOM      2  C1  UNL d   1      -0.233   0.580  -0.263  0.00  0.00    -0.074 A 
ATOM      3  C2  UNL d   1       0.437   1.807  -0.283  0.00  0.00    -0.005 A 
ATOM      4  C3  UNL d   1       1.579   1.972  -1.068  0.00  0.00     0.006 A 
ATOM      5  C4  UNL d   1       2.061   0.913  -1.838  0.00  0.00    -0.005 A 
ATOM      6  C5  UNL d   1       1.404  -0.321  -1.830  0.00  0.00    -0.074 A 
ATOM      7  C6  UNL d   1       1.914  -1.472  -2.646  0.00  0.00     0.077 C 
ATOM      8  C7  UNL d   1       0.261  -0.481  -1.034  0.00  0.00    -0.001 A 
ENDROOT
TORSDOF 0
ENDMDL
