MODEL 1
REMARK minimizedAffinity -5.77848959
REMARK minimizedRMSD -1
REMARK  0 active torsions:
REMARK  status: ('A' for Active; 'I' for Inactive)
ROOT
ATOM      1  C   UNL d   1       1.799  -0.697  -3.084  0.00  0.00     0.077 C 
ATOM      2  C1  UNL d   1       1.247  -0.474  -1.707  0.00  0.00    -0.074 A 
ATOM      3  C2  UNL d   1       0.558  -1.488  -1.035  0.00  0.00    -0.005 A 
ATOM      4  C3  UNL d   1       0.059  -1.269   0.248  0.00  0.00     0.006 A 
ATOM      5  C4  UNL d   1       0.243  -0.035   0.873  0.00  0.00    -0.005 A 
ATOM      6  C5  UNL d   1       0.931   0.992   0.217  0.00  0.00    -0.074 A 
ATOM      7  C6  UNL d   1       1.147   2.321   0.877  0.00  0.00     0.077 C 
ATOM      8  C7  UNL d   1       1.436   0.761  -1.070  0.00  0.00    -0.001 A 
ENDROOT
TORSDOF 0
ENDMDL
