MODEL 1
REMARK minimizedAffinity -3.60218906
REMARK minimizedRMSD -1
REMARK  0 active torsions:
REMARK  status: ('A' for Active; 'I' for Inactive)
ROOT
ATOM      1  C   UNL d   1       1.689  -0.660  -3.297  0.00  0.00     0.077 C 
ATOM      2  C1  UNL d   1       1.211  -0.487  -1.886  0.00  0.00    -0.074 A 
ATOM      3  C2  UNL d   1       0.781  -1.585  -1.133  0.00  0.00    -0.005 A 
ATOM      4  C3  UNL d   1       0.347  -1.410   0.181  0.00  0.00     0.006 A 
ATOM      5  C4  UNL d   1       0.340  -0.138   0.755  0.00  0.00    -0.005 A 
ATOM      6  C5  UNL d   1       0.767   0.971   0.018  0.00  0.00    -0.074 A 
ATOM      7  C6  UNL d   1       0.774   2.344   0.623  0.00  0.00     0.077 C 
ATOM      8  C7  UNL d   1       1.207   0.787  -1.300  0.00  0.00    -0.001 A 
ENDROOT
TORSDOF 0
ENDMDL
