MODEL 1
REMARK minimizedAffinity -4.06495333
REMARK minimizedRMSD -1
REMARK  0 active torsions:
REMARK  status: ('A' for Active; 'I' for Inactive)
ROOT
ATOM      1  C   UNL d   1       0.237  -2.488  -1.126  0.00  0.00     0.077 C 
ATOM      2  C1  UNL d   1       0.237  -1.137  -0.474  0.00  0.00    -0.074 A 
ATOM      3  C2  UNL d   1       1.104  -0.129  -0.908  0.00  0.00    -0.005 A 
ATOM      4  C3  UNL d   1       1.085   1.125  -0.299  0.00  0.00     0.006 A 
ATOM      5  C4  UNL d   1       0.201   1.384   0.749  0.00  0.00    -0.005 A 
ATOM      6  C5  UNL d   1      -0.674   0.389   1.196  0.00  0.00    -0.074 A 
ATOM      7  C6  UNL d   1      -1.638   0.654   2.314  0.00  0.00     0.077 C 
ATOM      8  C7  UNL d   1      -0.654  -0.867   0.573  0.00  0.00    -0.001 A 
ENDROOT
TORSDOF 0
ENDMDL
