MODEL 1
REMARK minimizedAffinity -5.0656786
REMARK minimizedRMSD -1
REMARK  0 active torsions:
REMARK  status: ('A' for Active; 'I' for Inactive)
ROOT
ATOM      1  C   UNL d   1      -0.448   0.748   1.993  0.00  0.00     0.077 C 
ATOM      2  C1  UNL d   1       0.011  -0.135   0.871  0.00  0.00    -0.074 A 
ATOM      3  C2  UNL d   1      -0.049  -1.528   0.983  0.00  0.00    -0.005 A 
ATOM      4  C3  UNL d   1       0.373  -2.337  -0.073  0.00  0.00     0.006 A 
ATOM      5  C4  UNL d   1       0.857  -1.762  -1.248  0.00  0.00    -0.005 A 
ATOM      6  C5  UNL d   1       0.924  -0.371  -1.378  0.00  0.00    -0.074 A 
ATOM      7  C6  UNL d   1       1.433   0.263  -2.639  0.00  0.00     0.077 C 
ATOM      8  C7  UNL d   1       0.492   0.435  -0.316  0.00  0.00    -0.001 A 
ENDROOT
TORSDOF 0
ENDMDL
