MODEL 1
REMARK minimizedAffinity -3.66404629
REMARK minimizedRMSD -1
REMARK  0 active torsions:
REMARK  status: ('A' for Active; 'I' for Inactive)
ROOT
ATOM      1  C   UNL d   1       1.714  -0.241  -3.032  0.00  0.00     0.077 C 
ATOM      2  C1  UNL d   1       1.011  -0.771  -1.819  0.00  0.00    -0.074 A 
ATOM      3  C2  UNL d   1       0.799  -2.144  -1.653  0.00  0.00    -0.005 A 
ATOM      4  C3  UNL d   1       0.152  -2.624  -0.515  0.00  0.00     0.006 A 
ATOM      5  C4  UNL d   1      -0.291  -1.737   0.468  0.00  0.00    -0.005 A 
ATOM      6  C5  UNL d   1      -0.088  -0.361   0.320  0.00  0.00    -0.074 A 
ATOM      7  C6  UNL d   1      -0.549   0.604   1.371  0.00  0.00     0.077 C 
ATOM      8  C7  UNL d   1       0.570   0.112  -0.823  0.00  0.00    -0.001 A 
ENDROOT
TORSDOF 0
ENDMDL
