MODEL 1
REMARK minimizedAffinity -5.15497684
REMARK minimizedRMSD -1
REMARK  0 active torsions:
REMARK  status: ('A' for Active; 'I' for Inactive)
ROOT
ATOM      1  C   UNL d   1      -0.221  -1.166   1.347  0.00  0.00     0.077 C 
ATOM      2  C1  UNL d   1       0.402  -0.175   0.410  0.00  0.00    -0.074 A 
ATOM      3  C2  UNL d   1       0.863   1.061   0.874  0.00  0.00    -0.005 A 
ATOM      4  C3  UNL d   1       1.450   1.969  -0.009  0.00  0.00     0.006 A 
ATOM      5  C4  UNL d   1       1.580   1.651  -1.361  0.00  0.00    -0.005 A 
ATOM      6  C5  UNL d   1       1.125   0.419  -1.843  0.00  0.00    -0.074 A 
ATOM      7  C6  UNL d   1       1.266   0.057  -3.291  0.00  0.00     0.077 C 
ATOM      8  C7  UNL d   1       0.543  -0.491  -0.949  0.00  0.00    -0.001 A 
ENDROOT
TORSDOF 0
ENDMDL
