MODEL 1
REMARK minimizedAffinity -3.58023024
REMARK minimizedRMSD -1
REMARK  0 active torsions:
REMARK  status: ('A' for Active; 'I' for Inactive)
ROOT
ATOM      1  C   UNL d   1      -0.217  -2.430   0.691  0.00  0.00     0.077 C 
ATOM      2  C1  UNL d   1       0.160  -1.101   0.106  0.00  0.00    -0.074 A 
ATOM      3  C2  UNL d   1       0.418  -0.001   0.930  0.00  0.00    -0.005 A 
ATOM      4  C3  UNL d   1       0.777   1.226   0.372  0.00  0.00     0.006 A 
ATOM      5  C4  UNL d   1       0.881   1.365  -1.012  0.00  0.00    -0.005 A 
ATOM      6  C5  UNL d   1       0.627   0.275  -1.852  0.00  0.00    -0.074 A 
ATOM      7  C6  UNL d   1       0.744   0.405  -3.341  0.00  0.00     0.077 C 
ATOM      8  C7  UNL d   1       0.274  -0.956  -1.283  0.00  0.00    -0.001 A 
ENDROOT
TORSDOF 0
ENDMDL
