MODEL 1
REMARK minimizedAffinity -3.85246229
REMARK minimizedRMSD -1
REMARK  0 active torsions:
REMARK  status: ('A' for Active; 'I' for Inactive)
ROOT
ATOM      1  C   UNL d   1       2.339   1.316  -2.239  0.00  0.00     0.020 A 
ATOM      2  C1  UNL d   1       2.867   0.040  -2.050  0.00  0.00     0.020 A 
ATOM      3  C2  UNL d   1       2.216  -0.869  -1.214  0.00  0.00     0.034 A 
ATOM      4  C3  UNL d   1       1.032  -0.503  -0.564  0.00  0.00     0.017 A 
ATOM      5  C4  UNL d   1       0.502   0.778  -0.754  0.00  0.00     0.017 A 
ATOM      6  C5  UNL d   1       1.158   1.684  -1.592  0.00  0.00     0.034 A 
ATOM      7 Cl   UNL d   1      -0.956   1.302   0.014  0.00  0.00    -0.070 Cl
ATOM      8 Cl1  UNL d   1       0.279  -1.678   0.455  0.00  0.00    -0.070 Cl
ENDROOT
TORSDOF 0
ENDMDL
