MODEL 1
REMARK minimizedAffinity -5.10555124
REMARK minimizedRMSD -1
REMARK  0 active torsions:
REMARK  status: ('A' for Active; 'I' for Inactive)
ROOT
ATOM      1  C   UNL d   1       2.627  -1.081  -1.063  0.00  0.00     0.020 A 
ATOM      2  C1  UNL d   1       1.695  -1.710  -0.239  0.00  0.00     0.020 A 
ATOM      3  C2  UNL d   1       0.448  -1.120  -0.017  0.00  0.00     0.034 A 
ATOM      4  C3  UNL d   1       0.131   0.102  -0.620  0.00  0.00     0.017 A 
ATOM      5  C4  UNL d   1       1.067   0.733  -1.448  0.00  0.00     0.017 A 
ATOM      6  C5  UNL d   1       2.314   0.138  -1.666  0.00  0.00     0.034 A 
ATOM      7 Cl   UNL d   1       0.748   2.242  -2.227  0.00  0.00    -0.070 Cl
ATOM      8 Cl1  UNL d   1      -1.429   0.774  -0.303  0.00  0.00    -0.070 Cl
ENDROOT
TORSDOF 0
ENDMDL
