MODEL 1
REMARK minimizedAffinity -3.29025126
REMARK minimizedRMSD -1
REMARK  0 active torsions:
REMARK  status: ('A' for Active; 'I' for Inactive)
ROOT
ATOM      1  C   UNL d   1       2.109   1.381  -2.463  0.00  0.00     0.020 A 
ATOM      2  C1  UNL d   1       2.608   0.223  -1.868  0.00  0.00     0.020 A 
ATOM      3  C2  UNL d   1       1.881  -0.414  -0.861  0.00  0.00     0.034 A 
ATOM      4  C3  UNL d   1       0.650   0.107  -0.445  0.00  0.00     0.017 A 
ATOM      5  C4  UNL d   1       0.150   1.270  -1.043  0.00  0.00     0.017 A 
ATOM      6  C5  UNL d   1       0.883   1.903  -2.051  0.00  0.00     0.034 A 
ATOM      7 Cl   UNL d   1      -1.361   1.972  -0.583  0.00  0.00    -0.070 Cl
ATOM      8 Cl1  UNL d   1      -0.197  -0.732   0.806  0.00  0.00    -0.070 Cl
ENDROOT
TORSDOF 0
ENDMDL
