MODEL 1
REMARK minimizedAffinity -3.75692463
REMARK minimizedRMSD -1
REMARK  0 active torsions:
REMARK  status: ('A' for Active; 'I' for Inactive)
ROOT
ATOM      1  C   UNL d   1       0.250  -1.707   0.273  0.00  0.00     0.020 A 
ATOM      2  C1  UNL d   1      -0.655  -0.645   0.291  0.00  0.00     0.020 A 
ATOM      3  C2  UNL d   1      -0.372   0.525  -0.417  0.00  0.00     0.034 A 
ATOM      4  C3  UNL d   1       0.818   0.637  -1.145  0.00  0.00     0.017 A 
ATOM      5  C4  UNL d   1       1.726  -0.429  -1.162  0.00  0.00     0.017 A 
ATOM      6  C5  UNL d   1       1.437  -1.598  -0.452  0.00  0.00     0.034 A 
ATOM      7 Cl   UNL d   1       3.215  -0.365  -2.037  0.00  0.00    -0.070 Cl
ATOM      8 Cl1  UNL d   1       1.103   2.113  -1.997  0.00  0.00    -0.070 Cl
ENDROOT
TORSDOF 0
ENDMDL
