MODEL 1
REMARK minimizedAffinity -5.05615187
REMARK minimizedRMSD -1
REMARK  0 active torsions:
REMARK  status: ('A' for Active; 'I' for Inactive)
ROOT
ATOM      1  C   UNL d   1       2.587   0.299  -2.180  0.00  0.00     0.020 A 
ATOM      2  C1  UNL d   1       1.875   1.494  -2.279  0.00  0.00     0.020 A 
ATOM      3  C2  UNL d   1       0.733   1.692  -1.500  0.00  0.00     0.034 A 
ATOM      4  C3  UNL d   1       0.300   0.695  -0.619  0.00  0.00     0.017 A 
ATOM      5  C4  UNL d   1       1.016  -0.504  -0.520  0.00  0.00     0.017 A 
ATOM      6  C5  UNL d   1       2.159  -0.697  -1.303  0.00  0.00     0.034 A 
ATOM      7 Cl   UNL d   1       0.544  -1.781   0.545  0.00  0.00    -0.070 Cl
ATOM      8 Cl1  UNL d   1      -1.120   1.008   0.315  0.00  0.00    -0.070 Cl
ENDROOT
TORSDOF 0
ENDMDL
