MODEL 1
REMARK minimizedAffinity -2.82373047
REMARK minimizedRMSD -1
REMARK  0 active torsions:
REMARK  status: ('A' for Active; 'I' for Inactive)
ROOT
ATOM      1  C   UNL d   1       2.936  -0.721  -1.495  0.00  0.00     0.020 A 
ATOM      2  C1  UNL d   1       2.410   0.570  -1.530  0.00  0.00     0.020 A 
ATOM      3  C2  UNL d   1       1.178   0.839  -0.929  0.00  0.00     0.034 A 
ATOM      4  C3  UNL d   1       0.469  -0.185  -0.290  0.00  0.00     0.017 A 
ATOM      5  C4  UNL d   1       0.998  -1.480  -0.255  0.00  0.00     0.017 A 
ATOM      6  C5  UNL d   1       2.231  -1.743  -0.859  0.00  0.00     0.034 A 
ATOM      7 Cl   UNL d   1       0.181  -2.795   0.514  0.00  0.00    -0.070 Cl
ATOM      8 Cl1  UNL d   1      -1.048   0.219   0.433  0.00  0.00    -0.070 Cl
ENDROOT
TORSDOF 0
ENDMDL
