MODEL 1
REMARK minimizedAffinity -4.95906782
REMARK minimizedRMSD -1
REMARK  0 active torsions:
REMARK  status: ('A' for Active; 'I' for Inactive)
ROOT
ATOM      1  C   UNL d   1       2.745  -0.703  -1.699  0.00  0.00     0.020 A 
ATOM      2  C1  UNL d   1       2.332   0.622  -1.560  0.00  0.00     0.020 A 
ATOM      3  C2  UNL d   1       1.204   0.924  -0.794  0.00  0.00     0.034 A 
ATOM      4  C3  UNL d   1       0.485  -0.098  -0.165  0.00  0.00     0.017 A 
ATOM      5  C4  UNL d   1       0.900  -1.428  -0.306  0.00  0.00     0.017 A 
ATOM      6  C5  UNL d   1       2.031  -1.725  -1.074  0.00  0.00     0.034 A 
ATOM      7 Cl   UNL d   1       0.064  -2.744   0.440  0.00  0.00    -0.070 Cl
ATOM      8 Cl1  UNL d   1      -0.900   0.348   0.766  0.00  0.00    -0.070 Cl
ENDROOT
TORSDOF 0
ENDMDL
