MODEL 1
REMARK minimizedAffinity -0.685574114
REMARK minimizedRMSD -1
REMARK  0 active torsions:
REMARK  status: ('A' for Active; 'I' for Inactive)
ROOT
ATOM      1  C   UNL d   1       0.893   0.174   1.204  0.00  0.00     0.020 A 
ATOM      2  C1  UNL d   1      -0.202  -0.425   0.583  0.00  0.00     0.020 A 
ATOM      3  C2  UNL d   1      -0.044  -1.063  -0.649  0.00  0.00     0.034 A 
ATOM      4  C3  UNL d   1       1.213  -1.102  -1.265  0.00  0.00     0.017 A 
ATOM      5  C4  UNL d   1       2.311  -0.500  -0.641  0.00  0.00     0.017 A 
ATOM      6  C5  UNL d   1       2.147   0.137   0.593  0.00  0.00     0.034 A 
ATOM      7 Cl   UNL d   1       3.893  -0.508  -1.338  0.00  0.00    -0.070 Cl
ATOM      8 Cl1  UNL d   1       1.337  -1.908  -2.788  0.00  0.00    -0.070 Cl
ENDROOT
TORSDOF 0
ENDMDL
