MODEL 1
REMARK minimizedAffinity -2.99736762
REMARK minimizedRMSD -1
REMARK  0 active torsions:
REMARK  status: ('A' for Active; 'I' for Inactive)
ROOT
ATOM      1  C   UNL d   1       0.021   1.555   0.525  0.00  0.00     0.020 A 
ATOM      2  C1  UNL d   1      -1.241   1.034   0.805  0.00  0.00     0.020 A 
ATOM      3  C2  UNL d   1      -1.525  -0.303   0.516  0.00  0.00     0.034 A 
ATOM      4  C3  UNL d   1      -0.545  -1.123  -0.054  0.00  0.00     0.017 A 
ATOM      5  C4  UNL d   1       0.722  -0.599  -0.335  0.00  0.00     0.017 A 
ATOM      6  C5  UNL d   1       1.001   0.740  -0.044  0.00  0.00     0.034 A 
ATOM      7 Cl   UNL d   1       1.982  -1.549  -1.039  0.00  0.00    -0.070 Cl
ATOM      8 Cl1  UNL d   1      -0.965  -2.766  -0.385  0.00  0.00    -0.070 Cl
ENDROOT
TORSDOF 0
ENDMDL
