MODEL 1
REMARK minimizedAffinity -2.4370296
REMARK minimizedRMSD -1
REMARK  0 active torsions:
REMARK  status: ('A' for Active; 'I' for Inactive)
ROOT
ATOM      1  C   UNL d   1      -0.610  -1.072   0.816  0.00  0.00     0.020 A 
ATOM      2  C1  UNL d   1      -1.168   0.203   0.725  0.00  0.00     0.020 A 
ATOM      3  C2  UNL d   1      -0.742   1.082  -0.274  0.00  0.00     0.034 A 
ATOM      4  C3  UNL d   1       0.244   0.687  -1.185  0.00  0.00     0.017 A 
ATOM      5  C4  UNL d   1       0.803  -0.593  -1.093  0.00  0.00     0.017 A 
ATOM      6  C5  UNL d   1       0.373  -1.469  -0.091  0.00  0.00     0.034 A 
ATOM      7 Cl   UNL d   1       2.023  -1.152  -2.182  0.00  0.00    -0.070 Cl
ATOM      8 Cl1  UNL d   1       0.722   1.824  -2.395  0.00  0.00    -0.070 Cl
ENDROOT
TORSDOF 0
ENDMDL
