MODEL 1
REMARK minimizedAffinity -4.51907539
REMARK minimizedRMSD -1
REMARK  0 active torsions:
REMARK  status: ('A' for Active; 'I' for Inactive)
ROOT
ATOM      1  C   UNL d   1       3.048  -0.088  -2.067  0.00  0.00     0.020 A 
ATOM      2  C1  UNL d   1       2.537   1.186  -2.314  0.00  0.00     0.020 A 
ATOM      3  C2  UNL d   1       1.312   1.566  -1.763  0.00  0.00     0.034 A 
ATOM      4  C3  UNL d   1       0.593   0.671  -0.961  0.00  0.00     0.017 A 
ATOM      5  C4  UNL d   1       1.107  -0.607  -0.713  0.00  0.00     0.017 A 
ATOM      6  C5  UNL d   1       2.335  -0.982  -1.268  0.00  0.00     0.034 A 
ATOM      7 Cl   UNL d   1       0.278  -1.765   0.266  0.00  0.00    -0.070 Cl
ATOM      8 Cl1  UNL d   1      -0.915   1.208  -0.312  0.00  0.00    -0.070 Cl
ENDROOT
TORSDOF 0
ENDMDL
