MODEL 1
REMARK minimizedAffinity -4.68952322
REMARK minimizedRMSD -1
REMARK  0 active torsions:
REMARK  status: ('A' for Active; 'I' for Inactive)
ROOT
ATOM      1  C   UNL d   1       3.258  -0.010  -1.886  0.00  0.00     0.020 A 
ATOM      2  C1  UNL d   1       2.582   1.198  -2.052  0.00  0.00     0.020 A 
ATOM      3  C2  UNL d   1       1.346   1.397  -1.433  0.00  0.00     0.034 A 
ATOM      4  C3  UNL d   1       0.782   0.387  -0.645  0.00  0.00     0.017 A 
ATOM      5  C4  UNL d   1       1.462  -0.825  -0.479  0.00  0.00     0.017 A 
ATOM      6  C5  UNL d   1       2.699  -1.019  -1.101  0.00  0.00     0.034 A 
ATOM      7 Cl   UNL d   1       0.830  -2.118   0.478  0.00  0.00    -0.070 Cl
ATOM      8 Cl1  UNL d   1      -0.749   0.702   0.091  0.00  0.00    -0.070 Cl
ENDROOT
TORSDOF 0
ENDMDL
