MODEL 1
REMARK minimizedAffinity -3.69111991
REMARK minimizedRMSD -1
REMARK  0 active torsions:
REMARK  status: ('A' for Active; 'I' for Inactive)
ROOT
ATOM      1  C   UNL d   1       2.667  -0.561  -1.332  0.00  0.00     0.020 A 
ATOM      2  C1  UNL d   1       2.178   0.736  -1.181  0.00  0.00     0.020 A 
ATOM      3  C2  UNL d   1       0.958   0.952  -0.536  0.00  0.00     0.034 A 
ATOM      4  C3  UNL d   1       0.224  -0.131  -0.039  0.00  0.00     0.017 A 
ATOM      5  C4  UNL d   1       0.716  -1.433  -0.191  0.00  0.00     0.017 A 
ATOM      6  C5  UNL d   1       1.937  -1.643  -0.837  0.00  0.00     0.034 A 
ATOM      7 Cl   UNL d   1      -0.134  -2.819   0.396  0.00  0.00    -0.070 Cl
ATOM      8 Cl1  UNL d   1      -1.276   0.209   0.748  0.00  0.00    -0.070 Cl
ENDROOT
TORSDOF 0
ENDMDL
