MODEL 1
REMARK minimizedAffinity -3.79691339
REMARK minimizedRMSD -1
REMARK  0 active torsions:
REMARK  status: ('A' for Active; 'I' for Inactive)
ROOT
ATOM      1  C   UNL d   1       1.875  -1.594  -0.970  0.00  0.00     0.020 A 
ATOM      2  C1  UNL d   1       2.260  -0.658  -1.929  0.00  0.00     0.020 A 
ATOM      3  C2  UNL d   1       1.545   0.534  -2.068  0.00  0.00     0.034 A 
ATOM      4  C3  UNL d   1       0.442   0.793  -1.246  0.00  0.00     0.017 A 
ATOM      5  C4  UNL d   1       0.057  -0.148  -0.283  0.00  0.00     0.017 A 
ATOM      6  C5  UNL d   1       0.776  -1.339  -0.149  0.00  0.00     0.034 A 
ATOM      7 Cl   UNL d   1      -1.293   0.101   0.767  0.00  0.00    -0.070 Cl
ATOM      8 Cl1  UNL d   1      -0.395   2.287  -1.472  0.00  0.00    -0.070 Cl
ENDROOT
TORSDOF 0
ENDMDL
