MODEL 1
REMARK minimizedAffinity -3.09710002
REMARK minimizedRMSD -1
REMARK  0 active torsions:
REMARK  status: ('A' for Active; 'I' for Inactive)
ROOT
ATOM      1  C   UNL d   1      -0.581  -0.600   0.354  0.00  0.00     0.020 A 
ATOM      2  C1  UNL d   1      -1.273   0.553  -0.017  0.00  0.00     0.020 A 
ATOM      3  C2  UNL d   1      -0.637   1.532  -0.784  0.00  0.00     0.034 A 
ATOM      4  C3  UNL d   1       0.693   1.360  -1.182  0.00  0.00     0.017 A 
ATOM      5  C4  UNL d   1       1.387   0.203  -0.809  0.00  0.00     0.017 A 
ATOM      6  C5  UNL d   1       0.746  -0.774  -0.041  0.00  0.00     0.034 A 
ATOM      7 Cl   UNL d   1       3.031  -0.079  -1.263  0.00  0.00    -0.070 Cl
ATOM      8 Cl1  UNL d   1       1.416   2.612  -2.130  0.00  0.00    -0.070 Cl
ENDROOT
TORSDOF 0
ENDMDL
