MODEL 1
REMARK minimizedAffinity -5.35358953
REMARK minimizedRMSD -1
REMARK  0 active torsions:
REMARK  status: ('A' for Active; 'I' for Inactive)
ROOT
ATOM      1  C   UNL d   1       3.028  -0.181  -1.838  0.00  0.00     0.020 A 
ATOM      2  C1  UNL d   1       2.584   0.915  -2.576  0.00  0.00     0.020 A 
ATOM      3  C2  UNL d   1       1.277   1.380  -2.419  0.00  0.00     0.034 A 
ATOM      4  C3  UNL d   1       0.408   0.747  -1.522  0.00  0.00     0.017 A 
ATOM      5  C4  UNL d   1       0.855  -0.353  -0.781  0.00  0.00     0.017 A 
ATOM      6  C5  UNL d   1       2.165  -0.814  -0.943  0.00  0.00     0.034 A 
ATOM      7 Cl   UNL d   1      -0.158  -1.185   0.345  0.00  0.00    -0.070 Cl
ATOM      8 Cl1  UNL d   1      -1.195   1.375  -1.378  0.00  0.00    -0.070 Cl
ENDROOT
TORSDOF 0
ENDMDL
