MODEL 1
REMARK minimizedAffinity -0.747033834
REMARK minimizedRMSD -1
REMARK  0 active torsions:
REMARK  status: ('A' for Active; 'I' for Inactive)
ROOT
ATOM      1  C   UNL d   1       0.620  -2.136   0.382  0.00  0.00     0.020 A 
ATOM      2  C1  UNL d   1       1.583  -1.831  -0.580  0.00  0.00     0.020 A 
ATOM      3  C2  UNL d   1       1.548  -0.600  -1.237  0.00  0.00     0.034 A 
ATOM      4  C3  UNL d   1       0.548   0.332  -0.935  0.00  0.00     0.017 A 
ATOM      5  C4  UNL d   1      -0.418   0.025   0.030  0.00  0.00     0.017 A 
ATOM      6  C5  UNL d   1      -0.378  -1.209   0.685  0.00  0.00     0.034 A 
ATOM      7 Cl   UNL d   1      -1.683   1.123   0.456  0.00  0.00    -0.070 Cl
ATOM      8 Cl1  UNL d   1       0.566   1.835  -1.787  0.00  0.00    -0.070 Cl
ENDROOT
TORSDOF 0
ENDMDL
