MODEL 1
REMARK minimizedAffinity -4.13726091
REMARK minimizedRMSD -1
REMARK  0 active torsions:
REMARK  status: ('A' for Active; 'I' for Inactive)
ROOT
ATOM      1  C   UNL d   1       2.990  -0.568  -1.840  0.00  0.00     0.020 A 
ATOM      2  C1  UNL d   1       2.419   0.696  -1.698  0.00  0.00     0.020 A 
ATOM      3  C2  UNL d   1       1.339   0.881  -0.833  0.00  0.00     0.034 A 
ATOM      4  C3  UNL d   1       0.825  -0.200  -0.107  0.00  0.00     0.017 A 
ATOM      5  C4  UNL d   1       1.399  -1.468  -0.250  0.00  0.00     0.017 A 
ATOM      6  C5  UNL d   1       2.481  -1.648  -1.118  0.00  0.00     0.034 A 
ATOM      7 Cl   UNL d   1       0.821  -2.850   0.612  0.00  0.00    -0.070 Cl
ATOM      8 Cl1  UNL d   1      -0.512   0.102   0.945  0.00  0.00    -0.070 Cl
ENDROOT
TORSDOF 0
ENDMDL
