MODEL 1
REMARK minimizedAffinity -5.89670229
REMARK minimizedRMSD -1
REMARK  2 active torsions:
REMARK  status: ('A' for Active; 'I' for Inactive)
REMARK    1  A    between atoms: C1_2  and  C2_3 
REMARK    2  A    between atoms: C2_3  and  C3_4 
ROOT
ATOM      1  C3  UNL d   1      -0.301  -0.199   0.119  0.00  0.00    -0.075 A 
ATOM      2  C4  UNL d   1      -0.606   1.070  -0.393  0.00  0.00     0.002 A 
ATOM      3  C5  UNL d   1      -1.342   1.982   0.366  0.00  0.00     0.002 A 
ATOM      4  C6  UNL d   1      -1.789   1.633   1.638  0.00  0.00    -0.004 A 
ATOM      5  C7  UNL d   1      -1.505   0.368   2.150  0.00  0.00     0.002 A 
ATOM      6  C8  UNL d   1      -0.766  -0.544   1.395  0.00  0.00     0.002 A 
ENDROOT
BRANCH   1   7
ATOM      7  C2  UNL d   1       0.520  -1.179  -0.685  0.00  0.00     0.056 C 
BRANCH   7   8
ATOM      8  C1  UNL d   1      -0.271  -1.907  -1.777  0.00  0.00     0.007 C 
ATOM      9  C   UNL d   1       0.349  -3.238  -2.181  0.00  0.00     0.009 C 
ENDBRANCH   7   8
ENDBRANCH   1   7
TORSDOF 2
ENDMDL
