MODEL 1
REMARK minimizedAffinity -5.84145451
REMARK minimizedRMSD -1
REMARK  2 active torsions:
REMARK  status: ('A' for Active; 'I' for Inactive)
REMARK    1  A    between atoms: C1_2  and  C2_3 
REMARK    2  A    between atoms: C2_3  and  C3_4 
ROOT
ATOM      1  C3  UNL d   1      -0.484   0.314   0.286  0.00  0.00    -0.075 A 
ATOM      2  C4  UNL d   1      -1.246   0.619   1.423  0.00  0.00     0.002 A 
ATOM      3  C5  UNL d   1      -1.644   1.932   1.677  0.00  0.00     0.002 A 
ATOM      4  C6  UNL d   1      -1.277   2.955   0.805  0.00  0.00    -0.004 A 
ATOM      5  C7  UNL d   1      -0.506   2.666  -0.318  0.00  0.00     0.002 A 
ATOM      6  C8  UNL d   1      -0.110   1.352  -0.577  0.00  0.00     0.002 A 
ENDROOT
BRANCH   1   7
ATOM      7  C2  UNL d   1      -0.075  -1.109  -0.010  0.00  0.00     0.056 C 
BRANCH   7   8
ATOM      8  C1  UNL d   1       0.317  -1.354  -1.471  0.00  0.00     0.007 C 
ATOM      9  C   UNL d   1       0.178  -2.811  -1.894  0.00  0.00     0.009 C 
ENDBRANCH   7   8
ENDBRANCH   1   7
TORSDOF 2
ENDMDL
