MODEL 1
REMARK minimizedAffinity -2.44735432
REMARK minimizedRMSD -1
REMARK  2 active torsions:
REMARK  status: ('A' for Active; 'I' for Inactive)
REMARK    1  A    between atoms: C1_2  and  C2_3 
REMARK    2  A    between atoms: C2_3  and  C3_4 
ROOT
ATOM      1  C3  UNL d   1      -0.263   0.108   1.023  0.00  0.00    -0.075 A 
ATOM      2  C4  UNL d   1      -0.091   0.917  -0.110  0.00  0.00     0.002 A 
ATOM      3  C5  UNL d   1       0.735   0.504  -1.155  0.00  0.00     0.002 A 
ATOM      4  C6  UNL d   1       1.407  -0.714  -1.078  0.00  0.00    -0.004 A 
ATOM      5  C7  UNL d   1       1.256  -1.518   0.050  0.00  0.00     0.002 A 
ATOM      6  C8  UNL d   1       0.426  -1.110   1.096  0.00  0.00     0.002 A 
ENDROOT
BRANCH   1   7
ATOM      7  C2  UNL d   1      -1.179   0.535   2.145  0.00  0.00     0.056 C 
BRANCH   7   8
ATOM      8  C1  UNL d   1      -2.183   1.623   1.751  0.00  0.00     0.007 C 
ATOM      9  C   UNL d   1      -1.767   3.016   2.203  0.00  0.00     0.009 C 
ENDBRANCH   7   8
ENDBRANCH   1   7
TORSDOF 2
ENDMDL
