MODEL 1
REMARK minimizedAffinity -5.69494343
REMARK minimizedRMSD -1
REMARK  2 active torsions:
REMARK  status: ('A' for Active; 'I' for Inactive)
REMARK    1  A    between atoms: C1_2  and  C2_3 
REMARK    2  A    between atoms: C2_3  and  C3_4 
ROOT
ATOM      1  C3  UNL d   1       0.035   0.123   0.115  0.00  0.00    -0.075 A 
ATOM      2  C4  UNL d   1      -0.499  -0.535   1.232  0.00  0.00     0.002 A 
ATOM      3  C5  UNL d   1      -1.553   0.031   1.950  0.00  0.00     0.002 A 
ATOM      4  C6  UNL d   1      -2.079   1.262   1.567  0.00  0.00    -0.004 A 
ATOM      5  C7  UNL d   1      -1.545   1.932   0.468  0.00  0.00     0.002 A 
ATOM      6  C8  UNL d   1      -0.493   1.367  -0.255  0.00  0.00     0.002 A 
ENDROOT
BRANCH   1   7
ATOM      7  C2  UNL d   1       1.156  -0.498  -0.684  0.00  0.00     0.056 C 
BRANCH   7   8
ATOM      8  C1  UNL d   1       1.109  -2.028  -0.742  0.00  0.00     0.007 C 
ATOM      9  C   UNL d   1       0.474  -2.562  -2.019  0.00  0.00     0.009 C 
ENDBRANCH   7   8
ENDBRANCH   1   7
TORSDOF 2
ENDMDL
