MODEL 1
REMARK minimizedAffinity -4.56285
REMARK minimizedRMSD -1
REMARK  2 active torsions:
REMARK  status: ('A' for Active; 'I' for Inactive)
REMARK    1  A    between atoms: C1_2  and  C2_3 
REMARK    2  A    between atoms: C2_3  and  C3_4 
ROOT
ATOM      1  C3  UNL d   1      -0.052  -0.094   0.214  0.00  0.00    -0.075 A 
ATOM      2  C4  UNL d   1      -0.270  -0.048   1.599  0.00  0.00     0.002 A 
ATOM      3  C5  UNL d   1      -0.989   1.003   2.168  0.00  0.00     0.002 A 
ATOM      4  C6  UNL d   1      -1.489   2.025   1.364  0.00  0.00    -0.004 A 
ATOM      5  C7  UNL d   1      -1.264   1.999  -0.010  0.00  0.00     0.002 A 
ATOM      6  C8  UNL d   1      -0.549   0.945  -0.584  0.00  0.00     0.002 A 
ENDROOT
BRANCH   1   7
ATOM      7  C2  UNL d   1       0.699  -1.244  -0.412  0.00  0.00     0.056 C 
BRANCH   7   8
ATOM      8  C1  UNL d   1       0.103  -1.731  -1.737  0.00  0.00     0.007 C 
ATOM      9  C   UNL d   1       0.622  -3.098  -2.163  0.00  0.00     0.009 C 
ENDBRANCH   7   8
ENDBRANCH   1   7
TORSDOF 2
ENDMDL
