MODEL 1
REMARK minimizedAffinity -4.96170187
REMARK minimizedRMSD -1
REMARK  2 active torsions:
REMARK  status: ('A' for Active; 'I' for Inactive)
REMARK    1  A    between atoms: C1_2  and  C2_3 
REMARK    2  A    between atoms: C2_3  and  C3_4 
ROOT
ATOM      1  C3  UNL d   1       0.145   0.224  -0.264  0.00  0.00    -0.075 A 
ATOM      2  C4  UNL d   1      -0.061  -0.200   1.057  0.00  0.00     0.002 A 
ATOM      3  C5  UNL d   1      -1.041   0.400   1.849  0.00  0.00     0.002 A 
ATOM      4  C6  UNL d   1      -1.818   1.436   1.335  0.00  0.00    -0.004 A 
ATOM      5  C7  UNL d   1      -1.611   1.876   0.030  0.00  0.00     0.002 A 
ATOM      6  C8  UNL d   1      -0.634   1.275  -0.766  0.00  0.00     0.002 A 
ENDROOT
BRANCH   1   7
ATOM      7  C2  UNL d   1       1.184  -0.440  -1.135  0.00  0.00     0.056 C 
BRANCH   7   8
ATOM      8  C1  UNL d   1       1.169  -1.971  -1.066  0.00  0.00     0.007 C 
ATOM      9  C   UNL d   1       0.687  -2.626  -2.354  0.00  0.00     0.009 C 
ENDBRANCH   7   8
ENDBRANCH   1   7
TORSDOF 2
ENDMDL
