MODEL 1
REMARK minimizedAffinity -4.01674604
REMARK minimizedRMSD -1
REMARK  2 active torsions:
REMARK  status: ('A' for Active; 'I' for Inactive)
REMARK    1  A    between atoms: C1_2  and  C2_3 
REMARK    2  A    between atoms: C2_3  and  C3_4 
ROOT
ATOM      1  C3  UNL d   1       0.078  -0.076  -0.073  0.00  0.00    -0.075 A 
ATOM      2  C4  UNL d   1      -0.345   1.077  -0.750  0.00  0.00     0.002 A 
ATOM      3  C5  UNL d   1      -1.244   1.960  -0.151  0.00  0.00     0.002 A 
ATOM      4  C6  UNL d   1      -1.738   1.697   1.125  0.00  0.00    -0.004 A 
ATOM      5  C7  UNL d   1      -1.337   0.546   1.800  0.00  0.00     0.002 A 
ATOM      6  C8  UNL d   1      -0.434  -0.337   1.205  0.00  0.00     0.002 A 
ENDROOT
BRANCH   1   7
ATOM      7  C2  UNL d   1       1.073  -1.021  -0.704  0.00  0.00     0.056 C 
BRANCH   7   8
ATOM      8  C1  UNL d   1       0.452  -2.315  -1.240  0.00  0.00     0.007 C 
ATOM      9  C   UNL d   1       0.310  -2.330  -2.756  0.00  0.00     0.009 C 
ENDBRANCH   7   8
ENDBRANCH   1   7
TORSDOF 2
ENDMDL
