MODEL 1
REMARK minimizedAffinity -5.81860828
REMARK minimizedRMSD -1
REMARK  2 active torsions:
REMARK  status: ('A' for Active; 'I' for Inactive)
REMARK    1  A    between atoms: C1_2  and  C2_3 
REMARK    2  A    between atoms: C2_3  and  C3_4 
ROOT
ATOM      1  C3  UNL d   1      -0.130   0.681  -0.264  0.00  0.00    -0.075 A 
ATOM      2  C4  UNL d   1      -0.414   1.939  -0.814  0.00  0.00     0.002 A 
ATOM      3  C5  UNL d   1      -1.121   2.891  -0.079  0.00  0.00     0.002 A 
ATOM      4  C6  UNL d   1      -1.562   2.594   1.209  0.00  0.00    -0.004 A 
ATOM      5  C7  UNL d   1      -1.301   1.341   1.759  0.00  0.00     0.002 A 
ATOM      6  C8  UNL d   1      -0.589   0.388   1.028  0.00  0.00     0.002 A 
ENDROOT
BRANCH   1   7
ATOM      7  C2  UNL d   1       0.660  -0.343  -1.043  0.00  0.00     0.056 C 
BRANCH   7   8
ATOM      8  C1  UNL d   1       0.374  -1.793  -0.637  0.00  0.00     0.007 C 
ATOM      9  C   UNL d   1       0.483  -2.773  -1.798  0.00  0.00     0.009 C 
ENDBRANCH   7   8
ENDBRANCH   1   7
TORSDOF 2
ENDMDL
