MODEL 1
REMARK minimizedAffinity -4.6239996
REMARK minimizedRMSD -1
REMARK  2 active torsions:
REMARK  status: ('A' for Active; 'I' for Inactive)
REMARK    1  A    between atoms: C1_2  and  C2_3 
REMARK    2  A    between atoms: C2_3  and  C3_4 
ROOT
ATOM      1  C3  UNL d   1      -0.534   0.937   1.057  0.00  0.00    -0.075 A 
ATOM      2  C4  UNL d   1       0.243   1.085  -0.101  0.00  0.00     0.002 A 
ATOM      3  C5  UNL d   1       0.326   2.320  -0.745  0.00  0.00     0.002 A 
ATOM      4  C6  UNL d   1      -0.373   3.417  -0.247  0.00  0.00    -0.004 A 
ATOM      5  C7  UNL d   1      -1.162   3.277   0.893  0.00  0.00     0.002 A 
ATOM      6  C8  UNL d   1      -1.243   2.044   1.542  0.00  0.00     0.002 A 
ENDROOT
BRANCH   1   7
ATOM      7  C2  UNL d   1      -0.604  -0.389   1.776  0.00  0.00     0.056 C 
BRANCH   7   8
ATOM      8  C1  UNL d   1       0.733  -1.134   1.843  0.00  0.00     0.007 C 
ATOM      9  C   UNL d   1       1.500  -0.875   3.132  0.00  0.00     0.009 C 
ENDBRANCH   7   8
ENDBRANCH   1   7
TORSDOF 2
ENDMDL
