MODEL 1
REMARK minimizedAffinity -4.73412514
REMARK minimizedRMSD -1
REMARK  2 active torsions:
REMARK  status: ('A' for Active; 'I' for Inactive)
REMARK    1  A    between atoms: C1_2  and  C2_3 
REMARK    2  A    between atoms: C2_3  and  C3_4 
ROOT
ATOM      1  C3  UNL d   1      -0.309  -0.109   0.144  0.00  0.00    -0.075 A 
ATOM      2  C4  UNL d   1      -0.878  -0.589   1.333  0.00  0.00     0.002 A 
ATOM      3  C5  UNL d   1      -1.794   0.187   2.044  0.00  0.00     0.002 A 
ATOM      4  C6  UNL d   1      -2.144   1.454   1.583  0.00  0.00    -0.004 A 
ATOM      5  C7  UNL d   1      -1.572   1.948   0.412  0.00  0.00     0.002 A 
ATOM      6  C8  UNL d   1      -0.659   1.171  -0.304  0.00  0.00     0.002 A 
ENDROOT
BRANCH   1   7
ATOM      7  C2  UNL d   1       0.659  -0.956  -0.646  0.00  0.00     0.056 C 
BRANCH   7   8
ATOM      8  C1  UNL d   1      -0.002  -1.816  -1.728  0.00  0.00     0.007 C 
ATOM      9  C   UNL d   1       0.672  -3.168  -1.916  0.00  0.00     0.009 C 
ENDBRANCH   7   8
ENDBRANCH   1   7
TORSDOF 2
ENDMDL
