MODEL 1
REMARK minimizedAffinity -4.08750868
REMARK minimizedRMSD -1
REMARK  2 active torsions:
REMARK  status: ('A' for Active; 'I' for Inactive)
REMARK    1  A    between atoms: C1_2  and  C2_3 
REMARK    2  A    between atoms: C2_3  and  C3_4 
ROOT
ATOM      1  C3  UNL d   1       0.465  -0.827  -0.273  0.00  0.00    -0.075 A 
ATOM      2  C4  UNL d   1       0.146  -0.984   1.084  0.00  0.00     0.002 A 
ATOM      3  C5  UNL d   1      -0.496   0.038   1.784  0.00  0.00     0.002 A 
ATOM      4  C6  UNL d   1      -0.817   1.231   1.141  0.00  0.00    -0.004 A 
ATOM      5  C7  UNL d   1      -0.490   1.405  -0.202  0.00  0.00     0.002 A 
ATOM      6  C8  UNL d   1       0.148   0.382  -0.906  0.00  0.00     0.002 A 
ENDROOT
BRANCH   1   7
ATOM      7  C2  UNL d   1       1.133  -1.940  -1.044  0.00  0.00     0.056 C 
BRANCH   7   8
ATOM      8  C1  UNL d   1       0.348  -2.404  -2.276  0.00  0.00     0.007 C 
ATOM      9  C   UNL d   1       0.233  -3.919  -2.379  0.00  0.00     0.009 C 
ENDBRANCH   7   8
ENDBRANCH   1   7
TORSDOF 2
ENDMDL
