MODEL 1
REMARK minimizedAffinity 4.1841855
REMARK minimizedRMSD -1
REMARK  1 active torsions:
REMARK  status: ('A' for Active; 'I' for Inactive)
REMARK    1  A    between atoms: C3_4  and  O_7 
ROOT
ATOM      1  C   UNL d   1      -1.196  -3.297  -2.107  0.00  0.00    -0.033 A 
ATOM      2  C1  UNL d   1      -0.732  -4.177  -1.127  0.00  0.00     0.039 A 
ATOM      3  C2  UNL d   1       0.440  -3.889  -0.426  0.00  0.00    -0.080 A 
ATOM      4  C3  UNL d   1       1.139  -2.719  -0.713  0.00  0.00     0.150 A 
ATOM      5  C4  UNL d   1       0.681  -1.836  -1.685  0.00  0.00    -0.007 A 
ATOM      6  C5  UNL d   1      -0.490  -2.126  -2.385  0.00  0.00     0.039 A 
ENDROOT
BRANCH   4   7
ATOM      7  O   UNL d   1       2.291  -2.398  -0.059  0.00  0.00    -0.526 OA
ATOM      8  H5  UNL d   1       2.500  -3.114   0.564  0.00  0.00     0.418 HD
ENDBRANCH   4   7
TORSDOF 1
ENDMDL
