MODEL 1
REMARK minimizedAffinity 4.81526232
REMARK minimizedRMSD -1
REMARK  1 active torsions:
REMARK  status: ('A' for Active; 'I' for Inactive)
REMARK    1  A    between atoms: C3_4  and  O_7 
ROOT
ATOM      1  C   UNL d   1       3.693   1.024  -0.196  0.00  0.00    -0.033 A 
ATOM      2  C1  UNL d   1       4.529  -0.088  -0.082  0.00  0.00     0.039 A 
ATOM      3  C2  UNL d   1       4.013  -1.373  -0.260  0.00  0.00    -0.080 A 
ATOM      4  C3  UNL d   1       2.660  -1.532  -0.550  0.00  0.00     0.150 A 
ATOM      5  C4  UNL d   1       1.823  -0.428  -0.669  0.00  0.00    -0.007 A 
ATOM      6  C5  UNL d   1       2.340   0.854  -0.490  0.00  0.00     0.039 A 
ENDROOT
BRANCH   4   7
ATOM      7  O   UNL d   1       2.110  -2.766  -0.727  0.00  0.00    -0.526 OA
ATOM      8  H5  UNL d   1       2.801  -3.435  -0.588  0.00  0.00     0.418 HD
ENDBRANCH   4   7
TORSDOF 1
ENDMDL
