MODEL 1
REMARK minimizedAffinity 5.34526491
REMARK minimizedRMSD -1
REMARK  1 active torsions:
REMARK  status: ('A' for Active; 'I' for Inactive)
REMARK    1  A    between atoms: C3_4  and  O_7 
ROOT
ATOM      1  C   UNL d   1      -0.914   3.482   2.245  0.00  0.00    -0.033 A 
ATOM      2  C1  UNL d   1      -0.060   3.344   3.341  0.00  0.00     0.039 A 
ATOM      3  C2  UNL d   1       0.336   2.074   3.763  0.00  0.00    -0.080 A 
ATOM      4  C3  UNL d   1      -0.126   0.952   3.082  0.00  0.00     0.150 A 
ATOM      5  C4  UNL d   1      -0.974   1.082   1.987  0.00  0.00    -0.007 A 
ATOM      6  C5  UNL d   1      -1.370   2.351   1.567  0.00  0.00     0.039 A 
ENDROOT
BRANCH   4   7
ATOM      7  O   UNL d   1       0.229  -0.309   3.460  0.00  0.00    -0.526 OA
ATOM      8  H5  UNL d   1       0.795  -0.245   4.248  0.00  0.00     0.418 HD
ENDBRANCH   4   7
TORSDOF 1
ENDMDL
