MODEL 1
REMARK minimizedAffinity 2.37244344
REMARK minimizedRMSD -1
REMARK  1 active torsions:
REMARK  status: ('A' for Active; 'I' for Inactive)
REMARK    1  A    between atoms: C3_4  and  O_7 
ROOT
ATOM      1  C   UNL d   1      -0.493   1.779   3.415  0.00  0.00    -0.033 A 
ATOM      2  C1  UNL d   1      -1.079   2.593   2.443  0.00  0.00     0.039 A 
ATOM      3  C2  UNL d   1      -0.741   2.430   1.098  0.00  0.00    -0.080 A 
ATOM      4  C3  UNL d   1       0.182   1.451   0.739  0.00  0.00     0.150 A 
ATOM      5  C4  UNL d   1       0.766   0.634   1.702  0.00  0.00    -0.007 A 
ATOM      6  C5  UNL d   1       0.428   0.799   3.044  0.00  0.00     0.039 A 
ENDROOT
BRANCH   4   7
ATOM      7  O   UNL d   1       0.547   1.258  -0.560  0.00  0.00    -0.526 OA
ATOM      8  H5  UNL d   1       0.085   1.913  -1.110  0.00  0.00     0.418 HD
ENDBRANCH   4   7
TORSDOF 1
ENDMDL
