MODEL 1
REMARK minimizedAffinity 0.0822076648
REMARK minimizedRMSD -1
REMARK  1 active torsions:
REMARK  status: ('A' for Active; 'I' for Inactive)
REMARK    1  A    between atoms: C3_4  and  O_7 
ROOT
ATOM      1  C   UNL d   1       4.457   0.136  -1.978  0.00  0.00    -0.033 A 
ATOM      2  C1  UNL d   1       4.304   0.541  -0.651  0.00  0.00     0.039 A 
ATOM      3  C2  UNL d   1       3.576  -0.249   0.242  0.00  0.00    -0.080 A 
ATOM      4  C3  UNL d   1       3.010  -1.440  -0.204  0.00  0.00     0.150 A 
ATOM      5  C4  UNL d   1       3.162  -1.851  -1.524  0.00  0.00    -0.007 A 
ATOM      6  C5  UNL d   1       3.888  -1.061  -2.415  0.00  0.00     0.039 A 
ENDROOT
BRANCH   4   7
ATOM      7  O   UNL d   1       2.287  -2.241   0.629  0.00  0.00    -0.526 OA
ATOM      8  H5  UNL d   1       2.242  -1.816   1.502  0.00  0.00     0.418 HD
ENDBRANCH   4   7
TORSDOF 1
ENDMDL
