MODEL 1
REMARK minimizedAffinity 2.6132524
REMARK minimizedRMSD -1
REMARK  1 active torsions:
REMARK  status: ('A' for Active; 'I' for Inactive)
REMARK    1  A    between atoms: C3_4  and  O_7 
ROOT
ATOM      1  C   UNL d   1       2.979   0.454  -0.644  0.00  0.00    -0.033 A 
ATOM      2  C1  UNL d   1       3.656  -0.734  -0.362  0.00  0.00     0.039 A 
ATOM      3  C2  UNL d   1       2.980  -1.955  -0.418  0.00  0.00    -0.080 A 
ATOM      4  C3  UNL d   1       1.630  -1.973  -0.757  0.00  0.00     0.150 A 
ATOM      5  C4  UNL d   1       0.951  -0.794  -1.042  0.00  0.00    -0.007 A 
ATOM      6  C5  UNL d   1       1.627   0.424  -0.985  0.00  0.00     0.039 A 
ENDROOT
BRANCH   4   7
ATOM      7  O   UNL d   1       0.927  -3.140  -0.819  0.00  0.00    -0.526 OA
ATOM      8  H5  UNL d   1       1.519  -3.869  -0.569  0.00  0.00     0.418 HD
ENDBRANCH   4   7
TORSDOF 1
ENDMDL
