MODEL 1
REMARK minimizedAffinity 3.7638526
REMARK minimizedRMSD -1
REMARK  1 active torsions:
REMARK  status: ('A' for Active; 'I' for Inactive)
REMARK    1  A    between atoms: C3_4  and  O_7 
ROOT
ATOM      1  C   UNL d   1       3.744   0.120  -1.554  0.00  0.00    -0.033 A 
ATOM      2  C1  UNL d   1       2.994   0.224  -0.381  0.00  0.00     0.039 A 
ATOM      3  C2  UNL d   1       2.194  -0.842   0.036  0.00  0.00    -0.080 A 
ATOM      4  C3  UNL d   1       2.155  -2.006  -0.728  0.00  0.00     0.150 A 
ATOM      5  C4  UNL d   1       2.902  -2.118  -1.895  0.00  0.00    -0.007 A 
ATOM      6  C5  UNL d   1       3.699  -1.052  -2.310  0.00  0.00     0.039 A 
ENDROOT
BRANCH   4   7
ATOM      7  O   UNL d   1       1.385  -3.071  -0.364  0.00  0.00    -0.526 OA
ATOM      8  H5  UNL d   1       0.903  -2.839   0.447  0.00  0.00     0.418 HD
ENDBRANCH   4   7
TORSDOF 1
ENDMDL
