MODEL 1
REMARK minimizedAffinity -0.621822357
REMARK minimizedRMSD -1
REMARK  1 active torsions:
REMARK  status: ('A' for Active; 'I' for Inactive)
REMARK    1  A    between atoms: C3_4  and  O_7 
ROOT
ATOM      1  C   UNL d   1       1.136  -1.237   2.485  0.00  0.00    -0.033 A 
ATOM      2  C1  UNL d   1       1.191  -2.289   1.569  0.00  0.00     0.039 A 
ATOM      3  C2  UNL d   1       1.657  -3.543   1.970  0.00  0.00    -0.080 A 
ATOM      4  C3  UNL d   1       2.063  -3.731   3.288  0.00  0.00     0.150 A 
ATOM      5  C4  UNL d   1       2.007  -2.689   4.207  0.00  0.00    -0.007 A 
ATOM      6  C5  UNL d   1       1.543  -1.437   3.805  0.00  0.00     0.039 A 
ENDROOT
BRANCH   4   7
ATOM      7  O   UNL d   1       2.529  -4.936   3.725  0.00  0.00    -0.526 OA
ATOM      8  H5  UNL d   1       2.538  -5.553   2.975  0.00  0.00     0.418 HD
ENDBRANCH   4   7
TORSDOF 1
ENDMDL
