MODEL 1
REMARK minimizedAffinity 4.17658806
REMARK minimizedRMSD -1
REMARK  1 active torsions:
REMARK  status: ('A' for Active; 'I' for Inactive)
REMARK    1  A    between atoms: C3_4  and  O_7 
ROOT
ATOM      1  C   UNL d   1       1.042  -4.057  -2.164  0.00  0.00    -0.033 A 
ATOM      2  C1  UNL d   1       1.471  -2.728  -2.155  0.00  0.00     0.039 A 
ATOM      3  C2  UNL d   1       1.773  -2.098  -0.946  0.00  0.00    -0.080 A 
ATOM      4  C3  UNL d   1       1.644  -2.807   0.245  0.00  0.00     0.150 A 
ATOM      5  C4  UNL d   1       1.221  -4.132   0.243  0.00  0.00    -0.007 A 
ATOM      6  C5  UNL d   1       0.919  -4.759  -0.965  0.00  0.00     0.039 A 
ENDROOT
BRANCH   4   7
ATOM      7  O   UNL d   1       1.922  -2.233   1.449  0.00  0.00    -0.526 OA
ATOM      8  H5  UNL d   1       2.175  -1.307   1.298  0.00  0.00     0.418 HD
ENDBRANCH   4   7
TORSDOF 1
ENDMDL
