MODEL 1
REMARK minimizedAffinity -2.9651556
REMARK minimizedRMSD -1
REMARK  1 active torsions:
REMARK  status: ('A' for Active; 'I' for Inactive)
REMARK    1  A    between atoms: C3_4  and  O_7 
ROOT
ATOM      1  C   UNL d   1       1.065  -1.277   1.499  0.00  0.00    -0.033 A 
ATOM      2  C1  UNL d   1      -0.057  -1.651   2.241  0.00  0.00     0.039 A 
ATOM      3  C2  UNL d   1      -0.091  -2.891   2.882  0.00  0.00    -0.080 A 
ATOM      4  C3  UNL d   1       1.004  -3.745   2.776  0.00  0.00     0.150 A 
ATOM      5  C4  UNL d   1       2.127  -3.377   2.042  0.00  0.00    -0.007 A 
ATOM      6  C5  UNL d   1       2.158  -2.139   1.402  0.00  0.00     0.039 A 
ENDROOT
BRANCH   4   7
ATOM      7  O   UNL d   1       1.015  -4.967   3.380  0.00  0.00    -0.526 OA
ATOM      8  H5  UNL d   1       0.162  -5.097   3.827  0.00  0.00     0.418 HD
ENDBRANCH   4   7
TORSDOF 1
ENDMDL
