MODEL 1
REMARK minimizedAffinity -1.77868676
REMARK minimizedRMSD -1
REMARK  1 active torsions:
REMARK  status: ('A' for Active; 'I' for Inactive)
REMARK    1  A    between atoms: C3_4  and  O_7 
ROOT
ATOM      1  C   UNL d   1      -6.000  -2.822  -5.360  0.00  0.00    -0.033 A 
ATOM      2  C1  UNL d   1      -5.910  -4.060  -5.999  0.00  0.00     0.039 A 
ATOM      3  C2  UNL d   1      -5.308  -5.140  -5.351  0.00  0.00    -0.080 A 
ATOM      4  C3  UNL d   1      -4.801  -4.970  -4.066  0.00  0.00     0.150 A 
ATOM      5  C4  UNL d   1      -4.890  -3.740  -3.422  0.00  0.00    -0.007 A 
ATOM      6  C5  UNL d   1      -5.491  -2.662  -4.071  0.00  0.00     0.039 A 
ENDROOT
BRANCH   4   7
ATOM      7  O   UNL d   1      -4.200  -5.993  -3.395  0.00  0.00    -0.526 OA
ATOM      8  H5  UNL d   1      -4.184  -6.773  -3.974  0.00  0.00     0.418 HD
ENDBRANCH   4   7
TORSDOF 1
ENDMDL
