MODEL 1
REMARK minimizedAffinity 2.90496755
REMARK minimizedRMSD -1
REMARK  1 active torsions:
REMARK  status: ('A' for Active; 'I' for Inactive)
REMARK    1  A    between atoms: C3_4  and  O_7 
ROOT
ATOM      1  C   UNL d   1       1.851  -1.925   1.189  0.00  0.00    -0.033 A 
ATOM      2  C1  UNL d   1       1.198  -2.896   1.950  0.00  0.00     0.039 A 
ATOM      3  C2  UNL d   1       0.848  -2.629   3.275  0.00  0.00    -0.080 A 
ATOM      4  C3  UNL d   1       1.156  -1.388   3.826  0.00  0.00     0.150 A 
ATOM      5  C4  UNL d   1       1.803  -0.414   3.072  0.00  0.00    -0.007 A 
ATOM      6  C5  UNL d   1       2.153  -0.683   1.749  0.00  0.00     0.039 A 
ENDROOT
BRANCH   4   7
ATOM      7  O   UNL d   1       0.839  -1.082   5.116  0.00  0.00    -0.526 OA
ATOM      8  H5  UNL d   1       0.422  -1.860   5.522  0.00  0.00     0.418 HD
ENDBRANCH   4   7
TORSDOF 1
ENDMDL
