MODEL 1
REMARK minimizedAffinity 8.27531433
REMARK minimizedRMSD -1
REMARK  1 active torsions:
REMARK  status: ('A' for Active; 'I' for Inactive)
REMARK    1  A    between atoms: C3_4  and  O_7 
ROOT
ATOM      1  C   UNL d   1       2.792   1.911   1.015  0.00  0.00    -0.033 A 
ATOM      2  C1  UNL d   1       2.714   0.743   0.254  0.00  0.00     0.039 A 
ATOM      3  C2  UNL d   1       2.115  -0.400   0.786  0.00  0.00    -0.080 A 
ATOM      4  C3  UNL d   1       1.596  -0.362   2.078  0.00  0.00     0.150 A 
ATOM      5  C4  UNL d   1       1.667   0.799   2.840  0.00  0.00    -0.007 A 
ATOM      6  C5  UNL d   1       2.267   1.940   2.308  0.00  0.00     0.039 A 
ENDROOT
BRANCH   4   7
ATOM      7  O   UNL d   1       1.006  -1.454   2.641  0.00  0.00    -0.526 OA
ATOM      8  H5  UNL d   1       1.055  -2.191   2.009  0.00  0.00     0.418 HD
ENDBRANCH   4   7
TORSDOF 1
ENDMDL
