MODEL 1
REMARK minimizedAffinity -3.33377194
REMARK minimizedRMSD -1
REMARK  1 active torsions:
REMARK  status: ('A' for Active; 'I' for Inactive)
REMARK    1  A    between atoms: C3_4  and  O_7 
ROOT
ATOM      1  C   UNL d   1      -4.808   1.481   1.037  0.00  0.00    -0.033 A 
ATOM      2  C1  UNL d   1      -5.795   1.117   0.119  0.00  0.00     0.039 A 
ATOM      3  C2  UNL d   1      -5.515   1.124  -1.249  0.00  0.00    -0.080 A 
ATOM      4  C3  UNL d   1      -4.245   1.494  -1.685  0.00  0.00     0.150 A 
ATOM      5  C4  UNL d   1      -3.256   1.853  -0.775  0.00  0.00    -0.007 A 
ATOM      6  C5  UNL d   1      -3.538   1.847   0.590  0.00  0.00     0.039 A 
ENDROOT
BRANCH   4   7
ATOM      7  O   UNL d   1      -3.926   1.520  -3.010  0.00  0.00    -0.526 OA
ATOM      8  H5  UNL d   1      -4.716   1.275  -3.521  0.00  0.00     0.418 HD
ENDBRANCH   4   7
TORSDOF 1
ENDMDL
