MODEL 1
REMARK minimizedAffinity 1.79585576
REMARK minimizedRMSD -1
REMARK  1 active torsions:
REMARK  status: ('A' for Active; 'I' for Inactive)
REMARK    1  A    between atoms: C3_4  and  O_7 
ROOT
ATOM      1  C   UNL d   1       5.997   6.000  -3.127  0.00  0.00    -0.033 A 
ATOM      2  C1  UNL d   1       5.106   5.943  -4.200  0.00  0.00     0.039 A 
ATOM      3  C2  UNL d   1       3.732   5.870  -3.966  0.00  0.00    -0.080 A 
ATOM      4  C3  UNL d   1       3.262   5.855  -2.656  0.00  0.00     0.150 A 
ATOM      5  C4  UNL d   1       4.144   5.915  -1.581  0.00  0.00    -0.007 A 
ATOM      6  C5  UNL d   1       5.516   5.987  -1.817  0.00  0.00     0.039 A 
ENDROOT
BRANCH   4   7
ATOM      7  O   UNL d   1       1.929   5.779  -2.377  0.00  0.00    -0.526 OA
ATOM      8  H5  UNL d   1       1.443   5.715  -3.216  0.00  0.00     0.418 HD
ENDBRANCH   4   7
TORSDOF 1
ENDMDL
