MODEL 1
REMARK minimizedAffinity 5.32957363
REMARK minimizedRMSD -1
REMARK  1 active torsions:
REMARK  status: ('A' for Active; 'I' for Inactive)
REMARK    1  A    between atoms: C3_4  and  O_7 
ROOT
ATOM      1  C   UNL d   1       4.541   1.349  -4.878  0.00  0.00    -0.033 A 
ATOM      2  C1  UNL d   1       5.688   1.623  -5.627  0.00  0.00     0.039 A 
ATOM      3  C2  UNL d   1       5.999   2.939  -5.975  0.00  0.00    -0.080 A 
ATOM      4  C3  UNL d   1       5.157   3.970  -5.567  0.00  0.00     0.150 A 
ATOM      5  C4  UNL d   1       4.016   3.705  -4.818  0.00  0.00    -0.007 A 
ATOM      6  C5  UNL d   1       3.706   2.390  -4.472  0.00  0.00     0.039 A 
ENDROOT
BRANCH   4   7
ATOM      7  O   UNL d   1       5.417   5.270  -5.887  0.00  0.00    -0.526 OA
ATOM      8  H5  UNL d   1       6.221   5.298  -6.431  0.00  0.00     0.418 HD
ENDBRANCH   4   7
TORSDOF 1
ENDMDL
