MODEL 1
REMARK minimizedAffinity -3.10075974
REMARK minimizedRMSD -1
REMARK  0 active torsions:
REMARK  status: ('A' for Active; 'I' for Inactive)
ROOT
ATOM      1  N1  IND d   1       0.158   0.677  -0.984  0.00  0.00    -0.196 N 
ATOM      2  C2  IND d   1       0.925  -0.377  -0.572  0.00  0.00     0.054 A 
ATOM      3  C3  IND d   1       0.567  -0.761   0.673  0.00  0.00    -0.031 A 
ATOM      4  C4  IND d   1      -1.318   0.131   2.182  0.00  0.00     0.051 A 
ATOM      5  C5  IND d   1      -2.266   1.113   2.255  0.00  0.00    -0.031 A 
ATOM      6  C6  IND d   1      -2.460   2.017   1.230  0.00  0.00     0.015 A 
ATOM      7  C7  IND d   1      -1.718   1.964   0.084  0.00  0.00    -0.016 A 
ATOM      8  C8  IND d   1      -0.750   0.973   0.010  0.00  0.00    -0.047 A 
ATOM      9  C9  IND d   1      -0.520   0.080   1.064  0.00  0.00    -0.096 A 
ATOM     10  HN1 IND d   1       0.230   1.087  -1.736  0.00  0.00     0.298 HD
ENDROOT
TORSDOF 0
ENDMDL
