MODEL 1
REMARK minimizedAffinity 0.266100079
REMARK minimizedRMSD -1
REMARK  0 active torsions:
REMARK  status: ('A' for Active; 'I' for Inactive)
ROOT
ATOM      1  N1  IND d   1       0.337   1.692  -0.734  0.00  0.00    -0.196 N 
ATOM      2  C2  IND d   1       0.733   0.681  -1.564  0.00  0.00     0.054 A 
ATOM      3  C3  IND d   1       0.591  -0.515  -0.951  0.00  0.00    -0.031 A 
ATOM      4  C4  IND d   1      -0.370  -1.056   1.376  0.00  0.00     0.051 A 
ATOM      5  C5  IND d   1      -0.829  -0.460   2.516  0.00  0.00    -0.031 A 
ATOM      6  C6  IND d   1      -0.928   0.911   2.634  0.00  0.00     0.015 A 
ATOM      7  C7  IND d   1      -0.581   1.741   1.605  0.00  0.00    -0.016 A 
ATOM      8  C8  IND d   1      -0.107   1.140   0.448  0.00  0.00    -0.047 A 
ATOM      9  C9  IND d   1       0.036  -0.249   0.339  0.00  0.00    -0.096 A 
ATOM     10  HN1 IND d   1       0.360   2.532  -0.918  0.00  0.00     0.298 HD
ENDROOT
TORSDOF 0
ENDMDL
