MODEL 1
REMARK minimizedAffinity -3.69959426
REMARK minimizedRMSD -1
REMARK  0 active torsions:
REMARK  status: ('A' for Active; 'I' for Inactive)
ROOT
ATOM      1  N1  IND d   1       1.448   1.297  -1.142  0.00  0.00    -0.196 N 
ATOM      2  C2  IND d   1       2.013   0.077  -1.388  0.00  0.00     0.054 A 
ATOM      3  C3  IND d   1       1.186  -0.915  -0.988  0.00  0.00    -0.031 A 
ATOM      4  C4  IND d   1      -1.186  -0.766   0.003  0.00  0.00     0.051 A 
ATOM      5  C5  IND d   1      -2.113   0.134   0.447  0.00  0.00    -0.031 A 
ATOM      6  C6  IND d   1      -1.898   1.495   0.380  0.00  0.00     0.015 A 
ATOM      7  C7  IND d   1      -0.747   2.010  -0.146  0.00  0.00    -0.016 A 
ATOM      8  C8  IND d   1       0.200   1.098  -0.592  0.00  0.00    -0.047 A 
ATOM      9  C9  IND d   1       0.006  -0.285  -0.487  0.00  0.00    -0.096 A 
ATOM     10  HN1 IND d   1       1.810   2.059  -1.304  0.00  0.00     0.298 HD
ENDROOT
TORSDOF 0
ENDMDL
