MODEL 1
REMARK minimizedAffinity 0.447578251
REMARK minimizedRMSD -1
REMARK  0 active torsions:
REMARK  status: ('A' for Active; 'I' for Inactive)
ROOT
ATOM      1  N1  IND d   1      -0.762   1.597   3.050  0.00  0.00    -0.196 N 
ATOM      2  C2  IND d   1      -1.881   2.210   2.560  0.00  0.00     0.054 A 
ATOM      3  C3  IND d   1      -2.118   1.812   1.290  0.00  0.00    -0.031 A 
ATOM      4  C4  IND d   1      -0.856   0.087  -0.145  0.00  0.00     0.051 A 
ATOM      5  C5  IND d   1       0.254  -0.711  -0.142  0.00  0.00    -0.031 A 
ATOM      6  C6  IND d   1       1.097  -0.784   0.947  0.00  0.00     0.015 A 
ATOM      7  C7  IND d   1       0.855  -0.067   2.085  0.00  0.00    -0.016 A 
ATOM      8  C8  IND d   1      -0.267   0.750   2.083  0.00  0.00    -0.047 A 
ATOM      9  C9  IND d   1      -1.104   0.860   0.965  0.00  0.00    -0.096 A 
ATOM     10  HN1 IND d   1      -0.424   1.720   3.831  0.00  0.00     0.298 HD
ENDROOT
TORSDOF 0
ENDMDL
