MODEL 1
REMARK minimizedAffinity -2.82827139
REMARK minimizedRMSD -1
REMARK  0 active torsions:
REMARK  status: ('A' for Active; 'I' for Inactive)
ROOT
ATOM      1  N1  IND d   1      -0.756   1.475   2.259  0.00  0.00    -0.196 N 
ATOM      2  C2  IND d   1      -1.797   2.171   1.710  0.00  0.00     0.054 A 
ATOM      3  C3  IND d   1      -1.945   1.845   0.406  0.00  0.00    -0.031 A 
ATOM      4  C4  IND d   1      -0.655   0.120  -1.005  0.00  0.00     0.051 A 
ATOM      5  C5  IND d   1       0.408  -0.737  -0.951  0.00  0.00    -0.031 A 
ATOM      6  C6  IND d   1       1.151  -0.905   0.200  0.00  0.00     0.015 A 
ATOM      7  C7  IND d   1       0.850  -0.229   1.348  0.00  0.00    -0.016 A 
ATOM      8  C8  IND d   1      -0.225   0.647   1.295  0.00  0.00    -0.047 A 
ATOM      9  C9  IND d   1      -0.957   0.854   0.118  0.00  0.00    -0.096 A 
ATOM     10  HN1 IND d   1      -0.480   1.544   3.070  0.00  0.00     0.298 HD
ENDROOT
TORSDOF 0
ENDMDL
