MODEL 1
REMARK minimizedAffinity -3.16757464
REMARK minimizedRMSD -1
REMARK  0 active torsions:
REMARK  status: ('A' for Active; 'I' for Inactive)
ROOT
ATOM      1  N1  IND d   1       1.569   0.776  -1.691  0.00  0.00    -0.196 N 
ATOM      2  C2  IND d   1       1.588  -0.587  -1.581  0.00  0.00     0.054 A 
ATOM      3  C3  IND d   1       0.455  -1.027  -0.990  0.00  0.00    -0.031 A 
ATOM      4  C4  IND d   1      -1.609   0.304  -0.215  0.00  0.00     0.051 A 
ATOM      5  C5  IND d   1      -2.077   1.580  -0.075  0.00  0.00    -0.031 A 
ATOM      6  C6  IND d   1      -1.340   2.676  -0.476  0.00  0.00     0.015 A 
ATOM      7  C7  IND d   1      -0.107   2.534  -1.046  0.00  0.00    -0.016 A 
ATOM      8  C8  IND d   1       0.375   1.240  -1.184  0.00  0.00    -0.047 A 
ATOM      9  C9  IND d   1      -0.350   0.127  -0.740  0.00  0.00    -0.096 A 
ATOM     10  HN1 IND d   1       2.197   1.261  -2.021  0.00  0.00     0.298 HD
ENDROOT
TORSDOF 0
ENDMDL
