MODEL 1
REMARK minimizedAffinity 0.427228928
REMARK minimizedRMSD -1
REMARK  0 active torsions:
REMARK  status: ('A' for Active; 'I' for Inactive)
ROOT
ATOM      1  N1  IND d   1      -3.827  -2.198   2.021  0.00  0.00    -0.196 N 
ATOM      2  C2  IND d   1      -5.192  -2.127   2.064  0.00  0.00     0.054 A 
ATOM      3  C3  IND d   1      -5.622  -2.119   3.346  0.00  0.00    -0.031 A 
ATOM      4  C4  IND d   1      -4.257  -2.112   5.529  0.00  0.00     0.051 A 
ATOM      5  C5  IND d   1      -2.978  -2.206   6.000  0.00  0.00    -0.031 A 
ATOM      6  C6  IND d   1      -1.894  -2.301   5.151  0.00  0.00     0.015 A 
ATOM      7  C7  IND d   1      -2.049  -2.294   3.794  0.00  0.00    -0.016 A 
ATOM      8  C8  IND d   1      -3.348  -2.206   3.312  0.00  0.00    -0.047 A 
ATOM      9  C9  IND d   1      -4.455  -2.152   4.169  0.00  0.00    -0.096 A 
ATOM     10  HN1 IND d   1      -3.349  -2.231   1.307  0.00  0.00     0.298 HD
ENDROOT
TORSDOF 0
ENDMDL
