MODEL 1
REMARK minimizedAffinity -0.690213799
REMARK minimizedRMSD -1
REMARK  0 active torsions:
REMARK  status: ('A' for Active; 'I' for Inactive)
ROOT
ATOM      1  N1  IND d   1      -5.628  -2.625   3.419  0.00  0.00    -0.196 N 
ATOM      2  C2  IND d   1      -5.296  -2.510   2.097  0.00  0.00     0.054 A 
ATOM      3  C3  IND d   1      -3.965  -2.318   1.962  0.00  0.00    -0.031 A 
ATOM      4  C4  IND d   1      -2.128  -2.260   3.765  0.00  0.00     0.051 A 
ATOM      5  C5  IND d   1      -1.948  -2.283   5.119  0.00  0.00    -0.031 A 
ATOM      6  C6  IND d   1      -3.005  -2.426   5.994  0.00  0.00     0.015 A 
ATOM      7  C7  IND d   1      -4.288  -2.564   5.544  0.00  0.00    -0.016 A 
ATOM      8  C8  IND d   1      -4.476  -2.535   4.169  0.00  0.00    -0.047 A 
ATOM      9  C9  IND d   1      -3.411  -2.347   3.278  0.00  0.00    -0.096 A 
ATOM     10  HN1 IND d   1      -6.422  -2.735   3.729  0.00  0.00     0.298 HD
ENDROOT
TORSDOF 0
ENDMDL
