MODEL 1
REMARK minimizedAffinity -0.602596641
REMARK minimizedRMSD -1
REMARK  0 active torsions:
REMARK  status: ('A' for Active; 'I' for Inactive)
ROOT
ATOM      1  N1  IND d   1       1.151  -1.611  -0.114  0.00  0.00    -0.196 N 
ATOM      2  C2  IND d   1       0.427  -0.494  -0.426  0.00  0.00     0.054 A 
ATOM      3  C3  IND d   1      -0.317  -0.709  -1.534  0.00  0.00    -0.031 A 
ATOM      4  C4  IND d   1      -0.579  -2.851  -2.937  0.00  0.00     0.051 A 
ATOM      5  C5  IND d   1      -0.091  -4.121  -3.065  0.00  0.00    -0.031 A 
ATOM      6  C6  IND d   1       0.852  -4.631  -2.197  0.00  0.00     0.015 A 
ATOM      7  C7  IND d   1       1.337  -3.889  -1.157  0.00  0.00    -0.016 A 
ATOM      8  C8  IND d   1       0.850  -2.597  -1.028  0.00  0.00    -0.047 A 
ATOM      9  C9  IND d   1      -0.077  -2.060  -1.931  0.00  0.00    -0.096 A 
ATOM     10  HN1 IND d   1       1.702  -1.685   0.542  0.00  0.00     0.298 HD
ENDROOT
TORSDOF 0
ENDMDL
