MODEL 1
REMARK minimizedAffinity -2.52982354
REMARK minimizedRMSD -1
REMARK  0 active torsions:
REMARK  status: ('A' for Active; 'I' for Inactive)
ROOT
ATOM      1  N1  IND d   1       1.086  -1.893  -2.244  0.00  0.00    -0.196 N 
ATOM      2  C2  IND d   1       0.334  -3.000  -2.521  0.00  0.00     0.054 A 
ATOM      3  C3  IND d   1      -0.717  -3.079  -1.674  0.00  0.00    -0.031 A 
ATOM      4  C4  IND d   1      -1.454  -1.446   0.175  0.00  0.00     0.051 A 
ATOM      5  C5  IND d   1      -1.065  -0.309   0.825  0.00  0.00    -0.031 A 
ATOM      6  C6  IND d   1       0.083   0.374   0.477  0.00  0.00     0.015 A 
ATOM      7  C7  IND d   1       0.881  -0.051  -0.547  0.00  0.00    -0.016 A 
ATOM      8  C8  IND d   1       0.493  -1.209  -1.205  0.00  0.00    -0.047 A 
ATOM      9  C9  IND d   1      -0.647  -1.930  -0.828  0.00  0.00    -0.096 A 
ATOM     10  HN1 IND d   1       1.807  -1.661  -2.651  0.00  0.00     0.298 HD
ENDROOT
TORSDOF 0
ENDMDL
