MODEL 1
REMARK minimizedAffinity -1.88673592
REMARK minimizedRMSD -1
REMARK  0 active torsions:
REMARK  status: ('A' for Active; 'I' for Inactive)
ROOT
ATOM      1  N1  IND d   1      -0.540   0.018  -1.308  0.00  0.00    -0.196 N 
ATOM      2  C2  IND d   1      -0.064  -1.263  -1.298  0.00  0.00     0.054 A 
ATOM      3  C3  IND d   1       0.167  -1.670  -0.029  0.00  0.00    -0.031 A 
ATOM      4  C4  IND d   1      -0.260  -0.432   2.188  0.00  0.00     0.051 A 
ATOM      5  C5  IND d   1      -0.653   0.777   2.688  0.00  0.00    -0.031 A 
ATOM      6  C6  IND d   1      -1.039   1.816   1.865  0.00  0.00     0.015 A 
ATOM      7  C7  IND d   1      -1.057   1.679   0.506  0.00  0.00    -0.016 A 
ATOM      8  C8  IND d   1      -0.651   0.454  -0.006  0.00  0.00    -0.047 A 
ATOM      9  C9  IND d   1      -0.218  -0.589   0.822  0.00  0.00    -0.096 A 
ATOM     10  HN1 IND d   1      -0.736   0.475  -2.009  0.00  0.00     0.298 HD
ENDROOT
TORSDOF 0
ENDMDL
