MODEL 1
REMARK minimizedAffinity -3.88600731
REMARK minimizedRMSD -1
REMARK  0 active torsions:
REMARK  status: ('A' for Active; 'I' for Inactive)
ROOT
ATOM      1  N1  IND d   1      -0.299   0.387  -0.988  0.00  0.00    -0.196 N 
ATOM      2  C2  IND d   1       0.492  -0.725  -0.917  0.00  0.00     0.054 A 
ATOM      3  C3  IND d   1       0.663  -1.099   0.371  0.00  0.00    -0.031 A 
ATOM      4  C4  IND d   1      -0.345  -0.092   2.514  0.00  0.00     0.051 A 
ATOM      5  C5  IND d   1      -1.102   0.956   2.960  0.00  0.00    -0.031 A 
ATOM      6  C6  IND d   1      -1.643   1.884   2.094  0.00  0.00     0.015 A 
ATOM      7  C7  IND d   1      -1.456   1.793   0.744  0.00  0.00    -0.016 A 
ATOM      8  C8  IND d   1      -0.682   0.735   0.289  0.00  0.00    -0.047 A 
ATOM      9  C9  IND d   1      -0.095  -0.186   1.166  0.00  0.00    -0.096 A 
ATOM     10  HN1 IND d   1      -0.521   0.800  -1.709  0.00  0.00     0.298 HD
ENDROOT
TORSDOF 0
ENDMDL
