MODEL 1
REMARK minimizedAffinity -2.50765419
REMARK minimizedRMSD -1
REMARK  0 active torsions:
REMARK  status: ('A' for Active; 'I' for Inactive)
ROOT
ATOM      1  N1  IND d   1      -0.242  -1.507  -2.551  0.00  0.00    -0.196 N 
ATOM      2  C2  IND d   1       0.910  -2.233  -2.424  0.00  0.00     0.054 A 
ATOM      3  C3  IND d   1       1.512  -1.958  -1.245  0.00  0.00    -0.031 A 
ATOM      4  C4  IND d   1       0.730  -0.428   0.673  0.00  0.00     0.051 A 
ATOM      5  C5  IND d   1      -0.244   0.472   1.004  0.00  0.00    -0.031 A 
ATOM      6  C6  IND d   1      -1.289   0.762   0.151  0.00  0.00     0.015 A 
ATOM      7  C7  IND d   1      -1.406   0.152  -1.066  0.00  0.00    -0.016 A 
ATOM      8  C8  IND d   1      -0.416  -0.758  -1.408  0.00  0.00    -0.047 A 
ATOM      9  C9  IND d   1       0.670  -1.025  -0.565  0.00  0.00    -0.096 A 
ATOM     10  HN1 IND d   1      -0.769  -1.518  -3.230  0.00  0.00     0.298 HD
ENDROOT
TORSDOF 0
ENDMDL
