MODEL 1
REMARK minimizedAffinity -3.1728282
REMARK minimizedRMSD -1
REMARK  2 active torsions:
REMARK  status: ('A' for Active; 'I' for Inactive)
REMARK    1  A    between atoms: C1_2  and  C2_3 
REMARK    2  A    between atoms: C2_3  and  C3_4 
ROOT
ATOM      1  C3  UNL d   1       0.187  -0.159  -0.624  0.00  0.00    -0.075 A 
ATOM      2  C4  UNL d   1       0.989   0.153   0.484  0.00  0.00     0.002 A 
ATOM      3  C5  UNL d   1       0.494   0.009   1.780  0.00  0.00     0.002 A 
ATOM      4  C6  UNL d   1      -0.810  -0.437   1.985  0.00  0.00    -0.004 A 
ATOM      5  C7  UNL d   1      -1.621  -0.733   0.892  0.00  0.00     0.002 A 
ATOM      6  C8  UNL d   1      -1.127  -0.595  -0.406  0.00  0.00     0.002 A 
ENDROOT
BRANCH   1   7
ATOM      7  C2  UNL d   1       0.727  -0.034  -2.028  0.00  0.00     0.056 C 
BRANCH   7   8
ATOM      8  C1  UNL d   1       0.592  -1.311  -2.864  0.00  0.00     0.007 C 
ATOM      9  C   UNL d   1       1.913  -1.780  -3.461  0.00  0.00     0.009 C 
ENDBRANCH   7   8
ENDBRANCH   1   7
TORSDOF 2
ENDMDL
