MODEL 1
REMARK minimizedAffinity -5.99126291
REMARK minimizedRMSD -1
REMARK  2 active torsions:
REMARK  status: ('A' for Active; 'I' for Inactive)
REMARK    1  A    between atoms: C1_2  and  C2_3 
REMARK    2  A    between atoms: C2_3  and  C3_4 
ROOT
ATOM      1  C3  UNL d   1      -0.011   0.029  -0.370  0.00  0.00    -0.075 A 
ATOM      2  C4  UNL d   1      -1.152  -0.475   0.271  0.00  0.00     0.002 A 
ATOM      3  C5  UNL d   1      -1.181  -0.617   1.658  0.00  0.00     0.002 A 
ATOM      4  C6  UNL d   1      -0.068  -0.268   2.421  0.00  0.00    -0.004 A 
ATOM      5  C7  UNL d   1       1.077   0.219   1.793  0.00  0.00     0.002 A 
ATOM      6  C8  UNL d   1       1.106   0.366   0.405  0.00  0.00     0.002 A 
ENDROOT
BRANCH   1   7
ATOM      7  C2  UNL d   1       0.015   0.213  -1.869  0.00  0.00     0.056 C 
BRANCH   7   8
ATOM      8  C1  UNL d   1       1.164  -0.523  -2.567  0.00  0.00     0.007 C 
ATOM      9  C   UNL d   1       0.709  -1.762  -3.326  0.00  0.00     0.009 C 
ENDBRANCH   7   8
ENDBRANCH   1   7
TORSDOF 2
ENDMDL
