MODEL 1
REMARK minimizedAffinity -4.56512833
REMARK minimizedRMSD -1
REMARK  2 active torsions:
REMARK  status: ('A' for Active; 'I' for Inactive)
REMARK    1  A    between atoms: C1_2  and  C2_3 
REMARK    2  A    between atoms: C2_3  and  C3_4 
ROOT
ATOM      1  C3  UNL d   1      -0.120   0.004   0.147  0.00  0.00    -0.075 A 
ATOM      2  C4  UNL d   1       0.779   0.125   1.218  0.00  0.00     0.002 A 
ATOM      3  C5  UNL d   1       0.356  -0.108   2.527  0.00  0.00     0.002 A 
ATOM      4  C6  UNL d   1      -0.968  -0.455   2.783  0.00  0.00    -0.004 A 
ATOM      5  C7  UNL d   1      -1.873  -0.562   1.729  0.00  0.00     0.002 A 
ATOM      6  C8  UNL d   1      -1.452  -0.334   0.418  0.00  0.00     0.002 A 
ENDROOT
BRANCH   1   7
ATOM      7  C2  UNL d   1       0.338   0.226  -1.274  0.00  0.00     0.056 C 
BRANCH   7   8
ATOM      8  C1  UNL d   1       0.302  -1.034  -2.145  0.00  0.00     0.007 C 
ATOM      9  C   UNL d   1       1.549  -1.206  -3.003  0.00  0.00     0.009 C 
ENDBRANCH   7   8
ENDBRANCH   1   7
TORSDOF 2
ENDMDL
