MODEL 1
REMARK minimizedAffinity -4.68668413
REMARK minimizedRMSD -1
REMARK  2 active torsions:
REMARK  status: ('A' for Active; 'I' for Inactive)
REMARK    1  A    between atoms: C1_2  and  C2_3 
REMARK    2  A    between atoms: C2_3  and  C3_4 
ROOT
ATOM      1  C3  UNL d   1       0.266  -0.267  -0.120  0.00  0.00    -0.075 A 
ATOM      2  C4  UNL d   1       1.272   0.210   0.733  0.00  0.00     0.002 A 
ATOM      3  C5  UNL d   1       1.101   0.179   2.117  0.00  0.00     0.002 A 
ATOM      4  C6  UNL d   1      -0.080  -0.318   2.665  0.00  0.00    -0.004 A 
ATOM      5  C7  UNL d   1      -1.092  -0.780   1.827  0.00  0.00     0.002 A 
ATOM      6  C8  UNL d   1      -0.922  -0.754   0.441  0.00  0.00     0.002 A 
ENDROOT
BRANCH   1   7
ATOM      7  C2  UNL d   1       0.458  -0.264  -1.618  0.00  0.00     0.056 C 
BRANCH   7   8
ATOM      8  C1  UNL d   1       0.306  -1.643  -2.269  0.00  0.00     0.007 C 
ATOM      9  C   UNL d   1       1.435  -1.978  -3.236  0.00  0.00     0.009 C 
ENDBRANCH   7   8
ENDBRANCH   1   7
TORSDOF 2
ENDMDL
