MODEL 1
REMARK minimizedAffinity -5.41963196
REMARK minimizedRMSD -1
REMARK  2 active torsions:
REMARK  status: ('A' for Active; 'I' for Inactive)
REMARK    1  A    between atoms: C1_2  and  C2_3 
REMARK    2  A    between atoms: C2_3  and  C3_4 
ROOT
ATOM      1  C3  UNL d   1      -0.442  -0.035  -0.817  0.00  0.00    -0.075 A 
ATOM      2  C4  UNL d   1       0.330  -0.549   0.234  0.00  0.00     0.002 A 
ATOM      3  C5  UNL d   1      -0.224  -0.718   1.503  0.00  0.00     0.002 A 
ATOM      4  C6  UNL d   1      -1.551  -0.365   1.740  0.00  0.00    -0.004 A 
ATOM      5  C7  UNL d   1      -2.322   0.163   0.707  0.00  0.00     0.002 A 
ATOM      6  C8  UNL d   1      -1.772   0.328  -0.565  0.00  0.00     0.002 A 
ENDROOT
BRANCH   1   7
ATOM      7  C2  UNL d   1       0.143   0.122  -2.201  0.00  0.00     0.056 C 
BRANCH   7   8
ATOM      8  C1  UNL d   1       1.069  -1.025  -2.620  0.00  0.00     0.007 C 
ATOM      9  C   UNL d   1       0.466  -1.919  -3.695  0.00  0.00     0.009 C 
ENDBRANCH   7   8
ENDBRANCH   1   7
TORSDOF 2
ENDMDL
