MODEL 1
REMARK minimizedAffinity -5.52215004
REMARK minimizedRMSD -1
REMARK  2 active torsions:
REMARK  status: ('A' for Active; 'I' for Inactive)
REMARK    1  A    between atoms: C1_2  and  C2_3 
REMARK    2  A    between atoms: C2_3  and  C3_4 
ROOT
ATOM      1  C3  UNL d   1       0.069   0.032  -0.319  0.00  0.00    -0.075 A 
ATOM      2  C4  UNL d   1      -0.939  -0.658   0.371  0.00  0.00     0.002 A 
ATOM      3  C5  UNL d   1      -0.789  -0.964   1.724  0.00  0.00     0.002 A 
ATOM      4  C6  UNL d   1       0.372  -0.595   2.401  0.00  0.00    -0.004 A 
ATOM      5  C7  UNL d   1       1.386   0.076   1.721  0.00  0.00     0.002 A 
ATOM      6  C8  UNL d   1       1.237   0.388   0.369  0.00  0.00     0.002 A 
ENDROOT
BRANCH   1   7
ATOM      7  C2  UNL d   1      -0.100   0.392  -1.775  0.00  0.00     0.056 C 
BRANCH   7   8
ATOM      8  C1  UNL d   1       0.907  -0.290  -2.707  0.00  0.00     0.007 C 
ATOM      9  C   UNL d   1       0.291  -1.406  -3.541  0.00  0.00     0.009 C 
ENDBRANCH   7   8
ENDBRANCH   1   7
TORSDOF 2
ENDMDL
