MODEL 1
REMARK minimizedAffinity -4.4604907
REMARK minimizedRMSD -1
REMARK  2 active torsions:
REMARK  status: ('A' for Active; 'I' for Inactive)
REMARK    1  A    between atoms: C1_2  and  C2_3 
REMARK    2  A    between atoms: C2_3  and  C3_4 
ROOT
ATOM      1  C3  UNL d   1      -0.305   0.128   0.455  0.00  0.00    -0.075 A 
ATOM      2  C4  UNL d   1      -1.477  -0.115   1.186  0.00  0.00     0.002 A 
ATOM      3  C5  UNL d   1      -1.428  -0.267   2.572  0.00  0.00     0.002 A 
ATOM      4  C6  UNL d   1      -0.209  -0.190   3.242  0.00  0.00    -0.004 A 
ATOM      5  C7  UNL d   1       0.964   0.035   2.523  0.00  0.00     0.002 A 
ATOM      6  C8  UNL d   1       0.917   0.192   1.137  0.00  0.00     0.002 A 
ENDROOT
BRANCH   1   7
ATOM      7  C2  UNL d   1      -0.355   0.324  -1.042  0.00  0.00     0.056 C 
BRANCH   7   8
ATOM      8  C1  UNL d   1       1.022   0.461  -1.699  0.00  0.00     0.007 C 
ATOM      9  C   UNL d   1       1.187  -0.413  -2.935  0.00  0.00     0.009 C 
ENDBRANCH   7   8
ENDBRANCH   1   7
TORSDOF 2
ENDMDL
