MODEL 1
REMARK minimizedAffinity -6.46803665
REMARK minimizedRMSD -1
REMARK  2 active torsions:
REMARK  status: ('A' for Active; 'I' for Inactive)
REMARK    1  A    between atoms: C1_2  and  C2_3 
REMARK    2  A    between atoms: C2_3  and  C3_4 
ROOT
ATOM      1  C3  UNL d   1      -0.813  -0.344   1.078  0.00  0.00    -0.075 A 
ATOM      2  C4  UNL d   1      -2.169  -0.378   1.435  0.00  0.00     0.002 A 
ATOM      3  C5  UNL d   1      -2.563  -0.117   2.747  0.00  0.00     0.002 A 
ATOM      4  C6  UNL d   1      -1.609   0.173   3.720  0.00  0.00    -0.004 A 
ATOM      5  C7  UNL d   1      -0.258   0.194   3.380  0.00  0.00     0.002 A 
ATOM      6  C8  UNL d   1       0.139  -0.064   2.067  0.00  0.00     0.002 A 
ENDROOT
BRANCH   1   7
ATOM      7  C2  UNL d   1      -0.382  -0.597  -0.347  0.00  0.00     0.056 C 
BRANCH   7   8
ATOM      8  C1  UNL d   1      -0.138   0.678  -1.161  0.00  0.00     0.007 C 
ATOM      9  C   UNL d   1      -1.287   1.022  -2.099  0.00  0.00     0.009 C 
ENDBRANCH   7   8
ENDBRANCH   1   7
TORSDOF 2
ENDMDL
