MODEL 1
REMARK minimizedAffinity -3.78292012
REMARK minimizedRMSD -1
REMARK  2 active torsions:
REMARK  status: ('A' for Active; 'I' for Inactive)
REMARK    1  A    between atoms: C1_2  and  C2_3 
REMARK    2  A    between atoms: C2_3  and  C3_4 
ROOT
ATOM      1  C3  UNL d   1      -0.268   0.151   0.100  0.00  0.00    -0.075 A 
ATOM      2  C4  UNL d   1      -1.436  -0.088   0.839  0.00  0.00     0.002 A 
ATOM      3  C5  UNL d   1      -1.376  -0.264   2.221  0.00  0.00     0.002 A 
ATOM      4  C6  UNL d   1      -0.149  -0.214   2.880  0.00  0.00    -0.004 A 
ATOM      5  C7  UNL d   1       1.019   0.007   2.154  0.00  0.00     0.002 A 
ATOM      6  C8  UNL d   1       0.961   0.188   0.771  0.00  0.00     0.002 A 
ENDROOT
BRANCH   1   7
ATOM      7  C2  UNL d   1      -0.330   0.372  -1.393  0.00  0.00     0.056 C 
BRANCH   7   8
ATOM      8  C1  UNL d   1       1.009   0.168  -2.110  0.00  0.00     0.007 C 
ATOM      9  C   UNL d   1       1.003  -1.017  -3.066  0.00  0.00     0.009 C 
ENDBRANCH   7   8
ENDBRANCH   1   7
TORSDOF 2
ENDMDL
