MODEL 1
REMARK minimizedAffinity -5.47312546
REMARK minimizedRMSD -1
REMARK  2 active torsions:
REMARK  status: ('A' for Active; 'I' for Inactive)
REMARK    1  A    between atoms: C1_2  and  C2_3 
REMARK    2  A    between atoms: C2_3  and  C3_4 
ROOT
ATOM      1  C3  UNL d   1      -0.331   0.344   0.188  0.00  0.00    -0.075 A 
ATOM      2  C4  UNL d   1       0.833   0.394   0.969  0.00  0.00     0.002 A 
ATOM      3  C5  UNL d   1       0.843  -0.132   2.260  0.00  0.00     0.002 A 
ATOM      4  C6  UNL d   1      -0.311  -0.706   2.791  0.00  0.00    -0.004 A 
ATOM      5  C7  UNL d   1      -1.477  -0.746   2.030  0.00  0.00     0.002 A 
ATOM      6  C8  UNL d   1      -1.489  -0.224   0.735  0.00  0.00     0.002 A 
ENDROOT
BRANCH   1   7
ATOM      7  C2  UNL d   1      -0.339   0.886  -1.222  0.00  0.00     0.056 C 
BRANCH   7   8
ATOM      8  C1  UNL d   1       0.004  -0.156  -2.292  0.00  0.00     0.007 C 
ATOM      9  C   UNL d   1       1.214   0.225  -3.134  0.00  0.00     0.009 C 
ENDBRANCH   7   8
ENDBRANCH   1   7
TORSDOF 2
ENDMDL
