MODEL 1
REMARK minimizedAffinity -3.30660844
REMARK minimizedRMSD -1
REMARK  2 active torsions:
REMARK  status: ('A' for Active; 'I' for Inactive)
REMARK    1  A    between atoms: C1_2  and  C2_3 
REMARK    2  A    between atoms: C2_3  and  C3_4 
ROOT
ATOM      1  C3  UNL d   1       0.501   0.142  -1.085  0.00  0.00    -0.075 A 
ATOM      2  C4  UNL d   1       1.481   0.255  -0.089  0.00  0.00     0.002 A 
ATOM      3  C5  UNL d   1       1.133   0.179   1.260  0.00  0.00     0.002 A 
ATOM      4  C6  UNL d   1      -0.198  -0.001   1.630  0.00  0.00    -0.004 A 
ATOM      5  C7  UNL d   1      -1.183  -0.098   0.649  0.00  0.00     0.002 A 
ATOM      6  C8  UNL d   1      -0.837  -0.026  -0.702  0.00  0.00     0.002 A 
ENDROOT
BRANCH   1   7
ATOM      7  C2  UNL d   1       0.875   0.194  -2.547  0.00  0.00     0.056 C 
BRANCH   7   8
ATOM      8  C1  UNL d   1       1.607  -1.055  -3.048  0.00  0.00     0.007 C 
ATOM      9  C   UNL d   1       0.768  -1.905  -3.992  0.00  0.00     0.009 C 
ENDBRANCH   7   8
ENDBRANCH   1   7
TORSDOF 2
ENDMDL
