MODEL 1
REMARK minimizedAffinity 15.3271618
REMARK minimizedRMSD -1
REMARK  1 active torsions:
REMARK  status: ('A' for Active; 'I' for Inactive)
REMARK    1  A    between atoms: C1_2  and  C2_3 
ROOT
ATOM      1  C2  UNL d   1       0.184  -2.081   1.733  0.00  0.00    -0.076 A 
ATOM      2  C3  UNL d   1       0.480  -3.118   0.831  0.00  0.00     0.004 A 
ATOM      3  C4  UNL d   1       1.769  -3.285   0.328  0.00  0.00    -0.003 A 
ATOM      4  C5  UNL d   1       2.784  -2.417   0.718  0.00  0.00     0.000 A 
ATOM      5  C6  UNL d   1       2.512  -1.394   1.625  0.00  0.00     0.000 A 
ATOM      6  C7  UNL d   1       1.221  -1.222   2.155  0.00  0.00    -0.073 A 
ATOM      7  C8  UNL d   1       0.983  -0.098   3.125  0.00  0.00     0.078 C 
ENDROOT
BRANCH   1   8
ATOM      8  C1  UNL d   1      -1.238  -1.932   2.224  0.00  0.00     0.053 C 
ATOM      9  C   UNL d   1      -1.656  -3.066   3.148  0.00  0.00     0.018 C 
ENDBRANCH   1   8
TORSDOF 1
ENDMDL
