MODEL 1
REMARK minimizedAffinity 6.73529339
REMARK minimizedRMSD -1
REMARK  1 active torsions:
REMARK  status: ('A' for Active; 'I' for Inactive)
REMARK    1  A    between atoms: C1_2  and  C2_3 
ROOT
ATOM      1  C2  UNL d   1       2.140  -3.479   0.278  0.00  0.00    -0.076 A 
ATOM      2  C3  UNL d   1       0.812  -3.075   0.060  0.00  0.00     0.004 A 
ATOM      3  C4  UNL d   1       0.302  -1.928   0.665  0.00  0.00    -0.003 A 
ATOM      4  C5  UNL d   1       1.113  -1.164   1.497  0.00  0.00     0.000 A 
ATOM      5  C6  UNL d   1       2.439  -1.540   1.711  0.00  0.00     0.000 A 
ATOM      6  C7  UNL d   1       2.973  -2.686   1.096  0.00  0.00    -0.073 A 
ATOM      7  C8  UNL d   1       4.408  -3.048   1.366  0.00  0.00     0.078 C 
ENDROOT
BRANCH   1   8
ATOM      8  C1  UNL d   1       2.630  -4.748  -0.383  0.00  0.00     0.053 C 
ATOM      9  C   UNL d   1       2.202  -5.999   0.369  0.00  0.00     0.018 C 
ENDBRANCH   1   8
TORSDOF 1
ENDMDL
