MODEL 1
REMARK minimizedAffinity 19.0209408
REMARK minimizedRMSD -1
REMARK  1 active torsions:
REMARK  status: ('A' for Active; 'I' for Inactive)
REMARK    1  A    between atoms: C1_2  and  C2_3 
ROOT
ATOM      1  C2  UNL d   1      -3.567   3.194   5.087  0.00  0.00    -0.076 A 
ATOM      2  C3  UNL d   1      -4.892   3.265   5.552  0.00  0.00     0.004 A 
ATOM      3  C4  UNL d   1      -5.431   4.469   6.000  0.00  0.00    -0.003 A 
ATOM      4  C5  UNL d   1      -4.655   5.623   5.990  0.00  0.00     0.000 A 
ATOM      5  C6  UNL d   1      -3.344   5.574   5.516  0.00  0.00     0.000 A 
ATOM      6  C7  UNL d   1      -2.790   4.371   5.045  0.00  0.00    -0.073 A 
ATOM      7  C8  UNL d   1      -1.370   4.375   4.550  0.00  0.00     0.078 C 
ENDROOT
BRANCH   1   8
ATOM      8  C1  UNL d   1      -3.028   1.854   4.639  0.00  0.00     0.053 C 
ATOM      9  C   UNL d   1      -3.627   1.397   3.318  0.00  0.00     0.018 C 
ENDBRANCH   1   8
TORSDOF 1
ENDMDL
