MODEL 1
REMARK minimizedAffinity 6.28131866
REMARK minimizedRMSD -1
REMARK  0 active torsions:
REMARK  status: ('A' for Active; 'I' for Inactive)
ROOT
ATOM      1  C   UNL d   1      -0.896   1.435  -1.669  0.00  0.00     0.077 C 
ATOM      2  C1  UNL d   1      -0.442   2.506  -0.723  0.00  0.00    -0.074 A 
ATOM      3  C2  UNL d   1      -0.238   3.817  -1.165  0.00  0.00    -0.005 A 
ATOM      4  C3  UNL d   1       0.175   4.804  -0.271  0.00  0.00     0.006 A 
ATOM      5  C4  UNL d   1       0.389   4.492   1.072  0.00  0.00    -0.005 A 
ATOM      6  C5  UNL d   1       0.190   3.186   1.532  0.00  0.00    -0.074 A 
ATOM      7  C6  UNL d   1       0.406   2.835   2.975  0.00  0.00     0.077 C 
ATOM      8  C7  UNL d   1      -0.232   2.201   0.630  0.00  0.00    -0.001 A 
ENDROOT
TORSDOF 0
ENDMDL
