MODEL 1
REMARK minimizedAffinity 3.94193459
REMARK minimizedRMSD -1
REMARK  0 active torsions:
REMARK  status: ('A' for Active; 'I' for Inactive)
ROOT
ATOM      1  C   UNL d   1      -1.142   6.000  -0.058  0.00  0.00     0.077 C 
ATOM      2  C1  UNL d   1      -0.788   4.543  -0.059  0.00  0.00    -0.074 A 
ATOM      3  C2  UNL d   1      -0.689   3.827  -1.256  0.00  0.00    -0.005 A 
ATOM      4  C3  UNL d   1      -0.349   2.475  -1.242  0.00  0.00     0.006 A 
ATOM      5  C4  UNL d   1      -0.105   1.824  -0.031  0.00  0.00    -0.005 A 
ATOM      6  C5  UNL d   1      -0.198   2.523   1.176  0.00  0.00    -0.074 A 
ATOM      7  C6  UNL d   1       0.071   1.842   2.485  0.00  0.00     0.077 C 
ATOM      8  C7  UNL d   1      -0.533   3.884   1.153  0.00  0.00    -0.001 A 
ENDROOT
TORSDOF 0
ENDMDL
