MODEL 1
REMARK minimizedAffinity 5.10195971
REMARK minimizedRMSD -1
REMARK  0 active torsions:
REMARK  status: ('A' for Active; 'I' for Inactive)
ROOT
ATOM      1  C   UNL d   1       4.726  -1.778  -1.625  0.00  0.00     0.077 C 
ATOM      2  C1  UNL d   1       4.077  -3.130  -1.622  0.00  0.00    -0.074 A 
ATOM      3  C2  UNL d   1       4.540  -4.152  -2.457  0.00  0.00    -0.005 A 
ATOM      4  C3  UNL d   1       3.933  -5.407  -2.436  0.00  0.00     0.006 A 
ATOM      5  C4  UNL d   1       2.858  -5.653  -1.581  0.00  0.00    -0.005 A 
ATOM      6  C5  UNL d   1       2.382  -4.645  -0.738  0.00  0.00    -0.074 A 
ATOM      7  C6  UNL d   1       1.234  -4.896   0.195  0.00  0.00     0.077 C 
ATOM      8  C7  UNL d   1       3.002  -3.388  -0.759  0.00  0.00    -0.001 A 
ENDROOT
TORSDOF 0
ENDMDL
