MODEL 1
REMARK minimizedAffinity 10.2069492
REMARK minimizedRMSD -1
REMARK  0 active torsions:
REMARK  status: ('A' for Active; 'I' for Inactive)
ROOT
ATOM      1  C   UNL d   1      -0.210   2.597  -0.208  0.00  0.00     0.077 C 
ATOM      2  C1  UNL d   1      -1.082   1.431  -0.569  0.00  0.00    -0.074 A 
ATOM      3  C2  UNL d   1      -2.446   1.429  -0.259  0.00  0.00    -0.005 A 
ATOM      4  C3  UNL d   1      -3.245   0.342  -0.609  0.00  0.00     0.006 A 
ATOM      5  C4  UNL d   1      -2.691  -0.754  -1.272  0.00  0.00    -0.005 A 
ATOM      6  C5  UNL d   1      -1.329  -0.770  -1.591  0.00  0.00    -0.074 A 
ATOM      7  C6  UNL d   1      -0.719  -1.935  -2.312  0.00  0.00     0.077 C 
ATOM      8  C7  UNL d   1      -0.534   0.330  -1.242  0.00  0.00    -0.001 A 
ENDROOT
TORSDOF 0
ENDMDL
