MODEL 1
REMARK minimizedAffinity 13.4110947
REMARK minimizedRMSD -1
REMARK  0 active torsions:
REMARK  status: ('A' for Active; 'I' for Inactive)
ROOT
ATOM      1  C   UNL d   1       1.203  -0.678  -1.093  0.00  0.00     0.077 C 
ATOM      2  C1  UNL d   1      -0.034   0.169  -1.144  0.00  0.00    -0.074 A 
ATOM      3  C2  UNL d   1       0.037   1.557  -0.983  0.00  0.00    -0.005 A 
ATOM      4  C3  UNL d   1      -1.120   2.332  -1.042  0.00  0.00     0.006 A 
ATOM      5  C4  UNL d   1      -2.359   1.729  -1.263  0.00  0.00    -0.005 A 
ATOM      6  C5  UNL d   1      -2.450   0.343  -1.427  0.00  0.00    -0.074 A 
ATOM      7  C6  UNL d   1      -3.773  -0.319  -1.675  0.00  0.00     0.077 C 
ATOM      8  C7  UNL d   1      -1.281  -0.428  -1.373  0.00  0.00    -0.001 A 
ENDROOT
TORSDOF 0
ENDMDL
