MODEL 1
REMARK minimizedAffinity 2.30768895
REMARK minimizedRMSD -1
REMARK  0 active torsions:
REMARK  status: ('A' for Active; 'I' for Inactive)
ROOT
ATOM      1  C   UNL d   1      -0.041  -1.316   5.953  0.00  0.00     0.077 C 
ATOM      2  C1  UNL d   1       0.490  -0.675   4.705  0.00  0.00    -0.074 A 
ATOM      3  C2  UNL d   1       1.593  -1.214   4.034  0.00  0.00    -0.005 A 
ATOM      4  C3  UNL d   1       2.069  -0.613   2.869  0.00  0.00     0.006 A 
ATOM      5  C4  UNL d   1       1.448   0.530   2.363  0.00  0.00    -0.005 A 
ATOM      6  C5  UNL d   1       0.344   1.082   3.020  0.00  0.00    -0.074 A 
ATOM      7  C6  UNL d   1      -0.341   2.305   2.485  0.00  0.00     0.077 C 
ATOM      8  C7  UNL d   1      -0.133   0.469   4.187  0.00  0.00    -0.001 A 
ENDROOT
TORSDOF 0
ENDMDL
