MODEL 1
REMARK minimizedAffinity 0.429862678
REMARK minimizedRMSD -1
REMARK  0 active torsions:
REMARK  status: ('A' for Active; 'I' for Inactive)
ROOT
ATOM      1  C   UNL d   1      -0.635   5.999  -1.038  0.00  0.00     0.077 C 
ATOM      2  C1  UNL d   1      -0.609   4.515  -0.823  0.00  0.00    -0.074 A 
ATOM      3  C2  UNL d   1      -0.749   3.631  -1.897  0.00  0.00    -0.005 A 
ATOM      4  C3  UNL d   1      -0.713   2.253  -1.683  0.00  0.00     0.006 A 
ATOM      5  C4  UNL d   1      -0.536   1.746  -0.395  0.00  0.00    -0.005 A 
ATOM      6  C5  UNL d   1      -0.394   2.615   0.692  0.00  0.00    -0.074 A 
ATOM      7  C6  UNL d   1      -0.193   2.088   2.081  0.00  0.00     0.077 C 
ATOM      8  C7  UNL d   1      -0.424   3.999   0.467  0.00  0.00    -0.001 A 
ENDROOT
TORSDOF 0
ENDMDL
