MODEL 1
REMARK minimizedAffinity 1.79468179
REMARK minimizedRMSD -1
REMARK  0 active torsions:
REMARK  status: ('A' for Active; 'I' for Inactive)
ROOT
ATOM      1  C   UNL d   1       0.185   2.881  -0.301  0.00  0.00     0.077 C 
ATOM      2  C1  UNL d   1      -0.512   1.603  -0.663  0.00  0.00    -0.074 A 
ATOM      3  C2  UNL d   1       0.190   0.395  -0.727  0.00  0.00    -0.005 A 
ATOM      4  C3  UNL d   1      -0.473  -0.787  -1.056  0.00  0.00     0.006 A 
ATOM      5  C4  UNL d   1      -1.843  -0.774  -1.323  0.00  0.00    -0.005 A 
ATOM      6  C5  UNL d   1      -2.562   0.425  -1.262  0.00  0.00    -0.074 A 
ATOM      7  C6  UNL d   1      -4.036   0.455  -1.537  0.00  0.00     0.077 C 
ATOM      8  C7  UNL d   1      -1.889   1.607  -0.925  0.00  0.00    -0.001 A 
ENDROOT
TORSDOF 0
ENDMDL
