MODEL 1
REMARK minimizedAffinity 1.40380943
REMARK minimizedRMSD -1
REMARK  0 active torsions:
REMARK  status: ('A' for Active; 'I' for Inactive)
ROOT
ATOM      1  C   UNL d   1      -4.580  -0.394  -0.783  0.00  0.00     0.077 C 
ATOM      2  C1  UNL d   1      -3.099  -0.185  -0.902  0.00  0.00    -0.074 A 
ATOM      3  C2  UNL d   1      -2.248  -1.245  -1.233  0.00  0.00    -0.005 A 
ATOM      4  C3  UNL d   1      -0.875  -1.034  -1.350  0.00  0.00     0.006 A 
ATOM      5  C4  UNL d   1      -0.338   0.237  -1.137  0.00  0.00    -0.005 A 
ATOM      6  C5  UNL d   1      -1.174   1.309  -0.806  0.00  0.00    -0.074 A 
ATOM      7  C6  UNL d   1      -0.615   2.683  -0.584  0.00  0.00     0.077 C 
ATOM      8  C7  UNL d   1      -2.554   1.090  -0.698  0.00  0.00    -0.001 A 
ENDROOT
TORSDOF 0
ENDMDL
