MODEL 1
REMARK minimizedAffinity -0.670253932
REMARK minimizedRMSD -1
REMARK  2 active torsions:
REMARK  status: ('A' for Active; 'I' for Inactive)
REMARK    1  A    between atoms: C2'_3  and  C1'_4 
REMARK    2  A    between atoms: C1'_4  and  C1_5 
ROOT
ATOM      1  C1  I4B d   1      -0.174   0.087   0.133  0.00  0.00    -0.075 A 
ATOM      2  C2  I4B d   1       0.561   0.289  -1.009  0.00  0.00     0.003 A 
ATOM      3  C3  I4B d   1       1.657  -0.554  -1.310  0.00  0.00     0.002 A 
ATOM      4  C4  I4B d   1       2.013  -1.549  -0.423  0.00  0.00    -0.004 A 
ATOM      5  C5  I4B d   1       1.253  -1.767   0.723  0.00  0.00     0.002 A 
ATOM      6  C6  I4B d   1       0.146  -0.952   0.997  0.00  0.00     0.003 A 
ENDROOT
BRANCH   1   7
ATOM      7  C1' I4B d   1      -1.305   1.018   0.437  0.00  0.00     0.060 C 
BRANCH   7   8
ATOM      8  C2' I4B d   1      -1.768   0.743   1.853  0.00  0.00    -0.013 C 
ATOM      9  C4' I4B d   1      -1.843   2.013   2.658  0.00  0.00     0.013 C 
ATOM     10  C3' I4B d   1      -3.105   0.068   1.780  0.00  0.00     0.013 C 
ENDBRANCH   7   8
ENDBRANCH   1   7
TORSDOF 2
ENDMDL
