MODEL 1
REMARK minimizedAffinity -0.892891228
REMARK minimizedRMSD -1
REMARK  2 active torsions:
REMARK  status: ('A' for Active; 'I' for Inactive)
REMARK    1  A    between atoms: C2'_3  and  C1'_4 
REMARK    2  A    between atoms: C1'_4  and  C1_5 
ROOT
ATOM      1  C1  I4B d   1      -1.110  -0.210   1.146  0.00  0.00    -0.075 A 
ATOM      2  C2  I4B d   1      -1.495  -1.525   1.225  0.00  0.00     0.003 A 
ATOM      3  C3  I4B d   1      -0.931  -2.487   0.351  0.00  0.00     0.002 A 
ATOM      4  C4  I4B d   1      -0.029  -2.084  -0.612  0.00  0.00    -0.004 A 
ATOM      5  C5  I4B d   1       0.377  -0.754  -0.675  0.00  0.00     0.002 A 
ATOM      6  C6  I4B d   1      -0.157   0.187   0.217  0.00  0.00     0.003 A 
ENDROOT
BRANCH   1   7
ATOM      7  C1' I4B d   1      -1.750   0.785   2.062  0.00  0.00     0.060 C 
BRANCH   7   8
ATOM      8  C2' I4B d   1      -2.664   0.030   3.005  0.00  0.00    -0.013 C 
ATOM      9  C4' I4B d   1      -2.493   0.502   4.425  0.00  0.00     0.013 C 
ATOM     10  C3' I4B d   1      -4.076   0.224   2.536  0.00  0.00     0.013 C 
ENDBRANCH   7   8
ENDBRANCH   1   7
TORSDOF 2
ENDMDL
