MODEL 1
REMARK minimizedAffinity -2.95262933
REMARK minimizedRMSD -1
REMARK  2 active torsions:
REMARK  status: ('A' for Active; 'I' for Inactive)
REMARK    1  A    between atoms: C2'_3  and  C1'_4 
REMARK    2  A    between atoms: C1'_4  and  C1_5 
ROOT
ATOM      1  C1  I4B d   1       0.756  -0.085  -0.339  0.00  0.00    -0.075 A 
ATOM      2  C2  I4B d   1       1.700  -0.981  -0.776  0.00  0.00     0.003 A 
ATOM      3  C3  I4B d   1       2.619  -0.611  -1.787  0.00  0.00     0.002 A 
ATOM      4  C4  I4B d   1       2.528   0.640  -2.364  0.00  0.00    -0.004 A 
ATOM      5  C5  I4B d   1       1.586   1.554  -1.903  0.00  0.00     0.002 A 
ATOM      6  C6  I4B d   1       0.702   1.194  -0.875  0.00  0.00     0.003 A 
ENDROOT
BRANCH   1   7
ATOM      7  C1' I4B d   1      -0.220  -0.521   0.707  0.00  0.00     0.060 C 
BRANCH   7   8
ATOM      8  C2' I4B d   1      -1.059   0.681   1.092  0.00  0.00    -0.013 C 
ATOM      9  C4' I4B d   1      -1.946   1.114  -0.045  0.00  0.00     0.013 C 
ATOM     10  C3' I4B d   1      -1.868   0.314   2.300  0.00  0.00     0.013 C 
ENDBRANCH   7   8
ENDBRANCH   1   7
TORSDOF 2
ENDMDL
