MODEL 1
REMARK minimizedAffinity -1.1922704
REMARK minimizedRMSD -1
REMARK  2 active torsions:
REMARK  status: ('A' for Active; 'I' for Inactive)
REMARK    1  A    between atoms: C2'_3  and  C1'_4 
REMARK    2  A    between atoms: C1'_4  and  C1_5 
ROOT
ATOM      1  C1  I4B d   1       0.796   0.633  -1.117  0.00  0.00    -0.075 A 
ATOM      2  C2  I4B d   1      -0.169   1.606  -1.040  0.00  0.00     0.003 A 
ATOM      3  C3  I4B d   1      -1.193   1.519  -0.066  0.00  0.00     0.002 A 
ATOM      4  C4  I4B d   1      -1.242   0.425   0.773  0.00  0.00    -0.004 A 
ATOM      5  C5  I4B d   1      -0.250  -0.549   0.709  0.00  0.00     0.002 A 
ATOM      6  C6  I4B d   1       0.783  -0.438  -0.233  0.00  0.00     0.003 A 
ENDROOT
BRANCH   1   7
ATOM      7  C1' I4B d   1       1.844   0.740  -2.179  0.00  0.00     0.060 C 
BRANCH   7   8
ATOM      8  C2' I4B d   1       2.313  -0.662  -2.513  0.00  0.00    -0.013 C 
ATOM      9  C4' I4B d   1       2.066  -0.988  -3.962  0.00  0.00     0.013 C 
ATOM     10  C3' I4B d   1       3.772  -0.753  -2.179  0.00  0.00     0.013 C 
ENDBRANCH   7   8
ENDBRANCH   1   7
TORSDOF 2
ENDMDL
