MODEL 1
REMARK minimizedAffinity -6.45697784
REMARK minimizedRMSD -1
REMARK  2 active torsions:
REMARK  status: ('A' for Active; 'I' for Inactive)
REMARK    1  A    between atoms: C2'_3  and  C1'_4 
REMARK    2  A    between atoms: C1'_4  and  C1_5 
ROOT
ATOM      1  C1  I4B d   1       0.082  -0.299   0.713  0.00  0.00    -0.075 A 
ATOM      2  C2  I4B d   1       0.971  -0.328   1.758  0.00  0.00     0.003 A 
ATOM      3  C3  I4B d   1       0.635   0.270   2.997  0.00  0.00     0.002 A 
ATOM      4  C4  I4B d   1      -0.572   0.926   3.130  0.00  0.00    -0.004 A 
ATOM      5  C5  I4B d   1      -1.482   0.934   2.076  0.00  0.00     0.002 A 
ATOM      6  C6  I4B d   1      -1.158   0.308   0.864  0.00  0.00     0.003 A 
ENDROOT
BRANCH   1   7
ATOM      7  C1' I4B d   1       0.482  -0.912  -0.592  0.00  0.00     0.060 C 
BRANCH   7   8
ATOM      8  C2' I4B d   1       1.807  -0.304  -1.005  0.00  0.00    -0.013 C 
ATOM      9  C4' I4B d   1       2.509  -1.167  -2.020  0.00  0.00     0.013 C 
ATOM     10  C3' I4B d   1       1.537   1.065  -1.554  0.00  0.00     0.013 C 
ENDBRANCH   7   8
ENDBRANCH   1   7
TORSDOF 2
ENDMDL
