MODEL 1
REMARK minimizedAffinity -3.34944391
REMARK minimizedRMSD -1
REMARK  2 active torsions:
REMARK  status: ('A' for Active; 'I' for Inactive)
REMARK    1  A    between atoms: C2'_3  and  C1'_4 
REMARK    2  A    between atoms: C1'_4  and  C1_5 
ROOT
ATOM      1  C1  I4B d   1       0.823  -0.562  -0.263  0.00  0.00    -0.075 A 
ATOM      2  C2  I4B d   1       1.635   0.543  -0.310  0.00  0.00     0.003 A 
ATOM      3  C3  I4B d   1       2.632   0.653  -1.310  0.00  0.00     0.002 A 
ATOM      4  C4  I4B d   1       2.814  -0.381  -2.205  0.00  0.00    -0.004 A 
ATOM      5  C5  I4B d   1       1.975  -1.491  -2.170  0.00  0.00     0.002 A 
ATOM      6  C6  I4B d   1       0.964  -1.577  -1.201  0.00  0.00     0.003 A 
ENDROOT
BRANCH   1   7
ATOM      7  C1' I4B d   1      -0.198  -0.661   0.826  0.00  0.00     0.060 C 
BRANCH   7   8
ATOM      8  C2' I4B d   1      -0.829   0.706   1.000  0.00  0.00    -0.013 C 
ATOM      9  C4' I4B d   1      -1.513   1.155  -0.264  0.00  0.00     0.013 C 
ATOM     10  C3' I4B d   1      -1.798   0.627   2.141  0.00  0.00     0.013 C 
ENDBRANCH   7   8
ENDBRANCH   1   7
TORSDOF 2
ENDMDL
