MODEL 1
REMARK minimizedAffinity -3.34275246
REMARK minimizedRMSD -1
REMARK  2 active torsions:
REMARK  status: ('A' for Active; 'I' for Inactive)
REMARK    1  A    between atoms: C2'_3  and  C1'_4 
REMARK    2  A    between atoms: C1'_4  and  C1_5 
ROOT
ATOM      1  C1  I4B d   1      -0.299  -0.303   0.244  0.00  0.00    -0.075 A 
ATOM      2  C2  I4B d   1      -0.420  -1.167  -0.816  0.00  0.00     0.003 A 
ATOM      3  C3  I4B d   1       0.668  -1.992  -1.190  0.00  0.00     0.002 A 
ATOM      4  C4  I4B d   1       1.867  -1.885  -0.514  0.00  0.00    -0.004 A 
ATOM      5  C5  I4B d   1       1.980  -1.025   0.574  0.00  0.00     0.002 A 
ATOM      6  C6  I4B d   1       0.887  -0.237   0.964  0.00  0.00     0.003 A 
ENDROOT
BRANCH   1   7
ATOM      7  C1' I4B d   1      -1.457   0.578   0.591  0.00  0.00     0.060 C 
BRANCH   7   8
ATOM      8  C2' I4B d   1      -1.468   0.763   2.095  0.00  0.00    -0.013 C 
ATOM      9  C4' I4B d   1      -2.044   2.101   2.475  0.00  0.00     0.013 C 
ATOM     10  C3' I4B d   1      -2.264  -0.359   2.693  0.00  0.00     0.013 C 
ENDBRANCH   7   8
ENDBRANCH   1   7
TORSDOF 2
ENDMDL
