MODEL 1
REMARK minimizedAffinity -5.7038002
REMARK minimizedRMSD -1
REMARK  2 active torsions:
REMARK  status: ('A' for Active; 'I' for Inactive)
REMARK    1  A    between atoms: C2'_3  and  C1'_4 
REMARK    2  A    between atoms: C1'_4  and  C1_5 
ROOT
ATOM      1  C1  I4B d   1       1.285   0.293  -1.027  0.00  0.00    -0.075 A 
ATOM      2  C2  I4B d   1       0.518   1.037  -1.889  0.00  0.00     0.003 A 
ATOM      3  C3  I4B d   1       1.084   1.559  -3.077  0.00  0.00     0.002 A 
ATOM      4  C4  I4B d   1       2.424   1.358  -3.337  0.00  0.00    -0.004 A 
ATOM      5  C5  I4B d   1       3.195   0.584  -2.474  0.00  0.00     0.002 A 
ATOM      6  C6  I4B d   1       2.619   0.038  -1.317  0.00  0.00     0.003 A 
ENDROOT
BRANCH   1   7
ATOM      7  C1' I4B d   1       0.663  -0.215   0.235  0.00  0.00     0.060 C 
BRANCH   7   8
ATOM      8  C2' I4B d   1      -0.778  -0.573  -0.066  0.00  0.00    -0.013 C 
ATOM      9  C4' I4B d   1      -0.981  -2.066  -0.060  0.00  0.00     0.013 C 
ATOM     10  C3' I4B d   1      -1.645   0.095   0.959  0.00  0.00     0.013 C 
ENDBRANCH   7   8
ENDBRANCH   1   7
TORSDOF 2
ENDMDL
