MODEL 1
REMARK minimizedAffinity -6.55875015
REMARK minimizedRMSD -1
REMARK  2 active torsions:
REMARK  status: ('A' for Active; 'I' for Inactive)
REMARK    1  A    between atoms: C2'_3  and  C1'_4 
REMARK    2  A    between atoms: C1'_4  and  C1_5 
ROOT
ATOM      1  C1  I4B d   1       1.509  -0.512  -1.349  0.00  0.00    -0.075 A 
ATOM      2  C2  I4B d   1       0.385   0.197  -1.006  0.00  0.00     0.003 A 
ATOM      3  C3  I4B d   1       0.044   1.377  -1.711  0.00  0.00     0.002 A 
ATOM      4  C4  I4B d   1       0.877   1.836  -2.712  0.00  0.00    -0.004 A 
ATOM      5  C5  I4B d   1       2.003   1.102  -3.073  0.00  0.00     0.002 A 
ATOM      6  C6  I4B d   1       2.315  -0.086  -2.396  0.00  0.00     0.003 A 
ENDROOT
BRANCH   1   7
ATOM      7  C1' I4B d   1       1.856  -1.736  -0.562  0.00  0.00     0.060 C 
BRANCH   7   8
ATOM      8  C2' I4B d   1       0.787  -1.932   0.493  0.00  0.00    -0.013 C 
ATOM      9  C4' I4B d   1       0.314  -3.361   0.532  0.00  0.00     0.013 C 
ATOM     10  C3' I4B d   1       1.360  -1.515   1.815  0.00  0.00     0.013 C 
ENDBRANCH   7   8
ENDBRANCH   1   7
TORSDOF 2
ENDMDL
