MODEL 1
REMARK minimizedAffinity 1.23109984
REMARK minimizedRMSD -1
REMARK  2 active torsions:
REMARK  status: ('A' for Active; 'I' for Inactive)
REMARK    1  A    between atoms: C2'_3  and  C1'_4 
REMARK    2  A    between atoms: C1'_4  and  C1_5 
ROOT
ATOM      1  C1  I4B d   1      -0.719   0.411   1.914  0.00  0.00    -0.075 A 
ATOM      2  C2  I4B d   1      -0.136   1.443   2.606  0.00  0.00     0.003 A 
ATOM      3  C3  I4B d   1      -0.561   1.749   3.921  0.00  0.00     0.002 A 
ATOM      4  C4  I4B d   1      -1.598   1.035   4.484  0.00  0.00    -0.004 A 
ATOM      5  C5  I4B d   1      -2.173  -0.026   3.790  0.00  0.00     0.002 A 
ATOM      6  C6  I4B d   1      -1.722  -0.349   2.502  0.00  0.00     0.003 A 
ENDROOT
BRANCH   1   7
ATOM      7  C1' I4B d   1      -0.269   0.136   0.514  0.00  0.00     0.060 C 
BRANCH   7   8
ATOM      8  C2' I4B d   1       0.373   1.398  -0.026  0.00  0.00    -0.013 C 
ATOM      9  C4' I4B d   1       1.700   1.100  -0.672  0.00  0.00     0.013 C 
ATOM     10  C3' I4B d   1      -0.578   2.020  -1.004  0.00  0.00     0.013 C 
ENDBRANCH   7   8
ENDBRANCH   1   7
TORSDOF 2
ENDMDL
