MODEL 1
REMARK minimizedAffinity -4.09043264
REMARK minimizedRMSD -1
REMARK  2 active torsions:
REMARK  status: ('A' for Active; 'I' for Inactive)
REMARK    1  A    between atoms: C2'_3  and  C1'_4 
REMARK    2  A    between atoms: C1'_4  and  C1_5 
ROOT
ATOM      1  C1  I4B d   1       0.453  -0.777   0.357  0.00  0.00    -0.075 A 
ATOM      2  C2  I4B d   1       0.727  -1.888  -0.401  0.00  0.00     0.003 A 
ATOM      3  C3  I4B d   1       1.869  -1.917  -1.238  0.00  0.00     0.002 A 
ATOM      4  C4  I4B d   1       2.675  -0.800  -1.325  0.00  0.00    -0.004 A 
ATOM      5  C5  I4B d   1       2.409   0.317  -0.539  0.00  0.00     0.002 A 
ATOM      6  C6  I4B d   1       1.298   0.325   0.317  0.00  0.00     0.003 A 
ENDROOT
BRANCH   1   7
ATOM      7  C1' I4B d   1      -0.779  -0.768   1.205  0.00  0.00     0.060 C 
BRANCH   7   8
ATOM      8  C2' I4B d   1      -1.417   0.601   1.089  0.00  0.00    -0.013 C 
ATOM      9  C4' I4B d   1      -2.263   0.705  -0.152  0.00  0.00     0.013 C 
ATOM     10  C3' I4B d   1      -2.234   0.838   2.324  0.00  0.00     0.013 C 
ENDBRANCH   7   8
ENDBRANCH   1   7
TORSDOF 2
ENDMDL
