MODEL 1
REMARK minimizedAffinity -5.26389122
REMARK minimizedRMSD -1
REMARK  0 active torsions:
REMARK  status: ('A' for Active; 'I' for Inactive)
ROOT
ATOM      1  C2' OXE d   1      -0.107  -0.463   2.596  0.00  0.00     0.078 C 
ATOM      2  C1' OXE d   1       2.061   0.461   1.070  0.00  0.00     0.078 C 
ATOM      3  C1  OXE d   1       0.708   0.401   0.406  0.00  0.00    -0.078 A 
ATOM      4  C2  OXE d   1      -0.338  -0.096   1.146  0.00  0.00    -0.078 A 
ATOM      5  C3  OXE d   1      -1.618  -0.122   0.600  0.00  0.00     0.003 A 
ATOM      6  C4  OXE d   1      -1.822   0.209  -0.745  0.00  0.00    -0.002 A 
ATOM      7  C5  OXE d   1      -0.763   0.680  -1.529  0.00  0.00    -0.002 A 
ATOM      8  C6  OXE d   1       0.497   0.822  -0.957  0.00  0.00     0.003 A 
ENDROOT
TORSDOF 0
ENDMDL
