MODEL 1
REMARK minimizedAffinity -3.30747461
REMARK minimizedRMSD -1
REMARK  0 active torsions:
REMARK  status: ('A' for Active; 'I' for Inactive)
ROOT
ATOM      1  C2' OXE d   1       0.175  -0.063  -1.097  0.00  0.00     0.078 C 
ATOM      2  C1' OXE d   1       2.021   0.828   0.822  0.00  0.00     0.078 C 
ATOM      3  C1  OXE d   1       0.728   0.229   1.315  0.00  0.00    -0.078 A 
ATOM      4  C2  OXE d   1      -0.190  -0.161   0.369  0.00  0.00    -0.078 A 
ATOM      5  C3  OXE d   1      -1.376  -0.769   0.769  0.00  0.00     0.003 A 
ATOM      6  C4  OXE d   1      -1.710  -0.847   2.126  0.00  0.00    -0.002 A 
ATOM      7  C5  OXE d   1      -0.807  -0.419   3.105  0.00  0.00    -0.002 A 
ATOM      8  C6  OXE d   1       0.431   0.081   2.718  0.00  0.00     0.003 A 
ENDROOT
TORSDOF 0
ENDMDL
