MODEL 1
REMARK minimizedAffinity -1.55073369
REMARK minimizedRMSD -1
REMARK  0 active torsions:
REMARK  status: ('A' for Active; 'I' for Inactive)
ROOT
ATOM      1  C2' OXE d   1      -0.169   0.109  -1.586  0.00  0.00     0.078 C 
ATOM      2  C1' OXE d   1      -2.330  -0.095   0.194  0.00  0.00     0.078 C 
ATOM      3  C1  OXE d   1      -0.944   0.010   0.779  0.00  0.00    -0.078 A 
ATOM      4  C2  OXE d   1       0.111   0.062  -0.100  0.00  0.00    -0.078 A 
ATOM      5  C3  OXE d   1       1.406   0.215   0.387  0.00  0.00     0.003 A 
ATOM      6  C4  OXE d   1       1.658   0.160   1.763  0.00  0.00    -0.002 A 
ATOM      7  C5  OXE d   1       0.601   0.067   2.675  0.00  0.00    -0.002 A 
ATOM      8  C6  OXE d   1      -0.706   0.034   2.202  0.00  0.00     0.003 A 
ENDROOT
TORSDOF 0
ENDMDL
