MODEL 1
REMARK minimizedAffinity -2.5008781
REMARK minimizedRMSD -1
REMARK  0 active torsions:
REMARK  status: ('A' for Active; 'I' for Inactive)
ROOT
ATOM      1  C2' OXE d   1       0.264  -0.130   1.979  0.00  0.00     0.078 C 
ATOM      2  C1' OXE d   1      -1.333   0.320  -0.286  0.00  0.00     0.078 C 
ATOM      3  C1  OXE d   1      -0.167  -0.628  -0.423  0.00  0.00    -0.078 A 
ATOM      4  C2  OXE d   1       0.636  -0.806   0.677  0.00  0.00    -0.078 A 
ATOM      5  C3  OXE d   1       1.692  -1.711   0.620  0.00  0.00     0.003 A 
ATOM      6  C4  OXE d   1       2.036  -2.324  -0.591  0.00  0.00    -0.002 A 
ATOM      7  C5  OXE d   1       1.254  -2.126  -1.734  0.00  0.00    -0.002 A 
ATOM      8  C6  OXE d   1       0.127  -1.316  -1.656  0.00  0.00     0.003 A 
ENDROOT
TORSDOF 0
ENDMDL
