MODEL 1
REMARK minimizedAffinity -3.91436291
REMARK minimizedRMSD -1
REMARK  0 active torsions:
REMARK  status: ('A' for Active; 'I' for Inactive)
ROOT
ATOM      1  C2' OXE d   1      -0.374  -0.760   2.622  0.00  0.00     0.078 C 
ATOM      2  C1' OXE d   1       1.794   0.292   1.183  0.00  0.00     0.078 C 
ATOM      3  C1  OXE d   1       0.439   0.306   0.522  0.00  0.00    -0.078 A 
ATOM      4  C2  OXE d   1      -0.608  -0.254   1.215  0.00  0.00    -0.078 A 
ATOM      5  C3  OXE d   1      -1.890  -0.218   0.674  0.00  0.00     0.003 A 
ATOM      6  C4  OXE d   1      -2.096   0.242  -0.632  0.00  0.00    -0.002 A 
ATOM      7  C5  OXE d   1      -1.036   0.780  -1.371  0.00  0.00    -0.002 A 
ATOM      8  C6  OXE d   1       0.226   0.858  -0.793  0.00  0.00     0.003 A 
ENDROOT
TORSDOF 0
ENDMDL
