MODEL 1
REMARK minimizedAffinity -3.12010837
REMARK minimizedRMSD -1
REMARK  0 active torsions:
REMARK  status: ('A' for Active; 'I' for Inactive)
ROOT
ATOM      1  C2' OXE d   1       0.477  -0.164  -1.180  0.00  0.00     0.078 C 
ATOM      2  C1' OXE d   1       2.515   0.186   0.719  0.00  0.00     0.078 C 
ATOM      3  C1  OXE d   1       1.111  -0.031   1.225  0.00  0.00    -0.078 A 
ATOM      4  C2  OXE d   1       0.113  -0.154   0.289  0.00  0.00    -0.078 A 
ATOM      5  C3  OXE d   1      -1.192  -0.410   0.701  0.00  0.00     0.003 A 
ATOM      6  C4  OXE d   1      -1.522  -0.389   2.062  0.00  0.00    -0.002 A 
ATOM      7  C5  OXE d   1      -0.527  -0.226   3.031  0.00  0.00    -0.002 A 
ATOM      8  C6  OXE d   1       0.798  -0.088   2.632  0.00  0.00     0.003 A 
ENDROOT
TORSDOF 0
ENDMDL
