MODEL 1
REMARK minimizedAffinity -4.36050272
REMARK minimizedRMSD -1
REMARK  0 active torsions:
REMARK  status: ('A' for Active; 'I' for Inactive)
ROOT
ATOM      1  C2' OXE d   1       0.063   0.108  -1.050  0.00  0.00     0.078 C 
ATOM      2  C1' OXE d   1       2.038   1.105   0.678  0.00  0.00     0.078 C 
ATOM      3  C1  OXE d   1       0.894   0.334   1.288  0.00  0.00    -0.078 A 
ATOM      4  C2  OXE d   1      -0.092  -0.110   0.440  0.00  0.00    -0.078 A 
ATOM      5  C3  OXE d   1      -1.142  -0.873   0.943  0.00  0.00     0.003 A 
ATOM      6  C4  OXE d   1      -1.283  -1.061   2.323  0.00  0.00    -0.002 A 
ATOM      7  C5  OXE d   1      -0.311  -0.583   3.208  0.00  0.00    -0.002 A 
ATOM      8  C6  OXE d   1       0.803   0.078   2.704  0.00  0.00     0.003 A 
ENDROOT
TORSDOF 0
ENDMDL
