MODEL 1
REMARK minimizedAffinity -5.07029104
REMARK minimizedRMSD -1
REMARK  0 active torsions:
REMARK  status: ('A' for Active; 'I' for Inactive)
ROOT
ATOM      1  C2' OXE d   1      -0.917  -0.974   2.602  0.00  0.00     0.078 C 
ATOM      2  C1' OXE d   1      -2.975  -0.712   0.711  0.00  0.00     0.078 C 
ATOM      3  C1  OXE d   1      -1.600  -0.226   0.326  0.00  0.00    -0.078 A 
ATOM      4  C2  OXE d   1      -0.609  -0.315   1.275  0.00  0.00    -0.078 A 
ATOM      5  C3  OXE d   1       0.690   0.068   0.953  0.00  0.00     0.003 A 
ATOM      6  C4  OXE d   1       0.963   0.686  -0.273  0.00  0.00    -0.002 A 
ATOM      7  C5  OXE d   1      -0.040   0.823  -1.238  0.00  0.00    -0.002 A 
ATOM      8  C6  OXE d   1      -1.314   0.334  -0.971  0.00  0.00     0.003 A 
ENDROOT
TORSDOF 0
ENDMDL
