MODEL 1
REMARK minimizedAffinity -4.06711912
REMARK minimizedRMSD -1
REMARK  0 active torsions:
REMARK  status: ('A' for Active; 'I' for Inactive)
ROOT
ATOM      1  C2' OXE d   1      -0.359  -0.808   2.935  0.00  0.00     0.078 C 
ATOM      2  C1' OXE d   1      -2.429  -0.882   1.040  0.00  0.00     0.078 C 
ATOM      3  C1  OXE d   1      -1.074  -0.403   0.583  0.00  0.00    -0.078 A 
ATOM      4  C2  OXE d   1      -0.079  -0.326   1.527  0.00  0.00    -0.078 A 
ATOM      5  C3  OXE d   1       1.204   0.056   1.147  0.00  0.00     0.003 A 
ATOM      6  C4  OXE d   1       1.452   0.510  -0.154  0.00  0.00    -0.002 A 
ATOM      7  C5  OXE d   1       0.443   0.478  -1.122  0.00  0.00    -0.002 A 
ATOM      8  C6  OXE d   1      -0.812  -0.015  -0.781  0.00  0.00     0.003 A 
ENDROOT
TORSDOF 0
ENDMDL
