MODEL 1
REMARK minimizedAffinity -4.21138477
REMARK minimizedRMSD -1
REMARK  0 active torsions:
REMARK  status: ('A' for Active; 'I' for Inactive)
ROOT
ATOM      1  C2' OXE d   1       1.958  -0.109   0.833  0.00  0.00     0.078 C 
ATOM      2  C1' OXE d   1      -0.032   0.088  -1.138  0.00  0.00     0.078 C 
ATOM      3  C1  OXE d   1      -0.473  -0.120   0.289  0.00  0.00    -0.078 A 
ATOM      4  C2  OXE d   1       0.508  -0.262   1.240  0.00  0.00    -0.078 A 
ATOM      5  C3  OXE d   1       0.155  -0.402   2.579  0.00  0.00     0.003 A 
ATOM      6  C4  OXE d   1      -1.188  -0.553   2.946  0.00  0.00    -0.002 A 
ATOM      7  C5  OXE d   1      -2.202  -0.451   1.987  0.00  0.00    -0.002 A 
ATOM      8  C6  OXE d   1      -1.864  -0.193   0.663  0.00  0.00     0.003 A 
ENDROOT
TORSDOF 0
ENDMDL
