MODEL 1
REMARK minimizedAffinity -1.92862439
REMARK minimizedRMSD -1
REMARK  0 active torsions:
REMARK  status: ('A' for Active; 'I' for Inactive)
ROOT
ATOM      1  C2' OXE d   1      -0.536  -0.907   3.209  0.00  0.00     0.078 C 
ATOM      2  C1' OXE d   1       1.754   0.469   2.347  0.00  0.00     0.078 C 
ATOM      3  C1  OXE d   1       0.537   0.504   1.458  0.00  0.00    -0.078 A 
ATOM      4  C2  OXE d   1      -0.565  -0.211   1.865  0.00  0.00    -0.078 A 
ATOM      5  C3  OXE d   1      -1.732  -0.167   1.109  0.00  0.00     0.003 A 
ATOM      6  C4  OXE d   1      -1.747   0.471  -0.137  0.00  0.00    -0.002 A 
ATOM      7  C5  OXE d   1      -0.623   1.171  -0.589  0.00  0.00    -0.002 A 
ATOM      8  C6  OXE d   1       0.510   1.233   0.214  0.00  0.00     0.003 A 
ENDROOT
TORSDOF 0
ENDMDL
