MODEL 1
REMARK minimizedAffinity -4.93925476
REMARK minimizedRMSD -1
REMARK  0 active torsions:
REMARK  status: ('A' for Active; 'I' for Inactive)
ROOT
ATOM      1  C2' OXE d   1      -3.192  -0.328   0.386  0.00  0.00     0.078 C 
ATOM      2  C1' OXE d   1      -1.096  -0.761   2.202  0.00  0.00     0.078 C 
ATOM      3  C1  OXE d   1      -0.739  -0.294   0.814  0.00  0.00    -0.078 A 
ATOM      4  C2  OXE d   1      -1.767  -0.129  -0.083  0.00  0.00    -0.078 A 
ATOM      5  C3  OXE d   1      -1.498   0.353  -1.360  0.00  0.00     0.003 A 
ATOM      6  C4  OXE d   1      -0.176   0.525  -1.789  0.00  0.00    -0.002 A 
ATOM      7  C5  OXE d   1       0.889   0.324  -0.904  0.00  0.00    -0.002 A 
ATOM      8  C6  OXE d   1       0.623  -0.043   0.410  0.00  0.00     0.003 A 
ENDROOT
TORSDOF 0
ENDMDL
