MODEL 1
REMARK minimizedAffinity -4.09600639
REMARK minimizedRMSD -1
REMARK  0 active torsions:
REMARK  status: ('A' for Active; 'I' for Inactive)
ROOT
ATOM      1  C2' OXE d   1      -2.787  -0.594   1.080  0.00  0.00     0.078 C 
ATOM      2  C1' OXE d   1      -0.783  -1.150   2.965  0.00  0.00     0.078 C 
ATOM      3  C1  OXE d   1      -0.373  -0.474   1.681  0.00  0.00    -0.078 A 
ATOM      4  C2  OXE d   1      -1.353  -0.248   0.745  0.00  0.00    -0.078 A 
ATOM      5  C3  OXE d   1      -1.038   0.422  -0.434  0.00  0.00     0.003 A 
ATOM      6  C4  OXE d   1       0.293   0.730  -0.741  0.00  0.00    -0.002 A 
ATOM      7  C5  OXE d   1       1.312   0.473   0.182  0.00  0.00    -0.002 A 
ATOM      8  C6  OXE d   1       0.991  -0.089   1.413  0.00  0.00     0.003 A 
ENDROOT
TORSDOF 0
ENDMDL
