MODEL 1
REMARK minimizedAffinity -4.84308958
REMARK minimizedRMSD -1
REMARK  0 active torsions:
REMARK  status: ('A' for Active; 'I' for Inactive)
ROOT
ATOM      1  C2' OXE d   1      -0.384  -0.902   2.732  0.00  0.00     0.078 C 
ATOM      2  C1' OXE d   1      -2.141  -0.814   0.544  0.00  0.00     0.078 C 
ATOM      3  C1  OXE d   1      -0.821  -0.096   0.415  0.00  0.00    -0.078 A 
ATOM      4  C2  OXE d   1       0.013  -0.105   1.508  0.00  0.00    -0.078 A 
ATOM      5  C3  OXE d   1       1.266   0.495   1.423  0.00  0.00     0.003 A 
ATOM      6  C4  OXE d   1       1.620   1.239   0.291  0.00  0.00    -0.002 A 
ATOM      7  C5  OXE d   1       0.769   1.294  -0.817  0.00  0.00    -0.002 A 
ATOM      8  C6  OXE d   1      -0.435   0.598  -0.788  0.00  0.00     0.003 A 
ENDROOT
TORSDOF 0
ENDMDL
