MODEL 1
REMARK minimizedAffinity -3.27086663
REMARK minimizedRMSD -1
REMARK  0 active torsions:
REMARK  status: ('A' for Active; 'I' for Inactive)
ROOT
ATOM      1  C2' OXE d   1      -2.023   0.305  -1.092  0.00  0.00     0.078 C 
ATOM      2  C1' OXE d   1       0.671   1.094  -1.057  0.00  0.00     0.078 C 
ATOM      3  C1  OXE d   1       0.133   0.374   0.154  0.00  0.00    -0.078 A 
ATOM      4  C2  OXE d   1      -1.198   0.033   0.148  0.00  0.00    -0.078 A 
ATOM      5  C3  OXE d   1      -1.732  -0.680   1.217  0.00  0.00     0.003 A 
ATOM      6  C4  OXE d   1      -0.966  -0.918   2.364  0.00  0.00    -0.002 A 
ATOM      7  C5  OXE d   1       0.382  -0.544   2.408  0.00  0.00    -0.002 A 
ATOM      8  C6  OXE d   1       0.956   0.064   1.297  0.00  0.00     0.003 A 
ENDROOT
TORSDOF 0
ENDMDL
