MODEL 1
REMARK minimizedAffinity -3.87369561
REMARK minimizedRMSD -1
REMARK  0 active torsions:
REMARK  status: ('A' for Active; 'I' for Inactive)
ROOT
ATOM      1  C2' OXE d   1       0.319  -0.987  -0.674  0.00  0.00     0.078 C 
ATOM      2  C1' OXE d   1       1.824   1.022   0.581  0.00  0.00     0.078 C 
ATOM      3  C1  OXE d   1       0.777   0.312   1.402  0.00  0.00    -0.078 A 
ATOM      4  C2  OXE d   1       0.013  -0.638   0.767  0.00  0.00    -0.078 A 
ATOM      5  C3  OXE d   1      -0.930  -1.362   1.491  0.00  0.00     0.003 A 
ATOM      6  C4  OXE d   1      -1.213  -1.026   2.821  0.00  0.00    -0.002 A 
ATOM      7  C5  OXE d   1      -0.474  -0.034   3.475  0.00  0.00    -0.002 A 
ATOM      8  C6  OXE d   1       0.551   0.613   2.794  0.00  0.00     0.003 A 
ENDROOT
TORSDOF 0
ENDMDL
