MODEL 1
REMARK minimizedAffinity -3.88884234
REMARK minimizedRMSD -1
REMARK  0 active torsions:
REMARK  status: ('A' for Active; 'I' for Inactive)
ROOT
ATOM      1  C2' OXE d   1       0.747  -0.434  -0.999  0.00  0.00     0.078 C 
ATOM      2  C1' OXE d   1       1.924   1.323   0.847  0.00  0.00     0.078 C 
ATOM      3  C1  OXE d   1       0.842   0.398   1.347  0.00  0.00    -0.078 A 
ATOM      4  C2  OXE d   1       0.240  -0.426   0.426  0.00  0.00    -0.078 A 
ATOM      5  C3  OXE d   1      -0.725  -1.338   0.845  0.00  0.00     0.003 A 
ATOM      6  C4  OXE d   1      -1.196  -1.317   2.163  0.00  0.00    -0.002 A 
ATOM      7  C5  OXE d   1      -0.624  -0.458   3.108  0.00  0.00    -0.002 A 
ATOM      8  C6  OXE d   1       0.423   0.374   2.726  0.00  0.00     0.003 A 
ENDROOT
TORSDOF 0
ENDMDL
