MODEL 1
REMARK minimizedAffinity -3.21357179
REMARK minimizedRMSD -1
REMARK  0 active torsions:
REMARK  status: ('A' for Active; 'I' for Inactive)
ROOT
ATOM      1  C2' OXE d   1       0.421   0.779   3.069  0.00  0.00     0.078 C 
ATOM      2  C1' OXE d   1      -1.114  -1.476   2.405  0.00  0.00     0.078 C 
ATOM      3  C1  OXE d   1      -0.434  -0.733   1.283  0.00  0.00    -0.078 A 
ATOM      4  C2  OXE d   1       0.277   0.396   1.611  0.00  0.00    -0.078 A 
ATOM      5  C3  OXE d   1       0.970   1.087   0.621  0.00  0.00     0.003 A 
ATOM      6  C4  OXE d   1       0.824   0.732  -0.725  0.00  0.00    -0.002 A 
ATOM      7  C5  OXE d   1       0.072  -0.391  -1.086  0.00  0.00    -0.002 A 
ATOM      8  C6  OXE d   1      -0.527  -1.158  -0.092  0.00  0.00     0.003 A 
ENDROOT
TORSDOF 0
ENDMDL
