MODEL 1
REMARK minimizedAffinity -0.331291199
REMARK minimizedRMSD -1
REMARK  0 active torsions:
REMARK  status: ('A' for Active; 'I' for Inactive)
ROOT
ATOM      1  C2' OXE d   1       1.703   0.292   1.158  0.00  0.00     0.078 C 
ATOM      2  C1' OXE d   1      -0.358   0.316   3.064  0.00  0.00     0.078 C 
ATOM      3  C1  OXE d   1      -0.747   0.330   1.606  0.00  0.00    -0.078 A 
ATOM      4  C2  OXE d   1       0.268   0.366   0.681  0.00  0.00    -0.078 A 
ATOM      5  C3  OXE d   1      -0.035   0.325  -0.677  0.00  0.00     0.003 A 
ATOM      6  C4  OXE d   1      -1.364   0.403  -1.109  0.00  0.00    -0.002 A 
ATOM      7  C5  OXE d   1      -2.413   0.408  -0.183  0.00  0.00    -0.002 A 
ATOM      8  C6  OXE d   1      -2.123   0.329   1.175  0.00  0.00     0.003 A 
ENDROOT
TORSDOF 0
ENDMDL
