MODEL 1
REMARK minimizedAffinity -6.16558456
REMARK minimizedRMSD -1
REMARK  0 active torsions:
REMARK  status: ('A' for Active; 'I' for Inactive)
ROOT
ATOM      1  C1  DEN d   1       0.710   0.129   0.309  0.00  0.00     0.130 A 
ATOM      2  C2  DEN d   1       1.594   0.011   1.466  0.00  0.00    -0.031 A 
ATOM      3  C3  DEN d   1       0.754  -0.025   2.680  0.00  0.00     0.027 A 
ATOM      4  C4  DEN d   1      -1.815   0.085   2.881  0.00  0.00     0.027 A 
ATOM      5  C5  DEN d   1      -2.992   0.200   2.175  0.00  0.00    -0.003 A 
ATOM      6  C6  DEN d   1      -3.016   0.332   0.812  0.00  0.00     0.001 A 
ATOM      7  C7  DEN d   1      -1.842   0.308   0.106  0.00  0.00     0.017 A 
ATOM      8  C8  DEN d   1      -0.650   0.200   0.812  0.00  0.00    -0.094 A 
ATOM      9  C9  DEN d   1      -0.648   0.055   2.189  0.00  0.00    -0.072 A 
ENDROOT
TORSDOF 0
ENDMDL
