MODEL 1
REMARK minimizedAffinity -3.2637217
REMARK minimizedRMSD -1
REMARK  0 active torsions:
REMARK  status: ('A' for Active; 'I' for Inactive)
ROOT
ATOM      1  C1  DEN d   1      -2.630   0.366   2.614  0.00  0.00     0.130 A 
ATOM      2  C2  DEN d   1      -3.284   0.409   1.309  0.00  0.00    -0.031 A 
ATOM      3  C3  DEN d   1      -2.238   0.322   0.271  0.00  0.00     0.027 A 
ATOM      4  C4  DEN d   1       0.318   0.120   0.556  0.00  0.00     0.027 A 
ATOM      5  C5  DEN d   1       1.343   0.057   1.474  0.00  0.00    -0.003 A 
ATOM      6  C6  DEN d   1       1.121   0.126   2.824  0.00  0.00     0.001 A 
ATOM      7  C7  DEN d   1      -0.162   0.217   3.296  0.00  0.00     0.017 A 
ATOM      8  C8  DEN d   1      -1.200   0.289   2.377  0.00  0.00    -0.094 A 
ATOM      9  C9  DEN d   1      -0.956   0.205   1.017  0.00  0.00    -0.072 A 
ENDROOT
TORSDOF 0
ENDMDL
