MODEL 1
REMARK minimizedAffinity -4.62797451
REMARK minimizedRMSD -1
REMARK  0 active torsions:
REMARK  status: ('A' for Active; 'I' for Inactive)
ROOT
ATOM      1  C1  DEN d   1      -1.022   0.440  -0.526  0.00  0.00     0.130 A 
ATOM      2  C2  DEN d   1      -0.013   0.731  -1.540  0.00  0.00    -0.031 A 
ATOM      3  C3  DEN d   1       1.313   0.685  -0.890  0.00  0.00     0.027 A 
ATOM      4  C4  DEN d   1       1.897   0.189   1.572  0.00  0.00     0.027 A 
ATOM      5  C5  DEN d   1       1.375  -0.106   2.812  0.00  0.00    -0.003 A 
ATOM      6  C6  DEN d   1       0.026  -0.205   3.032  0.00  0.00     0.001 A 
ATOM      7  C7  DEN d   1      -0.845  -0.052   1.986  0.00  0.00     0.017 A 
ATOM      8  C8  DEN d   1      -0.326   0.252   0.734  0.00  0.00    -0.094 A 
ATOM      9  C9  DEN d   1       1.040   0.336   0.530  0.00  0.00    -0.072 A 
ENDROOT
TORSDOF 0
ENDMDL
