MODEL 1
REMARK minimizedAffinity -5.28990889
REMARK minimizedRMSD -1
REMARK  0 active torsions:
REMARK  status: ('A' for Active; 'I' for Inactive)
ROOT
ATOM      1  C1  DEN d   1       1.524   1.564   0.583  0.00  0.00     0.130 A 
ATOM      2  C2  DEN d   1       2.694   1.437   1.446  0.00  0.00    -0.031 A 
ATOM      3  C3  DEN d   1       2.438   0.343   2.405  0.00  0.00     0.027 A 
ATOM      4  C4  DEN d   1       0.354  -1.160   2.632  0.00  0.00     0.027 A 
ATOM      5  C5  DEN d   1      -0.902  -1.421   2.130  0.00  0.00    -0.003 A 
ATOM      6  C6  DEN d   1      -1.447  -0.689   1.109  0.00  0.00     0.001 A 
ATOM      7  C7  DEN d   1      -0.715   0.311   0.525  0.00  0.00     0.017 A 
ATOM      8  C8  DEN d   1       0.549   0.585   1.030  0.00  0.00    -0.094 A 
ATOM      9  C9  DEN d   1       1.087  -0.174   2.056  0.00  0.00    -0.072 A 
ENDROOT
TORSDOF 0
ENDMDL
