MODEL 1
REMARK minimizedAffinity -4.89598179
REMARK minimizedRMSD -1
REMARK  0 active torsions:
REMARK  status: ('A' for Active; 'I' for Inactive)
ROOT
ATOM      1  C1  DEN d   1      -2.372   0.983  -0.170  0.00  0.00     0.130 A 
ATOM      2  C2  DEN d   1      -3.140   1.173   1.057  0.00  0.00    -0.031 A 
ATOM      3  C3  DEN d   1      -2.201   1.121   2.196  0.00  0.00     0.027 A 
ATOM      4  C4  DEN d   1       0.354   0.770   2.177  0.00  0.00     0.027 A 
ATOM      5  C5  DEN d   1       1.451   0.552   1.373  0.00  0.00    -0.003 A 
ATOM      6  C6  DEN d   1       1.347   0.429   0.013  0.00  0.00     0.001 A 
ATOM      7  C7  DEN d   1       0.125   0.569  -0.590  0.00  0.00     0.017 A 
ATOM      8  C8  DEN d   1      -0.987   0.782   0.215  0.00  0.00    -0.094 A 
ATOM      9  C9  DEN d   1      -0.859   0.915   1.587  0.00  0.00    -0.072 A 
ENDROOT
TORSDOF 0
ENDMDL
