MODEL 1
REMARK minimizedAffinity -0.486015886
REMARK minimizedRMSD -1
REMARK  0 active torsions:
REMARK  status: ('A' for Active; 'I' for Inactive)
ROOT
ATOM      1  C1  DEN d   1      -0.544  -0.415  -1.180  0.00  0.00     0.130 A 
ATOM      2  C2  DEN d   1       0.596  -0.364  -2.091  0.00  0.00    -0.031 A 
ATOM      3  C3  DEN d   1       1.792  -0.001  -1.306  0.00  0.00     0.027 A 
ATOM      4  C4  DEN d   1       1.991   0.480   1.220  0.00  0.00     0.027 A 
ATOM      5  C5  DEN d   1       1.292   0.571   2.404  0.00  0.00    -0.003 A 
ATOM      6  C6  DEN d   1      -0.062   0.374   2.470  0.00  0.00     0.001 A 
ATOM      7  C7  DEN d   1      -0.754   0.033   1.338  0.00  0.00     0.017 A 
ATOM      8  C8  DEN d   1      -0.058  -0.054   0.139  0.00  0.00    -0.094 A 
ATOM      9  C9  DEN d   1       1.313   0.136   0.096  0.00  0.00    -0.072 A 
ENDROOT
TORSDOF 0
ENDMDL
