MODEL 1
REMARK minimizedAffinity -3.14466262
REMARK minimizedRMSD -1
REMARK  0 active torsions:
REMARK  status: ('A' for Active; 'I' for Inactive)
ROOT
ATOM      1  C1  DEN d   1      -2.252   0.392   1.964  0.00  0.00     0.130 A 
ATOM      2  C2  DEN d   1      -1.749   0.416   3.334  0.00  0.00    -0.031 A 
ATOM      3  C3  DEN d   1      -0.274   0.476   3.278  0.00  0.00     0.027 A 
ATOM      4  C4  DEN d   1       1.270   0.539   1.213  0.00  0.00     0.027 A 
ATOM      5  C5  DEN d   1       1.304   0.526  -0.164  0.00  0.00    -0.003 A 
ATOM      6  C6  DEN d   1       0.167   0.434  -0.921  0.00  0.00     0.001 A 
ATOM      7  C7  DEN d   1      -1.057   0.397  -0.307  0.00  0.00     0.017 A 
ATOM      8  C8  DEN d   1      -1.099   0.402   1.081  0.00  0.00    -0.094 A 
ATOM      9  C9  DEN d   1       0.061   0.508   1.829  0.00  0.00    -0.072 A 
ENDROOT
TORSDOF 0
ENDMDL
