MODEL 1
REMARK minimizedAffinity -6.35580444
REMARK minimizedRMSD -1
REMARK  0 active torsions:
REMARK  status: ('A' for Active; 'I' for Inactive)
ROOT
ATOM      1  C1  DEN d   1      -1.881   0.105   2.793  0.00  0.00     0.130 A 
ATOM      2  C2  DEN d   1      -2.906   0.320   1.775  0.00  0.00    -0.031 A 
ATOM      3  C3  DEN d   1      -2.228   0.487   0.474  0.00  0.00     0.027 A 
ATOM      4  C4  DEN d   1       0.294   0.427  -0.062  0.00  0.00     0.027 A 
ATOM      5  C5  DEN d   1       1.553   0.284   0.478  0.00  0.00    -0.003 A 
ATOM      6  C6  DEN d   1       1.756   0.107   1.821  0.00  0.00     0.001 A 
ATOM      7  C7  DEN d   1       0.680   0.023   2.665  0.00  0.00     0.017 A 
ATOM      8  C8  DEN d   1      -0.592   0.173   2.129  0.00  0.00    -0.094 A 
ATOM      9  C9  DEN d   1      -0.777   0.339   0.767  0.00  0.00    -0.072 A 
ENDROOT
TORSDOF 0
ENDMDL
