MODEL 1
REMARK minimizedAffinity -3.17190504
REMARK minimizedRMSD -1
REMARK  0 active torsions:
REMARK  status: ('A' for Active; 'I' for Inactive)
ROOT
ATOM      1  C1  DEN d   1       0.465   1.104  -1.741  0.00  0.00     0.130 A 
ATOM      2  C2  DEN d   1      -0.933   1.039  -2.156  0.00  0.00    -0.031 A 
ATOM      3  C3  DEN d   1      -1.054  -0.007  -3.191  0.00  0.00     0.027 A 
ATOM      4  C4  DEN d   1       0.778  -1.529  -4.182  0.00  0.00     0.027 A 
ATOM      5  C5  DEN d   1       2.121  -1.834  -4.152  0.00  0.00    -0.003 A 
ATOM      6  C6  DEN d   1       3.004  -1.164  -3.348  0.00  0.00     0.001 A 
ATOM      7  C7  DEN d   1       2.548  -0.184  -2.507  0.00  0.00     0.017 A 
ATOM      8  C8  DEN d   1       1.197   0.135  -2.537  0.00  0.00    -0.094 A 
ATOM      9  C9  DEN d   1       0.317  -0.563  -3.348  0.00  0.00    -0.072 A 
ENDROOT
TORSDOF 0
ENDMDL
