MODEL 1
REMARK minimizedAffinity -6.63079071
REMARK minimizedRMSD -1
REMARK  0 active torsions:
REMARK  status: ('A' for Active; 'I' for Inactive)
ROOT
ATOM      1  C1  DEN d   1      -3.043   0.334   1.564  0.00  0.00     0.130 A 
ATOM      2  C2  DEN d   1      -3.232   0.621   0.145  0.00  0.00    -0.031 A 
ATOM      3  C3  DEN d   1      -1.935   0.435  -0.535  0.00  0.00     0.027 A 
ATOM      4  C4  DEN d   1       0.336  -0.270   0.465  0.00  0.00     0.027 A 
ATOM      5  C5  DEN d   1       0.993  -0.611   1.626  0.00  0.00    -0.003 A 
ATOM      6  C6  DEN d   1       0.365  -0.628   2.843  0.00  0.00     0.001 A 
ATOM      7  C7  DEN d   1      -0.972  -0.341   2.921  0.00  0.00     0.017 A 
ATOM      8  C8  DEN d   1      -1.640   0.011   1.755  0.00  0.00    -0.094 A 
ATOM      9  C9  DEN d   1      -0.990   0.010   0.533  0.00  0.00    -0.072 A 
ENDROOT
TORSDOF 0
ENDMDL
