MODEL 1
REMARK minimizedAffinity -6.02185202
REMARK minimizedRMSD -1
REMARK  0 active torsions:
REMARK  status: ('A' for Active; 'I' for Inactive)
ROOT
ATOM      1  C1  DEN d   1      -0.708  -0.051  -0.571  0.00  0.00     0.130 A 
ATOM      2  C2  DEN d   1       0.743   0.115  -0.538  0.00  0.00    -0.031 A 
ATOM      3  C3  DEN d   1       1.176   0.066   0.873  0.00  0.00     0.027 A 
ATOM      4  C4  DEN d   1      -0.251  -0.256   2.997  0.00  0.00     0.027 A 
ATOM      5  C5  DEN d   1      -1.532  -0.428   3.474  0.00  0.00    -0.003 A 
ATOM      6  C6  DEN d   1      -2.622  -0.452   2.646  0.00  0.00     0.001 A 
ATOM      7  C7  DEN d   1      -2.448  -0.347   1.291  0.00  0.00     0.017 A 
ATOM      8  C8  DEN d   1      -1.160  -0.166   0.803  0.00  0.00    -0.094 A 
ATOM      9  C9  DEN d   1      -0.070  -0.157   1.656  0.00  0.00    -0.072 A 
ENDROOT
TORSDOF 0
ENDMDL
