MODEL 1
REMARK minimizedAffinity 8.93051147
REMARK minimizedRMSD -1
REMARK  0 active torsions:
REMARK  status: ('A' for Active; 'I' for Inactive)
ROOT
ATOM      1  C1  DEN d   1      -1.192   0.514  -0.002  0.00  0.00     0.130 A 
ATOM      2  C2  DEN d   1      -0.484   0.116  -1.216  0.00  0.00    -0.031 A 
ATOM      3  C3  DEN d   1       0.963   0.289  -0.978  0.00  0.00     0.027 A 
ATOM      4  C4  DEN d   1       2.171   1.124   1.142  0.00  0.00     0.027 A 
ATOM      5  C5  DEN d   1       1.992   1.590   2.426  0.00  0.00    -0.003 A 
ATOM      6  C6  DEN d   1       0.748   1.761   2.974  0.00  0.00     0.001 A 
ATOM      7  C7  DEN d   1      -0.365   1.421   2.251  0.00  0.00     0.017 A 
ATOM      8  C8  DEN d   1      -0.193   0.957   0.953  0.00  0.00    -0.094 A 
ATOM      9  C9  DEN d   1       1.073   0.780   0.422  0.00  0.00    -0.072 A 
ENDROOT
TORSDOF 0
ENDMDL
