MODEL 1
REMARK minimizedAffinity 1.43789339
REMARK minimizedRMSD -1
REMARK  0 active torsions:
REMARK  status: ('A' for Active; 'I' for Inactive)
ROOT
ATOM      1  C1  DEN d   1       1.317   1.476   0.587  0.00  0.00     0.130 A 
ATOM      2  C2  DEN d   1       1.979   0.395   1.313  0.00  0.00    -0.031 A 
ATOM      3  C3  DEN d   1       1.234  -0.853   1.054  0.00  0.00     0.027 A 
ATOM      4  C4  DEN d   1      -0.867  -1.217  -0.397  0.00  0.00     0.027 A 
ATOM      5  C5  DEN d   1      -1.798  -0.596  -1.200  0.00  0.00    -0.003 A 
ATOM      6  C6  DEN d   1      -1.776   0.754  -1.435  0.00  0.00     0.001 A 
ATOM      7  C7  DEN d   1      -0.777   1.520  -0.896  0.00  0.00     0.017 A 
ATOM      8  C8  DEN d   1       0.161   0.902  -0.079  0.00  0.00    -0.094 A 
ATOM      9  C9  DEN d   1       0.129  -0.465   0.136  0.00  0.00    -0.072 A 
ENDROOT
TORSDOF 0
ENDMDL
