MODEL 1
REMARK minimizedAffinity -5.58726978
REMARK minimizedRMSD -1
REMARK  0 active torsions:
REMARK  status: ('A' for Active; 'I' for Inactive)
ROOT
ATOM      1  C1  DEN d   1      -0.251  -0.109  -0.659  0.00  0.00     0.130 A 
ATOM      2  C2  DEN d   1       0.993   0.654  -0.661  0.00  0.00    -0.031 A 
ATOM      3  C3  DEN d   1       1.394   0.879   0.743  0.00  0.00     0.027 A 
ATOM      4  C4  DEN d   1       0.216   0.117   2.907  0.00  0.00     0.027 A 
ATOM      5  C5  DEN d   1      -0.877  -0.549   3.416  0.00  0.00    -0.003 A 
ATOM      6  C6  DEN d   1      -1.848  -1.081   2.609  0.00  0.00     0.001 A 
ATOM      7  C7  DEN d   1      -1.722  -0.996   1.248  0.00  0.00     0.017 A 
ATOM      8  C8  DEN d   1      -0.626  -0.319   0.728  0.00  0.00    -0.094 A 
ATOM      9  C9  DEN d   1       0.351   0.201   1.560  0.00  0.00    -0.072 A 
ENDROOT
TORSDOF 0
ENDMDL
