MODEL 1
REMARK minimizedAffinity -5.96457386
REMARK minimizedRMSD -1
REMARK  0 active torsions:
REMARK  status: ('A' for Active; 'I' for Inactive)
ROOT
ATOM      1  C1  DEN d   1      -0.596  -1.263   2.172  0.00  0.00     0.130 A 
ATOM      2  C2  DEN d   1      -0.225  -0.507   3.364  0.00  0.00    -0.031 A 
ATOM      3  C3  DEN d   1       0.574   0.659   2.935  0.00  0.00     0.027 A 
ATOM      4  C4  DEN d   1       1.264   1.364   0.552  0.00  0.00     0.027 A 
ATOM      5  C5  DEN d   1       1.194   1.029  -0.782  0.00  0.00    -0.003 A 
ATOM      6  C6  DEN d   1       0.557  -0.102  -1.219  0.00  0.00     0.001 A 
ATOM      7  C7  DEN d   1      -0.075  -0.916  -0.316  0.00  0.00     0.017 A 
ATOM      8  C8  DEN d   1      -0.003  -0.589   1.031  0.00  0.00    -0.094 A 
ATOM      9  C9  DEN d   1       0.636   0.565   1.452  0.00  0.00    -0.072 A 
ENDROOT
TORSDOF 0
ENDMDL
