MODEL 1
REMARK minimizedAffinity 3.70549226
REMARK minimizedRMSD -1
REMARK  0 active torsions:
REMARK  status: ('A' for Active; 'I' for Inactive)
ROOT
ATOM      1  C1  DEN d   1       2.296  -1.264   0.407  0.00  0.00     0.130 A 
ATOM      2  C2  DEN d   1       1.913  -1.066  -0.988  0.00  0.00    -0.031 A 
ATOM      3  C3  DEN d   1       1.066   0.141  -1.062  0.00  0.00     0.027 A 
ATOM      4  C4  DEN d   1       0.319   1.718   0.838  0.00  0.00     0.027 A 
ATOM      5  C5  DEN d   1       0.384   1.951   2.194  0.00  0.00    -0.003 A 
ATOM      6  C6  DEN d   1       1.057   1.117   3.047  0.00  0.00     0.001 A 
ATOM      7  C7  DEN d   1       1.730   0.034   2.546  0.00  0.00     0.017 A 
ATOM      8  C8  DEN d   1       1.663  -0.212   1.181  0.00  0.00    -0.094 A 
ATOM      9  C9  DEN d   1       0.988   0.650   0.334  0.00  0.00    -0.072 A 
ENDROOT
TORSDOF 0
ENDMDL
