MODEL 1
REMARK minimizedAffinity -4.64925528
REMARK minimizedRMSD -1
REMARK  0 active torsions:
REMARK  status: ('A' for Active; 'I' for Inactive)
ROOT
ATOM      1  C1  DEN d   1      -0.245   0.081  -0.554  0.00  0.00     0.130 A 
ATOM      2  C2  DEN d   1       0.948   0.923  -0.524  0.00  0.00    -0.031 A 
ATOM      3  C3  DEN d   1       1.357   1.085   0.886  0.00  0.00     0.027 A 
ATOM      4  C4  DEN d   1       0.268   0.114   3.013  0.00  0.00     0.027 A 
ATOM      5  C5  DEN d   1      -0.772  -0.652   3.492  0.00  0.00    -0.003 A 
ATOM      6  C6  DEN d   1      -1.720  -1.195   2.666  0.00  0.00     0.001 A 
ATOM      7  C7  DEN d   1      -1.623  -1.017   1.311  0.00  0.00     0.017 A 
ATOM      8  C8  DEN d   1      -0.582  -0.239   0.821  0.00  0.00    -0.094 A 
ATOM      9  C9  DEN d   1       0.374   0.291   1.671  0.00  0.00    -0.072 A 
ENDROOT
TORSDOF 0
ENDMDL
