MODEL 1
REMARK minimizedAffinity -3.77437043
REMARK minimizedRMSD -1
REMARK  0 active torsions:
REMARK  status: ('A' for Active; 'I' for Inactive)
ROOT
ATOM      1  C1  DEN d   1      -0.802  -0.971  -0.490  0.00  0.00     0.130 A 
ATOM      2  C2  DEN d   1       0.119  -0.509  -1.524  0.00  0.00    -0.031 A 
ATOM      3  C3  DEN d   1       1.066   0.438  -0.901  0.00  0.00     0.027 A 
ATOM      4  C4  DEN d   1       1.196   1.225   1.552  0.00  0.00     0.027 A 
ATOM      5  C5  DEN d   1       0.618   1.116   2.797  0.00  0.00    -0.003 A 
ATOM      6  C6  DEN d   1      -0.485   0.338   3.025  0.00  0.00     0.001 A 
ATOM      7  C7  DEN d   1      -1.019  -0.400   2.001  0.00  0.00     0.017 A 
ATOM      8  C8  DEN d   1      -0.446  -0.290   0.741  0.00  0.00    -0.094 A 
ATOM      9  C9  DEN d   1       0.676   0.493   0.534  0.00  0.00    -0.072 A 
ENDROOT
TORSDOF 0
ENDMDL
