MODEL 1
REMARK minimizedAffinity 9.75613976
REMARK minimizedRMSD -1
REMARK  0 active torsions:
REMARK  status: ('A' for Active; 'I' for Inactive)
ROOT
ATOM      1  C2' OXE d   1       2.065   3.439  -4.568  0.00  0.00     0.078 C 
ATOM      2  C1' OXE d   1       1.957   5.943  -5.834  0.00  0.00     0.078 C 
ATOM      3  C1  OXE d   1       3.316   5.338  -5.586  0.00  0.00    -0.078 A 
ATOM      4  C2  OXE d   1       3.362   4.135  -4.925  0.00  0.00    -0.078 A 
ATOM      5  C3  OXE d   1       4.587   3.507  -4.719  0.00  0.00     0.003 A 
ATOM      6  C4  OXE d   1       5.782   4.161  -5.043  0.00  0.00    -0.002 A 
ATOM      7  C5  OXE d   1       5.759   5.405  -5.681  0.00  0.00    -0.002 A 
ATOM      8  C6  OXE d   1       4.536   5.987  -5.998  0.00  0.00     0.003 A 
ENDROOT
TORSDOF 0
ENDMDL
