MODEL 1
REMARK minimizedAffinity 0.602649212
REMARK minimizedRMSD -1
REMARK  0 active torsions:
REMARK  status: ('A' for Active; 'I' for Inactive)
ROOT
ATOM      1  C2' OXE d   1      -2.100   5.994  -4.193  0.00  0.00     0.078 C 
ATOM      2  C1' OXE d   1      -0.334   5.947  -2.011  0.00  0.00     0.078 C 
ATOM      3  C1  OXE d   1       0.261   5.956  -3.397  0.00  0.00    -0.078 A 
ATOM      4  C2  OXE d   1      -0.611   5.932  -4.459  0.00  0.00    -0.078 A 
ATOM      5  C3  OXE d   1      -0.117   5.996  -5.759  0.00  0.00     0.003 A 
ATOM      6  C4  OXE d   1       1.261   5.928  -5.997  0.00  0.00    -0.002 A 
ATOM      7  C5  OXE d   1       2.166   5.912  -4.930  0.00  0.00    -0.002 A 
ATOM      8  C6  OXE d   1       1.684   5.968  -3.627  0.00  0.00     0.003 A 
ENDROOT
TORSDOF 0
ENDMDL
