MODEL 1
REMARK minimizedAffinity -2.89212942
REMARK minimizedRMSD -1
REMARK  0 active torsions:
REMARK  status: ('A' for Active; 'I' for Inactive)
ROOT
ATOM      1  C2' OXE d   1      -0.704   5.633  -1.873  0.00  0.00     0.078 C 
ATOM      2  C1' OXE d   1      -2.625   5.999  -3.886  0.00  0.00     0.078 C 
ATOM      3  C1  OXE d   1      -1.177   5.920  -4.301  0.00  0.00    -0.078 A 
ATOM      4  C2  OXE d   1      -0.240   5.788  -3.305  0.00  0.00    -0.078 A 
ATOM      5  C3  OXE d   1       1.105   5.655  -3.637  0.00  0.00     0.003 A 
ATOM      6  C4  OXE d   1       1.526   5.810  -4.963  0.00  0.00    -0.002 A 
ATOM      7  C5  OXE d   1       0.591   5.985  -5.989  0.00  0.00    -0.002 A 
ATOM      8  C6  OXE d   1      -0.764   6.000  -5.681  0.00  0.00     0.003 A 
ENDROOT
TORSDOF 0
ENDMDL
