MODEL 1
REMARK minimizedAffinity -0.678376138
REMARK minimizedRMSD -1
REMARK  0 active torsions:
REMARK  status: ('A' for Active; 'I' for Inactive)
ROOT
ATOM      1  C2' OXE d   1      -0.855   5.935  -2.254  0.00  0.00     0.078 C 
ATOM      2  C1' OXE d   1      -2.288   5.949  -4.668  0.00  0.00     0.078 C 
ATOM      3  C1  OXE d   1      -0.782   5.951  -4.744  0.00  0.00    -0.078 A 
ATOM      4  C2  OXE d   1      -0.089   5.990  -3.558  0.00  0.00    -0.078 A 
ATOM      5  C3  OXE d   1       1.302   5.938  -3.570  0.00  0.00     0.003 A 
ATOM      6  C4  OXE d   1       2.003   6.000  -4.780  0.00  0.00    -0.002 A 
ATOM      7  C5  OXE d   1       1.317   6.000  -5.999  0.00  0.00    -0.002 A 
ATOM      8  C6  OXE d   1      -0.072   5.933  -5.999  0.00  0.00     0.003 A 
ENDROOT
TORSDOF 0
ENDMDL
