MODEL 1
REMARK minimizedAffinity 3.1033473
REMARK minimizedRMSD -1
REMARK  0 active torsions:
REMARK  status: ('A' for Active; 'I' for Inactive)
ROOT
ATOM      1  C2' OXE d   1       5.998   3.646  -4.125  0.00  0.00     0.078 C 
ATOM      2  C1' OXE d   1       5.977   5.888  -5.813  0.00  0.00     0.078 C 
ATOM      3  C1  OXE d   1       4.651   5.368  -5.319  0.00  0.00    -0.078 A 
ATOM      4  C2  OXE d   1       4.667   4.242  -4.531  0.00  0.00    -0.078 A 
ATOM      5  C3  OXE d   1       3.476   3.752  -4.003  0.00  0.00     0.003 A 
ATOM      6  C4  OXE d   1       2.249   4.303  -4.392  0.00  0.00    -0.002 A 
ATOM      7  C5  OXE d   1       2.207   5.426  -5.225  0.00  0.00    -0.002 A 
ATOM      8  C6  OXE d   1       3.399   5.995  -5.662  0.00  0.00     0.003 A 
ENDROOT
TORSDOF 0
ENDMDL
