MODEL 1
REMARK minimizedAffinity 1.90093172
REMARK minimizedRMSD -1
REMARK  0 active torsions:
REMARK  status: ('A' for Active; 'I' for Inactive)
ROOT
ATOM      1  C2' OXE d   1      -0.043  -1.226   0.460  0.00  0.00     0.078 C 
ATOM      2  C1' OXE d   1       0.517  -0.248  -2.111  0.00  0.00     0.078 C 
ATOM      3  C1  OXE d   1       0.904   0.610  -0.933  0.00  0.00    -0.078 A 
ATOM      4  C2  OXE d   1       0.584   0.145   0.320  0.00  0.00    -0.078 A 
ATOM      5  C3  OXE d   1       0.967   0.871   1.444  0.00  0.00     0.003 A 
ATOM      6  C4  OXE d   1       1.538   2.142   1.305  0.00  0.00    -0.002 A 
ATOM      7  C5  OXE d   1       1.836   2.652   0.038  0.00  0.00    -0.002 A 
ATOM      8  C6  OXE d   1       1.565   1.882  -1.088  0.00  0.00     0.003 A 
ENDROOT
TORSDOF 0
ENDMDL
