MODEL 1
REMARK minimizedAffinity 5.34528446
REMARK minimizedRMSD -1
REMARK  0 active torsions:
REMARK  status: ('A' for Active; 'I' for Inactive)
ROOT
ATOM      1  C2' OXE d   1       2.355   2.120  -1.466  0.00  0.00     0.078 C 
ATOM      2  C1' OXE d   1       0.811   4.066  -0.157  0.00  0.00     0.078 C 
ATOM      3  C1  OXE d   1       0.820   2.671   0.417  0.00  0.00    -0.078 A 
ATOM      4  C2  OXE d   1       1.540   1.715  -0.256  0.00  0.00    -0.078 A 
ATOM      5  C3  OXE d   1       1.626   0.425   0.261  0.00  0.00     0.003 A 
ATOM      6  C4  OXE d   1       0.862   0.055   1.374  0.00  0.00    -0.002 A 
ATOM      7  C5  OXE d   1       0.089   1.005   2.052  0.00  0.00    -0.002 A 
ATOM      8  C6  OXE d   1       0.091   2.324   1.612  0.00  0.00     0.003 A 
ENDROOT
TORSDOF 0
ENDMDL
