MODEL 1
REMARK minimizedAffinity -2.3551681
REMARK minimizedRMSD -1
REMARK  0 active torsions:
REMARK  status: ('A' for Active; 'I' for Inactive)
ROOT
ATOM      1  C2' OXE d   1      -2.059   5.869  -4.499  0.00  0.00     0.078 C 
ATOM      2  C1' OXE d   1      -0.588   5.847  -2.108  0.00  0.00     0.078 C 
ATOM      3  C1  OXE d   1       0.179   5.918  -3.405  0.00  0.00    -0.078 A 
ATOM      4  C2  OXE d   1      -0.547   5.881  -4.571  0.00  0.00    -0.078 A 
ATOM      5  C3  OXE d   1       0.107   5.999  -5.794  0.00  0.00     0.003 A 
ATOM      6  C4  OXE d   1       1.506   5.999  -5.853  0.00  0.00    -0.002 A 
ATOM      7  C5  OXE d   1       2.266   5.997  -4.678  0.00  0.00    -0.002 A 
ATOM      8  C6  OXE d   1       1.618   6.000  -3.447  0.00  0.00     0.003 A 
ENDROOT
TORSDOF 0
ENDMDL
