MODEL 1
REMARK minimizedAffinity 4.95790005
REMARK minimizedRMSD -1
REMARK  0 active torsions:
REMARK  status: ('A' for Active; 'I' for Inactive)
ROOT
ATOM      1  C2' OXE d   1      -0.008  -0.862   0.972  0.00  0.00     0.078 C 
ATOM      2  C1' OXE d   1      -0.215   0.983   3.078  0.00  0.00     0.078 C 
ATOM      3  C1  OXE d   1       0.360   1.469   1.771  0.00  0.00    -0.078 A 
ATOM      4  C2  OXE d   1       0.501   0.547   0.761  0.00  0.00    -0.078 A 
ATOM      5  C3  OXE d   1       0.976   0.955  -0.483  0.00  0.00     0.003 A 
ATOM      6  C4  OXE d   1       1.453   2.258  -0.667  0.00  0.00    -0.002 A 
ATOM      7  C5  OXE d   1       1.356   3.202   0.361  0.00  0.00    -0.002 A 
ATOM      8  C6  OXE d   1       0.774   2.836   1.569  0.00  0.00     0.003 A 
ENDROOT
TORSDOF 0
ENDMDL
