MODEL 1
REMARK minimizedAffinity -1.82314909
REMARK minimizedRMSD -1
REMARK  0 active torsions:
REMARK  status: ('A' for Active; 'I' for Inactive)
ROOT
ATOM      1  C2' OXE d   1      -0.368   5.828  -1.706  0.00  0.00     0.078 C 
ATOM      2  C1' OXE d   1      -0.415   5.827  -4.513  0.00  0.00     0.078 C 
ATOM      3  C1  OXE d   1      -1.735   5.903  -3.787  0.00  0.00    -0.078 A 
ATOM      4  C2  OXE d   1      -1.706   5.855  -2.414  0.00  0.00    -0.078 A 
ATOM      5  C3  OXE d   1      -2.891   5.977  -1.695  0.00  0.00     0.003 A 
ATOM      6  C4  OXE d   1      -4.124   5.991  -2.357  0.00  0.00    -0.002 A 
ATOM      7  C5  OXE d   1      -4.179   6.000  -3.755  0.00  0.00    -0.002 A 
ATOM      8  C6  OXE d   1      -2.994   5.999  -4.483  0.00  0.00     0.003 A 
ENDROOT
TORSDOF 0
ENDMDL
