MODEL 1
REMARK minimizedAffinity -1.5745492
REMARK minimizedRMSD -1
REMARK  0 active torsions:
REMARK  status: ('A' for Active; 'I' for Inactive)
ROOT
ATOM      1  C2' OXE d   1      -2.948   6.000  -1.216  0.00  0.00     0.078 C 
ATOM      2  C1' OXE d   1      -4.176   5.999  -3.740  0.00  0.00     0.078 C 
ATOM      3  C1  OXE d   1      -2.677   5.845  -3.687  0.00  0.00    -0.078 A 
ATOM      4  C2  OXE d   1      -2.079   5.894  -2.451  0.00  0.00    -0.078 A 
ATOM      5  C3  OXE d   1      -0.705   5.702  -2.341  0.00  0.00     0.003 A 
ATOM      6  C4  OXE d   1       0.092   5.614  -3.489  0.00  0.00    -0.002 A 
ATOM      7  C5  OXE d   1      -0.492   5.603  -4.760  0.00  0.00    -0.002 A 
ATOM      8  C6  OXE d   1      -1.876   5.674  -4.874  0.00  0.00     0.003 A 
ENDROOT
TORSDOF 0
ENDMDL
