MODEL 1
REMARK minimizedAffinity -0.77571851
REMARK minimizedRMSD -1
REMARK  0 active torsions:
REMARK  status: ('A' for Active; 'I' for Inactive)
ROOT
ATOM      1  C2' OXE d   1      -0.526   0.862   3.198  0.00  0.00     0.078 C 
ATOM      2  C1' OXE d   1      -0.125  -0.752   0.937  0.00  0.00     0.078 C 
ATOM      3  C1  OXE d   1       0.320   0.687   0.862  0.00  0.00    -0.078 A 
ATOM      4  C2  OXE d   1       0.078   1.482   1.956  0.00  0.00    -0.078 A 
ATOM      5  C3  OXE d   1       0.517   2.802   1.960  0.00  0.00     0.003 A 
ATOM      6  C4  OXE d   1       1.065   3.371   0.804  0.00  0.00    -0.002 A 
ATOM      7  C5  OXE d   1       1.285   2.589  -0.335  0.00  0.00    -0.002 A 
ATOM      8  C6  OXE d   1       0.958   1.238  -0.308  0.00  0.00     0.003 A 
ENDROOT
TORSDOF 0
ENDMDL
