MODEL 1
REMARK minimizedAffinity 9.65030289
REMARK minimizedRMSD -1
REMARK  0 active torsions:
REMARK  status: ('A' for Active; 'I' for Inactive)
ROOT
ATOM      1  C2' OXE d   1       0.737   6.000  -5.999  0.00  0.00     0.078 C 
ATOM      2  C1' OXE d   1       0.667   3.293  -5.260  0.00  0.00     0.078 C 
ATOM      3  C1  OXE d   1       2.006   3.986  -5.265  0.00  0.00    -0.078 A 
ATOM      4  C2  OXE d   1       2.037   5.298  -5.673  0.00  0.00    -0.078 A 
ATOM      5  C3  OXE d   1       3.239   6.000  -5.644  0.00  0.00     0.003 A 
ATOM      6  C4  OXE d   1       4.439   5.341  -5.351  0.00  0.00    -0.002 A 
ATOM      7  C5  OXE d   1       4.434   3.994  -4.971  0.00  0.00    -0.002 A 
ATOM      8  C6  OXE d   1       3.224   3.315  -4.882  0.00  0.00     0.003 A 
ENDROOT
TORSDOF 0
ENDMDL
