MODEL 1
REMARK minimizedAffinity 4.80827045
REMARK minimizedRMSD -1
REMARK  0 active torsions:
REMARK  status: ('A' for Active; 'I' for Inactive)
ROOT
ATOM      1  C2' OXE d   1      -4.715   5.964  -4.103  0.00  0.00     0.078 C 
ATOM      2  C1' OXE d   1      -4.035   5.959  -1.380  0.00  0.00     0.078 C 
ATOM      3  C1  OXE d   1      -2.911   5.968  -2.385  0.00  0.00    -0.078 A 
ATOM      4  C2  OXE d   1      -3.252   5.922  -3.715  0.00  0.00    -0.078 A 
ATOM      5  C3  OXE d   1      -2.256   5.983  -4.685  0.00  0.00     0.003 A 
ATOM      6  C4  OXE d   1      -0.905   5.935  -4.318  0.00  0.00    -0.002 A 
ATOM      7  C5  OXE d   1      -0.536   5.940  -2.969  0.00  0.00    -0.002 A 
ATOM      8  C6  OXE d   1      -1.524   5.999  -1.992  0.00  0.00     0.003 A 
ENDROOT
TORSDOF 0
ENDMDL
