MODEL 1
REMARK minimizedAffinity 4.08523941
REMARK minimizedRMSD -1
REMARK  0 active torsions:
REMARK  status: ('A' for Active; 'I' for Inactive)
ROOT
ATOM      1  C2' OXE d   1      -0.131  -0.972   1.033  0.00  0.00     0.078 C 
ATOM      2  C1' OXE d   1       0.435   1.181   2.744  0.00  0.00     0.078 C 
ATOM      3  C1  OXE d   1       0.678   1.373   1.268  0.00  0.00    -0.078 A 
ATOM      4  C2  OXE d   1       0.443   0.299   0.444  0.00  0.00    -0.078 A 
ATOM      5  C3  OXE d   1       0.599   0.438  -0.932  0.00  0.00     0.003 A 
ATOM      6  C4  OXE d   1       1.140   1.613  -1.469  0.00  0.00    -0.002 A 
ATOM      7  C5  OXE d   1       1.424   2.706  -0.642  0.00  0.00    -0.002 A 
ATOM      8  C6  OXE d   1       1.159   2.617   0.720  0.00  0.00     0.003 A 
ENDROOT
TORSDOF 0
ENDMDL
