MODEL 1
REMARK minimizedAffinity 0.146859601
REMARK minimizedRMSD -1
REMARK  0 active torsions:
REMARK  status: ('A' for Active; 'I' for Inactive)
ROOT
ATOM      1  C   UNL d   1       5.996  -1.147   0.376  0.00  0.00     0.077 C 
ATOM      2  C1  UNL d   1       4.810  -0.234   0.282  0.00  0.00    -0.074 A 
ATOM      3  C2  UNL d   1       3.855  -0.188   1.302  0.00  0.00    -0.005 A 
ATOM      4  C3  UNL d   1       2.762   0.673   1.205  0.00  0.00     0.006 A 
ATOM      5  C4  UNL d   1       2.614   1.496   0.088  0.00  0.00    -0.005 A 
ATOM      6  C5  UNL d   1       3.559   1.464  -0.942  0.00  0.00    -0.074 A 
ATOM      7  C6  UNL d   1       3.419   2.349  -2.145  0.00  0.00     0.077 C 
ATOM      8  C7  UNL d   1       4.658   0.602  -0.834  0.00  0.00    -0.001 A 
ENDROOT
TORSDOF 0
ENDMDL
