MODEL 1
REMARK minimizedAffinity 7.94308138
REMARK minimizedRMSD -1
REMARK  0 active torsions:
REMARK  status: ('A' for Active; 'I' for Inactive)
ROOT
ATOM      1  C   UNL d   1       5.934  -0.805   0.584  0.00  0.00     0.077 C 
ATOM      2  C1  UNL d   1       4.638  -0.211   1.048  0.00  0.00    -0.074 A 
ATOM      3  C2  UNL d   1       3.971   0.749   0.280  0.00  0.00    -0.005 A 
ATOM      4  C3  UNL d   1       2.761   1.286   0.721  0.00  0.00     0.006 A 
ATOM      5  C4  UNL d   1       2.207   0.869   1.931  0.00  0.00    -0.005 A 
ATOM      6  C5  UNL d   1       2.859  -0.091   2.712  0.00  0.00    -0.074 A 
ATOM      7  C6  UNL d   1       2.272  -0.557   4.011  0.00  0.00     0.077 C 
ATOM      8  C7  UNL d   1       4.071  -0.630   2.260  0.00  0.00    -0.001 A 
ENDROOT
TORSDOF 0
ENDMDL
