MODEL 1
REMARK minimizedAffinity 5.60778475
REMARK minimizedRMSD -1
REMARK  0 active torsions:
REMARK  status: ('A' for Active; 'I' for Inactive)
ROOT
ATOM      1  C   UNL d   1      -5.999  -0.748   6.000  0.00  0.00     0.077 C 
ATOM      2  C1  UNL d   1      -5.363   0.441   5.343  0.00  0.00    -0.074 A 
ATOM      3  C2  UNL d   1      -4.683   0.312   4.128  0.00  0.00    -0.005 A 
ATOM      4  C3  UNL d   1      -4.105   1.428   3.524  0.00  0.00     0.006 A 
ATOM      5  C4  UNL d   1      -4.201   2.683   4.127  0.00  0.00    -0.005 A 
ATOM      6  C5  UNL d   1      -4.878   2.831   5.342  0.00  0.00    -0.074 A 
ATOM      7  C6  UNL d   1      -4.999   4.173   6.000  0.00  0.00     0.077 C 
ATOM      8  C7  UNL d   1      -5.462   1.705   5.939  0.00  0.00    -0.001 A 
ENDROOT
TORSDOF 0
ENDMDL
