MODEL 1
REMARK minimizedAffinity 10.9019337
REMARK minimizedRMSD -1
REMARK  0 active torsions:
REMARK  status: ('A' for Active; 'I' for Inactive)
ROOT
ATOM      1  C   UNL d   1       5.999  -1.134   0.404  0.00  0.00     0.077 C 
ATOM      2  C1  UNL d   1       5.213  -1.023   1.677  0.00  0.00    -0.074 A 
ATOM      3  C2  UNL d   1       3.818  -1.122   1.671  0.00  0.00    -0.005 A 
ATOM      4  C3  UNL d   1       3.101  -1.027   2.863  0.00  0.00     0.006 A 
ATOM      5  C4  UNL d   1       3.771  -0.832   4.072  0.00  0.00    -0.005 A 
ATOM      6  C5  UNL d   1       5.165  -0.732   4.098  0.00  0.00    -0.074 A 
ATOM      7  C6  UNL d   1       5.901  -0.533   5.389  0.00  0.00     0.077 C 
ATOM      8  C7  UNL d   1       5.879  -0.836   2.896  0.00  0.00    -0.001 A 
ENDROOT
TORSDOF 0
ENDMDL
