MODEL 1
REMARK minimizedAffinity 7.53301144
REMARK minimizedRMSD -1
REMARK  0 active torsions:
REMARK  status: ('A' for Active; 'I' for Inactive)
ROOT
ATOM      1  C   UNL d   1       1.302   0.789   2.528  0.00  0.00     0.077 C 
ATOM      2  C1  UNL d   1       2.417   0.815   1.525  0.00  0.00    -0.074 A 
ATOM      3  C2  UNL d   1       2.464   1.794   0.527  0.00  0.00    -0.005 A 
ATOM      4  C3  UNL d   1       3.512   1.811  -0.393  0.00  0.00     0.006 A 
ATOM      5  C4  UNL d   1       4.522   0.851  -0.325  0.00  0.00    -0.005 A 
ATOM      6  C5  UNL d   1       4.493  -0.136   0.665  0.00  0.00    -0.074 A 
ATOM      7  C6  UNL d   1       5.575  -1.169   0.758  0.00  0.00     0.077 C 
ATOM      8  C7  UNL d   1       3.440  -0.142   1.591  0.00  0.00    -0.001 A 
ENDROOT
TORSDOF 0
ENDMDL
