MODEL 1
REMARK minimizedAffinity 15.7858858
REMARK minimizedRMSD -1
REMARK  0 active torsions:
REMARK  status: ('A' for Active; 'I' for Inactive)
ROOT
ATOM      1  C   UNL d   1      -6.000  -2.768  -4.432  0.00  0.00     0.077 C 
ATOM      2  C1  UNL d   1      -4.532  -2.774  -4.123  0.00  0.00    -0.074 A 
ATOM      3  C2  UNL d   1      -3.588  -3.026  -5.123  0.00  0.00    -0.005 A 
ATOM      4  C3  UNL d   1      -2.226  -3.019  -4.822  0.00  0.00     0.006 A 
ATOM      5  C4  UNL d   1      -1.795  -2.760  -3.520  0.00  0.00    -0.005 A 
ATOM      6  C5  UNL d   1      -2.725  -2.504  -2.507  0.00  0.00    -0.074 A 
ATOM      7  C6  UNL d   1      -2.279  -2.214  -1.105  0.00  0.00     0.077 C 
ATOM      8  C7  UNL d   1      -4.091  -2.506  -2.819  0.00  0.00    -0.001 A 
ENDROOT
TORSDOF 0
ENDMDL
