MODEL 1
REMARK minimizedAffinity 16.3410835
REMARK minimizedRMSD -1
REMARK  0 active torsions:
REMARK  status: ('A' for Active; 'I' for Inactive)
ROOT
ATOM      1  C   UNL d   1      -0.214  -2.093  -4.193  0.00  0.00     0.077 C 
ATOM      2  C1  UNL d   1      -1.268  -2.207  -3.132  0.00  0.00    -0.074 A 
ATOM      3  C2  UNL d   1      -1.070  -1.662  -1.860  0.00  0.00    -0.005 A 
ATOM      4  C3  UNL d   1      -2.064  -1.768  -0.887  0.00  0.00     0.006 A 
ATOM      5  C4  UNL d   1      -3.264  -2.420  -1.176  0.00  0.00    -0.005 A 
ATOM      6  C5  UNL d   1      -3.480  -2.971  -2.443  0.00  0.00    -0.074 A 
ATOM      7  C6  UNL d   1      -4.767  -3.665  -2.774  0.00  0.00     0.077 C 
ATOM      8  C7  UNL d   1      -2.479  -2.853  -3.418  0.00  0.00    -0.001 A 
ENDROOT
TORSDOF 0
ENDMDL
