MODEL 1
REMARK minimizedAffinity 9.98566723
REMARK minimizedRMSD -1
REMARK  0 active torsions:
REMARK  status: ('A' for Active; 'I' for Inactive)
ROOT
ATOM      1  C   UNL d   1      -5.999  -0.998   5.254  0.00  0.00     0.077 C 
ATOM      2  C1  UNL d   1      -5.332   0.256   4.771  0.00  0.00    -0.074 A 
ATOM      3  C2  UNL d   1      -4.698   0.298   3.525  0.00  0.00    -0.005 A 
ATOM      4  C3  UNL d   1      -4.090   1.473   3.084  0.00  0.00     0.006 A 
ATOM      5  C4  UNL d   1      -4.110   2.617   3.884  0.00  0.00    -0.005 A 
ATOM      6  C5  UNL d   1      -4.740   2.594   5.132  0.00  0.00    -0.074 A 
ATOM      7  C6  UNL d   1      -4.779   3.817   6.000  0.00  0.00     0.077 C 
ATOM      8  C7  UNL d   1      -5.355   1.411   5.565  0.00  0.00    -0.001 A 
ENDROOT
TORSDOF 0
ENDMDL
