MODEL 1
REMARK minimizedAffinity 9.50086403
REMARK minimizedRMSD -1
REMARK  0 active torsions:
REMARK  status: ('A' for Active; 'I' for Inactive)
ROOT
ATOM      1  C   UNL d   1      -0.372  -0.226   2.395  0.00  0.00     0.077 C 
ATOM      2  C1  UNL d   1       0.870   0.348   1.779  0.00  0.00    -0.074 A 
ATOM      3  C2  UNL d   1       0.889   1.658   1.288  0.00  0.00    -0.005 A 
ATOM      4  C3  UNL d   1       2.054   2.181   0.727  0.00  0.00     0.006 A 
ATOM      5  C4  UNL d   1       3.209   1.401   0.650  0.00  0.00    -0.005 A 
ATOM      6  C5  UNL d   1       3.208   0.090   1.136  0.00  0.00    -0.074 A 
ATOM      7  C6  UNL d   1       4.443  -0.758   1.071  0.00  0.00     0.077 C 
ATOM      8  C7  UNL d   1       2.036  -0.426   1.706  0.00  0.00    -0.001 A 
ENDROOT
TORSDOF 0
ENDMDL
