MODEL 1
REMARK minimizedAffinity 14.4069252
REMARK minimizedRMSD -1
REMARK  0 active torsions:
REMARK  status: ('A' for Active; 'I' for Inactive)
ROOT
ATOM      1  C   UNL d   1       5.015  -0.792   1.336  0.00  0.00     0.077 C 
ATOM      2  C1  UNL d   1       3.750   0.007   1.230  0.00  0.00    -0.074 A 
ATOM      3  C2  UNL d   1       3.742   1.265   0.619  0.00  0.00    -0.005 A 
ATOM      4  C3  UNL d   1       2.556   1.992   0.520  0.00  0.00     0.006 A 
ATOM      5  C4  UNL d   1       1.367   1.470   1.031  0.00  0.00    -0.005 A 
ATOM      6  C5  UNL d   1       1.355   0.213   1.645  0.00  0.00    -0.074 A 
ATOM      7  C6  UNL d   1       0.084  -0.367   2.190  0.00  0.00     0.077 C 
ATOM      8  C7  UNL d   1       2.550  -0.514   1.734  0.00  0.00    -0.001 A 
ENDROOT
TORSDOF 0
ENDMDL
