MODEL 1
REMARK minimizedAffinity 5.42270088
REMARK minimizedRMSD -1
REMARK  0 active torsions:
REMARK  status: ('A' for Active; 'I' for Inactive)
ROOT
ATOM      1  C   UNL d   1      -4.108   3.883   5.927  0.00  0.00     0.077 C 
ATOM      2  C1  UNL d   1      -4.463   2.624   5.192  0.00  0.00    -0.074 A 
ATOM      3  C2  UNL d   1      -4.207   2.495   3.824  0.00  0.00    -0.005 A 
ATOM      4  C3  UNL d   1      -4.533   1.315   3.156  0.00  0.00     0.006 A 
ATOM      5  C4  UNL d   1      -5.118   0.254   3.848  0.00  0.00    -0.005 A 
ATOM      6  C5  UNL d   1      -5.381   0.365   5.217  0.00  0.00    -0.074 A 
ATOM      7  C6  UNL d   1      -6.000  -0.769   5.979  0.00  0.00     0.077 C 
ATOM      8  C7  UNL d   1      -5.043   1.551   5.883  0.00  0.00    -0.001 A 
ENDROOT
TORSDOF 0
ENDMDL
