MODEL 1
REMARK minimizedAffinity 8.88670826
REMARK minimizedRMSD -1
REMARK  0 active torsions:
REMARK  status: ('A' for Active; 'I' for Inactive)
ROOT
ATOM      1  C   UNL d   1      -2.220  -2.232  -1.330  0.00  0.00     0.077 C 
ATOM      2  C1  UNL d   1      -3.398  -2.958  -1.908  0.00  0.00    -0.074 A 
ATOM      3  C2  UNL d   1      -3.795  -4.200  -1.404  0.00  0.00    -0.005 A 
ATOM      4  C3  UNL d   1      -4.899  -4.859  -1.946  0.00  0.00     0.006 A 
ATOM      5  C4  UNL d   1      -5.616  -4.282  -2.995  0.00  0.00    -0.005 A 
ATOM      6  C5  UNL d   1      -5.234  -3.040  -3.512  0.00  0.00    -0.074 A 
ATOM      7  C6  UNL d   1      -5.999  -2.402  -4.633  0.00  0.00     0.077 C 
ATOM      8  C7  UNL d   1      -4.128  -2.381  -2.957  0.00  0.00    -0.001 A 
ENDROOT
TORSDOF 0
ENDMDL
