MODEL 1
REMARK minimizedAffinity 2.29321861
REMARK minimizedRMSD -1
REMARK  0 active torsions:
REMARK  status: ('A' for Active; 'I' for Inactive)
ROOT
ATOM      1  C   UNL d   1      -4.478   4.437   5.997  0.00  0.00     0.077 C 
ATOM      2  C1  UNL d   1      -4.716   3.157   5.252  0.00  0.00    -0.074 A 
ATOM      3  C2  UNL d   1      -4.421   3.053   3.889  0.00  0.00    -0.005 A 
ATOM      4  C3  UNL d   1      -4.639   1.853   3.212  0.00  0.00     0.006 A 
ATOM      5  C4  UNL d   1      -5.154   0.747   3.890  0.00  0.00    -0.005 A 
ATOM      6  C5  UNL d   1      -5.454   0.833   5.253  0.00  0.00    -0.074 A 
ATOM      7  C6  UNL d   1      -5.999  -0.349   5.999  0.00  0.00     0.077 C 
ATOM      8  C7  UNL d   1      -5.226   2.040   5.928  0.00  0.00    -0.001 A 
ENDROOT
TORSDOF 0
ENDMDL
