MODEL 1
REMARK minimizedAffinity 10.9266682
REMARK minimizedRMSD -1
REMARK  0 active torsions:
REMARK  status: ('A' for Active; 'I' for Inactive)
ROOT
ATOM      1  C   UNL d   1       4.277  -0.819   3.258  0.00  0.00     0.077 C 
ATOM      2  C1  UNL d   1       2.891  -0.261   3.124  0.00  0.00    -0.074 A 
ATOM      3  C2  UNL d   1       1.886  -0.607   4.032  0.00  0.00    -0.005 A 
ATOM      4  C3  UNL d   1       0.605  -0.072   3.900  0.00  0.00     0.006 A 
ATOM      5  C4  UNL d   1       0.315   0.811   2.859  0.00  0.00    -0.005 A 
ATOM      6  C5  UNL d   1       1.308   1.168   1.941  0.00  0.00    -0.074 A 
ATOM      7  C6  UNL d   1       1.017   2.124   0.823  0.00  0.00     0.077 C 
ATOM      8  C7  UNL d   1       2.595   0.633   2.085  0.00  0.00    -0.001 A 
ENDROOT
TORSDOF 0
ENDMDL
