MODEL 1
REMARK minimizedAffinity 0.00294498424
REMARK minimizedRMSD -1
REMARK  0 active torsions:
REMARK  status: ('A' for Active; 'I' for Inactive)
ROOT
ATOM      1  C   UNL d   1      -6.000  -1.307   4.579  0.00  0.00     0.077 C 
ATOM      2  C1  UNL d   1      -5.329   0.020   4.380  0.00  0.00    -0.074 A 
ATOM      3  C2  UNL d   1      -4.418   0.216   3.337  0.00  0.00    -0.005 A 
ATOM      4  C3  UNL d   1      -3.809   1.458   3.159  0.00  0.00     0.006 A 
ATOM      5  C4  UNL d   1      -4.104   2.515   4.021  0.00  0.00    -0.005 A 
ATOM      6  C5  UNL d   1      -5.013   2.338   5.069  0.00  0.00    -0.074 A 
ATOM      7  C6  UNL d   1      -5.349   3.466   5.999  0.00  0.00     0.077 C 
ATOM      8  C7  UNL d   1      -5.626   1.089   5.237  0.00  0.00    -0.001 A 
ENDROOT
TORSDOF 0
ENDMDL
