MODEL 1
REMARK minimizedAffinity 5.4656167
REMARK minimizedRMSD -1
REMARK  0 active torsions:
REMARK  status: ('A' for Active; 'I' for Inactive)
ROOT
ATOM      1  C   UNL d   1      -1.144   5.312   1.151  0.00  0.00     0.077 C 
ATOM      2  C1  UNL d   1      -2.205   5.558   0.119  0.00  0.00    -0.074 A 
ATOM      3  C2  UNL d   1      -1.871   5.724  -1.229  0.00  0.00    -0.005 A 
ATOM      4  C3  UNL d   1      -2.868   5.943  -2.178  0.00  0.00     0.006 A 
ATOM      5  C4  UNL d   1      -4.208   5.999  -1.791  0.00  0.00    -0.005 A 
ATOM      6  C5  UNL d   1      -4.561   5.834  -0.447  0.00  0.00    -0.074 A 
ATOM      7  C6  UNL d   1      -5.996   5.881  -0.015  0.00  0.00     0.077 C 
ATOM      8  C7  UNL d   1      -3.553   5.608   0.500  0.00  0.00    -0.001 A 
ENDROOT
TORSDOF 0
ENDMDL
