MODEL 1
REMARK minimizedAffinity 21.4893589
REMARK minimizedRMSD -1
REMARK  0 active torsions:
REMARK  status: ('A' for Active; 'I' for Inactive)
ROOT
ATOM      1  C   UNL d   1      -2.346  -2.278  -1.651  0.00  0.00     0.077 C 
ATOM      2  C1  UNL d   1      -1.748  -2.635  -2.980  0.00  0.00    -0.074 A 
ATOM      3  C2  UNL d   1      -1.727  -1.711  -4.030  0.00  0.00    -0.005 A 
ATOM      4  C3  UNL d   1      -1.160  -2.054  -5.257  0.00  0.00     0.006 A 
ATOM      5  C4  UNL d   1      -0.608  -3.322  -5.447  0.00  0.00    -0.005 A 
ATOM      6  C5  UNL d   1      -0.619  -4.258  -4.408  0.00  0.00    -0.074 A 
ATOM      7  C6  UNL d   1      -0.022  -5.622  -4.592  0.00  0.00     0.077 C 
ATOM      8  C7  UNL d   1      -1.185  -3.904  -3.176  0.00  0.00    -0.001 A 
ENDROOT
TORSDOF 0
ENDMDL
