MODEL 1
REMARK minimizedAffinity 9.51105309
REMARK minimizedRMSD -1
REMARK  0 active torsions:
REMARK  status: ('A' for Active; 'I' for Inactive)
ROOT
ATOM      1  C   UNL d   1      -6.000  -0.455   5.994  0.00  0.00     0.077 C 
ATOM      2  C1  UNL d   1      -5.240   0.658   5.336  0.00  0.00    -0.074 A 
ATOM      3  C2  UNL d   1      -4.584   0.457   4.117  0.00  0.00    -0.005 A 
ATOM      4  C3  UNL d   1      -3.889   1.505   3.512  0.00  0.00     0.006 A 
ATOM      5  C4  UNL d   1      -3.843   2.761   4.118  0.00  0.00    -0.005 A 
ATOM      6  C5  UNL d   1      -4.494   2.980   5.336  0.00  0.00    -0.074 A 
ATOM      7  C6  UNL d   1      -4.464   4.327   5.996  0.00  0.00     0.077 C 
ATOM      8  C7  UNL d   1      -5.196   1.925   5.935  0.00  0.00    -0.001 A 
ENDROOT
TORSDOF 0
ENDMDL
