MODEL 1
REMARK minimizedAffinity -5.30439568
REMARK minimizedRMSD -1
REMARK  0 active torsions:
REMARK  status: ('A' for Active; 'I' for Inactive)
ROOT
ATOM      1  C4' PXY d   1       0.582   4.163  -0.774  0.00  0.00     0.077 C 
ATOM      2  C1' PXY d   1      -0.284  -1.398   0.543  0.00  0.00     0.077 C 
ATOM      3  C1  PXY d   1      -0.070   0.062   0.197  0.00  0.00    -0.082 A 
ATOM      4  C2  PXY d   1       1.084   0.449  -0.323  0.00  0.00     0.003 A 
ATOM      5  C3  PXY d   1       1.306   1.770  -0.612  0.00  0.00     0.003 A 
ATOM      6  C4  PXY d   1       0.318   2.698  -0.417  0.00  0.00    -0.082 A 
ATOM      7  C5  PXY d   1      -0.866   2.309   0.103  0.00  0.00     0.003 A 
ATOM      8  C6  PXY d   1      -1.056   0.970   0.428  0.00  0.00     0.003 A 
ENDROOT
TORSDOF 0
ENDMDL
