MODEL 1
REMARK minimizedAffinity -2.63021445
REMARK minimizedRMSD -1
REMARK  0 active torsions:
REMARK  status: ('A' for Active; 'I' for Inactive)
ROOT
ATOM      1  C4' PXY d   1       0.924   4.089  -0.020  0.00  0.00     0.077 C 
ATOM      2  C1' PXY d   1      -0.552  -1.500  -0.067  0.00  0.00     0.077 C 
ATOM      3  C1  PXY d   1      -0.175  -0.032  -0.047  0.00  0.00    -0.082 A 
ATOM      4  C2  PXY d   1       0.527   0.477  -1.047  0.00  0.00     0.003 A 
ATOM      5  C3  PXY d   1       0.904   1.795  -1.029  0.00  0.00     0.003 A 
ATOM      6  C4  PXY d   1       0.513   2.614  -0.003  0.00  0.00    -0.082 A 
ATOM      7  C5  PXY d   1      -0.212   2.105   1.015  0.00  0.00     0.003 A 
ATOM      8  C6  PXY d   1      -0.549   0.754   0.999  0.00  0.00     0.003 A 
ENDROOT
TORSDOF 0
ENDMDL
