MODEL 1
REMARK minimizedAffinity -5.07894182
REMARK minimizedRMSD -1
REMARK  0 active torsions:
REMARK  status: ('A' for Active; 'I' for Inactive)
ROOT
ATOM      1  C4' PXY d   1       1.031   3.742   0.433  0.00  0.00     0.077 C 
ATOM      2  C1' PXY d   1      -0.670  -1.695  -0.543  0.00  0.00     0.077 C 
ATOM      3  C1  PXY d   1      -0.235  -0.265  -0.291  0.00  0.00    -0.082 A 
ATOM      4  C2  PXY d   1       1.053   0.036  -0.285  0.00  0.00     0.003 A 
ATOM      5  C3  PXY d   1       1.465   1.318  -0.027  0.00  0.00     0.003 A 
ATOM      6  C4  PXY d   1       0.546   2.313   0.174  0.00  0.00    -0.082 A 
ATOM      7  C5  PXY d   1      -0.771   2.017   0.158  0.00  0.00     0.003 A 
ATOM      8  C6  PXY d   1      -1.167   0.701  -0.064  0.00  0.00     0.003 A 
ENDROOT
TORSDOF 0
ENDMDL
