MODEL 1
REMARK minimizedAffinity -4.89790201
REMARK minimizedRMSD -1
REMARK  0 active torsions:
REMARK  status: ('A' for Active; 'I' for Inactive)
ROOT
ATOM      1  C4' PXY d   1      -0.376  -2.066  -0.015  0.00  0.00     0.077 C 
ATOM      2  C1' PXY d   1       2.375   2.970   0.680  0.00  0.00     0.077 C 
ATOM      3  C1  PXY d   1       1.665   1.643   0.499  0.00  0.00    -0.082 A 
ATOM      4  C2  PXY d   1       0.494   1.607  -0.115  0.00  0.00     0.003 A 
ATOM      5  C3  PXY d   1      -0.177   0.419  -0.260  0.00  0.00     0.003 A 
ATOM      6  C4  PXY d   1       0.381  -0.750   0.182  0.00  0.00    -0.082 A 
ATOM      7  C5  PXY d   1       1.581  -0.723   0.801  0.00  0.00     0.003 A 
ATOM      8  C6  PXY d   1       2.227   0.498   0.974  0.00  0.00     0.003 A 
ENDROOT
TORSDOF 0
ENDMDL
