MODEL 1
REMARK minimizedAffinity -5.18070078
REMARK minimizedRMSD -1
REMARK  0 active torsions:
REMARK  status: ('A' for Active; 'I' for Inactive)
ROOT
ATOM      1  C4' PXY d   1      -0.592  -2.046  -0.275  0.00  0.00     0.077 C 
ATOM      2  C1' PXY d   1       0.464   3.631  -0.014  0.00  0.00     0.077 C 
ATOM      3  C1  PXY d   1       0.177   2.144  -0.074  0.00  0.00    -0.082 A 
ATOM      4  C2  PXY d   1       1.141   1.305  -0.420  0.00  0.00     0.003 A 
ATOM      5  C3  PXY d   1       0.890  -0.040  -0.511  0.00  0.00     0.003 A 
ATOM      6  C4  PXY d   1      -0.345  -0.537  -0.192  0.00  0.00    -0.082 A 
ATOM      7  C5  PXY d   1      -1.330   0.310   0.173  0.00  0.00     0.003 A 
ATOM      8  C6  PXY d   1      -1.067   1.676   0.219  0.00  0.00     0.003 A 
ENDROOT
TORSDOF 0
ENDMDL
