MODEL 1
REMARK minimizedAffinity -5.54227448
REMARK minimizedRMSD -1
REMARK  0 active torsions:
REMARK  status: ('A' for Active; 'I' for Inactive)
ROOT
ATOM      1  C4' PXY d   1       0.614   3.699  -0.166  0.00  0.00     0.077 C 
ATOM      2  C1' PXY d   1      -0.416  -1.967   0.334  0.00  0.00     0.077 C 
ATOM      3  C1  PXY d   1      -0.159  -0.478   0.203  0.00  0.00    -0.082 A 
ATOM      4  C2  PXY d   1       0.995  -0.055  -0.287  0.00  0.00     0.003 A 
ATOM      5  C3  PXY d   1       1.257   1.288  -0.383  0.00  0.00     0.003 A 
ATOM      6  C4  PXY d   1       0.307   2.206  -0.024  0.00  0.00    -0.082 A 
ATOM      7  C5  PXY d   1      -0.877   1.782   0.467  0.00  0.00     0.003 A 
ATOM      8  C6  PXY d   1      -1.107   0.415   0.595  0.00  0.00     0.003 A 
ENDROOT
TORSDOF 0
ENDMDL
