MODEL 1
REMARK minimizedAffinity -6.20041466
REMARK minimizedRMSD -1
REMARK  0 active torsions:
REMARK  status: ('A' for Active; 'I' for Inactive)
ROOT
ATOM      1  C4' PXY d   1      -2.268   1.320   0.212  0.00  0.00     0.077 C 
ATOM      2  C1' PXY d   1       3.507   1.570   0.274  0.00  0.00     0.077 C 
ATOM      3  C1  PXY d   1       1.992   1.516   0.264  0.00  0.00    -0.082 A 
ATOM      4  C2  PXY d   1       1.380   0.345   0.205  0.00  0.00     0.003 A 
ATOM      5  C3  PXY d   1       0.011   0.279   0.163  0.00  0.00     0.003 A 
ATOM      6  C4  PXY d   1      -0.740   1.422   0.235  0.00  0.00    -0.082 A 
ATOM      7  C5  PXY d   1      -0.123   2.620   0.305  0.00  0.00     0.003 A 
ATOM      8  C6  PXY d   1       1.268   2.667   0.306  0.00  0.00     0.003 A 
ENDROOT
TORSDOF 0
ENDMDL
