MODEL 1
REMARK minimizedAffinity -1.7616446
REMARK minimizedRMSD -1
REMARK  0 active torsions:
REMARK  status: ('A' for Active; 'I' for Inactive)
ROOT
ATOM      1  C4' PXY d   1       3.501   2.271   0.810  0.00  0.00     0.077 C 
ATOM      2  C1' PXY d   1      -2.114   1.323  -0.185  0.00  0.00     0.077 C 
ATOM      3  C1  PXY d   1      -0.640   1.558   0.077  0.00  0.00    -0.082 A 
ATOM      4  C2  PXY d   1      -0.232   2.743   0.503  0.00  0.00     0.003 A 
ATOM      5  C3  PXY d   1       1.101   2.983   0.715  0.00  0.00     0.003 A 
ATOM      6  C4  PXY d   1       2.021   1.985   0.540  0.00  0.00    -0.082 A 
ATOM      7  C5  PXY d   1       1.612   0.770   0.116  0.00  0.00     0.003 A 
ATOM      8  C6  PXY d   1       0.259   0.559  -0.133  0.00  0.00     0.003 A 
ENDROOT
TORSDOF 0
ENDMDL
