MODEL 1
REMARK minimizedAffinity -4.03490496
REMARK minimizedRMSD -1
REMARK  0 active torsions:
REMARK  status: ('A' for Active; 'I' for Inactive)
ROOT
ATOM      1  C4' PXY d   1      -0.270  -1.421   0.052  0.00  0.00     0.077 C 
ATOM      2  C1' PXY d   1       0.798   4.258   0.195  0.00  0.00     0.077 C 
ATOM      3  C1  PXY d   1       0.507   2.770   0.165  0.00  0.00    -0.082 A 
ATOM      4  C2  PXY d   1       1.497   1.914  -0.032  0.00  0.00     0.003 A 
ATOM      5  C3  PXY d   1       1.246   0.567  -0.094  0.00  0.00     0.003 A 
ATOM      6  C4  PXY d   1      -0.022   0.089   0.100  0.00  0.00    -0.082 A 
ATOM      7  C5  PXY d   1      -1.035   0.955   0.311  0.00  0.00     0.003 A 
ATOM      8  C6  PXY d   1      -0.767   2.321   0.330  0.00  0.00     0.003 A 
ENDROOT
TORSDOF 0
ENDMDL
