MODEL 1
REMARK minimizedAffinity -4.43160725
REMARK minimizedRMSD -1
REMARK  0 active torsions:
REMARK  status: ('A' for Active; 'I' for Inactive)
ROOT
ATOM      1  C4' PXY d   1       3.307   1.782  -0.015  0.00  0.00     0.077 C 
ATOM      2  C1' PXY d   1      -2.465   1.771   0.301  0.00  0.00     0.077 C 
ATOM      3  C1  PXY d   1      -0.951   1.784   0.211  0.00  0.00    -0.082 A 
ATOM      4  C2  PXY d   1      -0.273   0.672   0.440  0.00  0.00     0.003 A 
ATOM      5  C3  PXY d   1       1.098   0.674   0.393  0.00  0.00     0.003 A 
ATOM      6  C4  PXY d   1       1.778   1.813   0.056  0.00  0.00    -0.082 A 
ATOM      7  C5  PXY d   1       1.092   2.950  -0.189  0.00  0.00     0.003 A 
ATOM      8  C6  PXY d   1      -0.297   2.937  -0.096  0.00  0.00     0.003 A 
ENDROOT
TORSDOF 0
ENDMDL
