MODEL 1
REMARK minimizedAffinity -6.5534029
REMARK minimizedRMSD -1
REMARK  0 active torsions:
REMARK  status: ('A' for Active; 'I' for Inactive)
ROOT
ATOM      1  C4' PXY d   1       3.246   1.836   0.579  0.00  0.00     0.077 C 
ATOM      2  C1' PXY d   1      -2.461   0.918   0.567  0.00  0.00     0.077 C 
ATOM      3  C1  PXY d   1      -0.967   1.171   0.565  0.00  0.00    -0.082 A 
ATOM      4  C2  PXY d   1      -0.130   0.146   0.549  0.00  0.00     0.003 A 
ATOM      5  C3  PXY d   1       1.225   0.356   0.579  0.00  0.00     0.003 A 
ATOM      6  C4  PXY d   1       1.729   1.629   0.572  0.00  0.00    -0.082 A 
ATOM      7  C5  PXY d   1       0.882   2.680   0.578  0.00  0.00     0.003 A 
ATOM      8  C6  PXY d   1      -0.490   2.445   0.589  0.00  0.00     0.003 A 
ENDROOT
TORSDOF 0
ENDMDL
