MODEL 1
REMARK minimizedAffinity -0.827232003
REMARK minimizedRMSD -1
REMARK  0 active torsions:
REMARK  status: ('A' for Active; 'I' for Inactive)
ROOT
ATOM      1  C4' PXY d   1      -0.379  -2.560  -0.754  0.00  0.00     0.077 C 
ATOM      2  C1' PXY d   1      -0.853   2.961   0.890  0.00  0.00     0.077 C 
ATOM      3  C1  PXY d   1      -0.716   1.514   0.460  0.00  0.00    -0.082 A 
ATOM      4  C2  PXY d   1      -1.663   0.959  -0.278  0.00  0.00     0.003 A 
ATOM      5  C3  PXY d   1      -1.570  -0.358  -0.649  0.00  0.00     0.003 A 
ATOM      6  C4  PXY d   1      -0.471  -1.099  -0.305  0.00  0.00    -0.082 A 
ATOM      7  C5  PXY d   1       0.504  -0.537   0.440  0.00  0.00     0.003 A 
ATOM      8  C6  PXY d   1       0.371   0.790   0.841  0.00  0.00     0.003 A 
ENDROOT
TORSDOF 0
ENDMDL
