MODEL 1
REMARK minimizedAffinity -4.34267855
REMARK minimizedRMSD -1
REMARK  0 active torsions:
REMARK  status: ('A' for Active; 'I' for Inactive)
ROOT
ATOM      1  C4' PXY d   1      -0.551  -1.197  -0.142  0.00  0.00     0.077 C 
ATOM      2  C1' PXY d   1       1.011   4.356   0.237  0.00  0.00     0.077 C 
ATOM      3  C1  PXY d   1       0.590   2.902   0.144  0.00  0.00    -0.082 A 
ATOM      4  C2  PXY d   1       1.504   1.969  -0.069  0.00  0.00     0.003 A 
ATOM      5  C3  PXY d   1       1.138   0.653  -0.187  0.00  0.00     0.003 A 
ATOM      6  C4  PXY d   1      -0.171   0.282  -0.032  0.00  0.00    -0.082 A 
ATOM      7  C5  PXY d   1      -1.108   1.227   0.196  0.00  0.00     0.003 A 
ATOM      8  C6  PXY d   1      -0.721   2.561   0.271  0.00  0.00     0.003 A 
ENDROOT
TORSDOF 0
ENDMDL
