MODEL 1
REMARK minimizedAffinity -2.4298141
REMARK minimizedRMSD -1
REMARK  0 active torsions:
REMARK  status: ('A' for Active; 'I' for Inactive)
ROOT
ATOM      1  C4' PXY d   1      -0.537  -2.333  -0.792  0.00  0.00     0.077 C 
ATOM      2  C1' PXY d   1       0.368   3.013   1.212  0.00  0.00     0.077 C 
ATOM      3  C1  PXY d   1       0.143   1.609   0.685  0.00  0.00    -0.082 A 
ATOM      4  C2  PXY d   1      -1.039   1.277   0.192  0.00  0.00     0.003 A 
ATOM      5  C3  PXY d   1      -1.269   0.003  -0.260  0.00  0.00     0.003 A 
ATOM      6  C4  PXY d   1      -0.262  -0.925  -0.257  0.00  0.00    -0.082 A 
ATOM      7  C5  PXY d   1       0.950  -0.591   0.234  0.00  0.00     0.003 A 
ATOM      8  C6  PXY d   1       1.151   0.695   0.726  0.00  0.00     0.003 A 
ENDROOT
TORSDOF 0
ENDMDL
