MODEL 1
REMARK minimizedAffinity -1.78431511
REMARK minimizedRMSD -1
REMARK  0 active torsions:
REMARK  status: ('A' for Active; 'I' for Inactive)
ROOT
ATOM      1  C4' PXY d   1       0.759  -1.052  -2.209  0.00  0.00     0.077 C 
ATOM      2  C1' PXY d   1      -0.943   2.906   1.645  0.00  0.00     0.077 C 
ATOM      3  C1  PXY d   1      -0.498   1.877   0.625  0.00  0.00    -0.082 A 
ATOM      4  C2  PXY d   1      -0.615   0.588   0.902  0.00  0.00     0.003 A 
ATOM      5  C3  PXY d   1      -0.188  -0.356   0.004  0.00  0.00     0.003 A 
ATOM      6  C4  PXY d   1       0.314   0.022  -1.213  0.00  0.00    -0.082 A 
ATOM      7  C5  PXY d   1       0.426   1.335  -1.507  0.00  0.00     0.003 A 
ATOM      8  C6  PXY d   1       0.026   2.278  -0.565  0.00  0.00     0.003 A 
ENDROOT
TORSDOF 0
ENDMDL
