MODEL 1
REMARK minimizedAffinity -3.11163068
REMARK minimizedRMSD -1
REMARK  0 active torsions:
REMARK  status: ('A' for Active; 'I' for Inactive)
ROOT
ATOM      1  C4' PXY d   1      -0.799  -2.992  -0.755  0.00  0.00     0.077 C 
ATOM      2  C1' PXY d   1      -0.190   2.493   0.967  0.00  0.00     0.077 C 
ATOM      3  C1  PXY d   1      -0.337   1.054   0.512  0.00  0.00    -0.082 A 
ATOM      4  C2  PXY d   1      -1.534   0.588   0.193  0.00  0.00     0.003 A 
ATOM      5  C3  PXY d   1      -1.690  -0.719  -0.190  0.00  0.00     0.003 A 
ATOM      6  C4  PXY d   1      -0.602  -1.544  -0.299  0.00  0.00    -0.082 A 
ATOM      7  C5  PXY d   1       0.624  -1.073   0.014  0.00  0.00     0.003 A 
ATOM      8  C6  PXY d   1       0.755   0.246   0.441  0.00  0.00     0.003 A 
ENDROOT
TORSDOF 0
ENDMDL
