MODEL 1
REMARK minimizedAffinity -4.540802
REMARK minimizedRMSD -1
REMARK  0 active torsions:
REMARK  status: ('A' for Active; 'I' for Inactive)
ROOT
ATOM      1  C4' PXY d   1      -0.020   3.686   0.083  0.00  0.00     0.077 C 
ATOM      2  C1' PXY d   1      -0.046  -2.075  -0.399  0.00  0.00     0.077 C 
ATOM      3  C1  PXY d   1      -0.052  -0.564  -0.276  0.00  0.00    -0.082 A 
ATOM      4  C2  PXY d   1       1.074   0.111  -0.444  0.00  0.00     0.003 A 
ATOM      5  C3  PXY d   1       1.093   1.475  -0.304  0.00  0.00     0.003 A 
ATOM      6  C4  PXY d   1      -0.063   2.160  -0.041  0.00  0.00    -0.082 A 
ATOM      7  C5  PXY d   1      -1.218   1.480   0.122  0.00  0.00     0.003 A 
ATOM      8  C6  PXY d   1      -1.208   0.092   0.016  0.00  0.00     0.003 A 
ENDROOT
TORSDOF 0
ENDMDL
