MODEL 1
REMARK minimizedAffinity -2.74926853
REMARK minimizedRMSD -1
REMARK  0 active torsions:
REMARK  status: ('A' for Active; 'I' for Inactive)
ROOT
ATOM      1  C4' PXY d   1      -0.054   3.140   0.754  0.00  0.00     0.077 C 
ATOM      2  C1' PXY d   1      -0.497  -2.535  -0.251  0.00  0.00     0.077 C 
ATOM      3  C1  PXY d   1      -0.368  -1.048   0.014  0.00  0.00    -0.082 A 
ATOM      4  C2  PXY d   1      -1.419  -0.366   0.438  0.00  0.00     0.003 A 
ATOM      5  C3  PXY d   1      -1.329   0.985   0.653  0.00  0.00     0.003 A 
ATOM      6  C4  PXY d   1      -0.136   1.635   0.482  0.00  0.00    -0.082 A 
ATOM      7  C5  PXY d   1       0.944   0.944   0.060  0.00  0.00     0.003 A 
ATOM      8  C6  PXY d   1       0.821  -0.419  -0.192  0.00  0.00     0.003 A 
ENDROOT
TORSDOF 0
ENDMDL
