MODEL 1
REMARK minimizedAffinity 12.0127439
REMARK minimizedRMSD -1
REMARK  0 active torsions:
REMARK  status: ('A' for Active; 'I' for Inactive)
ROOT
ATOM      1  C   UNL d   1       2.068  -2.278   0.260  0.00  0.00     0.172 C 
ATOM      2  N   UNL d   1       2.248  -2.083  -1.159  0.00  0.00    -0.070 N 
ATOM      3  C1  UNL d   1       1.614  -1.139  -1.922  0.00  0.00    -0.004 A 
ATOM      4  C2  UNL d   1       2.055  -1.279  -3.220  0.00  0.00    -0.047 A 
ATOM      5  C3  UNL d   1       2.985  -2.345  -3.238  0.00  0.00    -0.047 A 
ATOM      6  C4  UNL d   1       3.085  -2.825  -1.949  0.00  0.00    -0.004 A 
ENDROOT
TORSDOF 0
ENDMDL
