MODEL 1
REMARK minimizedAffinity 4.28939819
REMARK minimizedRMSD -1
REMARK  0 active torsions:
REMARK  status: ('A' for Active; 'I' for Inactive)
ROOT
ATOM      1  C   UNL d   1      -4.151   4.200   2.902  0.00  0.00     0.172 C 
ATOM      2  N   UNL d   1      -4.641   4.848   4.096  0.00  0.00    -0.070 N 
ATOM      3  C1  UNL d   1      -5.947   4.890   4.504  0.00  0.00    -0.004 A 
ATOM      4  C2  UNL d   1      -5.999   5.598   5.685  0.00  0.00    -0.047 A 
ATOM      5  C3  UNL d   1      -4.677   5.996   5.998  0.00  0.00    -0.047 A 
ATOM      6  C4  UNL d   1      -3.857   5.519   4.998  0.00  0.00    -0.004 A 
ENDROOT
TORSDOF 0
ENDMDL
