MODEL 1
REMARK minimizedAffinity 11.4921341
REMARK minimizedRMSD -1
REMARK  0 active torsions:
REMARK  status: ('A' for Active; 'I' for Inactive)
ROOT
ATOM      1  C   UNL d   1       5.709   2.775   5.701  0.00  0.00     0.172 C 
ATOM      2  N   UNL d   1       5.014   3.293   4.546  0.00  0.00    -0.070 N 
ATOM      3  C1  UNL d   1       3.826   3.972   4.568  0.00  0.00    -0.004 A 
ATOM      4  C2  UNL d   1       3.500   4.295   3.268  0.00  0.00    -0.047 A 
ATOM      5  C3  UNL d   1       4.528   3.790   2.436  0.00  0.00    -0.047 A 
ATOM      6  C4  UNL d   1       5.452   3.175   3.253  0.00  0.00    -0.004 A 
ENDROOT
TORSDOF 0
ENDMDL
