MODEL 1
REMARK minimizedAffinity 2.15485311
REMARK minimizedRMSD -1
REMARK  0 active torsions:
REMARK  status: ('A' for Active; 'I' for Inactive)
ROOT
ATOM      1  C   UNL d   1      -4.536   3.653   2.536  0.00  0.00     0.172 C 
ATOM      2  N   UNL d   1      -4.829   4.474   3.687  0.00  0.00    -0.070 N 
ATOM      3  C1  UNL d   1      -3.991   5.408   4.237  0.00  0.00    -0.004 A 
ATOM      4  C2  UNL d   1      -4.637   5.972   5.315  0.00  0.00    -0.047 A 
ATOM      5  C3  UNL d   1      -5.907   5.356   5.418  0.00  0.00    -0.047 A 
ATOM      6  C4  UNL d   1      -5.999   4.433   4.398  0.00  0.00    -0.004 A 
ENDROOT
TORSDOF 0
ENDMDL
