MODEL 1
REMARK minimizedAffinity 1.81818104
REMARK minimizedRMSD -1
REMARK  0 active torsions:
REMARK  status: ('A' for Active; 'I' for Inactive)
ROOT
ATOM      1  C   UNL d   1       2.224  -1.311   0.029  0.00  0.00     0.172 C 
ATOM      2  N   UNL d   1       2.945  -0.092  -0.253  0.00  0.00    -0.070 N 
ATOM      3  C1  UNL d   1       4.042   0.363   0.428  0.00  0.00    -0.004 A 
ATOM      4  C2  UNL d   1       4.432   1.553  -0.146  0.00  0.00    -0.047 A 
ATOM      5  C3  UNL d   1       3.538   1.824  -1.209  0.00  0.00    -0.047 A 
ATOM      6  C4  UNL d   1       2.627   0.789  -1.253  0.00  0.00    -0.004 A 
ENDROOT
TORSDOF 0
ENDMDL
