MODEL 1
REMARK minimizedAffinity 9.94989872
REMARK minimizedRMSD -1
REMARK  0 active torsions:
REMARK  status: ('A' for Active; 'I' for Inactive)
ROOT
ATOM      1  C   UNL d   1      -5.856   1.701  -2.730  0.00  0.00     0.172 C 
ATOM      2  N   UNL d   1      -5.207   1.766  -1.442  0.00  0.00    -0.070 N 
ATOM      3  C1  UNL d   1      -4.790   0.692  -0.703  0.00  0.00    -0.004 A 
ATOM      4  C2  UNL d   1      -4.222   1.172   0.457  0.00  0.00    -0.047 A 
ATOM      5  C3  UNL d   1      -4.301   2.584   0.414  0.00  0.00    -0.047 A 
ATOM      6  C4  UNL d   1      -4.915   2.925  -0.772  0.00  0.00    -0.004 A 
ENDROOT
TORSDOF 0
ENDMDL
