MODEL 1
REMARK minimizedAffinity -0.479570448
REMARK minimizedRMSD -1
REMARK  0 active torsions:
REMARK  status: ('A' for Active; 'I' for Inactive)
ROOT
ATOM      1  C   UNL d   1      -5.612   4.125   2.423  0.00  0.00     0.172 C 
ATOM      2  N   UNL d   1      -5.618   4.623   3.778  0.00  0.00    -0.070 N 
ATOM      3  C1  UNL d   1      -5.627   5.943   4.143  0.00  0.00    -0.004 A 
ATOM      4  C2  UNL d   1      -5.631   6.000   5.520  0.00  0.00    -0.047 A 
ATOM      5  C3  UNL d   1      -5.623   4.668   5.999  0.00  0.00    -0.047 A 
ATOM      6  C4  UNL d   1      -5.615   3.836   4.899  0.00  0.00    -0.004 A 
ENDROOT
TORSDOF 0
ENDMDL
