MODEL 1
REMARK minimizedAffinity 2.40129495
REMARK minimizedRMSD -1
REMARK  0 active torsions:
REMARK  status: ('A' for Active; 'I' for Inactive)
ROOT
ATOM      1  C   UNL d   1      -5.961   0.369  -4.413  0.00  0.00     0.172 C 
ATOM      2  N   UNL d   1      -5.149   0.302  -3.221  0.00  0.00    -0.070 N 
ATOM      3  C1  UNL d   1      -3.808   0.025  -3.183  0.00  0.00    -0.004 A 
ATOM      4  C2  UNL d   1      -3.408   0.056  -1.864  0.00  0.00    -0.047 A 
ATOM      5  C3  UNL d   1      -4.548   0.361  -1.083  0.00  0.00    -0.047 A 
ATOM      6  C4  UNL d   1      -5.612   0.508  -1.948  0.00  0.00    -0.004 A 
ENDROOT
TORSDOF 0
ENDMDL
