MODEL 1
REMARK minimizedAffinity -3.93673825
REMARK minimizedRMSD -1
REMARK  1 active torsions:
REMARK  status: ('A' for Active; 'I' for Inactive)
REMARK    1  A    between atoms: C3_4  and  O_7 
ROOT
ATOM      1  C   UNL d   1      -0.240  -1.362  -3.503  0.00  0.00    -0.033 A 
ATOM      2  C1  UNL d   1      -1.164  -1.778  -2.541  0.00  0.00     0.039 A 
ATOM      3  C2  UNL d   1      -0.946  -1.491  -1.192  0.00  0.00    -0.080 A 
ATOM      4  C3  UNL d   1       0.196  -0.788  -0.818  0.00  0.00     0.150 A 
ATOM      5  C4  UNL d   1       1.117  -0.367  -1.771  0.00  0.00    -0.007 A 
ATOM      6  C5  UNL d   1       0.899  -0.655  -3.118  0.00  0.00     0.039 A 
ENDROOT
BRANCH   4   7
ATOM      7  O   UNL d   1       0.453  -0.489   0.487  0.00  0.00    -0.526 OA
ATOM      8  H5  UNL d   1      -0.255  -0.868   1.034  0.00  0.00     0.418 HD
ENDBRANCH   4   7
TORSDOF 1
ENDMDL
