MODEL 1
REMARK minimizedAffinity -3.30835438
REMARK minimizedRMSD -1
REMARK  1 active torsions:
REMARK  status: ('A' for Active; 'I' for Inactive)
REMARK    1  A    between atoms: C3_4  and  O_7 
ROOT
ATOM      1  C   UNL d   1      -2.868   4.704  -5.954  0.00  0.00    -0.033 A 
ATOM      2  C1  UNL d   1      -2.320   3.420  -5.985  0.00  0.00     0.039 A 
ATOM      3  C2  UNL d   1      -3.156   2.302  -6.000  0.00  0.00    -0.080 A 
ATOM      4  C3  UNL d   1      -4.537   2.482  -5.984  0.00  0.00     0.150 A 
ATOM      5  C4  UNL d   1      -5.089   3.758  -5.956  0.00  0.00    -0.007 A 
ATOM      6  C5  UNL d   1      -4.252   4.873  -5.941  0.00  0.00     0.039 A 
ENDROOT
BRANCH   4   7
ATOM      7  O   UNL d   1      -5.393   1.421  -5.993  0.00  0.00    -0.526 OA
ATOM      8  H5  UNL d   1      -4.870   0.603  -5.983  0.00  0.00     0.418 HD
ENDBRANCH   4   7
TORSDOF 1
ENDMDL
