MODEL 1
REMARK minimizedAffinity -2.31573224
REMARK minimizedRMSD -1
REMARK  1 active torsions:
REMARK  status: ('A' for Active; 'I' for Inactive)
REMARK    1  A    between atoms: C3_4  and  O_7 
ROOT
ATOM      1  C   UNL d   1      -5.851   4.478  -5.739  0.00  0.00    -0.033 A 
ATOM      2  C1  UNL d   1      -5.991   3.100  -5.913  0.00  0.00     0.039 A 
ATOM      3  C2  UNL d   1      -4.859   2.287  -5.997  0.00  0.00    -0.080 A 
ATOM      4  C3  UNL d   1      -3.595   2.863  -5.905  0.00  0.00     0.150 A 
ATOM      5  C4  UNL d   1      -3.449   4.235  -5.728  0.00  0.00    -0.007 A 
ATOM      6  C5  UNL d   1      -4.580   5.046  -5.645  0.00  0.00     0.039 A 
ENDROOT
BRANCH   4   7
ATOM      7  O   UNL d   1      -2.461   2.111  -5.987  0.00  0.00    -0.526 OA
ATOM      8  H5  UNL d   1      -2.716   1.186  -6.138  0.00  0.00     0.418 HD
ENDBRANCH   4   7
TORSDOF 1
ENDMDL
