MODEL 1
REMARK minimizedAffinity -2.69700456
REMARK minimizedRMSD -1
REMARK  1 active torsions:
REMARK  status: ('A' for Active; 'I' for Inactive)
REMARK    1  A    between atoms: C3_4  and  O_7 
ROOT
ATOM      1  C   UNL d   1       0.139   0.806  -1.269  0.00  0.00    -0.033 A 
ATOM      2  C1  UNL d   1       0.315   0.053  -0.106  0.00  0.00     0.039 A 
ATOM      3  C2  UNL d   1       1.044  -1.138  -0.148  0.00  0.00    -0.080 A 
ATOM      4  C3  UNL d   1       1.592  -1.562  -1.355  0.00  0.00     0.150 A 
ATOM      5  C4  UNL d   1       1.423  -0.815  -2.516  0.00  0.00    -0.007 A 
ATOM      6  C5  UNL d   1       0.695   0.373  -2.473  0.00  0.00     0.039 A 
ENDROOT
BRANCH   4   7
ATOM      7  O   UNL d   1       2.307  -2.719  -1.446  0.00  0.00    -0.526 OA
ATOM      8  H5  UNL d   1       2.316  -3.144  -0.572  0.00  0.00     0.418 HD
ENDBRANCH   4   7
TORSDOF 1
ENDMDL
