MODEL 1
REMARK minimizedAffinity -1.07311881
REMARK minimizedRMSD -1
REMARK  1 active torsions:
REMARK  status: ('A' for Active; 'I' for Inactive)
REMARK    1  A    between atoms: C3_4  and  O_7 
ROOT
ATOM      1  C   UNL d   1       0.430  -1.157  -1.984  0.00  0.00    -0.033 A 
ATOM      2  C1  UNL d   1       1.594  -0.406  -2.155  0.00  0.00     0.039 A 
ATOM      3  C2  UNL d   1       1.963   0.541  -1.197  0.00  0.00    -0.080 A 
ATOM      4  C3  UNL d   1       1.161   0.725  -0.075  0.00  0.00     0.150 A 
ATOM      5  C4  UNL d   1       0.002  -0.023   0.104  0.00  0.00    -0.007 A 
ATOM      6  C5  UNL d   1      -0.366  -0.967  -0.854  0.00  0.00     0.039 A 
ENDROOT
BRANCH   4   7
ATOM      7  O   UNL d   1       1.478   1.640   0.885  0.00  0.00    -0.526 OA
ATOM      8  H5  UNL d   1       2.289   2.102   0.614  0.00  0.00     0.418 HD
ENDBRANCH   4   7
TORSDOF 1
ENDMDL
