MODEL 1
REMARK minimizedAffinity -2.1338098
REMARK minimizedRMSD -1
REMARK  1 active torsions:
REMARK  status: ('A' for Active; 'I' for Inactive)
REMARK    1  A    between atoms: C3_4  and  O_7 
ROOT
ATOM      1  C   UNL d   1      -4.712   2.033  -5.992  0.00  0.00    -0.033 A 
ATOM      2  C1  UNL d   1      -3.350   2.338  -6.000  0.00  0.00     0.039 A 
ATOM      3  C2  UNL d   1      -2.931   3.669  -5.994  0.00  0.00    -0.080 A 
ATOM      4  C3  UNL d   1      -3.882   4.685  -5.980  0.00  0.00     0.150 A 
ATOM      5  C4  UNL d   1      -5.241   4.389  -5.968  0.00  0.00    -0.007 A 
ATOM      6  C5  UNL d   1      -5.658   3.059  -5.975  0.00  0.00     0.039 A 
ENDROOT
BRANCH   4   7
ATOM      7  O   UNL d   1      -3.521   6.000  -5.979  0.00  0.00    -0.526 OA
ATOM      8  H5  UNL d   1      -2.552   6.053  -6.017  0.00  0.00     0.418 HD
ENDBRANCH   4   7
TORSDOF 1
ENDMDL
