MODEL 1
REMARK minimizedAffinity -1.42890155
REMARK minimizedRMSD -1
REMARK  1 active torsions:
REMARK  status: ('A' for Active; 'I' for Inactive)
REMARK    1  A    between atoms: C3_4  and  O_7 
ROOT
ATOM      1  C   UNL d   1      -2.985   0.608  -6.000  0.00  0.00    -0.033 A 
ATOM      2  C1  UNL d   1      -2.264   1.804  -6.000  0.00  0.00     0.039 A 
ATOM      3  C2  UNL d   1      -2.887   2.996  -5.625  0.00  0.00    -0.080 A 
ATOM      4  C3  UNL d   1      -4.227   2.979  -5.251  0.00  0.00     0.150 A 
ATOM      5  C4  UNL d   1      -4.950   1.791  -5.245  0.00  0.00    -0.007 A 
ATOM      6  C5  UNL d   1      -4.328   0.601  -5.621  0.00  0.00     0.039 A 
ENDROOT
BRANCH   4   7
ATOM      7  O   UNL d   1      -4.879   4.118  -4.882  0.00  0.00    -0.526 OA
ATOM      8  H5  UNL d   1      -4.262   4.865  -4.962  0.00  0.00     0.418 HD
ENDBRANCH   4   7
TORSDOF 1
ENDMDL
