MODEL 1
REMARK minimizedAffinity -1.88482928
REMARK minimizedRMSD -1
REMARK  1 active torsions:
REMARK  status: ('A' for Active; 'I' for Inactive)
REMARK    1  A    between atoms: C3_4  and  O_7 
ROOT
ATOM      1  C   UNL d   1      -4.850   2.883  -5.938  0.00  0.00    -0.033 A 
ATOM      2  C1  UNL d   1      -5.060   1.504  -5.978  0.00  0.00     0.039 A 
ATOM      3  C2  UNL d   1      -3.972   0.629  -5.998  0.00  0.00    -0.080 A 
ATOM      4  C3  UNL d   1      -2.680   1.147  -5.976  0.00  0.00     0.150 A 
ATOM      5  C4  UNL d   1      -2.462   2.520  -5.933  0.00  0.00    -0.007 A 
ATOM      6  C5  UNL d   1      -3.550   3.391  -5.914  0.00  0.00     0.039 A 
ENDROOT
BRANCH   4   7
ATOM      7  O   UNL d   1      -1.586   0.333  -5.999  0.00  0.00    -0.526 OA
ATOM      8  H5  UNL d   1      -1.889  -0.588  -6.058  0.00  0.00     0.418 HD
ENDBRANCH   4   7
TORSDOF 1
ENDMDL
