MODEL 1
REMARK minimizedAffinity -2.19667292
REMARK minimizedRMSD -1
REMARK  1 active torsions:
REMARK  status: ('A' for Active; 'I' for Inactive)
REMARK    1  A    between atoms: C3_4  and  O_7 
ROOT
ATOM      1  C   UNL d   1      -3.951   1.070  -5.998  0.00  0.00    -0.033 A 
ATOM      2  C1  UNL d   1      -5.239   1.609  -5.997  0.00  0.00     0.039 A 
ATOM      3  C2  UNL d   1      -5.419   2.994  -5.992  0.00  0.00    -0.080 A 
ATOM      4  C3  UNL d   1      -4.304   3.827  -5.990  0.00  0.00     0.150 A 
ATOM      5  C4  UNL d   1      -3.018   3.297  -5.995  0.00  0.00    -0.007 A 
ATOM      6  C5  UNL d   1      -2.840   1.914  -5.999  0.00  0.00     0.039 A 
ENDROOT
BRANCH   4   7
ATOM      7  O   UNL d   1      -4.429   5.185  -5.980  0.00  0.00    -0.526 OA
ATOM      8  H5  UNL d   1      -5.374   5.407  -5.948  0.00  0.00     0.418 HD
ENDBRANCH   4   7
TORSDOF 1
ENDMDL
