MODEL 1
REMARK minimizedAffinity -3.64853477
REMARK minimizedRMSD -1
REMARK  1 active torsions:
REMARK  status: ('A' for Active; 'I' for Inactive)
REMARK    1  A    between atoms: C3_4  and  O_7 
ROOT
ATOM      1  C   UNL d   1      -2.115   2.773  -5.793  0.00  0.00    -0.033 A 
ATOM      2  C1  UNL d   1      -3.232   1.957  -5.984  0.00  0.00     0.039 A 
ATOM      3  C2  UNL d   1      -4.516   2.500  -5.906  0.00  0.00    -0.080 A 
ATOM      4  C3  UNL d   1      -4.670   3.857  -5.638  0.00  0.00     0.150 A 
ATOM      5  C4  UNL d   1      -3.561   4.676  -5.450  0.00  0.00    -0.007 A 
ATOM      6  C5  UNL d   1      -2.280   4.133  -5.527  0.00  0.00     0.039 A 
ENDROOT
BRANCH   4   7
ATOM      7  O   UNL d   1      -5.903   4.431  -5.548  0.00  0.00    -0.526 OA
ATOM      8  H5  UNL d   1      -6.574   3.739  -5.672  0.00  0.00     0.418 HD
ENDBRANCH   4   7
TORSDOF 1
ENDMDL
