MODEL 1
REMARK minimizedAffinity -4.2824297
REMARK minimizedRMSD -1
REMARK  1 active torsions:
REMARK  status: ('A' for Active; 'I' for Inactive)
REMARK    1  A    between atoms: C3_4  and  O_7 
ROOT
ATOM      1  C   UNL d   1       0.562  -0.832  -2.956  0.00  0.00    -0.033 A 
ATOM      2  C1  UNL d   1      -0.392  -1.224  -2.016  0.00  0.00     0.039 A 
ATOM      3  C2  UNL d   1      -0.271  -0.819  -0.685  0.00  0.00    -0.080 A 
ATOM      4  C3  UNL d   1       0.807  -0.022  -0.309  0.00  0.00     0.150 A 
ATOM      5  C4  UNL d   1       1.759   0.375  -1.242  0.00  0.00    -0.007 A 
ATOM      6  C5  UNL d   1       1.637  -0.031  -2.570  0.00  0.00     0.039 A 
ENDROOT
BRANCH   4   7
ATOM      7  O   UNL d   1       0.970   0.394   0.979  0.00  0.00    -0.526 OA
ATOM      8  H5  UNL d   1       0.253   0.019   1.517  0.00  0.00     0.418 HD
ENDBRANCH   4   7
TORSDOF 1
ENDMDL
