MODEL 1
REMARK minimizedAffinity -0.894066274
REMARK minimizedRMSD -1
REMARK  1 active torsions:
REMARK  status: ('A' for Active; 'I' for Inactive)
REMARK    1  A    between atoms: C3_4  and  O_7 
ROOT
ATOM      1  C   UNL d   1      -5.124   4.677  -5.960  0.00  0.00    -0.033 A 
ATOM      2  C1  UNL d   1      -5.648   3.383  -5.994  0.00  0.00     0.039 A 
ATOM      3  C2  UNL d   1      -4.791   2.281  -5.998  0.00  0.00    -0.080 A 
ATOM      4  C3  UNL d   1      -3.415   2.485  -5.966  0.00  0.00     0.150 A 
ATOM      5  C4  UNL d   1      -2.885   3.771  -5.929  0.00  0.00    -0.007 A 
ATOM      6  C5  UNL d   1      -3.742   4.871  -5.926  0.00  0.00     0.039 A 
ENDROOT
BRANCH   4   7
ATOM      7  O   UNL d   1      -2.539   1.440  -5.973  0.00  0.00    -0.526 OA
ATOM      8  H5  UNL d   1      -3.046   0.614  -6.030  0.00  0.00     0.418 HD
ENDBRANCH   4   7
TORSDOF 1
ENDMDL
