MODEL 1
REMARK minimizedAffinity 0.308142394
REMARK minimizedRMSD -1
REMARK  1 active torsions:
REMARK  status: ('A' for Active; 'I' for Inactive)
REMARK    1  A    between atoms: C3_4  and  O_7 
ROOT
ATOM      1  C   UNL d   1      -3.759  -1.432  -5.988  0.00  0.00    -0.033 A 
ATOM      2  C1  UNL d   1      -2.455  -0.935  -5.975  0.00  0.00     0.039 A 
ATOM      3  C2  UNL d   1      -2.231   0.443  -5.978  0.00  0.00    -0.080 A 
ATOM      4  C3  UNL d   1      -3.319   1.312  -5.991  0.00  0.00     0.150 A 
ATOM      5  C4  UNL d   1      -4.621   0.823  -6.000  0.00  0.00    -0.007 A 
ATOM      6  C5  UNL d   1      -4.843  -0.553  -5.999  0.00  0.00     0.039 A 
ENDROOT
BRANCH   4   7
ATOM      7  O   UNL d   1      -3.151   2.665  -5.999  0.00  0.00    -0.526 OA
ATOM      8  H5  UNL d   1      -2.198   2.856  -6.020  0.00  0.00     0.418 HD
ENDBRANCH   4   7
TORSDOF 1
ENDMDL
