MODEL 1
REMARK minimizedAffinity -1.19337928
REMARK minimizedRMSD -1
REMARK  1 active torsions:
REMARK  status: ('A' for Active; 'I' for Inactive)
REMARK    1  A    between atoms: C3_4  and  O_7 
ROOT
ATOM      1  C   UNL d   1      -5.096   1.613  -5.998  0.00  0.00    -0.033 A 
ATOM      2  C1  UNL d   1      -5.645   2.897  -5.999  0.00  0.00     0.039 A 
ATOM      3  C2  UNL d   1      -4.809   4.015  -5.997  0.00  0.00    -0.080 A 
ATOM      4  C3  UNL d   1      -3.428   3.836  -5.994  0.00  0.00     0.150 A 
ATOM      5  C4  UNL d   1      -2.875   2.560  -5.996  0.00  0.00    -0.007 A 
ATOM      6  C5  UNL d   1      -3.711   1.444  -5.998  0.00  0.00     0.039 A 
ENDROOT
BRANCH   4   7
ATOM      7  O   UNL d   1      -2.572   4.897  -5.987  0.00  0.00    -0.526 OA
ATOM      8  H5  UNL d   1      -3.095   5.715  -5.957  0.00  0.00     0.418 HD
ENDBRANCH   4   7
TORSDOF 1
ENDMDL
