MODEL 1
REMARK minimizedAffinity -3.2890811
REMARK minimizedRMSD -1
REMARK  1 active torsions:
REMARK  status: ('A' for Active; 'I' for Inactive)
REMARK    1  A    between atoms: C1_2  and  C2_3 
ROOT
ATOM      1  C2  UNL d   1      -0.301  -1.115   0.242  0.00  0.00    -0.076 A 
ATOM      2  C3  UNL d   1      -1.458  -1.784  -0.193  0.00  0.00     0.004 A 
ATOM      3  C4  UNL d   1      -2.345  -1.179  -1.082  0.00  0.00    -0.003 A 
ATOM      4  C5  UNL d   1      -2.088   0.104  -1.551  0.00  0.00     0.000 A 
ATOM      5  C6  UNL d   1      -0.936   0.776  -1.144  0.00  0.00     0.000 A 
ATOM      6  C7  UNL d   1      -0.023   0.174  -0.261  0.00  0.00    -0.073 A 
ATOM      7  C8  UNL d   1       1.200   0.946   0.149  0.00  0.00     0.078 C 
ENDROOT
BRANCH   1   8
ATOM      8  C1  UNL d   1       0.610  -1.810   1.228  0.00  0.00     0.053 C 
ATOM      9  C   UNL d   1      -0.084  -2.950   1.959  0.00  0.00     0.018 C 
ENDBRANCH   1   8
TORSDOF 1
ENDMDL
