MODEL 1
REMARK minimizedAffinity -2.11502171
REMARK minimizedRMSD -1
REMARK  1 active torsions:
REMARK  status: ('A' for Active; 'I' for Inactive)
REMARK    1  A    between atoms: C1_2  and  C2_3 
ROOT
ATOM      1  C2  UNL d   1       1.830   1.389   0.279  0.00  0.00    -0.076 A 
ATOM      2  C3  UNL d   1       1.116   0.834  -0.797  0.00  0.00     0.004 A 
ATOM      3  C4  UNL d   1       0.114  -0.112  -0.582  0.00  0.00    -0.003 A 
ATOM      4  C5  UNL d   1      -0.190  -0.517   0.713  0.00  0.00     0.000 A 
ATOM      5  C6  UNL d   1       0.497   0.037   1.793  0.00  0.00     0.000 A 
ATOM      6  C7  UNL d   1       1.498   1.003   1.595  0.00  0.00    -0.073 A 
ATOM      7  C8  UNL d   1       2.210   1.562   2.796  0.00  0.00     0.078 C 
ENDROOT
BRANCH   1   8
ATOM      8  C1  UNL d   1       2.924   2.390  -0.018  0.00  0.00     0.053 C 
ATOM      9  C   UNL d   1       2.418   3.824  -0.015  0.00  0.00     0.018 C 
ENDBRANCH   1   8
TORSDOF 1
ENDMDL
