MODEL 1
REMARK minimizedAffinity -3.85014129
REMARK minimizedRMSD -1
REMARK  1 active torsions:
REMARK  status: ('A' for Active; 'I' for Inactive)
REMARK    1  A    between atoms: C1_2  and  C2_3 
ROOT
ATOM      1  C2  UNL d   1      -0.204  -0.012  -0.344  0.00  0.00    -0.076 A 
ATOM      2  C3  UNL d   1      -0.618  -0.884   0.678  0.00  0.00     0.004 A 
ATOM      3  C4  UNL d   1      -1.934  -1.337   0.746  0.00  0.00    -0.003 A 
ATOM      4  C5  UNL d   1      -2.858  -0.926  -0.208  0.00  0.00     0.000 A 
ATOM      5  C6  UNL d   1      -2.462  -0.076  -1.240  0.00  0.00     0.000 A 
ATOM      6  C7  UNL d   1      -1.135   0.378  -1.332  0.00  0.00    -0.073 A 
ATOM      7  C8  UNL d   1      -0.763   1.299  -2.462  0.00  0.00     0.078 C 
ENDROOT
BRANCH   1   8
ATOM      8  C1  UNL d   1       1.229   0.469  -0.351  0.00  0.00     0.053 C 
ATOM      9  C   UNL d   1       1.622   1.150   0.950  0.00  0.00     0.018 C 
ENDBRANCH   1   8
TORSDOF 1
ENDMDL
