MODEL 1
REMARK minimizedAffinity -2.18858576
REMARK minimizedRMSD -1
REMARK  1 active torsions:
REMARK  status: ('A' for Active; 'I' for Inactive)
REMARK    1  A    between atoms: C1_2  and  C2_3 
ROOT
ATOM      1  C2  UNL d   1      -0.557  -0.171   0.005  0.00  0.00    -0.076 A 
ATOM      2  C3  UNL d   1      -1.308  -0.917   0.930  0.00  0.00     0.004 A 
ATOM      3  C4  UNL d   1      -2.503  -1.529   0.556  0.00  0.00    -0.003 A 
ATOM      4  C5  UNL d   1      -2.967  -1.405  -0.749  0.00  0.00     0.000 A 
ATOM      5  C6  UNL d   1      -2.226  -0.683  -1.684  0.00  0.00     0.000 A 
ATOM      6  C7  UNL d   1      -1.011  -0.074  -1.328  0.00  0.00    -0.073 A 
ATOM      7  C8  UNL d   1      -0.256   0.698  -2.375  0.00  0.00     0.078 C 
ENDROOT
BRANCH   1   8
ATOM      8  C1  UNL d   1       0.718   0.493   0.475  0.00  0.00     0.053 C 
ATOM      9  C   UNL d   1       1.900  -0.464   0.495  0.00  0.00     0.018 C 
ENDBRANCH   1   8
TORSDOF 1
ENDMDL
