MODEL 1
REMARK minimizedAffinity -5.49199343
REMARK minimizedRMSD -1
REMARK  1 active torsions:
REMARK  status: ('A' for Active; 'I' for Inactive)
REMARK    1  A    between atoms: C1_2  and  C2_3 
ROOT
ATOM      1  C2  UNL d   1       0.098  -0.029  -0.132  0.00  0.00    -0.076 A 
ATOM      2  C3  UNL d   1      -0.545  -0.700   0.923  0.00  0.00     0.004 A 
ATOM      3  C4  UNL d   1      -1.872  -1.110   0.810  0.00  0.00    -0.003 A 
ATOM      4  C5  UNL d   1      -2.578  -0.858  -0.361  0.00  0.00     0.000 A 
ATOM      5  C6  UNL d   1      -1.951  -0.209  -1.425  0.00  0.00     0.000 A 
ATOM      6  C7  UNL d   1      -0.608   0.197  -1.332  0.00  0.00    -0.073 A 
ATOM      7  C8  UNL d   1       0.016   0.898  -2.508  0.00  0.00     0.078 C 
ENDROOT
BRANCH   1   8
ATOM      8  C1  UNL d   1       1.530   0.417   0.059  0.00  0.00     0.053 C 
ATOM      9  C   UNL d   1       1.678   1.444   1.171  0.00  0.00     0.018 C 
ENDBRANCH   1   8
TORSDOF 1
ENDMDL
