MODEL 1
REMARK minimizedAffinity -4.57796335
REMARK minimizedRMSD -1
REMARK  1 active torsions:
REMARK  status: ('A' for Active; 'I' for Inactive)
REMARK    1  A    between atoms: C1_2  and  C2_3 
ROOT
ATOM      1  C2  UNL d   1      -0.229  -0.337   0.052  0.00  0.00    -0.076 A 
ATOM      2  C3  UNL d   1      -0.839   0.271  -1.059  0.00  0.00     0.004 A 
ATOM      3  C4  UNL d   1      -2.185   0.053  -1.347  0.00  0.00    -0.003 A 
ATOM      4  C5  UNL d   1      -2.944  -0.776  -0.528  0.00  0.00     0.000 A 
ATOM      5  C6  UNL d   1      -2.360  -1.373   0.588  0.00  0.00     0.000 A 
ATOM      6  C7  UNL d   1      -1.008  -1.151   0.902  0.00  0.00    -0.073 A 
ATOM      7  C8  UNL d   1      -0.428  -1.826   2.115  0.00  0.00     0.078 C 
ENDROOT
BRANCH   1   8
ATOM      8  C1  UNL d   1       1.241  -0.086   0.299  0.00  0.00     0.053 C 
ATOM      9  C   UNL d   1       1.585   1.396   0.309  0.00  0.00     0.018 C 
ENDBRANCH   1   8
TORSDOF 1
ENDMDL
