MODEL 1
REMARK minimizedAffinity -3.772861
REMARK minimizedRMSD -1
REMARK  1 active torsions:
REMARK  status: ('A' for Active; 'I' for Inactive)
REMARK    1  A    between atoms: C1_2  and  C2_3 
ROOT
ATOM      1  C2  UNL d   1       0.589   0.464   0.514  0.00  0.00    -0.076 A 
ATOM      2  C3  UNL d   1      -0.558   1.069  -0.030  0.00  0.00     0.004 A 
ATOM      3  C4  UNL d   1      -1.775   0.392  -0.071  0.00  0.00    -0.003 A 
ATOM      4  C5  UNL d   1      -1.867  -0.901   0.433  0.00  0.00     0.000 A 
ATOM      5  C6  UNL d   1      -0.744  -1.510   0.992  0.00  0.00     0.000 A 
ATOM      6  C7  UNL d   1       0.487  -0.835   1.056  0.00  0.00    -0.073 A 
ATOM      7  C8  UNL d   1       1.667  -1.542   1.665  0.00  0.00     0.078 C 
ENDROOT
BRANCH   1   8
ATOM      8  C1  UNL d   1       1.888   1.236   0.507  0.00  0.00     0.053 C 
ATOM      9  C   UNL d   1       2.034   2.144   1.719  0.00  0.00     0.018 C 
ENDBRANCH   1   8
TORSDOF 1
ENDMDL
