MODEL 1
REMARK minimizedAffinity -3.57898784
REMARK minimizedRMSD -1
REMARK  1 active torsions:
REMARK  status: ('A' for Active; 'I' for Inactive)
REMARK    1  A    between atoms: C1_2  and  C2_3 
ROOT
ATOM      1  C2  UNL d   1       0.308   0.297  -0.323  0.00  0.00    -0.076 A 
ATOM      2  C3  UNL d   1      -0.428   0.864  -1.378  0.00  0.00     0.004 A 
ATOM      3  C4  UNL d   1      -1.757   0.507  -1.599  0.00  0.00    -0.003 A 
ATOM      4  C5  UNL d   1      -2.373  -0.422  -0.767  0.00  0.00     0.000 A 
ATOM      5  C6  UNL d   1      -1.663  -0.982   0.294  0.00  0.00     0.000 A 
ATOM      6  C7  UNL d   1      -0.327  -0.621   0.541  0.00  0.00    -0.073 A 
ATOM      7  C8  UNL d   1       0.392  -1.261   1.696  0.00  0.00     0.078 C 
ENDROOT
BRANCH   1   8
ATOM      8  C1  UNL d   1       1.754   0.701  -0.150  0.00  0.00     0.053 C 
ATOM      9  C   UNL d   1       1.915   1.919   0.747  0.00  0.00     0.018 C 
ENDBRANCH   1   8
TORSDOF 1
ENDMDL
