MODEL 1
REMARK minimizedAffinity -5.32430935
REMARK minimizedRMSD -1
REMARK  1 active torsions:
REMARK  status: ('A' for Active; 'I' for Inactive)
REMARK    1  A    between atoms: C1_2  and  C2_3 
ROOT
ATOM      1  C2  UNL d   1      -1.370  -0.532   0.343  0.00  0.00    -0.076 A 
ATOM      2  C3  UNL d   1      -0.832   0.356  -0.604  0.00  0.00     0.004 A 
ATOM      3  C4  UNL d   1       0.519   0.698  -0.581  0.00  0.00    -0.003 A 
ATOM      4  C5  UNL d   1       1.355   0.156   0.389  0.00  0.00     0.000 A 
ATOM      5  C6  UNL d   1       0.842  -0.741   1.326  0.00  0.00     0.000 A 
ATOM      6  C7  UNL d   1      -0.515  -1.108   1.307  0.00  0.00    -0.073 A 
ATOM      7  C8  UNL d   1      -1.016  -2.075   2.344  0.00  0.00     0.078 C 
ENDROOT
BRANCH   1   8
ATOM      8  C1  UNL d   1      -2.848  -0.845   0.285  0.00  0.00     0.053 C 
ATOM      9  C   UNL d   1      -3.252  -1.510  -1.021  0.00  0.00     0.018 C 
ENDBRANCH   1   8
TORSDOF 1
ENDMDL
