MODEL 1
REMARK minimizedAffinity -4.21883965
REMARK minimizedRMSD -1
REMARK  0 active torsions:
REMARK  status: ('A' for Active; 'I' for Inactive)
ROOT
ATOM      1  C4' PXY d   1      -4.262   2.257  -0.128  0.00  0.00     0.077 C 
ATOM      2  C1' PXY d   1      -0.277  -1.395   1.920  0.00  0.00     0.077 C 
ATOM      3  C1  PXY d   1      -1.313  -0.430   1.378  0.00  0.00    -0.082 A 
ATOM      4  C2  PXY d   1      -2.480  -0.311   1.990  0.00  0.00     0.003 A 
ATOM      5  C3  PXY d   1      -3.440   0.533   1.494  0.00  0.00     0.003 A 
ATOM      6  C4  PXY d   1      -3.183   1.302   0.391  0.00  0.00    -0.082 A 
ATOM      7  C5  PXY d   1      -1.991   1.194  -0.233  0.00  0.00     0.003 A 
ATOM      8  C6  PXY d   1      -1.045   0.301   0.262  0.00  0.00     0.003 A 
ENDROOT
TORSDOF 0
ENDMDL
