MODEL 1
REMARK minimizedAffinity -0.413367033
REMARK minimizedRMSD -1
REMARK  0 active torsions:
REMARK  status: ('A' for Active; 'I' for Inactive)
ROOT
ATOM      1  C4' PXY d   1      -3.346  -3.305   1.405  0.00  0.00     0.077 C 
ATOM      2  C1' PXY d   1       1.155   0.104   0.165  0.00  0.00     0.077 C 
ATOM      3  C1  PXY d   1      -0.022  -0.798   0.480  0.00  0.00    -0.082 A 
ATOM      4  C2  PXY d   1      -1.061  -0.311   1.140  0.00  0.00     0.003 A 
ATOM      5  C3  PXY d   1      -2.120  -1.121   1.461  0.00  0.00     0.003 A 
ATOM      6  C4  PXY d   1      -2.139  -2.429   1.057  0.00  0.00    -0.082 A 
ATOM      7  C5  PXY d   1      -1.088  -2.930   0.374  0.00  0.00     0.003 A 
ATOM      8  C6  PXY d   1      -0.005  -2.102   0.094  0.00  0.00     0.003 A 
ENDROOT
TORSDOF 0
ENDMDL
