MODEL 1
REMARK minimizedAffinity -4.59612513
REMARK minimizedRMSD -1
REMARK  0 active torsions:
REMARK  status: ('A' for Active; 'I' for Inactive)
ROOT
ATOM      1  C4' PXY d   1      -0.079  -3.303   0.537  0.00  0.00     0.077 C 
ATOM      2  C1' PXY d   1      -0.249   2.445  -0.050  0.00  0.00     0.077 C 
ATOM      3  C1  PXY d   1      -0.212   0.939   0.115  0.00  0.00    -0.082 A 
ATOM      4  C2  PXY d   1       0.770   0.244  -0.438  0.00  0.00     0.003 A 
ATOM      5  C3  PXY d   1       0.801  -1.122  -0.326  0.00  0.00     0.003 A 
ATOM      6  C4  PXY d   1      -0.152  -1.779   0.405  0.00  0.00    -0.082 A 
ATOM      7  C5  PXY d   1      -1.150  -1.077   0.981  0.00  0.00     0.003 A 
ATOM      8  C6  PXY d   1      -1.187   0.305   0.820  0.00  0.00     0.003 A 
ENDROOT
TORSDOF 0
ENDMDL
