MODEL 1
REMARK minimizedAffinity -2.56588602
REMARK minimizedRMSD -1
REMARK  0 active torsions:
REMARK  status: ('A' for Active; 'I' for Inactive)
ROOT
ATOM      1  C4' PXY d   1       0.469   2.446   0.020  0.00  0.00     0.077 C 
ATOM      2  C1' PXY d   1      -1.544  -2.914   0.817  0.00  0.00     0.077 C 
ATOM      3  C1  PXY d   1      -1.013  -1.512   0.596  0.00  0.00    -0.082 A 
ATOM      4  C2  PXY d   1      -0.655  -0.776   1.636  0.00  0.00     0.003 A 
ATOM      5  C3  PXY d   1      -0.203   0.506   1.456  0.00  0.00     0.003 A 
ATOM      6  C4  PXY d   1      -0.064   1.021   0.195  0.00  0.00    -0.082 A 
ATOM      7  C5  PXY d   1      -0.417   0.273  -0.872  0.00  0.00     0.003 A 
ATOM      8  C6  PXY d   1      -0.913  -1.011  -0.665  0.00  0.00     0.003 A 
ENDROOT
TORSDOF 0
ENDMDL
