MODEL 1
REMARK minimizedAffinity -2.70440984
REMARK minimizedRMSD -1
REMARK  0 active torsions:
REMARK  status: ('A' for Active; 'I' for Inactive)
ROOT
ATOM      1  C4' PXY d   1      -2.338  -1.871   3.224  0.00  0.00     0.077 C 
ATOM      2  C1' PXY d   1       0.470  -0.761  -1.705  0.00  0.00     0.077 C 
ATOM      3  C1  PXY d   1      -0.268  -1.065  -0.416  0.00  0.00    -0.082 A 
ATOM      4  C2  PXY d   1      -0.870  -0.085   0.239  0.00  0.00     0.003 A 
ATOM      5  C3  PXY d   1      -1.515  -0.337   1.422  0.00  0.00     0.003 A 
ATOM      6  C4  PXY d   1      -1.590  -1.613   1.913  0.00  0.00    -0.082 A 
ATOM      7  C5  PXY d   1      -0.987  -2.619   1.245  0.00  0.00     0.003 A 
ATOM      8  C6  PXY d   1      -0.302  -2.336   0.067  0.00  0.00     0.003 A 
ENDROOT
TORSDOF 0
ENDMDL
