MODEL 1
REMARK minimizedAffinity -1.33003604
REMARK minimizedRMSD -1
REMARK  0 active torsions:
REMARK  status: ('A' for Active; 'I' for Inactive)
ROOT
ATOM      1  C4' PXY d   1       2.132   1.986   0.784  0.00  0.00     0.077 C 
ATOM      2  C1' PXY d   1      -1.486  -2.521   0.876  0.00  0.00     0.077 C 
ATOM      3  C1  PXY d   1      -0.539  -1.339   0.839  0.00  0.00    -0.082 A 
ATOM      4  C2  PXY d   1       0.339  -1.173   1.815  0.00  0.00     0.003 A 
ATOM      5  C3  PXY d   1       1.182  -0.091   1.814  0.00  0.00     0.003 A 
ATOM      6  C4  PXY d   1       1.162   0.801   0.775  0.00  0.00    -0.082 A 
ATOM      7  C5  PXY d   1       0.277   0.632  -0.230  0.00  0.00     0.003 A 
ATOM      8  C6  PXY d   1      -0.598  -0.449  -0.189  0.00  0.00     0.003 A 
ENDROOT
TORSDOF 0
ENDMDL
