MODEL 1
REMARK minimizedAffinity -4.35797262
REMARK minimizedRMSD -1
REMARK  0 active torsions:
REMARK  status: ('A' for Active; 'I' for Inactive)
ROOT
ATOM      1  C4' PXY d   1      -2.530   2.052   0.781  0.00  0.00     0.077 C 
ATOM      2  C1' PXY d   1       0.313  -2.978   0.934  0.00  0.00     0.077 C 
ATOM      3  C1  PXY d   1      -0.443  -1.665   0.899  0.00  0.00    -0.082 A 
ATOM      4  C2  PXY d   1      -0.059  -0.712   0.065  0.00  0.00     0.003 A 
ATOM      5  C3  PXY d   1      -0.712   0.494   0.043  0.00  0.00     0.003 A 
ATOM      6  C4  PXY d   1      -1.802   0.707   0.844  0.00  0.00    -0.082 A 
ATOM      7  C5  PXY d   1      -2.206  -0.265   1.689  0.00  0.00     0.003 A 
ATOM      8  C6  PXY d   1      -1.504  -1.466   1.726  0.00  0.00     0.003 A 
ENDROOT
TORSDOF 0
ENDMDL
