MODEL 1
REMARK minimizedAffinity -4.13168907
REMARK minimizedRMSD -1
REMARK  0 active torsions:
REMARK  status: ('A' for Active; 'I' for Inactive)
ROOT
ATOM      1  C4' PXY d   1       1.206   2.021  -0.119  0.00  0.00     0.077 C 
ATOM      2  C1' PXY d   1      -1.213  -3.195   0.473  0.00  0.00     0.077 C 
ATOM      3  C1  PXY d   1      -0.568  -1.833   0.311  0.00  0.00    -0.082 A 
ATOM      4  C2  PXY d   1      -0.871  -0.862   1.157  0.00  0.00     0.003 A 
ATOM      5  C3  PXY d   1      -0.322   0.386   1.006  0.00  0.00     0.003 A 
ATOM      6  C4  PXY d   1       0.587   0.627   0.011  0.00  0.00    -0.082 A 
ATOM      7  C5  PXY d   1       0.909  -0.362  -0.849  0.00  0.00     0.003 A 
ATOM      8  C6  PXY d   1       0.310  -1.610  -0.704  0.00  0.00     0.003 A 
ENDROOT
TORSDOF 0
ENDMDL
