MODEL 1
REMARK minimizedAffinity -4.85856485
REMARK minimizedRMSD -1
REMARK  0 active torsions:
REMARK  status: ('A' for Active; 'I' for Inactive)
ROOT
ATOM      1  C4' PXY d   1       0.397   1.845  -0.745  0.00  0.00     0.077 C 
ATOM      2  C1' PXY d   1      -0.265  -3.725   0.651  0.00  0.00     0.077 C 
ATOM      3  C1  PXY d   1      -0.103  -2.262   0.289  0.00  0.00    -0.082 A 
ATOM      4  C2  PXY d   1       0.734  -1.915  -0.675  0.00  0.00     0.003 A 
ATOM      5  C3  PXY d   1       0.916  -0.593  -0.992  0.00  0.00     0.003 A 
ATOM      6  C4  PXY d   1       0.195   0.379  -0.353  0.00  0.00    -0.082 A 
ATOM      7  C5  PXY d   1      -0.669   0.032   0.624  0.00  0.00     0.003 A 
ATOM      8  C6  PXY d   1      -0.809  -1.312   0.960  0.00  0.00     0.003 A 
ENDROOT
TORSDOF 0
ENDMDL
