MODEL 1
REMARK minimizedAffinity -2.61891198
REMARK minimizedRMSD -1
REMARK  0 active torsions:
REMARK  status: ('A' for Active; 'I' for Inactive)
ROOT
ATOM      1  C4' PXY d   1      -2.814  -2.731   1.303  0.00  0.00     0.077 C 
ATOM      2  C1' PXY d   1       2.133  -0.466  -0.650  0.00  0.00     0.077 C 
ATOM      3  C1  PXY d   1       0.841  -1.072  -0.139  0.00  0.00    -0.082 A 
ATOM      4  C2  PXY d   1      -0.299  -0.424  -0.313  0.00  0.00     0.003 A 
ATOM      5  C3  PXY d   1      -1.473  -0.942   0.172  0.00  0.00     0.003 A 
ATOM      6  C4  PXY d   1      -1.486  -2.161   0.794  0.00  0.00    -0.082 A 
ATOM      7  C5  PXY d   1      -0.329  -2.834   0.966  0.00  0.00     0.003 A 
ATOM      8  C6  PXY d   1       0.857  -2.271   0.504  0.00  0.00     0.003 A 
ENDROOT
TORSDOF 0
ENDMDL
