MODEL 1
REMARK minimizedAffinity -3.47211742
REMARK minimizedRMSD -1
REMARK  0 active torsions:
REMARK  status: ('A' for Active; 'I' for Inactive)
ROOT
ATOM      1  C4' PXY d   1       2.173   4.113  -2.714  0.00  0.00     0.077 C 
ATOM      2  C1' PXY d   1       1.089   1.972   2.545  0.00  0.00     0.077 C 
ATOM      3  C1  PXY d   1       1.364   2.526   1.160  0.00  0.00    -0.082 A 
ATOM      4  C2  PXY d   1       2.555   3.031   0.883  0.00  0.00     0.003 A 
ATOM      5  C3  PXY d   1       2.810   3.565  -0.354  0.00  0.00     0.003 A 
ATOM      6  C4  PXY d   1       1.854   3.534  -1.333  0.00  0.00    -0.082 A 
ATOM      7  C5  PXY d   1       0.639   3.012  -1.061  0.00  0.00     0.003 A 
ATOM      8  C6  PXY d   1       0.387   2.512   0.213  0.00  0.00     0.003 A 
ENDROOT
TORSDOF 0
ENDMDL
