MODEL 1
REMARK minimizedAffinity -3.25935364
REMARK minimizedRMSD -1
REMARK  0 active torsions:
REMARK  status: ('A' for Active; 'I' for Inactive)
ROOT
ATOM      1  C4' PXY d   1       0.582   2.153   0.770  0.00  0.00     0.077 C 
ATOM      2  C1' PXY d   1      -0.800  -3.338   1.934  0.00  0.00     0.077 C 
ATOM      3  C1  PXY d   1      -0.441  -1.900   1.616  0.00  0.00    -0.082 A 
ATOM      4  C2  PXY d   1       0.390  -1.243   2.410  0.00  0.00     0.003 A 
ATOM      5  C3  PXY d   1       0.701   0.068   2.155  0.00  0.00     0.003 A 
ATOM      6  C4  PXY d   1       0.199   0.697   1.047  0.00  0.00    -0.082 A 
ATOM      7  C5  PXY d   1      -0.641   0.030   0.227  0.00  0.00     0.003 A 
ATOM      8  C6  PXY d   1      -0.976  -1.288   0.526  0.00  0.00     0.003 A 
ENDROOT
TORSDOF 0
ENDMDL
