MODEL 1
REMARK minimizedAffinity -2.99546576
REMARK minimizedRMSD -1
REMARK  0 active torsions:
REMARK  status: ('A' for Active; 'I' for Inactive)
ROOT
ATOM      1  C4' PXY d   1       1.261   2.139   0.094  0.00  0.00     0.077 C 
ATOM      2  C1' PXY d   1      -1.110  -3.113   0.551  0.00  0.00     0.077 C 
ATOM      3  C1  PXY d   1      -0.478  -1.741   0.424  0.00  0.00    -0.082 A 
ATOM      4  C2  PXY d   1      -0.753  -0.809   1.322  0.00  0.00     0.003 A 
ATOM      5  C3  PXY d   1      -0.216   0.447   1.205  0.00  0.00     0.003 A 
ATOM      6  C4  PXY d   1       0.654   0.737   0.187  0.00  0.00    -0.082 A 
ATOM      7  C5  PXY d   1       0.947  -0.212  -0.727  0.00  0.00     0.003 A 
ATOM      8  C6  PXY d   1       0.359  -1.469  -0.613  0.00  0.00     0.003 A 
ENDROOT
TORSDOF 0
ENDMDL
