MODEL 1
REMARK minimizedAffinity -3.46642637
REMARK minimizedRMSD -1
REMARK  0 active torsions:
REMARK  status: ('A' for Active; 'I' for Inactive)
ROOT
ATOM      1  C4' PXY d   1       1.230   2.040   0.738  0.00  0.00     0.077 C 
ATOM      2  C1' PXY d   1      -1.663  -2.959   0.502  0.00  0.00     0.077 C 
ATOM      3  C1  PXY d   1      -0.896  -1.653   0.555  0.00  0.00    -0.082 A 
ATOM      4  C2  PXY d   1      -0.972  -0.893   1.635  0.00  0.00     0.003 A 
ATOM      5  C3  PXY d   1      -0.311   0.307   1.687  0.00  0.00     0.003 A 
ATOM      6  C4  PXY d   1       0.480   0.708   0.644  0.00  0.00    -0.082 A 
ATOM      7  C5  PXY d   1       0.571  -0.067  -0.458  0.00  0.00     0.003 A 
ATOM      8  C6  PXY d   1      -0.141  -1.261  -0.508  0.00  0.00     0.003 A 
ENDROOT
TORSDOF 0
ENDMDL
