MODEL 1
REMARK minimizedAffinity -0.630869269
REMARK minimizedRMSD -1
REMARK  0 active torsions:
REMARK  status: ('A' for Active; 'I' for Inactive)
ROOT
ATOM      1  C4' PXY d   1       0.345   1.847  -1.026  0.00  0.00     0.077 C 
ATOM      2  C1' PXY d   1      -1.138  -3.146   1.482  0.00  0.00     0.077 C 
ATOM      3  C1  PXY d   1      -0.741  -1.843   0.817  0.00  0.00    -0.082 A 
ATOM      4  C2  PXY d   1      -0.938  -0.698   1.450  0.00  0.00     0.003 A 
ATOM      5  C3  PXY d   1      -0.614   0.492   0.850  0.00  0.00     0.003 A 
ATOM      6  C4  PXY d   1      -0.033   0.507  -0.389  0.00  0.00    -0.082 A 
ATOM      7  C5  PXY d   1       0.182  -0.658  -1.038  0.00  0.00     0.003 A 
ATOM      8  C6  PXY d   1      -0.192  -1.852  -0.428  0.00  0.00     0.003 A 
ENDROOT
TORSDOF 0
ENDMDL
