MODEL 1
REMARK minimizedAffinity -3.4696672
REMARK minimizedRMSD -1
REMARK  0 active torsions:
REMARK  status: ('A' for Active; 'I' for Inactive)
ROOT
ATOM      1  C4' PXY d   1      -0.165   1.884  -0.679  0.00  0.00     0.077 C 
ATOM      2  C1' PXY d   1       0.103  -3.772   0.486  0.00  0.00     0.077 C 
ATOM      3  C1  PXY d   1       0.023  -2.287   0.189  0.00  0.00    -0.082 A 
ATOM      4  C2  PXY d   1       0.485  -1.824  -0.961  0.00  0.00     0.003 A 
ATOM      5  C3  PXY d   1       0.450  -0.481  -1.233  0.00  0.00     0.003 A 
ATOM      6  C4  PXY d   1      -0.113   0.392  -0.340  0.00  0.00    -0.082 A 
ATOM      7  C5  PXY d   1      -0.596  -0.074   0.831  0.00  0.00     0.003 A 
ATOM      8  C6  PXY d   1      -0.514  -1.436   1.105  0.00  0.00     0.003 A 
ENDROOT
TORSDOF 0
ENDMDL
