MODEL 1
REMARK minimizedAffinity -3.99978852
REMARK minimizedRMSD -1
REMARK  0 active torsions:
REMARK  status: ('A' for Active; 'I' for Inactive)
ROOT
ATOM      1  C4' PXY d   1       1.354   1.814   0.794  0.00  0.00     0.077 C 
ATOM      2  C1' PXY d   1      -1.938  -2.937   0.705  0.00  0.00     0.077 C 
ATOM      3  C1  PXY d   1      -1.064  -1.699   0.731  0.00  0.00    -0.082 A 
ATOM      4  C2  PXY d   1      -1.600  -0.526   1.028  0.00  0.00     0.003 A 
ATOM      5  C3  PXY d   1      -0.831   0.609   1.024  0.00  0.00     0.003 A 
ATOM      6  C4  PXY d   1       0.512   0.535   0.765  0.00  0.00    -0.082 A 
ATOM      7  C5  PXY d   1       1.068  -0.659   0.472  0.00  0.00     0.003 A 
ATOM      8  C6  PXY d   1       0.262  -1.793   0.440  0.00  0.00     0.003 A 
ENDROOT
TORSDOF 0
ENDMDL
