MODEL 1
REMARK minimizedAffinity 11.0833616
REMARK minimizedRMSD -1
REMARK  0 active torsions:
REMARK  status: ('A' for Active; 'I' for Inactive)
ROOT
ATOM      1  C4' PXY d   1      -1.092   1.141   0.350  0.00  0.00     0.077 C 
ATOM      2  C1' PXY d   1       3.329   4.840   0.783  0.00  0.00     0.077 C 
ATOM      3  C1  PXY d   1       2.171   3.870   0.657  0.00  0.00    -0.082 A 
ATOM      4  C2  PXY d   1       1.258   3.813   1.612  0.00  0.00     0.003 A 
ATOM      5  C3  PXY d   1       0.221   2.919   1.529  0.00  0.00     0.003 A 
ATOM      6  C4  PXY d   1       0.089   2.112   0.431  0.00  0.00    -0.082 A 
ATOM      7  C5  PXY d   1       1.010   2.172  -0.553  0.00  0.00     0.003 A 
ATOM      8  C6  PXY d   1       2.077   3.057  -0.431  0.00  0.00     0.003 A 
ENDROOT
TORSDOF 0
ENDMDL
