MODEL 1
REMARK minimizedAffinity 5.64697695
REMARK minimizedRMSD -1
REMARK  0 active torsions:
REMARK  status: ('A' for Active; 'I' for Inactive)
ROOT
ATOM      1  C4' PXY d   1       1.596   3.817   0.839  0.00  0.00     0.077 C 
ATOM      2  C1' PXY d   1      -1.256  -1.129  -0.070  0.00  0.00     0.077 C 
ATOM      3  C1  PXY d   1      -0.502   0.167   0.157  0.00  0.00    -0.082 A 
ATOM      4  C2  PXY d   1      -0.310   0.604   1.390  0.00  0.00     0.003 A 
ATOM      5  C3  PXY d   1       0.342   1.790   1.612  0.00  0.00     0.003 A 
ATOM      6  C4  PXY d   1       0.849   2.509   0.563  0.00  0.00    -0.082 A 
ATOM      7  C5  PXY d   1       0.666   2.064  -0.698  0.00  0.00     0.003 A 
ATOM      8  C6  PXY d   1      -0.034   0.878  -0.904  0.00  0.00     0.003 A 
ENDROOT
TORSDOF 0
ENDMDL
