MODEL 1
REMARK minimizedAffinity 6.29083633
REMARK minimizedRMSD -1
REMARK  2 active torsions:
REMARK  status: ('A' for Active; 'I' for Inactive)
REMARK    1  A    between atoms: C1_2  and  C2_3 
REMARK    2  A    between atoms: C2_3  and  C3_4 
ROOT
ATOM      1  C3  UNL d   1       3.207   4.996  -5.537  0.00  0.00    -0.075 A 
ATOM      2  C4  UNL d   1       4.075   5.999  -5.993  0.00  0.00     0.002 A 
ATOM      3  C5  UNL d   1       5.457   5.821  -5.929  0.00  0.00     0.002 A 
ATOM      4  C6  UNL d   1       5.988   4.646  -5.401  0.00  0.00    -0.004 A 
ATOM      5  C7  UNL d   1       5.135   3.651  -4.930  0.00  0.00     0.002 A 
ATOM      6  C8  UNL d   1       3.751   3.824  -4.996  0.00  0.00     0.002 A 
ENDROOT
BRANCH   1   7
ATOM      7  C2  UNL d   1       1.709   5.171  -5.630  0.00  0.00     0.056 C 
BRANCH   7   8
ATOM      8  C1  UNL d   1       1.106   5.999  -4.491  0.00  0.00     0.007 C 
ATOM      9  C   UNL d   1      -0.394   5.792  -4.327  0.00  0.00     0.009 C 
ENDBRANCH   7   8
ENDBRANCH   1   7
TORSDOF 2
ENDMDL
