MODEL 1
REMARK minimizedAffinity -1.71327424
REMARK minimizedRMSD -1
REMARK  2 active torsions:
REMARK  status: ('A' for Active; 'I' for Inactive)
REMARK    1  A    between atoms: C1_2  and  C2_3 
REMARK    2  A    between atoms: C2_3  and  C3_4 
ROOT
ATOM      1  C3  UNL d   1       2.716   5.978  -4.814  0.00  0.00    -0.075 A 
ATOM      2  C4  UNL d   1       2.089   5.996  -3.560  0.00  0.00     0.002 A 
ATOM      3  C5  UNL d   1       0.697   5.987  -3.463  0.00  0.00     0.002 A 
ATOM      4  C6  UNL d   1      -0.084   5.971  -4.617  0.00  0.00    -0.004 A 
ATOM      5  C7  UNL d   1       0.528   5.970  -5.868  0.00  0.00     0.002 A 
ATOM      6  C8  UNL d   1       1.921   5.974  -5.968  0.00  0.00     0.002 A 
ENDROOT
BRANCH   1   7
ATOM      7  C2  UNL d   1       4.222   5.958  -4.925  0.00  0.00     0.056 C 
BRANCH   7   8
ATOM      8  C1  UNL d   1       4.760   4.925  -5.921  0.00  0.00     0.007 C 
ATOM      9  C   UNL d   1       5.995   4.191  -5.416  0.00  0.00     0.009 C 
ENDBRANCH   7   8
ENDBRANCH   1   7
TORSDOF 2
ENDMDL
