MODEL 1
REMARK minimizedAffinity -1.65680468
REMARK minimizedRMSD -1
REMARK  2 active torsions:
REMARK  status: ('A' for Active; 'I' for Inactive)
REMARK    1  A    between atoms: C1_2  and  C2_3 
REMARK    2  A    between atoms: C2_3  and  C3_4 
ROOT
ATOM      1  C3  UNL d   1      -1.628   5.941  -3.158  0.00  0.00    -0.075 A 
ATOM      2  C4  UNL d   1      -2.815   5.953  -2.412  0.00  0.00     0.002 A 
ATOM      3  C5  UNL d   1      -4.054   5.974  -3.053  0.00  0.00     0.002 A 
ATOM      4  C6  UNL d   1      -4.122   5.994  -4.444  0.00  0.00    -0.004 A 
ATOM      5  C7  UNL d   1      -2.949   5.999  -5.195  0.00  0.00     0.002 A 
ATOM      6  C8  UNL d   1      -1.708   5.973  -4.557  0.00  0.00     0.002 A 
ENDROOT
BRANCH   1   7
ATOM      7  C2  UNL d   1      -0.284   5.888  -2.472  0.00  0.00     0.056 C 
BRANCH   7   8
ATOM      8  C1  UNL d   1       0.388   4.511  -2.520  0.00  0.00     0.007 C 
ATOM      9  C   UNL d   1       0.283   3.746  -1.208  0.00  0.00     0.009 C 
ENDBRANCH   7   8
ENDBRANCH   1   7
TORSDOF 2
ENDMDL
