MODEL 1
REMARK minimizedAffinity -3.87780499
REMARK minimizedRMSD -1
REMARK  2 active torsions:
REMARK  status: ('A' for Active; 'I' for Inactive)
REMARK    1  A    between atoms: C1_2  and  C2_3 
REMARK    2  A    between atoms: C2_3  and  C3_4 
ROOT
ATOM      1  C3  UNL d   1       0.520   5.956  -4.892  0.00  0.00    -0.075 A 
ATOM      2  C4  UNL d   1       0.728   5.891  -3.506  0.00  0.00     0.002 A 
ATOM      3  C5  UNL d   1      -0.355   5.848  -2.628  0.00  0.00     0.002 A 
ATOM      4  C6  UNL d   1      -1.658   5.879  -3.122  0.00  0.00    -0.004 A 
ATOM      5  C7  UNL d   1      -1.876   5.961  -4.496  0.00  0.00     0.002 A 
ATOM      6  C8  UNL d   1      -0.794   6.000  -5.377  0.00  0.00     0.002 A 
ENDROOT
BRANCH   1   7
ATOM      7  C2  UNL d   1       1.688   5.973  -5.848  0.00  0.00     0.056 C 
BRANCH   7   8
ATOM      8  C1  UNL d   1       2.853   5.071  -5.427  0.00  0.00     0.007 C 
ATOM      9  C   UNL d   1       4.134   5.842  -5.134  0.00  0.00     0.009 C 
ENDBRANCH   7   8
ENDBRANCH   1   7
TORSDOF 2
ENDMDL
