MODEL 1
REMARK minimizedAffinity -2.11529303
REMARK minimizedRMSD -1
REMARK  2 active torsions:
REMARK  status: ('A' for Active; 'I' for Inactive)
REMARK    1  A    between atoms: C1_2  and  C2_3 
REMARK    2  A    between atoms: C2_3  and  C3_4 
ROOT
ATOM      1  C3  UNL d   1       1.901   5.983  -4.621  0.00  0.00    -0.075 A 
ATOM      2  C4  UNL d   1       1.258   5.965  -5.867  0.00  0.00     0.002 A 
ATOM      3  C5  UNL d   1      -0.134   5.978  -5.946  0.00  0.00     0.002 A 
ATOM      4  C6  UNL d   1      -0.901   5.998  -4.783  0.00  0.00    -0.004 A 
ATOM      5  C7  UNL d   1      -0.273   6.000  -3.539  0.00  0.00     0.002 A 
ATOM      6  C8  UNL d   1       1.120   5.991  -3.457  0.00  0.00     0.002 A 
ENDROOT
BRANCH   1   7
ATOM      7  C2  UNL d   1       3.408   5.999  -4.529  0.00  0.00     0.056 C 
BRANCH   7   8
ATOM      8  C1  UNL d   1       4.117   5.890  -5.883  0.00  0.00     0.007 C 
ATOM      9  C   UNL d   1       5.237   4.859  -5.894  0.00  0.00     0.009 C 
ENDBRANCH   7   8
ENDBRANCH   1   7
TORSDOF 2
ENDMDL
