MODEL 1
REMARK minimizedAffinity -1.95155323
REMARK minimizedRMSD -1
REMARK  2 active torsions:
REMARK  status: ('A' for Active; 'I' for Inactive)
REMARK    1  A    between atoms: C1_2  and  C2_3 
REMARK    2  A    between atoms: C2_3  and  C3_4 
ROOT
ATOM      1  C3  UNL d   1      -0.444   5.881  -3.644  0.00  0.00    -0.075 A 
ATOM      2  C4  UNL d   1      -0.850   5.706  -4.975  0.00  0.00     0.002 A 
ATOM      3  C5  UNL d   1       0.094   5.628  -5.999  0.00  0.00     0.002 A 
ATOM      4  C6  UNL d   1       1.452   5.735  -5.708  0.00  0.00    -0.004 A 
ATOM      5  C7  UNL d   1       1.866   5.926  -4.391  0.00  0.00     0.002 A 
ATOM      6  C8  UNL d   1       0.924   5.999  -3.364  0.00  0.00     0.002 A 
ENDROOT
BRANCH   1   7
ATOM      7  C2  UNL d   1      -1.459   5.936  -2.528  0.00  0.00     0.056 C 
BRANCH   7   8
ATOM      8  C1  UNL d   1      -2.913   5.999  -3.009  0.00  0.00     0.007 C 
ATOM      9  C   UNL d   1      -3.923   5.999  -1.869  0.00  0.00     0.009 C 
ENDBRANCH   7   8
ENDBRANCH   1   7
TORSDOF 2
ENDMDL
