MODEL 1
REMARK minimizedAffinity 0.422411323
REMARK minimizedRMSD -1
REMARK  2 active torsions:
REMARK  status: ('A' for Active; 'I' for Inactive)
REMARK    1  A    between atoms: C1_2  and  C2_3 
REMARK    2  A    between atoms: C2_3  and  C3_4 
ROOT
ATOM      1  C3  UNL d   1      -0.839   5.994  -4.273  0.00  0.00    -0.075 A 
ATOM      2  C4  UNL d   1      -0.715   5.983  -2.876  0.00  0.00     0.002 A 
ATOM      3  C5  UNL d   1      -1.850   5.957  -2.064  0.00  0.00     0.002 A 
ATOM      4  C6  UNL d   1      -3.120   5.950  -2.637  0.00  0.00    -0.004 A 
ATOM      5  C7  UNL d   1      -3.255   5.977  -4.023  0.00  0.00     0.002 A 
ATOM      6  C8  UNL d   1      -2.122   6.000  -4.838  0.00  0.00     0.002 A 
ENDROOT
BRANCH   1   7
ATOM      7  C2  UNL d   1       0.385   5.993  -5.157  0.00  0.00     0.056 C 
BRANCH   7   8
ATOM      8  C1  UNL d   1       1.587   5.256  -4.558  0.00  0.00     0.007 C 
ATOM      9  C   UNL d   1       2.835   5.338  -5.426  0.00  0.00     0.009 C 
ENDBRANCH   7   8
ENDBRANCH   1   7
TORSDOF 2
ENDMDL
