MODEL 1
REMARK minimizedAffinity 5.34454155
REMARK minimizedRMSD -1
REMARK  2 active torsions:
REMARK  status: ('A' for Active; 'I' for Inactive)
REMARK    1  A    between atoms: C1_2  and  C2_3 
REMARK    2  A    between atoms: C2_3  and  C3_4 
ROOT
ATOM      1  C3  UNL d   1       1.840   1.925   0.042  0.00  0.00    -0.075 A 
ATOM      2  C4  UNL d   1       1.037   2.897   0.655  0.00  0.00     0.002 A 
ATOM      3  C5  UNL d   1       0.072   2.529   1.594  0.00  0.00     0.002 A 
ATOM      4  C6  UNL d   1      -0.109   1.188   1.922  0.00  0.00    -0.004 A 
ATOM      5  C7  UNL d   1       0.672   0.212   1.307  0.00  0.00     0.002 A 
ATOM      6  C8  UNL d   1       1.642   0.577   0.371  0.00  0.00     0.002 A 
ENDROOT
BRANCH   1   7
ATOM      7  C2  UNL d   1       2.906   2.319  -0.952  0.00  0.00     0.056 C 
BRANCH   7   8
ATOM      8  C1  UNL d   1       2.562   1.974  -2.405  0.00  0.00     0.007 C 
ATOM      9  C   UNL d   1       3.723   2.195  -3.366  0.00  0.00     0.009 C 
ENDBRANCH   7   8
ENDBRANCH   1   7
TORSDOF 2
ENDMDL
