MODEL 1
REMARK minimizedAffinity 5.87015343
REMARK minimizedRMSD -1
REMARK  2 active torsions:
REMARK  status: ('A' for Active; 'I' for Inactive)
REMARK    1  A    between atoms: C1_2  and  C2_3 
REMARK    2  A    between atoms: C2_3  and  C3_4 
ROOT
ATOM      1  C3  UNL d   1       0.474   1.114   1.244  0.00  0.00    -0.075 A 
ATOM      2  C4  UNL d   1       0.848   2.434   1.535  0.00  0.00     0.002 A 
ATOM      3  C5  UNL d   1       1.350   3.265   0.533  0.00  0.00     0.002 A 
ATOM      4  C6  UNL d   1       1.496   2.785  -0.766  0.00  0.00    -0.004 A 
ATOM      5  C7  UNL d   1       1.143   1.471  -1.063  0.00  0.00     0.002 A 
ATOM      6  C8  UNL d   1       0.636   0.638  -0.064  0.00  0.00     0.002 A 
ENDROOT
BRANCH   1   7
ATOM      7  C2  UNL d   1      -0.098   0.219   2.317  0.00  0.00     0.056 C 
BRANCH   7   8
ATOM      8  C1  UNL d   1      -0.836   0.972   3.429  0.00  0.00     0.007 C 
ATOM      9  C   UNL d   1      -0.235   0.743   4.810  0.00  0.00     0.009 C 
ENDBRANCH   7   8
ENDBRANCH   1   7
TORSDOF 2
ENDMDL
