MODEL 1
REMARK minimizedAffinity -3.08544016
REMARK minimizedRMSD -1
REMARK  2 active torsions:
REMARK  status: ('A' for Active; 'I' for Inactive)
REMARK    1  A    between atoms: C1_2  and  C2_3 
REMARK    2  A    between atoms: C2_3  and  C3_4 
ROOT
ATOM      1  C3  UNL d   1      -1.454   5.964  -3.354  0.00  0.00    -0.075 A 
ATOM      2  C4  UNL d   1      -1.915   5.981  -2.030  0.00  0.00     0.002 A 
ATOM      3  C5  UNL d   1      -3.283   5.991  -1.756  0.00  0.00     0.002 A 
ATOM      4  C6  UNL d   1      -4.205   5.995  -2.801  0.00  0.00    -0.004 A 
ATOM      5  C7  UNL d   1      -3.758   5.995  -4.120  0.00  0.00     0.002 A 
ATOM      6  C8  UNL d   1      -2.390   5.981  -4.396  0.00  0.00     0.002 A 
ENDROOT
BRANCH   1   7
ATOM      7  C2  UNL d   1       0.025   5.923  -3.656  0.00  0.00     0.056 C 
BRANCH   7   8
ATOM      8  C1  UNL d   1       0.375   5.210  -4.966  0.00  0.00     0.007 C 
ATOM      9  C   UNL d   1       1.361   5.986  -5.828  0.00  0.00     0.009 C 
ENDBRANCH   7   8
ENDBRANCH   1   7
TORSDOF 2
ENDMDL
