MODEL 1
REMARK minimizedAffinity 3.79215407
REMARK minimizedRMSD -1
REMARK  2 active torsions:
REMARK  status: ('A' for Active; 'I' for Inactive)
REMARK    1  A    between atoms: C1_2  and  C2_3 
REMARK    2  A    between atoms: C2_3  and  C3_4 
ROOT
ATOM      1  C3  UNL d   1      -1.537   5.986  -4.221  0.00  0.00    -0.075 A 
ATOM      2  C4  UNL d   1      -1.054   5.998  -2.905  0.00  0.00     0.002 A 
ATOM      3  C5  UNL d   1      -1.938   5.997  -1.826  0.00  0.00     0.002 A 
ATOM      4  C6  UNL d   1      -3.313   5.994  -2.048  0.00  0.00    -0.004 A 
ATOM      5  C7  UNL d   1      -3.804   5.999  -3.352  0.00  0.00     0.002 A 
ATOM      6  C8  UNL d   1      -2.922   5.996  -4.433  0.00  0.00     0.002 A 
ENDROOT
BRANCH   1   7
ATOM      7  C2  UNL d   1      -0.585   5.957  -5.393  0.00  0.00     0.056 C 
BRANCH   7   8
ATOM      8  C1  UNL d   1       0.895   5.994  -4.996  0.00  0.00     0.007 C 
ATOM      9  C   UNL d   1       1.781   5.153  -5.904  0.00  0.00     0.009 C 
ENDBRANCH   7   8
ENDBRANCH   1   7
TORSDOF 2
ENDMDL
