MODEL 1
REMARK minimizedAffinity -2.74783111
REMARK minimizedRMSD -1
REMARK  0 active torsions:
REMARK  status: ('A' for Active; 'I' for Inactive)
ROOT
ATOM      1  C   UNL d   1      -0.543  -0.660   2.569  0.00  0.00     0.172 C 
ATOM      2  N   UNL d   1      -0.295  -0.237   1.211  0.00  0.00    -0.070 N 
ATOM      3  C1  UNL d   1      -1.247  -0.059   0.243  0.00  0.00    -0.004 A 
ATOM      4  C2  UNL d   1      -0.608   0.347  -0.908  0.00  0.00    -0.047 A 
ATOM      5  C3  UNL d   1       0.776   0.414  -0.623  0.00  0.00    -0.047 A 
ATOM      6  C4  UNL d   1       0.942   0.048   0.696  0.00  0.00    -0.004 A 
ENDROOT
TORSDOF 0
ENDMDL
