MODEL 1
REMARK minimizedAffinity -3.36491203
REMARK minimizedRMSD -1
REMARK  0 active torsions:
REMARK  status: ('A' for Active; 'I' for Inactive)
ROOT
ATOM      1  C   UNL d   1       0.282   0.293  -1.185  0.00  0.00     0.172 C 
ATOM      2  N   UNL d   1       0.198   0.176   0.252  0.00  0.00    -0.070 N 
ATOM      3  C1  UNL d   1      -0.807  -0.443   0.946  0.00  0.00    -0.004 A 
ATOM      4  C2  UNL d   1      -0.518  -0.339   2.289  0.00  0.00    -0.047 A 
ATOM      5  C3  UNL d   1       0.702   0.368   2.407  0.00  0.00    -0.047 A 
ATOM      6  C4  UNL d   1       1.124   0.675   1.131  0.00  0.00    -0.004 A 
ENDROOT
TORSDOF 0
ENDMDL
