MODEL 1
REMARK minimizedAffinity -2.86304498
REMARK minimizedRMSD -1
REMARK  0 active torsions:
REMARK  status: ('A' for Active; 'I' for Inactive)
ROOT
ATOM      1  C   UNL d   1      -2.718   0.183   0.649  0.00  0.00     0.172 C 
ATOM      2  N   UNL d   1      -1.429   0.227  -0.001  0.00  0.00    -0.070 N 
ATOM      3  C1  UNL d   1      -1.126   0.951  -1.123  0.00  0.00    -0.004 A 
ATOM      4  C2  UNL d   1       0.200   0.727  -1.424  0.00  0.00    -0.047 A 
ATOM      5  C3  UNL d   1       0.711  -0.164  -0.450  0.00  0.00    -0.047 A 
ATOM      6  C4  UNL d   1      -0.319  -0.457   0.418  0.00  0.00    -0.004 A 
ENDROOT
TORSDOF 0
ENDMDL
