MODEL 1
REMARK minimizedAffinity -3.75912714
REMARK minimizedRMSD -1
REMARK  0 active torsions:
REMARK  status: ('A' for Active; 'I' for Inactive)
ROOT
ATOM      1  C   UNL d   1       0.020  -0.016   0.385  0.00  0.00     0.172 C 
ATOM      2  N   UNL d   1      -0.913   0.032   1.486  0.00  0.00    -0.070 N 
ATOM      3  C1  UNL d   1      -2.271   0.168   1.375  0.00  0.00    -0.004 A 
ATOM      4  C2  UNL d   1      -2.800   0.169   2.648  0.00  0.00    -0.047 A 
ATOM      5  C3  UNL d   1      -1.723   0.029   3.555  0.00  0.00    -0.047 A 
ATOM      6  C4  UNL d   1      -0.566  -0.054   2.808  0.00  0.00    -0.004 A 
ENDROOT
TORSDOF 0
ENDMDL
