MODEL 1
REMARK minimizedAffinity -3.72597599
REMARK minimizedRMSD -1
REMARK  0 active torsions:
REMARK  status: ('A' for Active; 'I' for Inactive)
ROOT
ATOM      1  C   UNL d   1      -0.062   0.376  -0.597  0.00  0.00     0.172 C 
ATOM      2  N   UNL d   1      -0.190  -0.156   0.740  0.00  0.00    -0.070 N 
ATOM      3  C1  UNL d   1      -1.089  -1.108   1.138  0.00  0.00    -0.004 A 
ATOM      4  C2  UNL d   1      -0.890  -1.341   2.482  0.00  0.00    -0.047 A 
ATOM      5  C3  UNL d   1       0.165  -0.499   2.906  0.00  0.00    -0.047 A 
ATOM      6  C4  UNL d   1       0.580   0.224   1.808  0.00  0.00    -0.004 A 
ENDROOT
TORSDOF 0
ENDMDL
