MODEL 1
REMARK minimizedAffinity -1.78246379
REMARK minimizedRMSD -1
REMARK  0 active torsions:
REMARK  status: ('A' for Active; 'I' for Inactive)
ROOT
ATOM      1  C   UNL d   1      -1.988  -0.025   3.005  0.00  0.00     0.172 C 
ATOM      2  N   UNL d   1      -0.788  -0.009   2.202  0.00  0.00    -0.070 N 
ATOM      3  C1  UNL d   1      -0.741   0.136   0.841  0.00  0.00    -0.004 A 
ATOM      4  C2  UNL d   1       0.583   0.100   0.458  0.00  0.00    -0.047 A 
ATOM      5  C3  UNL d   1       1.357  -0.072   1.630  0.00  0.00    -0.047 A 
ATOM      6  C4  UNL d   1       0.483  -0.137   2.695  0.00  0.00    -0.004 A 
ENDROOT
TORSDOF 0
ENDMDL
