MODEL 1
REMARK minimizedAffinity 0.672693491
REMARK minimizedRMSD -1
REMARK  0 active torsions:
REMARK  status: ('A' for Active; 'I' for Inactive)
ROOT
ATOM      1  C   UNL d   1      -2.623  -0.076   1.582  0.00  0.00     0.172 C 
ATOM      2  N   UNL d   1      -1.291  -0.064   2.139  0.00  0.00    -0.070 N 
ATOM      3  C1  UNL d   1      -0.796  -0.965   3.044  0.00  0.00    -0.004 A 
ATOM      4  C2  UNL d   1       0.506  -0.610   3.324  0.00  0.00    -0.047 A 
ATOM      5  C3  UNL d   1       0.803   0.544   2.561  0.00  0.00    -0.047 A 
ATOM      6  C4  UNL d   1      -0.327   0.861   1.837  0.00  0.00    -0.004 A 
ENDROOT
TORSDOF 0
ENDMDL
