MODEL 1
REMARK minimizedAffinity -2.86233592
REMARK minimizedRMSD -1
REMARK  0 active torsions:
REMARK  status: ('A' for Active; 'I' for Inactive)
ROOT
ATOM      1  C   UNL d   1      -0.129  -0.168  -0.576  0.00  0.00     0.172 C 
ATOM      2  N   UNL d   1      -0.082  -0.088   0.865  0.00  0.00    -0.070 N 
ATOM      3  C1  UNL d   1       1.055  -0.081   1.628  0.00  0.00    -0.004 A 
ATOM      4  C2  UNL d   1       0.676   0.006   2.950  0.00  0.00    -0.047 A 
ATOM      5  C3  UNL d   1      -0.738   0.052   2.983  0.00  0.00    -0.047 A 
ATOM      6  C4  UNL d   1      -1.182  -0.008   1.679  0.00  0.00    -0.004 A 
ENDROOT
TORSDOF 0
ENDMDL
