MODEL 1
REMARK minimizedAffinity -3.99365139
REMARK minimizedRMSD -1
REMARK  0 active torsions:
REMARK  status: ('A' for Active; 'I' for Inactive)
ROOT
ATOM      1  C   UNL d   1       0.169   0.049   0.596  0.00  0.00     0.172 C 
ATOM      2  N   UNL d   1      -0.814  -0.163   1.632  0.00  0.00    -0.070 N 
ATOM      3  C1  UNL d   1      -2.172  -0.170   1.455  0.00  0.00    -0.004 A 
ATOM      4  C2  UNL d   1      -2.756  -0.406   2.681  0.00  0.00    -0.047 A 
ATOM      5  C3  UNL d   1      -1.714  -0.545   3.627  0.00  0.00    -0.047 A 
ATOM      6  C4  UNL d   1      -0.522  -0.390   2.951  0.00  0.00    -0.004 A 
ENDROOT
TORSDOF 0
ENDMDL
