MODEL 1
REMARK minimizedAffinity -2.54727125
REMARK minimizedRMSD -1
REMARK  0 active torsions:
REMARK  status: ('A' for Active; 'I' for Inactive)
ROOT
ATOM      1  C   UNL d   1      -0.611   0.878  -1.594  0.00  0.00     0.172 C 
ATOM      2  N   UNL d   1       0.214   0.076  -2.466  0.00  0.00    -0.070 N 
ATOM      3  C1  UNL d   1       1.443   0.432  -2.953  0.00  0.00    -0.004 A 
ATOM      4  C2  UNL d   1       1.900  -0.600  -3.743  0.00  0.00    -0.047 A 
ATOM      5  C3  UNL d   1       0.910  -1.611  -3.733  0.00  0.00    -0.047 A 
ATOM      6  C4  UNL d   1      -0.123  -1.167  -2.935  0.00  0.00    -0.004 A 
ENDROOT
TORSDOF 0
ENDMDL
