MODEL 1
REMARK minimizedAffinity -2.88566589
REMARK minimizedRMSD -1
REMARK  0 active torsions:
REMARK  status: ('A' for Active; 'I' for Inactive)
ROOT
ATOM      1  C   UNL d   1       0.295   1.265   3.432  0.00  0.00     0.172 C 
ATOM      2  N   UNL d   1       0.171   0.658   2.128  0.00  0.00    -0.070 N 
ATOM      3  C1  UNL d   1       1.033   0.836   1.079  0.00  0.00    -0.004 A 
ATOM      4  C2  UNL d   1       0.567   0.090   0.018  0.00  0.00    -0.047 A 
ATOM      5  C3  UNL d   1      -0.616  -0.558   0.443  0.00  0.00    -0.047 A 
ATOM      6  C4  UNL d   1      -0.839  -0.189   1.753  0.00  0.00    -0.004 A 
ENDROOT
TORSDOF 0
ENDMDL
