MODEL 1
REMARK minimizedAffinity 0.0633607134
REMARK minimizedRMSD -1
REMARK  0 active torsions:
REMARK  status: ('A' for Active; 'I' for Inactive)
ROOT
ATOM      1  C   UNL d   1      -0.671   0.044  -0.584  0.00  0.00     0.172 C 
ATOM      2  N   UNL d   1      -1.402  -0.914   0.212  0.00  0.00    -0.070 N 
ATOM      3  C1  UNL d   1      -1.771  -0.749   1.521  0.00  0.00    -0.004 A 
ATOM      4  C2  UNL d   1      -2.449  -1.883   1.914  0.00  0.00    -0.047 A 
ATOM      5  C3  UNL d   1      -2.489  -2.759   0.804  0.00  0.00    -0.047 A 
ATOM      6  C4  UNL d   1      -1.834  -2.135  -0.236  0.00  0.00    -0.004 A 
ENDROOT
TORSDOF 0
ENDMDL
