MODEL 1
REMARK minimizedAffinity -3.77316189
REMARK minimizedRMSD -1
REMARK  0 active torsions:
REMARK  status: ('A' for Active; 'I' for Inactive)
ROOT
ATOM      1  C   UNL d   1      -0.061   0.217  -0.557  0.00  0.00     0.172 C 
ATOM      2  N   UNL d   1      -0.740   0.015   0.701  0.00  0.00    -0.070 N 
ATOM      3  C1  UNL d   1      -0.133  -0.144   1.919  0.00  0.00    -0.004 A 
ATOM      4  C2  UNL d   1      -1.122  -0.309   2.865  0.00  0.00    -0.047 A 
ATOM      5  C3  UNL d   1      -2.366  -0.250   2.192  0.00  0.00    -0.047 A 
ATOM      6  C4  UNL d   1      -2.099  -0.048   0.854  0.00  0.00    -0.004 A 
ENDROOT
TORSDOF 0
ENDMDL
