MODEL 1
REMARK minimizedAffinity -3.15948582
REMARK minimizedRMSD -1
REMARK  0 active torsions:
REMARK  status: ('A' for Active; 'I' for Inactive)
ROOT
ATOM      1  C   UNL d   1       0.190   0.065  -0.798  0.00  0.00     0.172 C 
ATOM      2  N   UNL d   1      -0.170  -0.169   0.580  0.00  0.00    -0.070 N 
ATOM      3  C1  UNL d   1      -1.427  -0.463   1.038  0.00  0.00    -0.004 A 
ATOM      4  C2  UNL d   1      -1.353  -0.614   2.406  0.00  0.00    -0.047 A 
ATOM      5  C3  UNL d   1      -0.006  -0.402   2.784  0.00  0.00    -0.047 A 
ATOM      6  C4  UNL d   1       0.704  -0.128   1.634  0.00  0.00    -0.004 A 
ENDROOT
TORSDOF 0
ENDMDL
