MODEL 1
REMARK minimizedAffinity 2.69951892
REMARK minimizedRMSD -1
REMARK  0 active torsions:
REMARK  status: ('A' for Active; 'I' for Inactive)
ROOT
ATOM      1  C   UNL d   1      -0.631   5.416  -0.365  0.00  0.00     0.172 C 
ATOM      2  N   UNL d   1      -0.174   4.399   0.553  0.00  0.00    -0.070 N 
ATOM      3  C1  UNL d   1      -0.976   3.576   1.298  0.00  0.00    -0.004 A 
ATOM      4  C2  UNL d   1      -0.161   2.750   2.041  0.00  0.00    -0.047 A 
ATOM      5  C3  UNL d   1       1.178   3.089   1.732  0.00  0.00    -0.047 A 
ATOM      6  C4  UNL d   1       1.141   4.112   0.808  0.00  0.00    -0.004 A 
ENDROOT
TORSDOF 0
ENDMDL
