MODEL 1
REMARK minimizedAffinity 4.94171
REMARK minimizedRMSD -1
REMARK  0 active torsions:
REMARK  status: ('A' for Active; 'I' for Inactive)
ROOT
ATOM      1  C   UNL d   1       3.101  -1.197   0.008  0.00  0.00     0.172 C 
ATOM      2  N   UNL d   1       4.280  -1.827  -0.538  0.00  0.00    -0.070 N 
ATOM      3  C1  UNL d   1       4.926  -2.910  -0.006  0.00  0.00    -0.004 A 
ATOM      4  C2  UNL d   1       6.000  -3.204  -0.819  0.00  0.00    -0.047 A 
ATOM      5  C3  UNL d   1       6.000  -2.263  -1.876  0.00  0.00    -0.047 A 
ATOM      6  C4  UNL d   1       4.924  -1.423  -1.678  0.00  0.00    -0.004 A 
ENDROOT
TORSDOF 0
ENDMDL
