MODEL 1
REMARK minimizedAffinity 1.97537851
REMARK minimizedRMSD -1
REMARK  0 active torsions:
REMARK  status: ('A' for Active; 'I' for Inactive)
ROOT
ATOM      1  C   UNL d   1      -0.010   3.257   2.186  0.00  0.00     0.172 C 
ATOM      2  N   UNL d   1      -0.040   4.140   1.044  0.00  0.00    -0.070 N 
ATOM      3  C1  UNL d   1      -0.034   3.749  -0.268  0.00  0.00    -0.004 A 
ATOM      4  C2  UNL d   1      -0.071   4.885  -1.048  0.00  0.00    -0.047 A 
ATOM      5  C3  UNL d   1      -0.098   5.998  -0.174  0.00  0.00    -0.047 A 
ATOM      6  C4  UNL d   1      -0.078   5.508   1.115  0.00  0.00    -0.004 A 
ENDROOT
TORSDOF 0
ENDMDL
