MODEL 1
REMARK minimizedAffinity 4.55571985
REMARK minimizedRMSD -1
REMARK  0 active torsions:
REMARK  status: ('A' for Active; 'I' for Inactive)
ROOT
ATOM      1  C   UNL d   1       3.972  -4.150  -3.689  0.00  0.00     0.172 C 
ATOM      2  N   UNL d   1       4.632  -3.754  -2.467  0.00  0.00    -0.070 N 
ATOM      3  C1  UNL d   1       4.899  -2.467  -2.084  0.00  0.00    -0.004 A 
ATOM      4  C2  UNL d   1       5.535  -2.513  -0.862  0.00  0.00    -0.047 A 
ATOM      5  C3  UNL d   1       5.655  -3.876  -0.499  0.00  0.00    -0.047 A 
ATOM      6  C4  UNL d   1       5.088  -4.622  -1.510  0.00  0.00    -0.004 A 
ENDROOT
TORSDOF 0
ENDMDL
