MODEL 1
REMARK minimizedAffinity 6.32526207
REMARK minimizedRMSD -1
REMARK  0 active torsions:
REMARK  status: ('A' for Active; 'I' for Inactive)
ROOT
ATOM      1  C   UNL d   1       0.642   1.913   3.595  0.00  0.00     0.172 C 
ATOM      2  N   UNL d   1       0.289   2.732   2.459  0.00  0.00    -0.070 N 
ATOM      3  C1  UNL d   1       1.067   2.939   1.352  0.00  0.00    -0.004 A 
ATOM      4  C2  UNL d   1       0.378   3.776   0.501  0.00  0.00    -0.047 A 
ATOM      5  C3  UNL d   1      -0.857   4.084   1.120  0.00  0.00    -0.047 A 
ATOM      6  C4  UNL d   1      -0.886   3.425   2.331  0.00  0.00    -0.004 A 
ENDROOT
TORSDOF 0
ENDMDL
