MODEL 1
REMARK minimizedAffinity 5.54064798
REMARK minimizedRMSD -1
REMARK  0 active torsions:
REMARK  status: ('A' for Active; 'I' for Inactive)
ROOT
ATOM      1  C   UNL d   1       3.236  -0.776   0.041  0.00  0.00     0.172 C 
ATOM      2  N   UNL d   1       4.192  -1.789  -0.341  0.00  0.00    -0.070 N 
ATOM      3  C1  UNL d   1       5.348  -1.573  -1.041  0.00  0.00    -0.004 A 
ATOM      4  C2  UNL d   1       5.978  -2.788  -1.202  0.00  0.00    -0.047 A 
ATOM      5  C3  UNL d   1       5.172  -3.769  -0.577  0.00  0.00    -0.047 A 
ATOM      6  C4  UNL d   1       4.073  -3.123  -0.052  0.00  0.00    -0.004 A 
ENDROOT
TORSDOF 0
ENDMDL
