MODEL 1
REMARK minimizedAffinity 0.321598291
REMARK minimizedRMSD -1
REMARK  0 active torsions:
REMARK  status: ('A' for Active; 'I' for Inactive)
ROOT
ATOM      1  C   UNL d   1      -1.471   5.975  -2.357  0.00  0.00     0.172 C 
ATOM      2  N   UNL d   1      -0.572   5.422  -1.372  0.00  0.00    -0.070 N 
ATOM      3  C1  UNL d   1       0.592   6.000  -0.940  0.00  0.00    -0.004 A 
ATOM      4  C2  UNL d   1       1.156   5.162  -0.002  0.00  0.00    -0.047 A 
ATOM      5  C3  UNL d   1       0.302   4.042   0.134  0.00  0.00    -0.047 A 
ATOM      6  C4  UNL d   1      -0.760   4.229  -0.726  0.00  0.00    -0.004 A 
ENDROOT
TORSDOF 0
ENDMDL
