MODEL 1
REMARK minimizedAffinity 2.95208359
REMARK minimizedRMSD -1
REMARK  0 active torsions:
REMARK  status: ('A' for Active; 'I' for Inactive)
ROOT
ATOM      1  C   UNL d   1       2.964  -3.046   1.435  0.00  0.00     0.172 C 
ATOM      2  N   UNL d   1       3.895  -2.865   0.346  0.00  0.00    -0.070 N 
ATOM      3  C1  UNL d   1       4.106  -1.697  -0.338  0.00  0.00    -0.004 A 
ATOM      4  C2  UNL d   1       5.068  -1.938  -1.296  0.00  0.00    -0.047 A 
ATOM      5  C3  UNL d   1       5.447  -3.297  -1.184  0.00  0.00    -0.047 A 
ATOM      6  C4  UNL d   1       4.705  -3.847  -0.160  0.00  0.00    -0.004 A 
ENDROOT
TORSDOF 0
ENDMDL
