MODEL 1
REMARK minimizedAffinity 4.05627394
REMARK minimizedRMSD -1
REMARK  0 active torsions:
REMARK  status: ('A' for Active; 'I' for Inactive)
ROOT
ATOM      1  C   UNL d   1       2.629  -3.590   0.751  0.00  0.00     0.172 C 
ATOM      2  N   UNL d   1       3.766  -3.288  -0.087  0.00  0.00    -0.070 N 
ATOM      3  C1  UNL d   1       4.070  -2.060  -0.609  0.00  0.00    -0.004 A 
ATOM      4  C2  UNL d   1       5.227  -2.189  -1.347  0.00  0.00    -0.047 A 
ATOM      5  C3  UNL d   1       5.631  -3.542  -1.266  0.00  0.00    -0.047 A 
ATOM      6  C4  UNL d   1       4.709  -4.201  -0.480  0.00  0.00    -0.004 A 
ENDROOT
TORSDOF 0
ENDMDL
