MODEL 1
REMARK minimizedAffinity 3.11536288
REMARK minimizedRMSD -1
REMARK  0 active torsions:
REMARK  status: ('A' for Active; 'I' for Inactive)
ROOT
ATOM      1  C   UNL d   1       3.012  -3.107   1.908  0.00  0.00     0.172 C 
ATOM      2  N   UNL d   1       3.989  -3.004   0.849  0.00  0.00    -0.070 N 
ATOM      3  C1  UNL d   1       4.412  -1.841   0.263  0.00  0.00    -0.004 A 
ATOM      4  C2  UNL d   1       5.344  -2.168  -0.698  0.00  0.00    -0.047 A 
ATOM      5  C3  UNL d   1       5.486  -3.576  -0.689  0.00  0.00    -0.047 A 
ATOM      6  C4  UNL d   1       4.635  -4.068   0.278  0.00  0.00    -0.004 A 
ENDROOT
TORSDOF 0
ENDMDL
