MODEL 1
REMARK minimizedAffinity -0.485399723
REMARK minimizedRMSD -1
REMARK  0 active torsions:
REMARK  status: ('A' for Active; 'I' for Inactive)
ROOT
ATOM      1  C   UNL d   1       4.027  -4.009  -2.870  0.00  0.00     0.172 C 
ATOM      2  N   UNL d   1       4.587  -3.305  -1.740  0.00  0.00    -0.070 N 
ATOM      3  C1  UNL d   1       3.989  -2.274  -1.067  0.00  0.00    -0.004 A 
ATOM      4  C2  UNL d   1       4.841  -1.877  -0.059  0.00  0.00    -0.047 A 
ATOM      5  C3  UNL d   1       5.991  -2.699  -0.129  0.00  0.00    -0.047 A 
ATOM      6  C4  UNL d   1       5.807  -3.573  -1.179  0.00  0.00    -0.004 A 
ENDROOT
TORSDOF 0
ENDMDL
