MODEL 1
REMARK minimizedAffinity 4.92874479
REMARK minimizedRMSD -1
REMARK  0 active torsions:
REMARK  status: ('A' for Active; 'I' for Inactive)
ROOT
ATOM      1  C   UNL d   1       3.512  -1.155   0.352  0.00  0.00     0.172 C 
ATOM      2  N   UNL d   1       4.522  -1.961  -0.292  0.00  0.00    -0.070 N 
ATOM      3  C1  UNL d   1       5.068  -1.722  -1.524  0.00  0.00    -0.004 A 
ATOM      4  C2  UNL d   1       5.990  -2.715  -1.777  0.00  0.00    -0.047 A 
ATOM      5  C3  UNL d   1       5.997  -3.581  -0.658  0.00  0.00    -0.047 A 
ATOM      6  C4  UNL d   1       5.079  -3.091   0.246  0.00  0.00    -0.004 A 
ENDROOT
TORSDOF 0
ENDMDL
