MODEL 1
REMARK minimizedAffinity 3.51806092
REMARK minimizedRMSD -1
REMARK  0 active torsions:
REMARK  status: ('A' for Active; 'I' for Inactive)
ROOT
ATOM      1  C   UNL d   1      -1.775   6.000   1.620  0.00  0.00     0.172 C 
ATOM      2  N   UNL d   1      -0.783   5.295   0.844  0.00  0.00    -0.070 N 
ATOM      3  C1  UNL d   1      -0.385   3.999   1.044  0.00  0.00    -0.004 A 
ATOM      4  C2  UNL d   1       0.574   3.702   0.100  0.00  0.00    -0.047 A 
ATOM      5  C3  UNL d   1       0.760   4.858  -0.694  0.00  0.00    -0.047 A 
ATOM      6  C4  UNL d   1      -0.092   5.829  -0.211  0.00  0.00    -0.004 A 
ENDROOT
TORSDOF 0
ENDMDL
