MODEL 1
REMARK minimizedAffinity 14.0544176
REMARK minimizedRMSD -1
REMARK  0 active torsions:
REMARK  status: ('A' for Active; 'I' for Inactive)
ROOT
ATOM      1  C   UNL d   1       4.827  -3.871   0.947  0.00  0.00     0.124 A 
ATOM      2  C1  UNL d   1       3.705  -4.676   1.088  0.00  0.00     0.062 A 
ATOM      3  C2  UNL d   1       2.485  -4.118   1.458  0.00  0.00     0.162 A 
ATOM      4  C3  UNL d   1       2.379  -2.747   1.689  0.00  0.00    -0.034 A 
ATOM      5  C4  UNL d   1       3.512  -1.943   1.545  0.00  0.00     0.162 A 
ATOM      6  C5  UNL d   1       4.729  -2.505   1.175  0.00  0.00     0.062 A 
ATOM      7  F   UNL d   1       5.811  -1.726   1.039  0.00  0.00    -0.097 F 
ATOM      8  F1  UNL d   1       3.445  -0.621   1.759  0.00  0.00    -0.096 F 
ATOM      9  I   UNL d   1       0.556  -1.909   2.242  0.00  0.00    -0.060 I 
ATOM     10  F2  UNL d   1       1.418  -4.921   1.588  0.00  0.00    -0.096 F 
ATOM     11  F3  UNL d   1       3.797  -5.996   0.869  0.00  0.00    -0.097 F 
ATOM     12  F4  UNL d   1       6.000  -4.410   0.592  0.00  0.00    -0.092 F 
ENDROOT
TORSDOF 0
ENDMDL
