MODEL 1
REMARK minimizedAffinity 14.2454605
REMARK minimizedRMSD -1
REMARK  0 active torsions:
REMARK  status: ('A' for Active; 'I' for Inactive)
ROOT
ATOM      1  C   UNL d   1      -3.220   4.665  -5.440  0.00  0.00     0.124 A 
ATOM      2  C1  UNL d   1      -2.118   3.869  -5.721  0.00  0.00     0.062 A 
ATOM      3  C2  UNL d   1      -2.236   2.482  -5.714  0.00  0.00     0.162 A 
ATOM      4  C3  UNL d   1      -3.462   1.881  -5.425  0.00  0.00    -0.034 A 
ATOM      5  C4  UNL d   1      -4.565   2.688  -5.142  0.00  0.00     0.162 A 
ATOM      6  C5  UNL d   1      -4.442   4.074  -5.151  0.00  0.00     0.062 A 
ATOM      7  F   UNL d   1      -5.508   4.841  -4.879  0.00  0.00    -0.097 F 
ATOM      8  F1  UNL d   1      -5.758   2.144  -4.861  0.00  0.00    -0.096 F 
ATOM      9  I   UNL d   1      -3.643  -0.192  -5.413  0.00  0.00    -0.060 I 
ATOM     10  F2  UNL d   1      -1.155   1.737  -5.989  0.00  0.00    -0.096 F 
ATOM     11  F3  UNL d   1      -0.936   4.437  -6.000  0.00  0.00    -0.097 F 
ATOM     12  F4  UNL d   1      -3.103   5.999  -5.447  0.00  0.00    -0.092 F 
ENDROOT
TORSDOF 0
ENDMDL
