MODEL 1
REMARK minimizedAffinity 15.5201015
REMARK minimizedRMSD -1
REMARK  0 active torsions:
REMARK  status: ('A' for Active; 'I' for Inactive)
ROOT
ATOM      1  C   UNL d   1      -0.225  -1.890   1.557  0.00  0.00     0.124 A 
ATOM      2  C1  UNL d   1      -1.036  -1.674   0.451  0.00  0.00     0.062 A 
ATOM      3  C2  UNL d   1      -0.509  -1.096  -0.700  0.00  0.00     0.162 A 
ATOM      4  C3  UNL d   1       0.836  -0.731  -0.753  0.00  0.00    -0.034 A 
ATOM      5  C4  UNL d   1       1.645  -0.950   0.363  0.00  0.00     0.162 A 
ATOM      6  C5  UNL d   1       1.114  -1.528   1.512  0.00  0.00     0.062 A 
ATOM      7  F   UNL d   1       1.899  -1.736   2.579  0.00  0.00    -0.097 F 
ATOM      8  F1  UNL d   1       2.942  -0.611   0.347  0.00  0.00    -0.096 F 
ATOM      9  I   UNL d   1       1.627   0.133  -2.473  0.00  0.00    -0.060 I 
ATOM     10  F2  UNL d   1      -1.316  -0.899  -1.754  0.00  0.00    -0.096 F 
ATOM     11  F3  UNL d   1      -2.330  -2.022   0.493  0.00  0.00    -0.097 F 
ATOM     12  F4  UNL d   1      -0.734  -2.446   2.664  0.00  0.00    -0.092 F 
ENDROOT
TORSDOF 0
ENDMDL
