MODEL 1
REMARK minimizedAffinity 21.548769
REMARK minimizedRMSD -1
REMARK  0 active torsions:
REMARK  status: ('A' for Active; 'I' for Inactive)
ROOT
ATOM      1  C   UNL d   1       1.637   1.167  -1.431  0.00  0.00     0.124 A 
ATOM      2  C1  UNL d   1       0.958   0.023  -1.824  0.00  0.00     0.062 A 
ATOM      3  C2  UNL d   1       0.586  -0.930  -0.880  0.00  0.00     0.162 A 
ATOM      4  C3  UNL d   1       0.892  -0.742   0.468  0.00  0.00    -0.034 A 
ATOM      5  C4  UNL d   1       1.576   0.412   0.856  0.00  0.00     0.162 A 
ATOM      6  C5  UNL d   1       1.945   1.361  -0.092  0.00  0.00     0.062 A 
ATOM      7  F   UNL d   1       2.601   2.467   0.290  0.00  0.00    -0.097 F 
ATOM      8  F1  UNL d   1       1.885   0.625   2.143  0.00  0.00    -0.096 F 
ATOM      9  I   UNL d   1       0.338  -2.164   1.883  0.00  0.00    -0.060 I 
ATOM     10  F2  UNL d   1      -0.069  -2.027  -1.289  0.00  0.00    -0.096 F 
ATOM     11  F3  UNL d   1       0.660  -0.167  -3.118  0.00  0.00    -0.097 F 
ATOM     12  F4  UNL d   1       1.994   2.082  -2.342  0.00  0.00    -0.092 F 
ENDROOT
TORSDOF 0
ENDMDL
