MODEL 1
REMARK minimizedAffinity 24.2055988
REMARK minimizedRMSD -1
REMARK  0 active torsions:
REMARK  status: ('A' for Active; 'I' for Inactive)
ROOT
ATOM      1  C   UNL d   1       0.599   1.776  -0.888  0.00  0.00     0.124 A 
ATOM      2  C1  UNL d   1      -0.162   0.643  -1.141  0.00  0.00     0.062 A 
ATOM      3  C2  UNL d   1       0.134  -0.557  -0.499  0.00  0.00     0.162 A 
ATOM      4  C3  UNL d   1       1.196  -0.629   0.402  0.00  0.00    -0.034 A 
ATOM      5  C4  UNL d   1       1.958   0.515   0.650  0.00  0.00     0.162 A 
ATOM      6  C5  UNL d   1       1.658   1.711   0.006  0.00  0.00     0.062 A 
ATOM      7  F   UNL d   1       2.394   2.804   0.251  0.00  0.00    -0.097 F 
ATOM      8  F1  UNL d   1       2.986   0.480   1.511  0.00  0.00    -0.096 F 
ATOM      9  I   UNL d   1       1.642  -2.420   1.364  0.00  0.00    -0.060 I 
ATOM     10  F2  UNL d   1      -0.618  -1.636  -0.762  0.00  0.00    -0.096 F 
ATOM     11  F3  UNL d   1      -1.185   0.703  -2.006  0.00  0.00    -0.097 F 
ATOM     12  F4  UNL d   1       0.313   2.928  -1.508  0.00  0.00    -0.092 F 
ENDROOT
TORSDOF 0
ENDMDL
