MODEL 1
REMARK minimizedAffinity 21.7618694
REMARK minimizedRMSD -1
REMARK  0 active torsions:
REMARK  status: ('A' for Active; 'I' for Inactive)
ROOT
ATOM      1  C   UNL d   1       3.326   0.254   0.505  0.00  0.00     0.124 A 
ATOM      2  C1  UNL d   1       2.000  -0.152   0.475  0.00  0.00     0.062 A 
ATOM      3  C2  UNL d   1       1.661  -1.462   0.801  0.00  0.00     0.162 A 
ATOM      4  C3  UNL d   1       2.651  -2.376   1.162  0.00  0.00    -0.034 A 
ATOM      5  C4  UNL d   1       3.984  -1.960   1.190  0.00  0.00     0.162 A 
ATOM      6  C5  UNL d   1       4.317  -0.650   0.863  0.00  0.00     0.062 A 
ATOM      7  F   UNL d   1       5.599  -0.259   0.893  0.00  0.00    -0.097 F 
ATOM      8  F1  UNL d   1       4.961  -2.813   1.532  0.00  0.00    -0.096 F 
ATOM      9  I   UNL d   1       2.149  -4.336   1.650  0.00  0.00    -0.060 I 
ATOM     10  F2  UNL d   1       0.371  -1.827   0.763  0.00  0.00    -0.096 F 
ATOM     11  F3  UNL d   1       1.041   0.719   0.129  0.00  0.00    -0.097 F 
ATOM     12  F4  UNL d   1       3.650   1.515   0.190  0.00  0.00    -0.092 F 
ENDROOT
TORSDOF 0
ENDMDL
