MODEL 1
REMARK minimizedAffinity 25.0376511
REMARK minimizedRMSD -1
REMARK  0 active torsions:
REMARK  status: ('A' for Active; 'I' for Inactive)
ROOT
ATOM      1  C   UNL d   1       1.527  -1.179   1.530  0.00  0.00     0.124 A 
ATOM      2  C1  UNL d   1       0.932  -1.261   2.781  0.00  0.00     0.062 A 
ATOM      3  C2  UNL d   1       0.846  -0.132   3.591  0.00  0.00     0.162 A 
ATOM      4  C3  UNL d   1       1.355   1.090   3.151  0.00  0.00    -0.034 A 
ATOM      5  C4  UNL d   1       1.953   1.164   1.892  0.00  0.00     0.162 A 
ATOM      6  C5  UNL d   1       2.036   0.033   1.086  0.00  0.00     0.062 A 
ATOM      7  F   UNL d   1       2.611   0.115  -0.123  0.00  0.00    -0.097 F 
ATOM      8  F1  UNL d   1       2.452   2.323   1.438  0.00  0.00    -0.096 F 
ATOM      9  I   UNL d   1       1.228   2.780   4.359  0.00  0.00    -0.060 I 
ATOM     10  F2  UNL d   1       0.266  -0.241   4.796  0.00  0.00    -0.096 F 
ATOM     11  F3  UNL d   1       0.440  -2.432   3.213  0.00  0.00    -0.097 F 
ATOM     12  F4  UNL d   1       1.609  -2.267   0.753  0.00  0.00    -0.092 F 
ENDROOT
TORSDOF 0
ENDMDL
