MODEL 1
REMARK minimizedAffinity 26.1574631
REMARK minimizedRMSD -1
REMARK  0 active torsions:
REMARK  status: ('A' for Active; 'I' for Inactive)
ROOT
ATOM      1  C   UNL d   1      -4.234  -2.329  -2.111  0.00  0.00     0.124 A 
ATOM      2  C1  UNL d   1      -4.603  -2.339  -3.449  0.00  0.00     0.062 A 
ATOM      3  C2  UNL d   1      -4.473  -1.188  -4.220  0.00  0.00     0.162 A 
ATOM      4  C3  UNL d   1      -3.971  -0.015  -3.655  0.00  0.00    -0.034 A 
ATOM      5  C4  UNL d   1      -3.603  -0.012  -2.308  0.00  0.00     0.162 A 
ATOM      6  C5  UNL d   1      -3.734  -1.166  -1.542  0.00  0.00     0.062 A 
ATOM      7  F   UNL d   1      -3.378  -1.154  -0.249  0.00  0.00    -0.097 F 
ATOM      8  F1  UNL d   1      -3.116   1.097  -1.733  0.00  0.00    -0.096 F 
ATOM      9  I   UNL d   1      -3.775   1.709  -4.804  0.00  0.00    -0.060 I 
ATOM     10  F2  UNL d   1      -4.838  -1.226  -5.510  0.00  0.00    -0.096 F 
ATOM     11  F3  UNL d   1      -5.087  -3.461  -4.001  0.00  0.00    -0.097 F 
ATOM     12  F4  UNL d   1      -4.361  -3.438  -1.371  0.00  0.00    -0.092 F 
ENDROOT
TORSDOF 0
ENDMDL
