MODEL 1
REMARK minimizedAffinity 26.077961
REMARK minimizedRMSD -1
REMARK  0 active torsions:
REMARK  status: ('A' for Active; 'I' for Inactive)
ROOT
ATOM      1  C   UNL d   1      -4.515  -2.621  -2.027  0.00  0.00     0.124 A 
ATOM      2  C1  UNL d   1      -4.069  -1.458  -1.416  0.00  0.00     0.062 A 
ATOM      3  C2  UNL d   1      -3.877  -0.301  -2.167  0.00  0.00     0.162 A 
ATOM      4  C3  UNL d   1      -4.133  -0.303  -3.538  0.00  0.00    -0.034 A 
ATOM      5  C4  UNL d   1      -4.581  -1.477  -4.146  0.00  0.00     0.162 A 
ATOM      6  C5  UNL d   1      -4.770  -2.630  -3.391  0.00  0.00     0.062 A 
ATOM      7  F   UNL d   1      -5.201  -3.753  -3.983  0.00  0.00    -0.097 F 
ATOM      8  F1  UNL d   1      -4.836  -1.513  -5.462  0.00  0.00    -0.096 F 
ATOM      9  I   UNL d   1      -3.849   1.424  -4.664  0.00  0.00    -0.060 I 
ATOM     10  F2  UNL d   1      -3.446   0.809  -1.550  0.00  0.00    -0.096 F 
ATOM     11  F3  UNL d   1      -3.820  -1.447  -0.098  0.00  0.00    -0.097 F 
ATOM     12  F4  UNL d   1      -4.697  -3.732  -1.302  0.00  0.00    -0.092 F 
ENDROOT
TORSDOF 0
ENDMDL
