MODEL 1
REMARK minimizedAffinity 25.4179668
REMARK minimizedRMSD -1
REMARK  0 active torsions:
REMARK  status: ('A' for Active; 'I' for Inactive)
ROOT
ATOM      1  C   UNL d   1      -0.668  -2.162   1.828  0.00  0.00     0.124 A 
ATOM      2  C1  UNL d   1       0.671  -1.795   1.833  0.00  0.00     0.062 A 
ATOM      3  C2  UNL d   1       1.200  -1.064   0.774  0.00  0.00     0.162 A 
ATOM      4  C3  UNL d   1       0.390  -0.694  -0.300  0.00  0.00    -0.034 A 
ATOM      5  C4  UNL d   1      -0.955  -1.067  -0.298  0.00  0.00     0.162 A 
ATOM      6  C5  UNL d   1      -1.479  -1.798   0.763  0.00  0.00     0.062 A 
ATOM      7  F   UNL d   1      -2.773  -2.151   0.757  0.00  0.00    -0.097 F 
ATOM      8  F1  UNL d   1      -1.762  -0.727  -1.314  0.00  0.00    -0.096 F 
ATOM      9  I   UNL d   1       1.178   0.399  -1.886  0.00  0.00    -0.060 I 
ATOM     10  F2  UNL d   1       2.497  -0.724   0.805  0.00  0.00    -0.096 F 
ATOM     11  F3  UNL d   1       1.457  -2.147   2.861  0.00  0.00    -0.097 F 
ATOM     12  F4  UNL d   1      -1.175  -2.866   2.849  0.00  0.00    -0.092 F 
ENDROOT
TORSDOF 0
ENDMDL
