MODEL 1
REMARK minimizedAffinity 16.7764893
REMARK minimizedRMSD -1
REMARK  0 active torsions:
REMARK  status: ('A' for Active; 'I' for Inactive)
ROOT
ATOM      1  C   UNL d   1       1.499  -1.262   4.335  0.00  0.00     0.124 A 
ATOM      2  C1  UNL d   1       2.699  -1.903   4.606  0.00  0.00     0.062 A 
ATOM      3  C2  UNL d   1       3.256  -2.772   3.672  0.00  0.00     0.162 A 
ATOM      4  C3  UNL d   1       2.613  -3.003   2.456  0.00  0.00    -0.034 A 
ATOM      5  C4  UNL d   1       1.406  -2.355   2.190  0.00  0.00     0.162 A 
ATOM      6  C5  UNL d   1       0.853  -1.488   3.127  0.00  0.00     0.062 A 
ATOM      7  F   UNL d   1      -0.307  -0.870   2.863  0.00  0.00    -0.097 F 
ATOM      8  F1  UNL d   1       0.761  -2.556   1.031  0.00  0.00    -0.096 F 
ATOM      9  I   UNL d   1       3.443  -4.301   1.056  0.00  0.00    -0.060 I 
ATOM     10  F2  UNL d   1       4.417  -3.378   3.961  0.00  0.00    -0.096 F 
ATOM     11  F3  UNL d   1       3.325  -1.686   5.773  0.00  0.00    -0.097 F 
ATOM     12  F4  UNL d   1       0.965  -0.427   5.236  0.00  0.00    -0.092 F 
ENDROOT
TORSDOF 0
ENDMDL
