MODEL 1
REMARK minimizedAffinity 21.9307728
REMARK minimizedRMSD -1
REMARK  0 active torsions:
REMARK  status: ('A' for Active; 'I' for Inactive)
ROOT
ATOM      1  C   UNL d   1       0.798  -1.893   1.469  0.00  0.00     0.124 A 
ATOM      2  C1  UNL d   1       2.000  -1.203   1.397  0.00  0.00     0.062 A 
ATOM      3  C2  UNL d   1       2.192  -0.229   0.421  0.00  0.00     0.162 A 
ATOM      4  C3  UNL d   1       1.178   0.061  -0.492  0.00  0.00    -0.034 A 
ATOM      5  C4  UNL d   1      -0.028  -0.638  -0.415  0.00  0.00     0.162 A 
ATOM      6  C5  UNL d   1      -0.215  -1.610   0.563  0.00  0.00     0.062 A 
ATOM      7  F   UNL d   1      -1.377  -2.276   0.630  0.00  0.00    -0.097 F 
ATOM      8  F1  UNL d   1      -1.024  -0.384  -1.277  0.00  0.00    -0.096 F 
ATOM      9  I   UNL d   1       1.460   1.516  -1.953  0.00  0.00    -0.060 I 
ATOM     10  F2  UNL d   1       3.363   0.422   0.376  0.00  0.00    -0.096 F 
ATOM     11  F3  UNL d   1       2.980  -1.475   2.271  0.00  0.00    -0.097 F 
ATOM     12  F4  UNL d   1       0.617  -2.830   2.408  0.00  0.00    -0.092 F 
ENDROOT
TORSDOF 0
ENDMDL
