MODEL 1
REMARK minimizedAffinity -3.28873444
REMARK minimizedRMSD -1
REMARK  0 active torsions:
REMARK  status: ('A' for Active; 'I' for Inactive)
ROOT
ATOM      1  C4' PXY d   1      -0.790  -2.123   0.342  0.00  0.00     0.077 C 
ATOM      2  C1' PXY d   1       0.873   3.413   0.380  0.00  0.00     0.077 C 
ATOM      3  C1  PXY d   1       0.447   1.958   0.363  0.00  0.00    -0.082 A 
ATOM      4  C2  PXY d   1      -0.826   1.647   0.543  0.00  0.00     0.003 A 
ATOM      5  C3  PXY d   1      -1.223   0.334   0.562  0.00  0.00     0.003 A 
ATOM      6  C4  PXY d   1      -0.316  -0.667   0.342  0.00  0.00    -0.082 A 
ATOM      7  C5  PXY d   1       0.983  -0.357   0.147  0.00  0.00     0.003 A 
ATOM      8  C6  PXY d   1       1.373   0.979   0.172  0.00  0.00     0.003 A 
ENDROOT
TORSDOF 0
ENDMDL
