MODEL 1
REMARK minimizedAffinity -1.63462925
REMARK minimizedRMSD -1
REMARK  0 active torsions:
REMARK  status: ('A' for Active; 'I' for Inactive)
ROOT
ATOM      1  C4' PXY d   1      -0.018  -2.092   0.165  0.00  0.00     0.077 C 
ATOM      2  C1' PXY d   1       0.490   3.654  -0.197  0.00  0.00     0.077 C 
ATOM      3  C1  PXY d   1       0.367   2.146  -0.111  0.00  0.00    -0.082 A 
ATOM      4  C2  PXY d   1      -0.794   1.602   0.218  0.00  0.00     0.003 A 
ATOM      5  C3  PXY d   1      -0.914   0.241   0.332  0.00  0.00     0.003 A 
ATOM      6  C4  PXY d   1       0.150  -0.574   0.056  0.00  0.00    -0.082 A 
ATOM      7  C5  PXY d   1       1.335  -0.028  -0.291  0.00  0.00     0.003 A 
ATOM      8  C6  PXY d   1       1.448   1.358  -0.361  0.00  0.00     0.003 A 
ENDROOT
TORSDOF 0
ENDMDL
