MODEL 1
REMARK minimizedAffinity -2.15059471
REMARK minimizedRMSD -1
REMARK  0 active torsions:
REMARK  status: ('A' for Active; 'I' for Inactive)
ROOT
ATOM      1  C4' PXY d   1      -0.265  -1.604  -0.001  0.00  0.00     0.077 C 
ATOM      2  C1' PXY d   1       1.336   3.885   0.849  0.00  0.00     0.077 C 
ATOM      3  C1  PXY d   1       0.904   2.448   0.632  0.00  0.00    -0.082 A 
ATOM      4  C2  PXY d   1       1.821   1.506   0.484  0.00  0.00     0.003 A 
ATOM      5  C3  PXY d   1       1.448   0.206   0.255  0.00  0.00     0.003 A 
ATOM      6  C4  PXY d   1       0.124  -0.141   0.230  0.00  0.00    -0.082 A 
ATOM      7  C5  PXY d   1      -0.817   0.813   0.391  0.00  0.00     0.003 A 
ATOM      8  C6  PXY d   1      -0.418   2.133   0.581  0.00  0.00     0.003 A 
ENDROOT
TORSDOF 0
ENDMDL
