MODEL 1
REMARK minimizedAffinity -3.4809773
REMARK minimizedRMSD -1
REMARK  0 active torsions:
REMARK  status: ('A' for Active; 'I' for Inactive)
ROOT
ATOM      1  C4' PXY d   1       0.179  -2.032  -0.461  0.00  0.00     0.077 C 
ATOM      2  C1' PXY d   1       0.283   3.669   0.490  0.00  0.00     0.077 C 
ATOM      3  C1  PXY d   1       0.263   2.175   0.229  0.00  0.00    -0.082 A 
ATOM      4  C2  PXY d   1      -0.696   1.432   0.758  0.00  0.00     0.003 A 
ATOM      5  C3  PXY d   1      -0.711   0.076   0.559  0.00  0.00     0.003 A 
ATOM      6  C4  PXY d   1       0.234  -0.519  -0.233  0.00  0.00    -0.082 A 
ATOM      7  C5  PXY d   1       1.209   0.234  -0.785  0.00  0.00     0.003 A 
ATOM      8  C6  PXY d   1       1.231   1.603  -0.537  0.00  0.00     0.003 A 
ENDROOT
TORSDOF 0
ENDMDL
