MODEL 1
REMARK minimizedAffinity -1.19086587
REMARK minimizedRMSD -1
REMARK  0 active torsions:
REMARK  status: ('A' for Active; 'I' for Inactive)
ROOT
ATOM      1  C4' PXY d   1      -0.526  -2.994  -1.475  0.00  0.00     0.077 C 
ATOM      2  C1' PXY d   1      -0.359   2.220   1.016  0.00  0.00     0.077 C 
ATOM      3  C1  PXY d   1      -0.395   0.848   0.372  0.00  0.00    -0.082 A 
ATOM      4  C2  PXY d   1      -0.659   0.738  -0.920  0.00  0.00     0.003 A 
ATOM      5  C3  PXY d   1      -0.727  -0.497  -1.511  0.00  0.00     0.003 A 
ATOM      6  C4  PXY d   1      -0.470  -1.628  -0.785  0.00  0.00    -0.082 A 
ATOM      7  C5  PXY d   1      -0.189  -1.524   0.532  0.00  0.00     0.003 A 
ATOM      8  C6  PXY d   1      -0.166  -0.264   1.122  0.00  0.00     0.003 A 
ENDROOT
TORSDOF 0
ENDMDL
