MODEL 1
REMARK minimizedAffinity -4.86008263
REMARK minimizedRMSD -1
REMARK  0 active torsions:
REMARK  status: ('A' for Active; 'I' for Inactive)
ROOT
ATOM      1  C4' PXY d   1      -2.367   3.309   3.453  0.00  0.00     0.077 C 
ATOM      2  C1' PXY d   1       0.483   0.725  -0.861  0.00  0.00     0.077 C 
ATOM      3  C1  PXY d   1      -0.275   1.395   0.268  0.00  0.00    -0.082 A 
ATOM      4  C2  PXY d   1       0.053   2.622   0.638  0.00  0.00     0.003 A 
ATOM      5  C3  PXY d   1      -0.601   3.231   1.678  0.00  0.00     0.003 A 
ATOM      6  C4  PXY d   1      -1.636   2.597   2.312  0.00  0.00    -0.082 A 
ATOM      7  C5  PXY d   1      -1.983   1.349   1.934  0.00  0.00     0.003 A 
ATOM      8  C6  PXY d   1      -1.280   0.733   0.903  0.00  0.00     0.003 A 
ENDROOT
TORSDOF 0
ENDMDL
