MODEL 1
REMARK minimizedAffinity -3.20890021
REMARK minimizedRMSD -1
REMARK  0 active torsions:
REMARK  status: ('A' for Active; 'I' for Inactive)
ROOT
ATOM      1  C4' PXY d   1      -0.762  -1.764   0.366  0.00  0.00     0.077 C 
ATOM      2  C1' PXY d   1       0.561   3.826  -0.280  0.00  0.00     0.077 C 
ATOM      3  C1  PXY d   1       0.206   2.363  -0.100  0.00  0.00    -0.082 A 
ATOM      4  C2  PXY d   1       1.036   1.430  -0.539  0.00  0.00     0.003 A 
ATOM      5  C3  PXY d   1       0.716   0.103  -0.414  0.00  0.00     0.003 A 
ATOM      6  C4  PXY d   1      -0.441  -0.274   0.215  0.00  0.00    -0.082 A 
ATOM      7  C5  PXY d   1      -1.287   0.671   0.675  0.00  0.00     0.003 A 
ATOM      8  C6  PXY d   1      -0.963   2.014   0.501  0.00  0.00     0.003 A 
ENDROOT
TORSDOF 0
ENDMDL
