MODEL 1
REMARK minimizedAffinity -2.7162025
REMARK minimizedRMSD -1
REMARK  0 active torsions:
REMARK  status: ('A' for Active; 'I' for Inactive)
ROOT
ATOM      1  C4' PXY d   1      -2.859  -3.409  -1.752  0.00  0.00     0.077 C 
ATOM      2  C1' PXY d   1       1.787  -0.479   0.050  0.00  0.00     0.077 C 
ATOM      3  C1  PXY d   1       0.571  -1.245  -0.435  0.00  0.00    -0.082 A 
ATOM      4  C2  PXY d   1      -0.450  -1.437   0.384  0.00  0.00     0.003 A 
ATOM      5  C3  PXY d   1      -1.544  -2.155  -0.028  0.00  0.00     0.003 A 
ATOM      6  C4  PXY d   1      -1.616  -2.634  -1.308  0.00  0.00    -0.082 A 
ATOM      7  C5  PXY d   1      -0.582  -2.432  -2.153  0.00  0.00     0.003 A 
ATOM      8  C6  PXY d   1       0.536  -1.737  -1.703  0.00  0.00     0.003 A 
ENDROOT
TORSDOF 0
ENDMDL
