MODEL 1
REMARK minimizedAffinity -3.66732645
REMARK minimizedRMSD -1
REMARK  0 active torsions:
REMARK  status: ('A' for Active; 'I' for Inactive)
ROOT
ATOM      1  C4' PXY d   1      -1.065  -2.561  -0.093  0.00  0.00     0.077 C 
ATOM      2  C1' PXY d   1       0.331   3.048  -0.131  0.00  0.00     0.077 C 
ATOM      3  C1  PXY d   1      -0.026   1.574  -0.130  0.00  0.00    -0.082 A 
ATOM      4  C2  PXY d   1      -1.246   1.197   0.215  0.00  0.00     0.003 A 
ATOM      5  C3  PXY d   1      -1.576  -0.133   0.252  0.00  0.00     0.003 A 
ATOM      6  C4  PXY d   1      -0.664  -1.084  -0.118  0.00  0.00    -0.082 A 
ATOM      7  C5  PXY d   1       0.581  -0.707  -0.481  0.00  0.00     0.003 A 
ATOM      8  C6  PXY d   1       0.908   0.646  -0.473  0.00  0.00     0.003 A 
ENDROOT
TORSDOF 0
ENDMDL
