MODEL 1
REMARK minimizedAffinity 6.03208733
REMARK minimizedRMSD -1
REMARK  0 active torsions:
REMARK  status: ('A' for Active; 'I' for Inactive)
ROOT
ATOM      1  C4' PXY d   1      -2.866   2.862   0.259  0.00  0.00     0.077 C 
ATOM      2  C1' PXY d   1       2.859   2.323   0.852  0.00  0.00     0.077 C 
ATOM      3  C1  PXY d   1       1.355   2.454   0.705  0.00  0.00    -0.082 A 
ATOM      4  C2  PXY d   1       0.851   3.000  -0.390  0.00  0.00     0.003 A 
ATOM      5  C3  PXY d   1      -0.505   3.156  -0.526  0.00  0.00     0.003 A 
ATOM      6  C4  PXY d   1      -1.355   2.700   0.446  0.00  0.00    -0.082 A 
ATOM      7  C5  PXY d   1      -0.848   2.133   1.561  0.00  0.00     0.003 A 
ATOM      8  C6  PXY d   1       0.532   2.021   1.698  0.00  0.00     0.003 A 
ENDROOT
TORSDOF 0
ENDMDL
