MODEL 1
REMARK minimizedAffinity 4.80802965
REMARK minimizedRMSD -1
REMARK  0 active torsions:
REMARK  status: ('A' for Active; 'I' for Inactive)
ROOT
ATOM      1  C4' PXY d   1      -1.276   2.518   0.366  0.00  0.00     0.077 C 
ATOM      2  C1' PXY d   1       4.413   1.849   1.139  0.00  0.00     0.077 C 
ATOM      3  C1  PXY d   1       2.921   2.015   0.928  0.00  0.00    -0.082 A 
ATOM      4  C2  PXY d   1       2.350   3.180   1.183  0.00  0.00     0.003 A 
ATOM      5  C3  PXY d   1       0.996   3.338   1.028  0.00  0.00     0.003 A 
ATOM      6  C4  PXY d   1       0.228   2.308   0.556  0.00  0.00    -0.082 A 
ATOM      7  C5  PXY d   1       0.806   1.119   0.283  0.00  0.00     0.003 A 
ATOM      8  C6  PXY d   1       2.174   0.967   0.486  0.00  0.00     0.003 A 
ENDROOT
TORSDOF 0
ENDMDL
