MODEL 1
REMARK minimizedAffinity -2.39909244
REMARK minimizedRMSD -1
REMARK  0 active torsions:
REMARK  status: ('A' for Active; 'I' for Inactive)
ROOT
ATOM      1  C4' PXY d   1       2.880   1.886   1.179  0.00  0.00     0.077 C 
ATOM      2  C1' PXY d   1      -1.179  -2.103   0.165  0.00  0.00     0.077 C 
ATOM      3  C1  PXY d   1      -0.121  -1.048   0.423  0.00  0.00    -0.082 A 
ATOM      4  C2  PXY d   1       1.106  -1.419   0.753  0.00  0.00     0.003 A 
ATOM      5  C3  PXY d   1       2.066  -0.478   1.021  0.00  0.00     0.003 A 
ATOM      6  C4  PXY d   1       1.782   0.856   0.900  0.00  0.00    -0.082 A 
ATOM      7  C5  PXY d   1       0.536   1.242   0.554  0.00  0.00     0.003 A 
ATOM      8  C6  PXY d   1      -0.436   0.272   0.326  0.00  0.00     0.003 A 
ENDROOT
TORSDOF 0
ENDMDL
