MODEL 1
REMARK minimizedAffinity -3.39169431
REMARK minimizedRMSD -1
REMARK  0 active torsions:
REMARK  status: ('A' for Active; 'I' for Inactive)
ROOT
ATOM      1  C4' PXY d   1       0.000  -2.360  -0.393  0.00  0.00     0.077 C 
ATOM      2  C1' PXY d   1       0.081   3.375   0.328  0.00  0.00     0.077 C 
ATOM      3  C1  PXY d   1       0.071   1.872   0.132  0.00  0.00    -0.082 A 
ATOM      4  C2  PXY d   1      -1.077   1.215   0.166  0.00  0.00     0.003 A 
ATOM      5  C3  PXY d   1      -1.101  -0.148   0.023  0.00  0.00     0.003 A 
ATOM      6  C4  PXY d   1       0.057  -0.841  -0.210  0.00  0.00    -0.082 A 
ATOM      7  C5  PXY d   1       1.231  -0.177  -0.257  0.00  0.00     0.003 A 
ATOM      8  C6  PXY d   1       1.238   1.202  -0.068  0.00  0.00     0.003 A 
ENDROOT
TORSDOF 0
ENDMDL
