MODEL 1
REMARK minimizedAffinity 1.3967514
REMARK minimizedRMSD -1
REMARK  0 active torsions:
REMARK  status: ('A' for Active; 'I' for Inactive)
ROOT
ATOM      1  C4' PXY d   1       2.198   2.867  -0.463  0.00  0.00     0.077 C 
ATOM      2  C1' PXY d   1      -3.519   2.215   0.092  0.00  0.00     0.077 C 
ATOM      3  C1  PXY d   1      -2.018   2.386  -0.040  0.00  0.00    -0.082 A 
ATOM      4  C2  PXY d   1      -1.516   2.927  -1.138  0.00  0.00     0.003 A 
ATOM      5  C3  PXY d   1      -0.160   3.060  -1.288  0.00  0.00     0.003 A 
ATOM      6  C4  PXY d   1       0.689   2.684  -0.282  0.00  0.00    -0.082 A 
ATOM      7  C5  PXY d   1       0.184   2.140   0.846  0.00  0.00     0.003 A 
ATOM      8  C6  PXY d   1      -1.194   1.976   0.961  0.00  0.00     0.003 A 
ENDROOT
TORSDOF 0
ENDMDL
