MODEL 1
REMARK minimizedAffinity -4.91927099
REMARK minimizedRMSD -1
REMARK  0 active torsions:
REMARK  status: ('A' for Active; 'I' for Inactive)
ROOT
ATOM      1  C4' PXY d   1      -0.118  -3.417  -2.416  0.00  0.00     0.077 C 
ATOM      2  C1' PXY d   1      -4.731  -5.072   0.649  0.00  0.00     0.077 C 
ATOM      3  C1  PXY d   1      -3.525  -4.645  -0.165  0.00  0.00    -0.082 A 
ATOM      4  C2  PXY d   1      -2.421  -4.259   0.454  0.00  0.00     0.003 A 
ATOM      5  C3  PXY d   1      -1.333  -3.839  -0.266  0.00  0.00     0.003 A 
ATOM      6  C4  PXY d   1      -1.356  -3.865  -1.635  0.00  0.00    -0.082 A 
ATOM      7  C5  PXY d   1      -2.475  -4.268  -2.274  0.00  0.00     0.003 A 
ATOM      8  C6  PXY d   1      -3.583  -4.651  -1.524  0.00  0.00     0.003 A 
ENDROOT
TORSDOF 0
ENDMDL
