MODEL 1
REMARK minimizedAffinity 1.33961558
REMARK minimizedRMSD -1
REMARK  0 active torsions:
REMARK  status: ('A' for Active; 'I' for Inactive)
ROOT
ATOM      1  C4' PXY d   1       2.856   1.657   0.434  0.00  0.00     0.077 C 
ATOM      2  C1' PXY d   1      -2.752   2.833  -0.335  0.00  0.00     0.077 C 
ATOM      3  C1  PXY d   1      -1.278   2.530  -0.145  0.00  0.00    -0.082 A 
ATOM      4  C2  PXY d   1      -0.910   1.575   0.694  0.00  0.00     0.003 A 
ATOM      5  C3  PXY d   1       0.419   1.309   0.901  0.00  0.00     0.003 A 
ATOM      6  C4  PXY d   1       1.379   1.991   0.204  0.00  0.00    -0.082 A 
ATOM      7  C5  PXY d   1       1.011   2.960  -0.662  0.00  0.00     0.003 A 
ATOM      8  C6  PXY d   1      -0.342   3.242  -0.828  0.00  0.00     0.003 A 
ENDROOT
TORSDOF 0
ENDMDL
