MODEL 1
REMARK minimizedAffinity -4.34183168
REMARK minimizedRMSD -1
REMARK  0 active torsions:
REMARK  status: ('A' for Active; 'I' for Inactive)
ROOT
ATOM      1  C4' PXY d   1      -0.017  -2.215   0.214  0.00  0.00     0.077 C 
ATOM      2  C1' PXY d   1       0.249   3.556  -0.006  0.00  0.00     0.077 C 
ATOM      3  C1  PXY d   1       0.190   2.042   0.044  0.00  0.00    -0.082 A 
ATOM      4  C2  PXY d   1      -0.959   1.440   0.307  0.00  0.00     0.003 A 
ATOM      5  C3  PXY d   1      -1.024   0.073   0.387  0.00  0.00     0.003 A 
ATOM      6  C4  PXY d   1       0.088  -0.689   0.144  0.00  0.00    -0.082 A 
ATOM      7  C5  PXY d   1       1.261  -0.083  -0.136  0.00  0.00     0.003 A 
ATOM      8  C6  PXY d   1       1.315   1.307  -0.172  0.00  0.00     0.003 A 
ENDROOT
TORSDOF 0
ENDMDL
