MODEL 1
REMARK minimizedAffinity -5.5855546
REMARK minimizedRMSD -1
REMARK  0 active torsions:
REMARK  status: ('A' for Active; 'I' for Inactive)
ROOT
ATOM      1  C4' PXY d   1      -0.810  -2.818  -1.698  0.00  0.00     0.077 C 
ATOM      2  C1' PXY d   1      -0.544   2.355   0.866  0.00  0.00     0.077 C 
ATOM      3  C1  PXY d   1      -0.610   0.993   0.205  0.00  0.00    -0.082 A 
ATOM      4  C2  PXY d   1      -0.491   0.897  -1.109  0.00  0.00     0.003 A 
ATOM      5  C3  PXY d   1      -0.580  -0.324  -1.727  0.00  0.00     0.003 A 
ATOM      6  C4  PXY d   1      -0.740  -1.464  -0.987  0.00  0.00    -0.082 A 
ATOM      7  C5  PXY d   1      -0.852  -1.376   0.356  0.00  0.00     0.003 A 
ATOM      8  C6  PXY d   1      -0.800  -0.123   0.960  0.00  0.00     0.003 A 
ENDROOT
TORSDOF 0
ENDMDL
