MODEL 1
REMARK minimizedAffinity -3.55217528
REMARK minimizedRMSD -1
REMARK  0 active torsions:
REMARK  status: ('A' for Active; 'I' for Inactive)
ROOT
ATOM      1  C4' PXY d   1      -0.066  -1.365   0.403  0.00  0.00     0.077 C 
ATOM      2  C1' PXY d   1       0.970   4.312   0.062  0.00  0.00     0.077 C 
ATOM      3  C1  PXY d   1       0.709   2.821   0.144  0.00  0.00    -0.082 A 
ATOM      4  C2  PXY d   1      -0.517   2.384   0.382  0.00  0.00     0.003 A 
ATOM      5  C3  PXY d   1      -0.765   1.039   0.491  0.00  0.00     0.003 A 
ATOM      6  C4  PXY d   1       0.243   0.132   0.302  0.00  0.00    -0.082 A 
ATOM      7  C5  PXY d   1       1.494   0.570   0.049  0.00  0.00     0.003 A 
ATOM      8  C6  PXY d   1       1.733   1.939  -0.017  0.00  0.00     0.003 A 
ENDROOT
TORSDOF 0
ENDMDL
