MODEL 1
REMARK minimizedAffinity -2.74734521
REMARK minimizedRMSD -1
REMARK  0 active torsions:
REMARK  status: ('A' for Active; 'I' for Inactive)
ROOT
ATOM      1  C4' PXY d   1       0.569   3.703   0.358  0.00  0.00     0.077 C 
ATOM      2  C1' PXY d   1       0.179  -2.064   0.280  0.00  0.00     0.077 C 
ATOM      3  C1  PXY d   1       0.294  -0.552   0.304  0.00  0.00    -0.082 A 
ATOM      4  C2  PXY d   1      -0.795   0.184   0.454  0.00  0.00     0.003 A 
ATOM      5  C3  PXY d   1      -0.714   1.553   0.446  0.00  0.00     0.003 A 
ATOM      6  C4  PXY d   1       0.502   2.174   0.337  0.00  0.00    -0.082 A 
ATOM      7  C5  PXY d   1       1.619   1.429   0.195  0.00  0.00     0.003 A 
ATOM      8  C6  PXY d   1       1.510   0.042   0.164  0.00  0.00     0.003 A 
ENDROOT
TORSDOF 0
ENDMDL
