MODEL 1
REMARK minimizedAffinity 0.962266028
REMARK minimizedRMSD -1
REMARK  2 active torsions:
REMARK  status: ('A' for Active; 'I' for Inactive)
REMARK    1  A    between atoms: C1_2  and  C2_3 
REMARK    2  A    between atoms: C2_3  and  C3_4 
ROOT
ATOM      1  C3  UNL d   1       0.058  -1.371   0.864  0.00  0.00    -0.075 A 
ATOM      2  C4  UNL d   1       0.355  -2.388   1.783  0.00  0.00     0.002 A 
ATOM      3  C5  UNL d   1       1.422  -3.258   1.557  0.00  0.00     0.002 A 
ATOM      4  C6  UNL d   1       2.198  -3.129   0.406  0.00  0.00    -0.004 A 
ATOM      5  C7  UNL d   1       1.901  -2.133  -0.521  0.00  0.00     0.002 A 
ATOM      6  C8  UNL d   1       0.837  -1.258  -0.295  0.00  0.00     0.002 A 
ENDROOT
BRANCH   1   7
ATOM      7  C2  UNL d   1      -1.077  -0.408   1.118  0.00  0.00     0.056 C 
BRANCH   7   8
ATOM      8  C1  UNL d   1      -2.134  -0.383   0.008  0.00  0.00     0.007 C 
ATOM      9  C   UNL d   1      -3.150   0.739   0.172  0.00  0.00     0.009 C 
ENDBRANCH   7   8
ENDBRANCH   1   7
TORSDOF 2
ENDMDL
