MODEL 1
REMARK minimizedAffinity 4.61761618
REMARK minimizedRMSD -1
REMARK  2 active torsions:
REMARK  status: ('A' for Active; 'I' for Inactive)
REMARK    1  A    between atoms: C1_2  and  C2_3 
REMARK    2  A    between atoms: C2_3  and  C3_4 
ROOT
ATOM      1  C3  UNL d   1       0.450  -1.522   0.406  0.00  0.00    -0.075 A 
ATOM      2  C4  UNL d   1      -0.810  -1.563  -0.208  0.00  0.00     0.002 A 
ATOM      3  C5  UNL d   1      -1.825  -0.696   0.200  0.00  0.00     0.002 A 
ATOM      4  C6  UNL d   1      -1.596   0.214   1.229  0.00  0.00    -0.004 A 
ATOM      5  C7  UNL d   1      -0.353   0.252   1.857  0.00  0.00     0.002 A 
ATOM      6  C8  UNL d   1       0.665  -0.611   1.449  0.00  0.00     0.002 A 
ENDROOT
BRANCH   1   7
ATOM      7  C2  UNL d   1       1.561  -2.437  -0.050  0.00  0.00     0.056 C 
BRANCH   7   8
ATOM      8  C1  UNL d   1       1.590  -3.790   0.668  0.00  0.00     0.007 C 
ATOM      9  C   UNL d   1       2.785  -4.650   0.282  0.00  0.00     0.009 C 
ENDBRANCH   7   8
ENDBRANCH   1   7
TORSDOF 2
ENDMDL
