MODEL 1
REMARK minimizedAffinity 15.3202991
REMARK minimizedRMSD -1
REMARK  2 active torsions:
REMARK  status: ('A' for Active; 'I' for Inactive)
REMARK    1  A    between atoms: C1_2  and  C2_3 
REMARK    2  A    between atoms: C2_3  and  C3_4 
ROOT
ATOM      1  C3  UNL d   1      -4.799   1.343   3.129  0.00  0.00    -0.075 A 
ATOM      2  C4  UNL d   1      -3.418   1.423   3.360  0.00  0.00     0.002 A 
ATOM      3  C5  UNL d   1      -2.513   0.939   2.415  0.00  0.00     0.002 A 
ATOM      4  C6  UNL d   1      -2.975   0.361   1.235  0.00  0.00    -0.004 A 
ATOM      5  C7  UNL d   1      -4.346   0.262   1.002  0.00  0.00     0.002 A 
ATOM      6  C8  UNL d   1      -5.253   0.750   1.944  0.00  0.00     0.002 A 
ENDROOT
BRANCH   1   7
ATOM      7  C2  UNL d   1      -5.783   1.892   4.134  0.00  0.00     0.056 C 
BRANCH   7   8
ATOM      8  C1  UNL d   1      -5.241   1.959   5.565  0.00  0.00     0.007 C 
ATOM      9  C   UNL d   1      -4.866   3.370   6.000  0.00  0.00     0.009 C 
ENDBRANCH   7   8
ENDBRANCH   1   7
TORSDOF 2
ENDMDL
