MODEL 1
REMARK minimizedAffinity 5.52052212
REMARK minimizedRMSD -1
REMARK  2 active torsions:
REMARK  status: ('A' for Active; 'I' for Inactive)
REMARK    1  A    between atoms: C1_2  and  C2_3 
REMARK    2  A    between atoms: C2_3  and  C3_4 
ROOT
ATOM      1  C3  UNL d   1       1.268  -2.122   0.550  0.00  0.00    -0.075 A 
ATOM      2  C4  UNL d   1       1.294  -0.721   0.491  0.00  0.00     0.002 A 
ATOM      3  C5  UNL d   1       0.530   0.040   1.377  0.00  0.00     0.002 A 
ATOM      4  C6  UNL d   1      -0.276  -0.589   2.323  0.00  0.00    -0.004 A 
ATOM      5  C7  UNL d   1      -0.323  -1.980   2.379  0.00  0.00     0.002 A 
ATOM      6  C8  UNL d   1       0.444  -2.744   1.497  0.00  0.00     0.002 A 
ENDROOT
BRANCH   1   7
ATOM      7  C2  UNL d   1       2.115  -2.950  -0.387  0.00  0.00     0.056 C 
BRANCH   7   8
ATOM      8  C1  UNL d   1       2.638  -4.251   0.232  0.00  0.00     0.007 C 
ATOM      9  C   UNL d   1       3.825  -4.838  -0.520  0.00  0.00     0.009 C 
ENDBRANCH   7   8
ENDBRANCH   1   7
TORSDOF 2
ENDMDL
