MODEL 1
REMARK minimizedAffinity 2.08880591
REMARK minimizedRMSD -1
REMARK  2 active torsions:
REMARK  status: ('A' for Active; 'I' for Inactive)
REMARK    1  A    between atoms: C1_2  and  C2_3 
REMARK    2  A    between atoms: C2_3  and  C3_4 
ROOT
ATOM      1  C3  UNL d   1       1.219  -3.206   0.653  0.00  0.00    -0.075 A 
ATOM      2  C4  UNL d   1       1.400  -1.822   0.786  0.00  0.00     0.002 A 
ATOM      3  C5  UNL d   1       0.419  -1.033   1.387  0.00  0.00     0.002 A 
ATOM      4  C6  UNL d   1      -0.758  -1.615   1.852  0.00  0.00    -0.004 A 
ATOM      5  C7  UNL d   1      -0.956  -2.987   1.711  0.00  0.00     0.002 A 
ATOM      6  C8  UNL d   1       0.026  -3.779   1.114  0.00  0.00     0.002 A 
ENDROOT
BRANCH   1   7
ATOM      7  C2  UNL d   1       2.290  -4.069   0.031  0.00  0.00     0.056 C 
BRANCH   7   8
ATOM      8  C1  UNL d   1       3.583  -4.147   0.850  0.00  0.00     0.007 C 
ATOM      9  C   UNL d   1       4.239  -5.521   0.806  0.00  0.00     0.009 C 
ENDBRANCH   7   8
ENDBRANCH   1   7
TORSDOF 2
ENDMDL
