MODEL 1
REMARK minimizedAffinity 0.958225548
REMARK minimizedRMSD -1
REMARK  2 active torsions:
REMARK  status: ('A' for Active; 'I' for Inactive)
REMARK    1  A    between atoms: C1_2  and  C2_3 
REMARK    2  A    between atoms: C2_3  and  C3_4 
ROOT
ATOM      1  C3  UNL d   1       1.210  -3.491   1.031  0.00  0.00    -0.075 A 
ATOM      2  C4  UNL d   1       1.120  -2.115   1.287  0.00  0.00     0.002 A 
ATOM      3  C5  UNL d   1       0.052  -1.600   2.023  0.00  0.00     0.002 A 
ATOM      4  C6  UNL d   1      -0.943  -2.451   2.501  0.00  0.00    -0.004 A 
ATOM      5  C7  UNL d   1      -0.872  -3.817   2.238  0.00  0.00     0.002 A 
ATOM      6  C8  UNL d   1       0.198  -4.335   1.506  0.00  0.00     0.002 A 
ENDROOT
BRANCH   1   7
ATOM      7  C2  UNL d   1       2.379  -4.058   0.261  0.00  0.00     0.056 C 
BRANCH   7   8
ATOM      8  C1  UNL d   1       3.233  -5.046   1.062  0.00  0.00     0.007 C 
ATOM      9  C   UNL d   1       4.707  -5.012   0.680  0.00  0.00     0.009 C 
ENDBRANCH   7   8
ENDBRANCH   1   7
TORSDOF 2
ENDMDL
