MODEL 1
REMARK minimizedAffinity 3.64749646
REMARK minimizedRMSD -1
REMARK  2 active torsions:
REMARK  status: ('A' for Active; 'I' for Inactive)
REMARK    1  A    between atoms: C1_2  and  C2_3 
REMARK    2  A    between atoms: C2_3  and  C3_4 
ROOT
ATOM      1  C3  UNL d   1       1.709  -2.261   0.744  0.00  0.00    -0.075 A 
ATOM      2  C4  UNL d   1       1.727  -0.862   0.642  0.00  0.00     0.002 A 
ATOM      3  C5  UNL d   1       0.633  -0.107   1.063  0.00  0.00     0.002 A 
ATOM      4  C6  UNL d   1      -0.496  -0.739   1.580  0.00  0.00    -0.004 A 
ATOM      5  C7  UNL d   1      -0.532  -2.128   1.671  0.00  0.00     0.002 A 
ATOM      6  C8  UNL d   1       0.564  -2.887   1.255  0.00  0.00     0.002 A 
ENDROOT
BRANCH   1   7
ATOM      7  C2  UNL d   1       2.902  -3.083   0.318  0.00  0.00     0.056 C 
BRANCH   7   8
ATOM      8  C1  UNL d   1       2.704  -4.595   0.470  0.00  0.00     0.007 C 
ATOM      9  C   UNL d   1       4.010  -5.354   0.662  0.00  0.00     0.009 C 
ENDBRANCH   7   8
ENDBRANCH   1   7
TORSDOF 2
ENDMDL
