MODEL 1
REMARK minimizedAffinity -1.42452574
REMARK minimizedRMSD -1
REMARK  0 active torsions:
REMARK  status: ('A' for Active; 'I' for Inactive)
ROOT
ATOM      1  C1  DEN d   1       1.628  -0.541   0.720  0.00  0.00     0.130 A 
ATOM      2  C2  DEN d   1       0.767  -1.679   0.412  0.00  0.00    -0.031 A 
ATOM      3  C3  DEN d   1      -0.602  -1.171   0.192  0.00  0.00     0.027 A 
ATOM      4  C4  DEN d   1      -1.466   1.258   0.293  0.00  0.00     0.027 A 
ATOM      5  C5  DEN d   1      -1.110   2.567   0.530  0.00  0.00    -0.003 A 
ATOM      6  C6  DEN d   1       0.166   2.925   0.877  0.00  0.00     0.001 A 
ATOM      7  C7  DEN d   1       1.143   1.968   0.953  0.00  0.00     0.017 A 
ATOM      8  C8  DEN d   1       0.790   0.645   0.723  0.00  0.00    -0.094 A 
ATOM      9  C9  DEN d   1      -0.503   0.304   0.362  0.00  0.00    -0.072 A 
ENDROOT
TORSDOF 0
ENDMDL
