MODEL 1
REMARK minimizedAffinity -0.0707704872
REMARK minimizedRMSD -1
REMARK  0 active torsions:
REMARK  status: ('A' for Active; 'I' for Inactive)
ROOT
ATOM      1  C1  DEN d   1       0.989  -0.850  -1.115  0.00  0.00     0.130 A 
ATOM      2  C2  DEN d   1       0.937  -0.709   0.337  0.00  0.00    -0.031 A 
ATOM      3  C3  DEN d   1       0.047  -1.762   0.867  0.00  0.00     0.027 A 
ATOM      4  C4  DEN d   1      -1.245  -3.590  -0.414  0.00  0.00     0.027 A 
ATOM      5  C5  DEN d   1      -1.524  -4.102  -1.662  0.00  0.00    -0.003 A 
ATOM      6  C6  DEN d   1      -1.015  -3.550  -2.808  0.00  0.00     0.001 A 
ATOM      7  C7  DEN d   1      -0.165  -2.480  -2.727  0.00  0.00     0.017 A 
ATOM      8  C8  DEN d   1       0.115  -1.953  -1.473  0.00  0.00    -0.094 A 
ATOM      9  C9  DEN d   1      -0.399  -2.532  -0.325  0.00  0.00    -0.072 A 
ENDROOT
TORSDOF 0
ENDMDL
