MODEL 1
REMARK minimizedAffinity -5.34289551
REMARK minimizedRMSD -1
REMARK  0 active torsions:
REMARK  status: ('A' for Active; 'I' for Inactive)
ROOT
ATOM      1  C1  DEN d   1      -0.355   3.042   0.199  0.00  0.00     0.130 A 
ATOM      2  C2  DEN d   1       0.983   3.259  -0.344  0.00  0.00    -0.031 A 
ATOM      3  C3  DEN d   1       1.647   1.945  -0.462  0.00  0.00     0.027 A 
ATOM      4  C4  DEN d   1       0.735  -0.393   0.137  0.00  0.00     0.027 A 
ATOM      5  C5  DEN d   1      -0.346  -1.080   0.642  0.00  0.00    -0.003 A 
ATOM      6  C6  DEN d   1      -1.484  -0.444   1.063  0.00  0.00     0.001 A 
ATOM      7  C7  DEN d   1      -1.584   0.917   0.945  0.00  0.00     0.017 A 
ATOM      8  C8  DEN d   1      -0.496   1.617   0.443  0.00  0.00    -0.094 A 
ATOM      9  C9  DEN d   1       0.641   0.955   0.011  0.00  0.00    -0.072 A 
ENDROOT
TORSDOF 0
ENDMDL
