MODEL 1
REMARK minimizedAffinity -4.18040228
REMARK minimizedRMSD -1
REMARK  0 active torsions:
REMARK  status: ('A' for Active; 'I' for Inactive)
ROOT
ATOM      1  C1  DEN d   1      -1.020  -2.572  -2.642  0.00  0.00     0.130 A 
ATOM      2  C2  DEN d   1      -0.639  -3.942  -2.311  0.00  0.00    -0.031 A 
ATOM      3  C3  DEN d   1       0.127  -3.909  -1.048  0.00  0.00     0.027 A 
ATOM      4  C4  DEN d   1       0.752  -1.882   0.419  0.00  0.00     0.027 A 
ATOM      5  C5  DEN d   1       0.659  -0.513   0.540  0.00  0.00    -0.003 A 
ATOM      6  C6  DEN d   1       0.035   0.263  -0.401  0.00  0.00     0.001 A 
ATOM      7  C7  DEN d   1      -0.560  -0.330  -1.483  0.00  0.00     0.017 A 
ATOM      8  C8  DEN d   1      -0.465  -1.709  -1.615  0.00  0.00    -0.094 A 
ATOM      9  C9  DEN d   1       0.159  -2.477  -0.647  0.00  0.00    -0.072 A 
ENDROOT
TORSDOF 0
ENDMDL
