MODEL 1
REMARK minimizedAffinity -0.929786026
REMARK minimizedRMSD -1
REMARK  0 active torsions:
REMARK  status: ('A' for Active; 'I' for Inactive)
ROOT
ATOM      1  C1  DEN d   1      -0.955  -0.425  -0.262  0.00  0.00     0.130 A 
ATOM      2  C2  DEN d   1      -0.171  -1.656  -0.272  0.00  0.00    -0.031 A 
ATOM      3  C3  DEN d   1       1.258  -1.288  -0.214  0.00  0.00     0.027 A 
ATOM      4  C4  DEN d   1       2.326   1.057  -0.105  0.00  0.00     0.027 A 
ATOM      5  C5  DEN d   1       2.065   2.410  -0.084  0.00  0.00    -0.003 A 
ATOM      6  C6  DEN d   1       0.791   2.909  -0.155  0.00  0.00     0.001 A 
ATOM      7  C7  DEN d   1      -0.273   2.048  -0.205  0.00  0.00     0.017 A 
ATOM      8  C8  DEN d   1      -0.018   0.683  -0.233  0.00  0.00    -0.094 A 
ATOM      9  C9  DEN d   1       1.276   0.198  -0.148  0.00  0.00    -0.072 A 
ENDROOT
TORSDOF 0
ENDMDL
