MODEL 1
REMARK minimizedAffinity -4.80817604
REMARK minimizedRMSD -1
REMARK  0 active torsions:
REMARK  status: ('A' for Active; 'I' for Inactive)
ROOT
ATOM      1  C1  DEN d   1      -1.963   0.598   0.587  0.00  0.00     0.130 A 
ATOM      2  C2  DEN d   1      -1.567  -0.805   0.499  0.00  0.00    -0.031 A 
ATOM      3  C3  DEN d   1      -0.098  -0.857   0.360  0.00  0.00     0.027 A 
ATOM      4  C4  DEN d   1       1.594   1.088   0.278  0.00  0.00     0.027 A 
ATOM      5  C5  DEN d   1       1.731   2.458   0.304  0.00  0.00    -0.003 A 
ATOM      6  C6  DEN d   1       0.653   3.298   0.391  0.00  0.00     0.001 A 
ATOM      7  C7  DEN d   1      -0.608   2.775   0.502  0.00  0.00     0.017 A 
ATOM      8  C8  DEN d   1      -0.755   1.394   0.468  0.00  0.00    -0.094 A 
ATOM      9  C9  DEN d   1       0.348   0.562   0.392  0.00  0.00    -0.072 A 
ENDROOT
TORSDOF 0
ENDMDL
