MODEL 1
REMARK minimizedAffinity 0.142612785
REMARK minimizedRMSD -1
REMARK  0 active torsions:
REMARK  status: ('A' for Active; 'I' for Inactive)
ROOT
ATOM      1  C1  DEN d   1      -1.459  -0.526   0.842  0.00  0.00     0.130 A 
ATOM      2  C2  DEN d   1      -0.818  -1.599   0.087  0.00  0.00    -0.031 A 
ATOM      3  C3  DEN d   1       0.394  -1.047  -0.552  0.00  0.00     0.027 A 
ATOM      4  C4  DEN d   1       1.338   1.350  -0.441  0.00  0.00     0.027 A 
ATOM      5  C5  DEN d   1       1.135   2.614   0.068  0.00  0.00    -0.003 A 
ATOM      6  C6  DEN d   1       0.044   2.926   0.835  0.00  0.00     0.001 A 
ATOM      7  C7  DEN d   1      -0.862   1.950   1.155  0.00  0.00     0.017 A 
ATOM      8  C8  DEN d   1      -0.668   0.675   0.640  0.00  0.00    -0.094 A 
ATOM      9  C9  DEN d   1       0.447   0.377  -0.125  0.00  0.00    -0.072 A 
ENDROOT
TORSDOF 0
ENDMDL
