MODEL 1
REMARK minimizedAffinity -6.05087185
REMARK minimizedRMSD -1
REMARK  0 active torsions:
REMARK  status: ('A' for Active; 'I' for Inactive)
ROOT
ATOM      1  C1  DEN d   1       2.666   1.338   0.241  0.00  0.00     0.130 A 
ATOM      2  C2  DEN d   1       2.810   2.789   0.314  0.00  0.00    -0.031 A 
ATOM      3  C3  DEN d   1       1.488   3.363   0.640  0.00  0.00     0.027 A 
ATOM      4  C4  DEN d   1      -0.752   2.150   1.041  0.00  0.00     0.027 A 
ATOM      5  C5  DEN d   1      -1.373   0.921   1.075  0.00  0.00    -0.003 A 
ATOM      6  C6  DEN d   1      -0.704  -0.242   0.803  0.00  0.00     0.001 A 
ATOM      7  C7  DEN d   1       0.637  -0.206   0.528  0.00  0.00     0.017 A 
ATOM      8  C8  DEN d   1       1.268   1.030   0.484  0.00  0.00    -0.094 A 
ATOM      9  C9  DEN d   1       0.578   2.194   0.775  0.00  0.00    -0.072 A 
ENDROOT
TORSDOF 0
ENDMDL
