MODEL 1
REMARK minimizedAffinity -6.26030874
REMARK minimizedRMSD -1
REMARK  0 active torsions:
REMARK  status: ('A' for Active; 'I' for Inactive)
ROOT
ATOM      1  C1  DEN d   1       1.617   3.313   0.593  0.00  0.00     0.130 A 
ATOM      2  C2  DEN d   1       2.893   2.705   0.962  0.00  0.00    -0.031 A 
ATOM      3  C3  DEN d   1       2.709   1.240   0.989  0.00  0.00     0.027 A 
ATOM      4  C4  DEN d   1       0.587  -0.139   0.494  0.00  0.00     0.027 A 
ATOM      5  C5  DEN d   1      -0.745  -0.065   0.149  0.00  0.00    -0.003 A 
ATOM      6  C6  DEN d   1      -1.386   1.131  -0.037  0.00  0.00     0.001 A 
ATOM      7  C7  DEN d   1      -0.684   2.302   0.077  0.00  0.00     0.017 A 
ATOM      8  C8  DEN d   1       0.657   2.236   0.431  0.00  0.00    -0.094 A 
ATOM      9  C9  DEN d   1       1.290   1.017   0.603  0.00  0.00    -0.072 A 
ENDROOT
TORSDOF 0
ENDMDL
