MODEL 1
REMARK minimizedAffinity -5.74966002
REMARK minimizedRMSD -1
REMARK  0 active torsions:
REMARK  status: ('A' for Active; 'I' for Inactive)
ROOT
ATOM      1  C1  DEN d   1       1.758  -0.790   0.026  0.00  0.00     0.130 A 
ATOM      2  C2  DEN d   1       0.736  -1.804   0.267  0.00  0.00    -0.031 A 
ATOM      3  C3  DEN d   1      -0.573  -1.123   0.345  0.00  0.00     0.027 A 
ATOM      4  C4  DEN d   1      -1.111   1.389   0.112  0.00  0.00     0.027 A 
ATOM      5  C5  DEN d   1      -0.569   2.639  -0.088  0.00  0.00    -0.003 A 
ATOM      6  C6  DEN d   1       0.779   2.837  -0.229  0.00  0.00     0.001 A 
ATOM      7  C7  DEN d   1       1.627   1.761  -0.217  0.00  0.00     0.017 A 
ATOM      8  C8  DEN d   1       1.089   0.498  -0.008  0.00  0.00    -0.094 A 
ATOM      9  C9  DEN d   1      -0.278   0.318   0.120  0.00  0.00    -0.072 A 
ENDROOT
TORSDOF 0
ENDMDL
