MODEL 1
REMARK minimizedAffinity -4.52745581
REMARK minimizedRMSD -1
REMARK  0 active torsions:
REMARK  status: ('A' for Active; 'I' for Inactive)
ROOT
ATOM      1  C1  DEN d   1       2.104   1.033  -0.057  0.00  0.00     0.130 A 
ATOM      2  C2  DEN d   1       2.234  -0.405   0.161  0.00  0.00    -0.031 A 
ATOM      3  C3  DEN d   1       0.893  -0.943   0.468  0.00  0.00     0.027 A 
ATOM      4  C4  DEN d   1      -1.360   0.303   0.620  0.00  0.00     0.027 A 
ATOM      5  C5  DEN d   1      -1.971   1.534   0.525  0.00  0.00    -0.003 A 
ATOM      6  C6  DEN d   1      -1.267   2.680   0.265  0.00  0.00     0.001 A 
ATOM      7  C7  DEN d   1       0.084   2.612   0.047  0.00  0.00     0.017 A 
ATOM      8  C8  DEN d   1       0.708   1.376   0.148  0.00  0.00    -0.094 A 
ATOM      9  C9  DEN d   1      -0.023   0.227   0.399  0.00  0.00    -0.072 A 
ENDROOT
TORSDOF 0
ENDMDL
