MODEL 1
REMARK minimizedAffinity -4.07265043
REMARK minimizedRMSD -1
REMARK  0 active torsions:
REMARK  status: ('A' for Active; 'I' for Inactive)
ROOT
ATOM      1  C1  DEN d   1       2.585   1.854   0.266  0.00  0.00     0.130 A 
ATOM      2  C2  DEN d   1       1.994   3.137  -0.105  0.00  0.00    -0.031 A 
ATOM      3  C3  DEN d   1       0.535   2.948  -0.232  0.00  0.00     0.027 A 
ATOM      4  C4  DEN d   1      -0.860   0.805   0.114  0.00  0.00     0.027 A 
ATOM      5  C5  DEN d   1      -0.800  -0.535   0.425  0.00  0.00    -0.003 A 
ATOM      6  C6  DEN d   1       0.386  -1.175   0.670  0.00  0.00     0.001 A 
ATOM      7  C7  DEN d   1       1.557  -0.465   0.652  0.00  0.00     0.017 A 
ATOM      8  C8  DEN d   1       1.506   0.885   0.331  0.00  0.00    -0.094 A 
ATOM      9  C9  DEN d   1       0.296   1.517   0.099  0.00  0.00    -0.072 A 
ENDROOT
TORSDOF 0
ENDMDL
