MODEL 1
REMARK minimizedAffinity -5.62076855
REMARK minimizedRMSD -1
REMARK  0 active torsions:
REMARK  status: ('A' for Active; 'I' for Inactive)
ROOT
ATOM      1  C1  DEN d   1      -1.271   1.657  -0.058  0.00  0.00     0.130 A 
ATOM      2  C2  DEN d   1      -0.696   2.995  -0.164  0.00  0.00    -0.031 A 
ATOM      3  C3  DEN d   1       0.772   2.870  -0.056  0.00  0.00     0.027 A 
ATOM      4  C4  DEN d   1       2.201   0.747   0.260  0.00  0.00     0.027 A 
ATOM      5  C5  DEN d   1       2.160  -0.621   0.415  0.00  0.00    -0.003 A 
ATOM      6  C6  DEN d   1       0.981  -1.316   0.457  0.00  0.00     0.001 A 
ATOM      7  C7  DEN d   1      -0.206  -0.650   0.298  0.00  0.00     0.017 A 
ATOM      8  C8  DEN d   1      -0.173   0.730   0.148  0.00  0.00    -0.094 A 
ATOM      9  C9  DEN d   1       1.030   1.413   0.096  0.00  0.00    -0.072 A 
ENDROOT
TORSDOF 0
ENDMDL
