MODEL 1
REMARK minimizedAffinity -4.01978397
REMARK minimizedRMSD -1
REMARK  0 active torsions:
REMARK  status: ('A' for Active; 'I' for Inactive)
ROOT
ATOM      1  C1  DEN d   1       0.652   2.721  -0.553  0.00  0.00     0.130 A 
ATOM      2  C2  DEN d   1      -0.146   3.678   0.209  0.00  0.00    -0.031 A 
ATOM      3  C3  DEN d   1      -1.105   2.917   1.035  0.00  0.00     0.027 A 
ATOM      4  C4  DEN d   1      -1.427   0.364   1.210  0.00  0.00     0.027 A 
ATOM      5  C5  DEN d   1      -0.991  -0.857   0.745  0.00  0.00    -0.003 A 
ATOM      6  C6  DEN d   1      -0.008  -0.969  -0.202  0.00  0.00     0.001 A 
ATOM      7  C7  DEN d   1       0.603   0.159  -0.682  0.00  0.00     0.017 A 
ATOM      8  C8  DEN d   1       0.163   1.394  -0.224  0.00  0.00    -0.094 A 
ATOM      9  C9  DEN d   1      -0.823   1.486   0.743  0.00  0.00    -0.072 A 
ENDROOT
TORSDOF 0
ENDMDL
