MODEL 1
REMARK minimizedAffinity -4.72213316
REMARK minimizedRMSD -1
REMARK  0 active torsions:
REMARK  status: ('A' for Active; 'I' for Inactive)
ROOT
ATOM      1  C1  DEN d   1       1.657   2.227  -0.338  0.00  0.00     0.130 A 
ATOM      2  C2  DEN d   1       0.748   3.366  -0.239  0.00  0.00    -0.031 A 
ATOM      3  C3  DEN d   1      -0.555   2.870   0.247  0.00  0.00     0.027 A 
ATOM      4  C4  DEN d   1      -1.249   0.462   0.856  0.00  0.00     0.027 A 
ATOM      5  C5  DEN d   1      -0.823  -0.846   0.923  0.00  0.00    -0.003 A 
ATOM      6  C6  DEN d   1       0.438  -1.224   0.544  0.00  0.00     0.001 A 
ATOM      7  C7  DEN d   1       1.333  -0.275   0.125  0.00  0.00     0.017 A 
ATOM      8  C8  DEN d   1       0.909   1.045   0.048  0.00  0.00    -0.094 A 
ATOM      9  C9  DEN d   1      -0.366   1.408   0.447  0.00  0.00    -0.072 A 
ENDROOT
TORSDOF 0
ENDMDL
