MODEL 1
REMARK minimizedAffinity -2.40450454
REMARK minimizedRMSD -1
REMARK  0 active torsions:
REMARK  status: ('A' for Active; 'I' for Inactive)
ROOT
ATOM      1  C1  DEN d   1      -1.144  -0.385   0.074  0.00  0.00     0.130 A 
ATOM      2  C2  DEN d   1      -2.172   0.083   1.000  0.00  0.00    -0.031 A 
ATOM      3  C3  DEN d   1      -1.856   1.478   1.365  0.00  0.00     0.027 A 
ATOM      4  C4  DEN d   1       0.111   2.954   0.588  0.00  0.00     0.027 A 
ATOM      5  C5  DEN d   1       1.248   2.990  -0.188  0.00  0.00    -0.003 A 
ATOM      6  C6  DEN d   1       1.683   1.903  -0.899  0.00  0.00     0.001 A 
ATOM      7  C7  DEN d   1       0.951   0.745  -0.883  0.00  0.00     0.017 A 
ATOM      8  C8  DEN d   1      -0.193   0.698  -0.097  0.00  0.00    -0.094 A 
ATOM      9  C9  DEN d   1      -0.623   1.812   0.604  0.00  0.00    -0.072 A 
ENDROOT
TORSDOF 0
ENDMDL
