MODEL 1
REMARK minimizedAffinity -4.56697369
REMARK minimizedRMSD -1
REMARK  0 active torsions:
REMARK  status: ('A' for Active; 'I' for Inactive)
ROOT
ATOM      1  C1  DEN d   1      -1.022  -0.048   1.508  0.00  0.00     0.130 A 
ATOM      2  C2  DEN d   1      -0.257  -1.222   1.096  0.00  0.00    -0.031 A 
ATOM      3  C3  DEN d   1       0.865  -0.762   0.254  0.00  0.00     0.027 A 
ATOM      4  C4  DEN d   1       1.491   1.640  -0.447  0.00  0.00     0.027 A 
ATOM      5  C5  DEN d   1       1.132   2.966  -0.353  0.00  0.00    -0.003 A 
ATOM      6  C6  DEN d   1       0.019   3.374   0.334  0.00  0.00     0.001 A 
ATOM      7  C7  DEN d   1      -0.749   2.450   0.992  0.00  0.00     0.017 A 
ATOM      8  C8  DEN d   1      -0.397   1.110   0.896  0.00  0.00    -0.094 A 
ATOM      9  C9  DEN d   1       0.738   0.719   0.207  0.00  0.00    -0.072 A 
ENDROOT
TORSDOF 0
ENDMDL
