MODEL 1
REMARK minimizedAffinity 6.81167316
REMARK minimizedRMSD -1
REMARK  0 active torsions:
REMARK  status: ('A' for Active; 'I' for Inactive)
ROOT
ATOM      1  C   UNL d   1       6.000  -4.481   0.820  0.00  0.00     0.020 A 
ATOM      2  C1  UNL d   1       5.562  -3.561  -0.131  0.00  0.00     0.020 A 
ATOM      3  C2  UNL d   1       4.195  -3.381  -0.351  0.00  0.00     0.034 A 
ATOM      4  C3  UNL d   1       3.261  -4.122   0.382  0.00  0.00     0.017 A 
ATOM      5  C4  UNL d   1       3.701  -5.046   1.337  0.00  0.00     0.017 A 
ATOM      6  C5  UNL d   1       5.071  -5.222   1.553  0.00  0.00     0.034 A 
ATOM      7 Cl   UNL d   1       2.608  -5.997   2.280  0.00  0.00    -0.070 Cl
ATOM      8 Cl1  UNL d   1       1.586  -3.848   0.058  0.00  0.00    -0.070 Cl
ENDROOT
TORSDOF 0
ENDMDL
