MODEL 1
REMARK minimizedAffinity 2.92543745
REMARK minimizedRMSD -1
REMARK  0 active torsions:
REMARK  status: ('A' for Active; 'I' for Inactive)
ROOT
ATOM      1  C   UNL d   1       1.497  -3.147  -0.128  0.00  0.00     0.020 A 
ATOM      2  C1  UNL d   1       1.456  -1.812  -0.529  0.00  0.00     0.020 A 
ATOM      3  C2  UNL d   1       2.638  -1.146  -0.862  0.00  0.00     0.034 A 
ATOM      4  C3  UNL d   1       3.865  -1.815  -0.796  0.00  0.00     0.017 A 
ATOM      5  C4  UNL d   1       3.906  -3.155  -0.393  0.00  0.00     0.017 A 
ATOM      6  C5  UNL d   1       2.720  -3.817  -0.060  0.00  0.00     0.034 A 
ATOM      7 Cl   UNL d   1       5.382  -4.047  -0.287  0.00  0.00    -0.070 Cl
ATOM      8 Cl1  UNL d   1       5.286  -0.930  -1.223  0.00  0.00    -0.070 Cl
ENDROOT
TORSDOF 0
ENDMDL
