MODEL 1
REMARK minimizedAffinity 6.74981546
REMARK minimizedRMSD -1
REMARK  0 active torsions:
REMARK  status: ('A' for Active; 'I' for Inactive)
ROOT
ATOM      1  C   UNL d   1       2.404  -2.800   0.148  0.00  0.00     0.020 A 
ATOM      2  C1  UNL d   1       2.052  -4.112   0.465  0.00  0.00     0.020 A 
ATOM      3  C2  UNL d   1       0.856  -4.371   1.137  0.00  0.00     0.034 A 
ATOM      4  C3  UNL d   1       0.006  -3.317   1.493  0.00  0.00     0.017 A 
ATOM      5  C4  UNL d   1       0.360  -2.001   1.174  0.00  0.00     0.017 A 
ATOM      6  C5  UNL d   1       1.559  -1.747   0.502  0.00  0.00     0.034 A 
ATOM      7 Cl   UNL d   1      -0.637  -0.649   1.581  0.00  0.00    -0.070 Cl
ATOM      8 Cl1  UNL d   1      -1.458  -3.710   2.322  0.00  0.00    -0.070 Cl
ENDROOT
TORSDOF 0
ENDMDL
