MODEL 1
REMARK minimizedAffinity -5.88791847
REMARK minimizedRMSD -1
REMARK  0 active torsions:
REMARK  status: ('A' for Active; 'I' for Inactive)
ROOT
ATOM      1  C   UNL d   1      -3.363  -2.413  -5.357  0.00  0.00     0.020 A 
ATOM      2  C1  UNL d   1      -4.357  -1.673  -5.996  0.00  0.00     0.020 A 
ATOM      3  C2  UNL d   1      -4.602  -0.354  -5.609  0.00  0.00     0.034 A 
ATOM      4  C3  UNL d   1      -3.853   0.229  -4.580  0.00  0.00     0.017 A 
ATOM      5  C4  UNL d   1      -2.856  -0.514  -3.939  0.00  0.00     0.017 A 
ATOM      6  C5  UNL d   1      -2.614  -1.835  -4.331  0.00  0.00     0.034 A 
ATOM      7 Cl   UNL d   1      -1.891   0.137  -2.662  0.00  0.00    -0.070 Cl
ATOM      8 Cl1  UNL d   1      -4.211   1.865  -4.154  0.00  0.00    -0.070 Cl
ENDROOT
TORSDOF 0
ENDMDL
