MODEL 1
REMARK minimizedAffinity -5.53580666
REMARK minimizedRMSD -1
REMARK  0 active torsions:
REMARK  status: ('A' for Active; 'I' for Inactive)
ROOT
ATOM      1  C   UNL d   1      -4.903   2.237  -3.997  0.00  0.00     0.020 A 
ATOM      2  C1  UNL d   1      -3.995   2.560  -2.990  0.00  0.00     0.020 A 
ATOM      3  C2  UNL d   1      -3.070   1.610  -2.552  0.00  0.00     0.034 A 
ATOM      4  C3  UNL d   1      -3.051   0.332  -3.122  0.00  0.00     0.017 A 
ATOM      5  C4  UNL d   1      -3.963   0.008  -4.134  0.00  0.00     0.017 A 
ATOM      6  C5  UNL d   1      -4.887   0.964  -4.568  0.00  0.00     0.034 A 
ATOM      7 Cl   UNL d   1      -4.001  -1.548  -4.885  0.00  0.00    -0.070 Cl
ATOM      8 Cl1  UNL d   1      -1.880  -0.794  -2.533  0.00  0.00    -0.070 Cl
ENDROOT
TORSDOF 0
ENDMDL
