MODEL 1
REMARK minimizedAffinity -3.97084737
REMARK minimizedRMSD -1
REMARK  0 active torsions:
REMARK  status: ('A' for Active; 'I' for Inactive)
ROOT
ATOM      1  C   UNL d   1      -5.376  -0.116  -5.478  0.00  0.00     0.020 A 
ATOM      2  C1  UNL d   1      -5.393  -1.215  -4.620  0.00  0.00     0.020 A 
ATOM      3  C2  UNL d   1      -4.329  -1.431  -3.742  0.00  0.00     0.034 A 
ATOM      4  C3  UNL d   1      -3.244  -0.547  -3.719  0.00  0.00     0.017 A 
ATOM      5  C4  UNL d   1      -3.228   0.555  -4.581  0.00  0.00     0.017 A 
ATOM      6  C5  UNL d   1      -4.295   0.767  -5.458  0.00  0.00     0.034 A 
ATOM      7 Cl   UNL d   1      -1.924   1.689  -4.611  0.00  0.00    -0.070 Cl
ATOM      8 Cl1  UNL d   1      -1.963  -0.876  -2.607  0.00  0.00    -0.070 Cl
ENDROOT
TORSDOF 0
ENDMDL
