MODEL 1
REMARK minimizedAffinity 4.34586954
REMARK minimizedRMSD -1
REMARK  0 active torsions:
REMARK  status: ('A' for Active; 'I' for Inactive)
ROOT
ATOM      1  C   UNL d   1       3.282   0.753  -0.143  0.00  0.00     0.020 A 
ATOM      2  C1  UNL d   1       2.596   1.635   0.692  0.00  0.00     0.020 A 
ATOM      3  C2  UNL d   1       1.692   1.143   1.635  0.00  0.00     0.034 A 
ATOM      4  C3  UNL d   1       1.471  -0.234   1.747  0.00  0.00     0.017 A 
ATOM      5  C4  UNL d   1       2.160  -1.119   0.909  0.00  0.00     0.017 A 
ATOM      6  C5  UNL d   1       3.064  -0.621  -0.034  0.00  0.00     0.034 A 
ATOM      7 Cl   UNL d   1       1.941  -2.831   0.988  0.00  0.00    -0.070 Cl
ATOM      8 Cl1  UNL d   1       0.339  -0.773   2.937  0.00  0.00    -0.070 Cl
ENDROOT
TORSDOF 0
ENDMDL
