MODEL 1
REMARK minimizedAffinity 8.52858162
REMARK minimizedRMSD -1
REMARK  0 active torsions:
REMARK  status: ('A' for Active; 'I' for Inactive)
ROOT
ATOM      1  C   UNL d   1       2.007  -2.801   1.216  0.00  0.00     0.020 A 
ATOM      2  C1  UNL d   1       1.705  -4.136   0.950  0.00  0.00     0.020 A 
ATOM      3  C2  UNL d   1       2.733  -5.070   0.810  0.00  0.00     0.034 A 
ATOM      4  C3  UNL d   1       4.069  -4.671   0.934  0.00  0.00     0.017 A 
ATOM      5  C4  UNL d   1       4.371  -3.330   1.201  0.00  0.00     0.017 A 
ATOM      6  C5  UNL d   1       3.338  -2.399   1.341  0.00  0.00     0.034 A 
ATOM      7 Cl   UNL d   1       5.995  -2.762   1.369  0.00  0.00    -0.070 Cl
ATOM      8 Cl1  UNL d   1       5.289  -5.879   0.749  0.00  0.00    -0.070 Cl
ENDROOT
TORSDOF 0
ENDMDL
