MODEL 1
REMARK minimizedAffinity -0.199256256
REMARK minimizedRMSD -1
REMARK  0 active torsions:
REMARK  status: ('A' for Active; 'I' for Inactive)
ROOT
ATOM      1  C   UNL d   1       1.720   5.944   5.949  0.00  0.00     0.020 A 
ATOM      2  C1  UNL d   1       1.073   5.819   4.720  0.00  0.00     0.020 A 
ATOM      3  C2  UNL d   1       1.819   5.748   3.542  0.00  0.00     0.034 A 
ATOM      4  C3  UNL d   1       3.216   5.801   3.589  0.00  0.00     0.017 A 
ATOM      5  C4  UNL d   1       3.866   5.927   4.823  0.00  0.00     0.017 A 
ATOM      6  C5  UNL d   1       3.114   5.997   6.000  0.00  0.00     0.034 A 
ATOM      7 Cl   UNL d   1       5.587   5.999   4.961  0.00  0.00    -0.070 Cl
ATOM      8 Cl1  UNL d   1       4.075   5.707   2.093  0.00  0.00    -0.070 Cl
ENDROOT
TORSDOF 0
ENDMDL
