MODEL 1
REMARK minimizedAffinity -1.53762627
REMARK minimizedRMSD -1
REMARK  0 active torsions:
REMARK  status: ('A' for Active; 'I' for Inactive)
ROOT
ATOM      1  C   UNL d   1      -2.512  -0.010   1.467  0.00  0.00     0.020 A 
ATOM      2  C1  UNL d   1      -1.345  -0.279   2.180  0.00  0.00     0.020 A 
ATOM      3  C2  UNL d   1      -0.214  -0.757   1.514  0.00  0.00     0.034 A 
ATOM      4  C3  UNL d   1      -0.248  -0.966   0.131  0.00  0.00     0.017 A 
ATOM      5  C4  UNL d   1      -1.420  -0.695  -0.584  0.00  0.00     0.017 A 
ATOM      6  C5  UNL d   1      -2.550  -0.217   0.088  0.00  0.00     0.034 A 
ATOM      7 Cl   UNL d   1      -1.538  -0.929  -2.293  0.00  0.00    -0.070 Cl
ATOM      8 Cl1  UNL d   1       1.187  -1.558  -0.628  0.00  0.00    -0.070 Cl
ENDROOT
TORSDOF 0
ENDMDL
