MODEL 1
REMARK minimizedAffinity 5.86488438
REMARK minimizedRMSD -1
REMARK  1 active torsions:
REMARK  status: ('A' for Active; 'I' for Inactive)
REMARK    1  A    between atoms: C1_2  and  C2_3 
ROOT
ATOM      1  C2  UNL d   1      -3.937   4.130  -4.805  0.00  0.00    -0.073 A 
ATOM      2  C3  UNL d   1      -4.994   4.208  -5.719  0.00  0.00    -0.002 A 
ATOM      3  C4  UNL d   1      -5.767   3.080  -6.000  0.00  0.00     0.004 A 
ATOM      4  C5  UNL d   1      -5.497   1.868  -5.365  0.00  0.00    -0.004 A 
ATOM      5  C6  UNL d   1      -4.453   1.774  -4.440  0.00  0.00    -0.075 A 
ATOM      6  C7  UNL d   1      -4.147   0.477  -3.750  0.00  0.00     0.076 C 
ATOM      7  C8  UNL d   1      -3.679   2.910  -4.165  0.00  0.00     0.001 A 
ENDROOT
BRANCH   1   8
ATOM      8  C1  UNL d   1      -3.104   5.347  -4.494  0.00  0.00     0.053 C 
ATOM      9  C   UNL d   1      -1.829   4.988  -3.748  0.00  0.00     0.018 C 
ENDBRANCH   1   8
TORSDOF 1
ENDMDL
