MODEL 1
REMARK minimizedAffinity 0.189419255
REMARK minimizedRMSD -1
REMARK  1 active torsions:
REMARK  status: ('A' for Active; 'I' for Inactive)
REMARK    1  A    between atoms: C1_2  and  C2_3 
ROOT
ATOM      1  C2  UNL d   1      -3.224   4.071  -5.402  0.00  0.00    -0.073 A 
ATOM      2  C3  UNL d   1      -4.031   5.104  -5.891  0.00  0.00    -0.002 A 
ATOM      3  C4  UNL d   1      -5.412   4.930  -5.998  0.00  0.00     0.004 A 
ATOM      4  C5  UNL d   1      -5.999   3.725  -5.612  0.00  0.00    -0.004 A 
ATOM      5  C6  UNL d   1      -5.211   2.685  -5.109  0.00  0.00    -0.075 A 
ATOM      6  C7  UNL d   1      -5.827   1.382  -4.691  0.00  0.00     0.076 C 
ATOM      7  C8  UNL d   1      -3.825   2.867  -5.007  0.00  0.00     0.001 A 
ENDROOT
BRANCH   1   8
ATOM      8  C1  UNL d   1      -1.734   4.257  -5.279  0.00  0.00     0.053 C 
ATOM      9  C   UNL d   1      -1.330   5.717  -5.398  0.00  0.00     0.018 C 
ENDBRANCH   1   8
TORSDOF 1
ENDMDL
