MODEL 1
REMARK minimizedAffinity -0.710724354
REMARK minimizedRMSD -1
REMARK  1 active torsions:
REMARK  status: ('A' for Active; 'I' for Inactive)
REMARK    1  A    between atoms: C1_2  and  C2_3 
ROOT
ATOM      1  C2  UNL d   1       0.981  -0.731   2.613  0.00  0.00    -0.073 A 
ATOM      2  C3  UNL d   1      -0.293  -0.748   3.192  0.00  0.00    -0.002 A 
ATOM      3  C4  UNL d   1      -0.534  -1.493   4.347  0.00  0.00     0.004 A 
ATOM      4  C5  UNL d   1       0.497  -2.222   4.939  0.00  0.00    -0.004 A 
ATOM      5  C6  UNL d   1       1.780  -2.209   4.383  0.00  0.00    -0.075 A 
ATOM      6  C7  UNL d   1       2.900  -2.990   5.006  0.00  0.00     0.076 C 
ATOM      7  C8  UNL d   1       2.013  -1.460   3.221  0.00  0.00     0.001 A 
ENDROOT
BRANCH   1   8
ATOM      8  C1  UNL d   1       1.247   0.077   1.370  0.00  0.00     0.053 C 
ATOM      9  C   UNL d   1       0.006   0.816   0.894  0.00  0.00     0.018 C 
ENDBRANCH   1   8
TORSDOF 1
ENDMDL
