MODEL 1
REMARK minimizedAffinity 3.30214477
REMARK minimizedRMSD -1
REMARK  1 active torsions:
REMARK  status: ('A' for Active; 'I' for Inactive)
REMARK    1  A    between atoms: C1_2  and  C2_3 
ROOT
ATOM      1  C2  UNL d   1      -3.194   4.064  -5.115  0.00  0.00    -0.073 A 
ATOM      2  C3  UNL d   1      -2.627   3.425  -4.006  0.00  0.00    -0.002 A 
ATOM      3  C4  UNL d   1      -3.155   2.220  -3.540  0.00  0.00     0.004 A 
ATOM      4  C5  UNL d   1      -4.248   1.638  -4.182  0.00  0.00    -0.004 A 
ATOM      5  C6  UNL d   1      -4.821   2.255  -5.299  0.00  0.00    -0.075 A 
ATOM      6  C7  UNL d   1      -5.999   1.643  -5.998  0.00  0.00     0.076 C 
ATOM      7  C8  UNL d   1      -4.288   3.466  -5.759  0.00  0.00     0.001 A 
ENDROOT
BRANCH   1   8
ATOM      8  C1  UNL d   1      -2.624   5.362  -5.626  0.00  0.00     0.053 C 
ATOM      9  C   UNL d   1      -1.158   5.524  -5.257  0.00  0.00     0.018 C 
ENDBRANCH   1   8
TORSDOF 1
ENDMDL
