MODEL 1
REMARK minimizedAffinity 2.88911343
REMARK minimizedRMSD -1
REMARK  1 active torsions:
REMARK  status: ('A' for Active; 'I' for Inactive)
REMARK    1  A    between atoms: C1_2  and  C2_3 
ROOT
ATOM      1  C2  UNL d   1      -5.282   2.313  -3.623  0.00  0.00    -0.073 A 
ATOM      2  C3  UNL d   1      -5.999   2.267  -4.824  0.00  0.00    -0.002 A 
ATOM      3  C4  UNL d   1      -5.531   2.944  -5.951  0.00  0.00     0.004 A 
ATOM      4  C5  UNL d   1      -4.339   3.666  -5.891  0.00  0.00    -0.004 A 
ATOM      5  C6  UNL d   1      -3.602   3.714  -4.704  0.00  0.00    -0.075 A 
ATOM      6  C7  UNL d   1      -2.320   4.489  -4.622  0.00  0.00     0.076 C 
ATOM      7  C8  UNL d   1      -4.080   3.034  -3.575  0.00  0.00     0.001 A 
ENDROOT
BRANCH   1   8
ATOM      8  C1  UNL d   1      -5.780   1.578  -2.405  0.00  0.00     0.053 C 
ATOM      9  C   UNL d   1      -6.000   0.099  -2.682  0.00  0.00     0.018 C 
ENDBRANCH   1   8
TORSDOF 1
ENDMDL
