MODEL 1
REMARK minimizedAffinity 6.1068964
REMARK minimizedRMSD -1
REMARK  1 active torsions:
REMARK  status: ('A' for Active; 'I' for Inactive)
REMARK    1  A    between atoms: C1_2  and  C2_3 
ROOT
ATOM      1  C2  UNL d   1       0.768   4.248   0.742  0.00  0.00    -0.073 A 
ATOM      2  C3  UNL d   1       0.390   3.048   0.128  0.00  0.00    -0.002 A 
ATOM      3  C4  UNL d   1       0.409   1.853   0.848  0.00  0.00     0.004 A 
ATOM      4  C5  UNL d   1       0.800   1.845   2.186  0.00  0.00    -0.004 A 
ATOM      5  C6  UNL d   1       1.170   3.036   2.820  0.00  0.00    -0.075 A 
ATOM      6  C7  UNL d   1       1.595   3.044   4.259  0.00  0.00     0.076 C 
ATOM      7  C8  UNL d   1       1.150   4.232   2.091  0.00  0.00     0.001 A 
ENDROOT
BRANCH   1   8
ATOM      8  C1  UNL d   1       0.742   5.543  -0.029  0.00  0.00     0.053 C 
ATOM      9  C   UNL d   1       2.138   5.999  -0.423  0.00  0.00     0.018 C 
ENDBRANCH   1   8
TORSDOF 1
ENDMDL
