MODEL 1
REMARK minimizedAffinity 0.622012556
REMARK minimizedRMSD -1
REMARK  1 active torsions:
REMARK  status: ('A' for Active; 'I' for Inactive)
REMARK    1  A    between atoms: C1_2  and  C2_3 
ROOT
ATOM      1  C2  UNL d   1      -3.197   3.971  -5.209  0.00  0.00    -0.073 A 
ATOM      2  C3  UNL d   1      -3.949   4.860  -5.985  0.00  0.00    -0.002 A 
ATOM      3  C4  UNL d   1      -5.342   4.779  -6.000  0.00  0.00     0.004 A 
ATOM      4  C5  UNL d   1      -5.997   3.814  -5.234  0.00  0.00    -0.004 A 
ATOM      5  C6  UNL d   1      -5.264   2.924  -4.442  0.00  0.00    -0.075 A 
ATOM      6  C7  UNL d   1      -5.953   1.880  -3.615  0.00  0.00     0.076 C 
ATOM      7  C8  UNL d   1      -3.865   3.010  -4.436  0.00  0.00     0.001 A 
ENDROOT
BRANCH   1   8
ATOM      8  C1  UNL d   1      -1.693   4.059  -5.186  0.00  0.00     0.053 C 
ATOM      9  C   UNL d   1      -1.183   5.295  -5.910  0.00  0.00     0.018 C 
ENDBRANCH   1   8
TORSDOF 1
ENDMDL
