MODEL 1
REMARK minimizedAffinity 0.470172256
REMARK minimizedRMSD -1
REMARK  1 active torsions:
REMARK  status: ('A' for Active; 'I' for Inactive)
REMARK    1  A    between atoms: C1_2  and  C2_3 
ROOT
ATOM      1  C2  UNL d   1       0.640  -0.917   2.958  0.00  0.00    -0.073 A 
ATOM      2  C3  UNL d   1       1.869  -1.493   3.303  0.00  0.00    -0.002 A 
ATOM      3  C4  UNL d   1       2.017  -2.164   4.517  0.00  0.00     0.004 A 
ATOM      4  C5  UNL d   1       0.939  -2.271   5.396  0.00  0.00    -0.004 A 
ATOM      5  C6  UNL d   1      -0.300  -1.713   5.064  0.00  0.00    -0.075 A 
ATOM      6  C7  UNL d   1      -1.469  -1.818   5.999  0.00  0.00     0.076 C 
ATOM      7  C8  UNL d   1      -0.440  -1.038   3.844  0.00  0.00     0.001 A 
ENDROOT
BRANCH   1   8
ATOM      8  C1  UNL d   1       0.474  -0.197   1.645  0.00  0.00     0.053 C 
ATOM      9  C   UNL d   1       0.016   1.240   1.837  0.00  0.00     0.018 C 
ENDBRANCH   1   8
TORSDOF 1
ENDMDL
