MODEL 1
REMARK minimizedAffinity -1.8449533
REMARK minimizedRMSD -1
REMARK  1 active torsions:
REMARK  status: ('A' for Active; 'I' for Inactive)
REMARK    1  A    between atoms: C3_4  and  O_7 
ROOT
ATOM      1  C   UNL d   1       0.594  -0.579  -1.546  0.00  0.00    -0.033 A 
ATOM      2  C1  UNL d   1       1.602  -1.341  -0.952  0.00  0.00     0.039 A 
ATOM      3  C2  UNL d   1       1.544  -1.637   0.411  0.00  0.00    -0.080 A 
ATOM      4  C3  UNL d   1       0.474  -1.167   1.168  0.00  0.00     0.150 A 
ATOM      5  C4  UNL d   1      -0.536  -0.411   0.581  0.00  0.00    -0.007 A 
ATOM      6  C5  UNL d   1      -0.476  -0.116  -0.780  0.00  0.00     0.039 A 
ENDROOT
BRANCH   4   7
ATOM      7  O   UNL d   1       0.376  -1.426   2.503  0.00  0.00    -0.526 OA
ATOM      8  H5  UNL d   1       1.159  -1.934   2.775  0.00  0.00     0.418 HD
ENDBRANCH   4   7
TORSDOF 1
ENDMDL
