MODEL 1
REMARK minimizedAffinity 0.404142767
REMARK minimizedRMSD -1
REMARK  1 active torsions:
REMARK  status: ('A' for Active; 'I' for Inactive)
REMARK    1  A    between atoms: C3_4  and  O_7 
ROOT
ATOM      1  C   UNL d   1       4.104   5.999   4.106  0.00  0.00    -0.033 A 
ATOM      2  C1  UNL d   1       3.257   5.999   2.996  0.00  0.00     0.039 A 
ATOM      3  C2  UNL d   1       1.872   5.995   3.173  0.00  0.00    -0.080 A 
ATOM      4  C3  UNL d   1       1.348   5.994   4.463  0.00  0.00     0.150 A 
ATOM      5  C4  UNL d   1       2.186   5.998   5.573  0.00  0.00    -0.007 A 
ATOM      6  C5  UNL d   1       3.569   6.000   5.394  0.00  0.00     0.039 A 
ENDROOT
BRANCH   4   7
ATOM      7  O   UNL d   1       0.003   5.986   4.686  0.00  0.00    -0.526 OA
ATOM      8  H5  UNL d   1      -0.451   5.954   3.828  0.00  0.00     0.418 HD
ENDBRANCH   4   7
TORSDOF 1
ENDMDL
