MODEL 1
REMARK minimizedAffinity -0.398698717
REMARK minimizedRMSD -1
REMARK  1 active torsions:
REMARK  status: ('A' for Active; 'I' for Inactive)
REMARK    1  A    between atoms: C3_4  and  O_7 
ROOT
ATOM      1  C   UNL d   1       4.074   5.990   4.047  0.00  0.00    -0.033 A 
ATOM      2  C1  UNL d   1       3.180   5.993   2.974  0.00  0.00     0.039 A 
ATOM      3  C2  UNL d   1       1.804   5.997   3.210  0.00  0.00    -0.080 A 
ATOM      4  C3  UNL d   1       1.335   5.999   4.521  0.00  0.00     0.150 A 
ATOM      5  C4  UNL d   1       2.220   6.000   5.594  0.00  0.00    -0.007 A 
ATOM      6  C5  UNL d   1       3.594   5.995   5.357  0.00  0.00     0.039 A 
ENDROOT
BRANCH   4   7
ATOM      7  O   UNL d   1       0.001   5.998   4.801  0.00  0.00    -0.526 OA
ATOM      8  H5  UNL d   1      -0.489   5.968   3.962  0.00  0.00     0.418 HD
ENDBRANCH   4   7
TORSDOF 1
ENDMDL
