MODEL 1
REMARK minimizedAffinity -0.414321125
REMARK minimizedRMSD -1
REMARK  1 active torsions:
REMARK  status: ('A' for Active; 'I' for Inactive)
REMARK    1  A    between atoms: C3_4  and  O_7 
ROOT
ATOM      1  C   UNL d   1       4.314   5.998   2.509  0.00  0.00    -0.033 A 
ATOM      2  C1  UNL d   1       4.277   5.995   3.905  0.00  0.00     0.039 A 
ATOM      3  C2  UNL d   1       3.051   5.994   4.573  0.00  0.00    -0.080 A 
ATOM      4  C3  UNL d   1       1.871   5.995   3.835  0.00  0.00     0.150 A 
ATOM      5  C4  UNL d   1       1.900   5.994   2.444  0.00  0.00    -0.007 A 
ATOM      6  C5  UNL d   1       3.125   5.997   1.779  0.00  0.00     0.039 A 
ENDROOT
BRANCH   4   7
ATOM      7  O   UNL d   1       0.650   5.998   4.442  0.00  0.00    -0.526 OA
ATOM      8  H5  UNL d   1       0.785   6.028   5.404  0.00  0.00     0.418 HD
ENDBRANCH   4   7
TORSDOF 1
ENDMDL
