MODEL 1
REMARK minimizedAffinity 3.61882162
REMARK minimizedRMSD -1
REMARK  1 active torsions:
REMARK  status: ('A' for Active; 'I' for Inactive)
REMARK    1  A    between atoms: C3_4  and  O_7 
ROOT
ATOM      1  C   UNL d   1      -1.202  -0.386   1.871  0.00  0.00    -0.033 A 
ATOM      2  C1  UNL d   1      -0.700  -0.118   0.596  0.00  0.00     0.039 A 
ATOM      3  C2  UNL d   1       0.482  -0.725   0.168  0.00  0.00    -0.080 A 
ATOM      4  C3  UNL d   1       1.151  -1.596   1.023  0.00  0.00     0.150 A 
ATOM      5  C4  UNL d   1       0.655  -1.871   2.293  0.00  0.00    -0.007 A 
ATOM      6  C5  UNL d   1      -0.526  -1.263   2.719  0.00  0.00     0.039 A 
ENDROOT
BRANCH   4   7
ATOM      7  O   UNL d   1       2.311  -2.209   0.651  0.00  0.00    -0.526 OA
ATOM      8  H5  UNL d   1       2.549  -1.902  -0.240  0.00  0.00     0.418 HD
ENDBRANCH   4   7
TORSDOF 1
ENDMDL
