MODEL 1
REMARK minimizedAffinity -0.346666753
REMARK minimizedRMSD -1
REMARK  1 active torsions:
REMARK  status: ('A' for Active; 'I' for Inactive)
REMARK    1  A    between atoms: C3_4  and  O_7 
ROOT
ATOM      1  C   UNL d   1       3.215   0.288  -1.188  0.00  0.00    -0.033 A 
ATOM      2  C1  UNL d   1       2.601  -0.905  -0.800  0.00  0.00     0.039 A 
ATOM      3  C2  UNL d   1       1.412  -0.874  -0.069  0.00  0.00    -0.080 A 
ATOM      4  C3  UNL d   1       0.847   0.354   0.266  0.00  0.00     0.150 A 
ATOM      5  C4  UNL d   1       1.452   1.545  -0.121  0.00  0.00    -0.007 A 
ATOM      6  C5  UNL d   1       2.640   1.513  -0.849  0.00  0.00     0.039 A 
ENDROOT
BRANCH   4   7
ATOM      7  O   UNL d   1      -0.310   0.434   0.982  0.00  0.00    -0.526 OA
ATOM      8  H5  UNL d   1      -0.598  -0.467   1.204  0.00  0.00     0.418 HD
ENDBRANCH   4   7
TORSDOF 1
ENDMDL
