MODEL 1
REMARK minimizedAffinity 6.73149204
REMARK minimizedRMSD -1
REMARK  1 active torsions:
REMARK  status: ('A' for Active; 'I' for Inactive)
REMARK    1  A    between atoms: C3_4  and  O_7 
ROOT
ATOM      1  C   UNL d   1       1.063  -0.672  -0.614  0.00  0.00    -0.033 A 
ATOM      2  C1  UNL d   1      -0.298  -0.373  -0.544  0.00  0.00     0.039 A 
ATOM      3  C2  UNL d   1      -1.021  -0.664   0.615  0.00  0.00    -0.080 A 
ATOM      4  C3  UNL d   1      -0.370  -1.253   1.695  0.00  0.00     0.150 A 
ATOM      5  C4  UNL d   1       0.987  -1.551   1.634  0.00  0.00    -0.007 A 
ATOM      6  C5  UNL d   1       1.706  -1.260   0.476  0.00  0.00     0.039 A 
ENDROOT
BRANCH   4   7
ATOM      7  O   UNL d   1      -1.035  -1.560   2.846  0.00  0.00    -0.526 OA
ATOM      8  H5  UNL d   1      -1.971  -1.324   2.733  0.00  0.00     0.418 HD
ENDBRANCH   4   7
TORSDOF 1
ENDMDL
