MODEL 1
REMARK minimizedAffinity -1.13303649
REMARK minimizedRMSD -1
REMARK  1 active torsions:
REMARK  status: ('A' for Active; 'I' for Inactive)
REMARK    1  A    between atoms: C3_4  and  O_7 
ROOT
ATOM      1  C   UNL d   1      -0.995  -0.092   1.101  0.00  0.00    -0.033 A 
ATOM      2  C1  UNL d   1      -2.388  -0.197   1.085  0.00  0.00     0.039 A 
ATOM      3  C2  UNL d   1      -3.036  -1.045   1.985  0.00  0.00    -0.080 A 
ATOM      4  C3  UNL d   1      -2.282  -1.780   2.895  0.00  0.00     0.150 A 
ATOM      5  C4  UNL d   1      -0.895  -1.677   2.920  0.00  0.00    -0.007 A 
ATOM      6  C5  UNL d   1      -0.249  -0.831   2.019  0.00  0.00     0.039 A 
ENDROOT
BRANCH   4   7
ATOM      7  O   UNL d   1      -2.870  -2.624   3.790  0.00  0.00    -0.526 OA
ATOM      8  H5  UNL d   1      -3.829  -2.614   3.637  0.00  0.00     0.418 HD
ENDBRANCH   4   7
TORSDOF 1
ENDMDL
