MODEL 1
REMARK minimizedAffinity 11.7683735
REMARK minimizedRMSD -1
REMARK  1 active torsions:
REMARK  status: ('A' for Active; 'I' for Inactive)
REMARK    1  A    between atoms: C1_2  and  C2_3 
ROOT
ATOM      1  C2  UNL d   1       0.437  -4.409   5.032  0.00  0.00    -0.081 A 
ATOM      2  C3  UNL d   1       0.043  -3.119   5.407  0.00  0.00     0.006 A 
ATOM      3  C4  UNL d   1       0.182  -2.050   4.519  0.00  0.00     0.002 A 
ATOM      4  C5  UNL d   1       0.711  -2.254   3.240  0.00  0.00    -0.080 A 
ATOM      5  C6  UNL d   1       0.838  -1.120   2.266  0.00  0.00     0.076 C 
ATOM      6  C7  UNL d   1       1.121  -3.539   2.872  0.00  0.00     0.002 A 
ATOM      7  C8  UNL d   1       0.983  -4.609   3.759  0.00  0.00     0.006 A 
ENDROOT
BRANCH   1   8
ATOM      8  C1  UNL d   1       0.228  -5.575   5.964  0.00  0.00     0.054 C 
ATOM      9  C   UNL d   1      -1.233  -6.000   6.000  0.00  0.00     0.018 C 
ENDBRANCH   1   8
TORSDOF 1
ENDMDL
