MODEL 1
REMARK minimizedAffinity 15.3620787
REMARK minimizedRMSD -1
REMARK  1 active torsions:
REMARK  status: ('A' for Active; 'I' for Inactive)
REMARK    1  A    between atoms: C1_2  and  C2_3 
ROOT
ATOM      1  C2  UNL d   1       2.498  -0.510   0.373  0.00  0.00    -0.081 A 
ATOM      2  C3  UNL d   1       3.602   0.263  -0.004  0.00  0.00     0.006 A 
ATOM      3  C4  UNL d   1       4.055   0.254  -1.326  0.00  0.00     0.002 A 
ATOM      4  C5  UNL d   1       3.407  -0.523  -2.292  0.00  0.00    -0.080 A 
ATOM      5  C6  UNL d   1       3.865  -0.519  -3.721  0.00  0.00     0.076 C 
ATOM      6  C7  UNL d   1       2.315  -1.309  -1.912  0.00  0.00     0.002 A 
ATOM      7  C8  UNL d   1       1.862  -1.300  -0.591  0.00  0.00     0.006 A 
ENDROOT
BRANCH   1   8
ATOM      8  C1  UNL d   1       1.967  -0.452   1.783  0.00  0.00     0.054 C 
ATOM      9  C   UNL d   1       1.084  -1.653   2.092  0.00  0.00     0.018 C 
ENDBRANCH   1   8
TORSDOF 1
ENDMDL
