MODEL 1
REMARK minimizedAffinity 7.69150209
REMARK minimizedRMSD -1
REMARK  1 active torsions:
REMARK  status: ('A' for Active; 'I' for Inactive)
REMARK    1  A    between atoms: C1_2  and  C2_3 
ROOT
ATOM      1  C2  UNL d   1      -5.270  -1.748  -3.435  0.00  0.00    -0.081 A 
ATOM      2  C3  UNL d   1      -5.914  -0.507  -3.345  0.00  0.00     0.006 A 
ATOM      3  C4  UNL d   1      -5.219   0.620  -2.900  0.00  0.00     0.002 A 
ATOM      4  C5  UNL d   1      -3.869   0.528  -2.546  0.00  0.00    -0.080 A 
ATOM      5  C6  UNL d   1      -3.104   1.737  -2.095  0.00  0.00     0.076 C 
ATOM      6  C7  UNL d   1      -3.231  -0.715  -2.619  0.00  0.00     0.002 A 
ATOM      7  C8  UNL d   1      -3.925  -1.842  -3.064  0.00  0.00     0.006 A 
ENDROOT
BRANCH   1   8
ATOM      8  C1  UNL d   1      -5.999  -2.951  -3.976  0.00  0.00     0.054 C 
ATOM      9  C   UNL d   1      -5.633  -3.212  -5.430  0.00  0.00     0.018 C 
ENDBRANCH   1   8
TORSDOF 1
ENDMDL
