MODEL 1
REMARK minimizedAffinity 19.4759254
REMARK minimizedRMSD -1
REMARK  1 active torsions:
REMARK  status: ('A' for Active; 'I' for Inactive)
REMARK    1  A    between atoms: C1_2  and  C2_3 
ROOT
ATOM      1  C2  UNL d   1      -4.096   1.936  -3.306  0.00  0.00    -0.081 A 
ATOM      2  C3  UNL d   1      -3.751   2.835  -2.289  0.00  0.00     0.006 A 
ATOM      3  C4  UNL d   1      -2.947   2.424  -1.224  0.00  0.00     0.002 A 
ATOM      4  C5  UNL d   1      -2.467   1.111  -1.162  0.00  0.00    -0.080 A 
ATOM      5  C6  UNL d   1      -1.577   0.665  -0.040  0.00  0.00     0.076 C 
ATOM      6  C7  UNL d   1      -2.826   0.209  -2.169  0.00  0.00     0.002 A 
ATOM      7  C8  UNL d   1      -3.631   0.619  -3.234  0.00  0.00     0.006 A 
ENDROOT
BRANCH   1   8
ATOM      8  C1  UNL d   1      -4.910   2.394  -4.490  0.00  0.00     0.054 C 
ATOM      9  C   UNL d   1      -5.998   3.371  -4.068  0.00  0.00     0.018 C 
ENDBRANCH   1   8
TORSDOF 1
ENDMDL
