MODEL 1
REMARK minimizedAffinity 8.50212669
REMARK minimizedRMSD -1
REMARK  1 active torsions:
REMARK  status: ('A' for Active; 'I' for Inactive)
REMARK    1  A    between atoms: C1_2  and  C2_3 
ROOT
ATOM      1  C2  UNL d   1      -4.549  -2.501  -3.499  0.00  0.00    -0.081 A 
ATOM      2  C3  UNL d   1      -4.809  -2.366  -4.868  0.00  0.00     0.006 A 
ATOM      3  C4  UNL d   1      -4.915  -3.496  -5.683  0.00  0.00     0.002 A 
ATOM      4  C5  UNL d   1      -4.770  -4.778  -5.142  0.00  0.00    -0.080 A 
ATOM      5  C6  UNL d   1      -4.911  -6.000  -6.000  0.00  0.00     0.076 C 
ATOM      6  C7  UNL d   1      -4.493  -4.912  -3.777  0.00  0.00     0.002 A 
ATOM      7  C8  UNL d   1      -4.387  -3.783  -2.962  0.00  0.00     0.006 A 
ENDROOT
BRANCH   1   8
ATOM      8  C1  UNL d   1      -4.499  -1.288  -2.605  0.00  0.00     0.054 C 
ATOM      9  C   UNL d   1      -3.362  -0.356  -3.001  0.00  0.00     0.018 C 
ENDBRANCH   1   8
TORSDOF 1
ENDMDL
