MODEL 1
REMARK minimizedAffinity 10.1121168
REMARK minimizedRMSD -1
REMARK  1 active torsions:
REMARK  status: ('A' for Active; 'I' for Inactive)
REMARK    1  A    between atoms: C1_2  and  C2_3 
ROOT
ATOM      1  C2  UNL d   1       1.113  -2.639   2.149  0.00  0.00    -0.081 A 
ATOM      2  C3  UNL d   1      -0.225  -2.554   2.553  0.00  0.00     0.006 A 
ATOM      3  C4  UNL d   1      -0.985  -1.422   2.252  0.00  0.00     0.002 A 
ATOM      4  C5  UNL d   1      -0.424  -0.360   1.535  0.00  0.00    -0.080 A 
ATOM      5  C6  UNL d   1      -1.238   0.849   1.179  0.00  0.00     0.076 C 
ATOM      6  C7  UNL d   1       0.918  -0.437   1.146  0.00  0.00     0.002 A 
ATOM      7  C8  UNL d   1       1.679  -1.569   1.447  0.00  0.00     0.006 A 
ENDROOT
BRANCH   1   8
ATOM      8  C1  UNL d   1       1.917  -3.886   2.416  0.00  0.00     0.054 C 
ATOM      9  C   UNL d   1       1.805  -4.874   1.263  0.00  0.00     0.018 C 
ENDBRANCH   1   8
TORSDOF 1
ENDMDL
