MODEL 1
REMARK minimizedAffinity 8.97908115
REMARK minimizedRMSD -1
REMARK  0 active torsions:
REMARK  status: ('A' for Active; 'I' for Inactive)
ROOT
ATOM      1  C   UNL d   1      -1.260  -2.007   0.360  0.00  0.00     0.020 A 
ATOM      2  C1  UNL d   1      -0.943  -0.694   0.707  0.00  0.00     0.020 A 
ATOM      3  C2  UNL d   1       0.383  -0.341   0.965  0.00  0.00     0.034 A 
ATOM      4  C3  UNL d   1       1.397  -1.302   0.876  0.00  0.00     0.017 A 
ATOM      5  C4  UNL d   1       1.078  -2.619   0.528  0.00  0.00     0.017 A 
ATOM      6  C5  UNL d   1      -0.252  -2.967   0.271  0.00  0.00     0.034 A 
ATOM      7 Cl   UNL d   1       2.275  -3.859   0.398  0.00  0.00    -0.070 Cl
ATOM      8 Cl1  UNL d   1       3.015  -0.794   1.208  0.00  0.00    -0.070 Cl
ENDROOT
TORSDOF 0
ENDMDL
