MODEL 1
REMARK minimizedAffinity 1.69976628
REMARK minimizedRMSD -1
REMARK  0 active torsions:
REMARK  status: ('A' for Active; 'I' for Inactive)
ROOT
ATOM      1  C   UNL d   1       0.088  -1.863   0.908  0.00  0.00     0.020 A 
ATOM      2  C1  UNL d   1      -0.104  -3.226   0.689  0.00  0.00     0.020 A 
ATOM      3  C2  UNL d   1       0.970  -4.027   0.295  0.00  0.00     0.034 A 
ATOM      4  C3  UNL d   1       2.240  -3.466   0.120  0.00  0.00     0.017 A 
ATOM      5  C4  UNL d   1       2.431  -2.097   0.341  0.00  0.00     0.017 A 
ATOM      6  C5  UNL d   1       1.353  -1.300   0.735  0.00  0.00     0.034 A 
ATOM      7 Cl   UNL d   1       3.969  -1.333   0.145  0.00  0.00    -0.070 Cl
ATOM      8 Cl1  UNL d   1       3.523  -4.516  -0.368  0.00  0.00    -0.070 Cl
ENDROOT
TORSDOF 0
ENDMDL
