MODEL 1
REMARK minimizedAffinity 2.45635104
REMARK minimizedRMSD -1
REMARK  0 active torsions:
REMARK  status: ('A' for Active; 'I' for Inactive)
ROOT
ATOM      1  C   UNL d   1      -0.872  -1.969   0.487  0.00  0.00     0.020 A 
ATOM      2  C1  UNL d   1      -0.358  -0.685   0.667  0.00  0.00     0.020 A 
ATOM      3  C2  UNL d   1       1.021  -0.473   0.621  0.00  0.00     0.034 A 
ATOM      4  C3  UNL d   1       1.891  -1.545   0.394  0.00  0.00     0.017 A 
ATOM      5  C4  UNL d   1       1.375  -2.833   0.214  0.00  0.00     0.017 A 
ATOM      6  C5  UNL d   1      -0.008  -3.041   0.261  0.00  0.00     0.034 A 
ATOM      7 Cl   UNL d   1       2.385  -4.206  -0.070  0.00  0.00    -0.070 Cl
ATOM      8 Cl1  UNL d   1       3.586  -1.210   0.349  0.00  0.00    -0.070 Cl
ENDROOT
TORSDOF 0
ENDMDL
