MODEL 1
REMARK minimizedAffinity -3.29653668
REMARK minimizedRMSD -1
REMARK  0 active torsions:
REMARK  status: ('A' for Active; 'I' for Inactive)
ROOT
ATOM      1  C   UNL d   1      -1.008  -1.533   0.745  0.00  0.00     0.020 A 
ATOM      2  C1  UNL d   1      -0.703  -2.875   0.970  0.00  0.00     0.020 A 
ATOM      3  C2  UNL d   1       0.601  -3.335   0.781  0.00  0.00     0.034 A 
ATOM      4  C3  UNL d   1       1.606  -2.454   0.364  0.00  0.00     0.017 A 
ATOM      5  C4  UNL d   1       1.298  -1.108   0.138  0.00  0.00     0.017 A 
ATOM      6  C5  UNL d   1      -0.010  -0.652   0.329  0.00  0.00     0.034 A 
ATOM      7 Cl   UNL d   1       2.484   0.040  -0.377  0.00  0.00    -0.070 Cl
ATOM      8 Cl1  UNL d   1       3.197  -3.092   0.150  0.00  0.00    -0.070 Cl
ENDROOT
TORSDOF 0
ENDMDL
