MODEL 1
REMARK minimizedAffinity -0.813364923
REMARK minimizedRMSD -1
REMARK  0 active torsions:
REMARK  status: ('A' for Active; 'I' for Inactive)
ROOT
ATOM      1  C   UNL d   1      -0.392  -2.784   0.601  0.00  0.00     0.020 A 
ATOM      2  C1  UNL d   1      -0.049  -1.438   0.718  0.00  0.00     0.020 A 
ATOM      3  C2  UNL d   1       1.284  -1.043   0.592  0.00  0.00     0.034 A 
ATOM      4  C3  UNL d   1       2.280  -1.995   0.348  0.00  0.00     0.017 A 
ATOM      5  C4  UNL d   1       1.936  -3.347   0.230  0.00  0.00     0.017 A 
ATOM      6  C5  UNL d   1       0.599  -3.737   0.357  0.00  0.00     0.034 A 
ATOM      7 Cl   UNL d   1       3.109  -4.580  -0.071  0.00  0.00    -0.070 Cl
ATOM      8 Cl1  UNL d   1       3.909  -1.436   0.203  0.00  0.00    -0.070 Cl
ENDROOT
TORSDOF 0
ENDMDL
