MODEL 1
REMARK minimizedAffinity 1.98348606
REMARK minimizedRMSD -1
REMARK  0 active torsions:
REMARK  status: ('A' for Active; 'I' for Inactive)
ROOT
ATOM      1  C   UNL d   1       0.455  -3.413  -0.120  0.00  0.00     0.020 A 
ATOM      2  C1  UNL d   1      -0.245  -2.596   0.767  0.00  0.00     0.020 A 
ATOM      3  C2  UNL d   1       0.412  -1.552   1.422  0.00  0.00     0.034 A 
ATOM      4  C3  UNL d   1       1.773  -1.323   1.192  0.00  0.00     0.017 A 
ATOM      5  C4  UNL d   1       2.475  -2.144   0.301  0.00  0.00     0.017 A 
ATOM      6  C5  UNL d   1       1.812  -3.187  -0.352  0.00  0.00     0.034 A 
ATOM      7 Cl   UNL d   1       4.156  -1.923  -0.034  0.00  0.00    -0.070 Cl
ATOM      8 Cl1  UNL d   1       2.522  -0.015   2.036  0.00  0.00    -0.070 Cl
ENDROOT
TORSDOF 0
ENDMDL
