MODEL 1
REMARK minimizedAffinity 0.210978657
REMARK minimizedRMSD -1
REMARK  0 active torsions:
REMARK  status: ('A' for Active; 'I' for Inactive)
ROOT
ATOM      1  C   UNL d   1       1.403  -0.344   1.007  0.00  0.00     0.020 A 
ATOM      2  C1  UNL d   1       0.042  -0.397   0.707  0.00  0.00     0.020 A 
ATOM      3  C2  UNL d   1      -0.538  -1.604   0.309  0.00  0.00     0.034 A 
ATOM      4  C3  UNL d   1       0.242  -2.761   0.209  0.00  0.00     0.017 A 
ATOM      5  C4  UNL d   1       1.608  -2.707   0.511  0.00  0.00     0.017 A 
ATOM      6  C5  UNL d   1       2.184  -1.496   0.909  0.00  0.00     0.034 A 
ATOM      7 Cl   UNL d   1       2.635  -4.093   0.412  0.00  0.00    -0.070 Cl
ATOM      8 Cl1  UNL d   1      -0.541  -4.218  -0.289  0.00  0.00    -0.070 Cl
ENDROOT
TORSDOF 0
ENDMDL
