MODEL 1
REMARK minimizedAffinity -0.257392764
REMARK minimizedRMSD -1
REMARK  0 active torsions:
REMARK  status: ('A' for Active; 'I' for Inactive)
ROOT
ATOM      1  C   UNL d   1      -0.767  -1.190   0.727  0.00  0.00     0.020 A 
ATOM      2  C1  UNL d   1       0.083  -0.111   0.963  0.00  0.00     0.020 A 
ATOM      3  C2  UNL d   1       1.463  -0.313   1.043  0.00  0.00     0.034 A 
ATOM      4  C3  UNL d   1       1.996  -1.598   0.887  0.00  0.00     0.017 A 
ATOM      5  C4  UNL d   1       1.141  -2.681   0.651  0.00  0.00     0.017 A 
ATOM      6  C5  UNL d   1      -0.239  -2.472   0.572  0.00  0.00     0.034 A 
ATOM      7 Cl   UNL d   1       1.725  -4.295   0.448  0.00  0.00    -0.070 Cl
ATOM      8 Cl1  UNL d   1       3.711  -1.775   0.998  0.00  0.00    -0.070 Cl
ENDROOT
TORSDOF 0
ENDMDL
