MODEL 1
REMARK minimizedAffinity -1.49907923
REMARK minimizedRMSD -1
REMARK  0 active torsions:
REMARK  status: ('A' for Active; 'I' for Inactive)
ROOT
ATOM      1  C   UNL d   1       1.245  -3.796  -0.228  0.00  0.00     0.020 A 
ATOM      2  C1  UNL d   1       2.424  -3.335   0.355  0.00  0.00     0.020 A 
ATOM      3  C2  UNL d   1       2.453  -2.085   0.978  0.00  0.00     0.034 A 
ATOM      4  C3  UNL d   1       1.300  -1.293   1.020  0.00  0.00     0.017 A 
ATOM      5  C4  UNL d   1       0.117  -1.757   0.434  0.00  0.00     0.017 A 
ATOM      6  C5  UNL d   1       0.093  -3.009  -0.189  0.00  0.00     0.034 A 
ATOM      7 Cl   UNL d   1      -1.346  -0.836   0.445  0.00  0.00    -0.070 Cl
ATOM      8 Cl1  UNL d   1       1.407   0.241   1.807  0.00  0.00    -0.070 Cl
ENDROOT
TORSDOF 0
ENDMDL
