MODEL 1
REMARK minimizedAffinity 0.232043535
REMARK minimizedRMSD -1
REMARK  0 active torsions:
REMARK  status: ('A' for Active; 'I' for Inactive)
ROOT
ATOM      1  C   UNL d   1       0.393  -1.645   0.929  0.00  0.00     0.020 A 
ATOM      2  C1  UNL d   1       0.021  -2.979   0.762  0.00  0.00     0.020 A 
ATOM      3  C2  UNL d   1       0.969  -3.923   0.364  0.00  0.00     0.034 A 
ATOM      4  C3  UNL d   1       2.294  -3.536   0.131  0.00  0.00     0.017 A 
ATOM      5  C4  UNL d   1       2.666  -2.198   0.300  0.00  0.00     0.017 A 
ATOM      6  C5  UNL d   1       1.713  -1.256   0.699  0.00  0.00     0.034 A 
ATOM      7 Cl   UNL d   1       4.282  -1.645   0.032  0.00  0.00    -0.070 Cl
ATOM      8 Cl1  UNL d   1       3.414  -4.758  -0.359  0.00  0.00    -0.070 Cl
ENDROOT
TORSDOF 0
ENDMDL
