MODEL 1
REMARK minimizedAffinity -2.86484361
REMARK minimizedRMSD -1
REMARK  0 active torsions:
REMARK  status: ('A' for Active; 'I' for Inactive)
ROOT
ATOM      1  C   UNL d   1      -0.288  -0.947   1.398  0.00  0.00     0.020 A 
ATOM      2  C1  UNL d   1      -0.587  -2.309   1.433  0.00  0.00     0.020 A 
ATOM      3  C2  UNL d   1       0.260  -3.225   0.806  0.00  0.00     0.034 A 
ATOM      4  C3  UNL d   1       1.409  -2.781   0.141  0.00  0.00     0.017 A 
ATOM      5  C4  UNL d   1       1.708  -1.415   0.107  0.00  0.00     0.017 A 
ATOM      6  C5  UNL d   1       0.857  -0.501   0.737  0.00  0.00     0.034 A 
ATOM      7 Cl   UNL d   1       3.108  -0.791  -0.693  0.00  0.00    -0.070 Cl
ATOM      8 Cl1  UNL d   1       2.411  -3.970  -0.612  0.00  0.00    -0.070 Cl
ENDROOT
TORSDOF 0
ENDMDL
