MODEL 1
REMARK minimizedAffinity -1.58117282
REMARK minimizedRMSD -1
REMARK  0 active torsions:
REMARK  status: ('A' for Active; 'I' for Inactive)
ROOT
ATOM      1  C   UNL d   1       0.030  -2.671   0.056  0.00  0.00     0.020 A 
ATOM      2  C1  UNL d   1       0.477  -1.351   0.115  0.00  0.00     0.020 A 
ATOM      3  C2  UNL d   1       1.845  -1.074   0.061  0.00  0.00     0.034 A 
ATOM      4  C3  UNL d   1       2.770  -2.118  -0.052  0.00  0.00     0.017 A 
ATOM      5  C4  UNL d   1       2.321  -3.442  -0.111  0.00  0.00     0.017 A 
ATOM      6  C5  UNL d   1       0.951  -3.714  -0.057  0.00  0.00     0.034 A 
ATOM      7 Cl   UNL d   1       3.403  -4.783  -0.251  0.00  0.00    -0.070 Cl
ATOM      8 Cl1  UNL d   1       4.446  -1.702  -0.113  0.00  0.00    -0.070 Cl
ENDROOT
TORSDOF 0
ENDMDL
