MODEL 1
REMARK minimizedAffinity -0.958588302
REMARK minimizedRMSD -1
REMARK  0 active torsions:
REMARK  status: ('A' for Active; 'I' for Inactive)
ROOT
ATOM      1  C   UNL d   1       2.683  -1.320   0.156  0.00  0.00     0.020 A 
ATOM      2  C1  UNL d   1       2.275  -2.596  -0.231  0.00  0.00     0.020 A 
ATOM      3  C2  UNL d   1       0.936  -2.971  -0.099  0.00  0.00     0.034 A 
ATOM      4  C3  UNL d   1       0.001  -2.070   0.422  0.00  0.00     0.017 A 
ATOM      5  C4  UNL d   1       0.411  -0.790   0.811  0.00  0.00     0.017 A 
ATOM      6  C5  UNL d   1       1.753  -0.419   0.676  0.00  0.00     0.034 A 
ATOM      7 Cl   UNL d   1      -0.685   0.377   1.462  0.00  0.00    -0.070 Cl
ATOM      8 Cl1  UNL d   1      -1.638  -2.602   0.558  0.00  0.00    -0.070 Cl
ENDROOT
TORSDOF 0
ENDMDL
