MODEL 1
REMARK minimizedAffinity 4.71184063
REMARK minimizedRMSD -1
REMARK  0 active torsions:
REMARK  status: ('A' for Active; 'I' for Inactive)
ROOT
ATOM      1  C   UNL d   1      -3.381   0.526   0.878  0.00  0.00     0.020 A 
ATOM      2  C1  UNL d   1      -2.761   1.370   1.799  0.00  0.00     0.020 A 
ATOM      3  C2  UNL d   1      -1.507   1.039   2.316  0.00  0.00     0.034 A 
ATOM      4  C3  UNL d   1      -0.869  -0.140   1.914  0.00  0.00     0.017 A 
ATOM      5  C4  UNL d   1      -1.492  -0.987   0.990  0.00  0.00     0.017 A 
ATOM      6  C5  UNL d   1      -2.747  -0.650   0.475  0.00  0.00     0.034 A 
ATOM      7 Cl   UNL d   1      -0.766  -2.458   0.445  0.00  0.00    -0.070 Cl
ATOM      8 Cl1  UNL d   1       0.681  -0.487   2.594  0.00  0.00    -0.070 Cl
ENDROOT
TORSDOF 0
ENDMDL
