MODEL 1
REMARK minimizedAffinity 2.92795324
REMARK minimizedRMSD -1
REMARK  0 active torsions:
REMARK  status: ('A' for Active; 'I' for Inactive)
ROOT
ATOM      1  C   UNL d   1       0.125   0.319   1.368  0.00  0.00     0.020 A 
ATOM      2  C1  UNL d   1      -0.917  -0.608   1.345  0.00  0.00     0.020 A 
ATOM      3  C2  UNL d   1      -0.676  -1.918   0.927  0.00  0.00     0.034 A 
ATOM      4  C3  UNL d   1       0.608  -2.306   0.529  0.00  0.00     0.017 A 
ATOM      5  C4  UNL d   1       1.653  -1.375   0.552  0.00  0.00     0.017 A 
ATOM      6  C5  UNL d   1       1.407  -0.064   0.972  0.00  0.00     0.034 A 
ATOM      7 Cl   UNL d   1       3.265  -1.779   0.076  0.00  0.00    -0.070 Cl
ATOM      8 Cl1  UNL d   1       0.833  -3.943   0.024  0.00  0.00    -0.070 Cl
ENDROOT
TORSDOF 0
ENDMDL
