MODEL 1
REMARK minimizedAffinity -1.13281739
REMARK minimizedRMSD -1
REMARK  0 active torsions:
REMARK  status: ('A' for Active; 'I' for Inactive)
ROOT
ATOM      1  C   UNL d   1       1.305  -3.333  -0.413  0.00  0.00     0.020 A 
ATOM      2  C1  UNL d   1       2.545  -2.762  -0.128  0.00  0.00     0.020 A 
ATOM      3  C2  UNL d   1       2.613  -1.549   0.562  0.00  0.00     0.034 A 
ATOM      4  C3  UNL d   1       1.439  -0.905   0.969  0.00  0.00     0.017 A 
ATOM      5  C4  UNL d   1       0.195  -1.479   0.683  0.00  0.00     0.017 A 
ATOM      6  C5  UNL d   1       0.133  -2.693  -0.008  0.00  0.00     0.034 A 
ATOM      7 Cl   UNL d   1      -1.296  -0.743   1.154  0.00  0.00    -0.070 Cl
ATOM      8 Cl1  UNL d   1       1.598   0.592   1.818  0.00  0.00    -0.070 Cl
ENDROOT
TORSDOF 0
ENDMDL
