MODEL 1
REMARK minimizedAffinity -1.06689048
REMARK minimizedRMSD -1
REMARK  0 active torsions:
REMARK  status: ('A' for Active; 'I' for Inactive)
ROOT
ATOM      1  C   UNL d   1       0.218  -0.743   0.741  0.00  0.00     0.020 A 
ATOM      2  C1  UNL d   1      -0.391  -1.995   0.658  0.00  0.00     0.020 A 
ATOM      3  C2  UNL d   1       0.392  -3.144   0.524  0.00  0.00     0.034 A 
ATOM      4  C3  UNL d   1       1.787  -3.043   0.472  0.00  0.00     0.017 A 
ATOM      5  C4  UNL d   1       2.397  -1.786   0.555  0.00  0.00     0.017 A 
ATOM      6  C5  UNL d   1       1.608  -0.639   0.689  0.00  0.00     0.034 A 
ATOM      7 Cl   UNL d   1       4.112  -1.582   0.499  0.00  0.00    -0.070 Cl
ATOM      8 Cl1  UNL d   1       2.693  -4.506   0.306  0.00  0.00    -0.070 Cl
ENDROOT
TORSDOF 0
ENDMDL
