MODEL 1
REMARK minimizedAffinity -0.703577042
REMARK minimizedRMSD -1
REMARK  0 active torsions:
REMARK  status: ('A' for Active; 'I' for Inactive)
ROOT
ATOM      1  C   UNL d   1       1.060   0.116   0.889  0.00  0.00     0.020 A 
ATOM      2  C1  UNL d   1      -0.170  -0.478   1.165  0.00  0.00     0.020 A 
ATOM      3  C2  UNL d   1      -0.364  -1.836   0.904  0.00  0.00     0.034 A 
ATOM      4  C3  UNL d   1       0.674  -2.604   0.364  0.00  0.00     0.017 A 
ATOM      5  C4  UNL d   1       1.909  -2.007   0.087  0.00  0.00     0.017 A 
ATOM      6  C5  UNL d   1       2.098  -0.647   0.351  0.00  0.00     0.034 A 
ATOM      7 Cl   UNL d   1       3.237  -2.890  -0.579  0.00  0.00    -0.070 Cl
ATOM      8 Cl1  UNL d   1       0.363  -4.278   0.066  0.00  0.00    -0.070 Cl
ENDROOT
TORSDOF 0
ENDMDL
