MODEL 1
REMARK minimizedAffinity 0.0520775691
REMARK minimizedRMSD -1
REMARK  0 active torsions:
REMARK  status: ('A' for Active; 'I' for Inactive)
ROOT
ATOM      1  C   UNL d   1       2.163  -0.936   0.161  0.00  0.00     0.020 A 
ATOM      2  C1  UNL d   1       1.538  -1.791  -0.745  0.00  0.00     0.020 A 
ATOM      3  C2  UNL d   1       0.291  -2.341  -0.440  0.00  0.00     0.034 A 
ATOM      4  C3  UNL d   1      -0.334  -2.037   0.774  0.00  0.00     0.017 A 
ATOM      5  C4  UNL d   1       0.294  -1.178   1.683  0.00  0.00     0.017 A 
ATOM      6  C5  UNL d   1       1.542  -0.629   1.372  0.00  0.00     0.034 A 
ATOM      7 Cl   UNL d   1      -0.415  -0.755   3.201  0.00  0.00    -0.070 Cl
ATOM      8 Cl1  UNL d   1      -1.876  -2.752   1.086  0.00  0.00    -0.070 Cl
ENDROOT
TORSDOF 0
ENDMDL
