MODEL 1
REMARK minimizedAffinity -1.11719859
REMARK minimizedRMSD -1
REMARK  0 active torsions:
REMARK  status: ('A' for Active; 'I' for Inactive)
ROOT
ATOM      1  C   UNL d   1       3.457  -0.786  -0.402  0.00  0.00     0.023 A 
ATOM      2  C1  UNL d   1       2.569  -1.199  -1.395  0.00  0.00     0.003 A 
ATOM      3  C2  UNL d   1       1.192  -1.074  -1.199  0.00  0.00     0.048 A 
ATOM      4  C3  UNL d   1       0.710  -0.534  -0.006  0.00  0.00     0.023 A 
ATOM      5  C4  UNL d   1       1.595  -0.119   0.990  0.00  0.00     0.048 A 
ATOM      6  C5  UNL d   1       2.971  -0.247   0.789  0.00  0.00     0.003 A 
ATOM      7  I   UNL d   1      -1.338  -0.346   0.289  0.00  0.00    -0.146 I 
ENDROOT
TORSDOF 0
ENDMDL
