MODEL 1
REMARK minimizedAffinity 9.06571865
REMARK minimizedRMSD -1
REMARK  0 active torsions:
REMARK  status: ('A' for Active; 'I' for Inactive)
ROOT
ATOM      1  C   UNL d   1       1.030  -0.703   3.414  0.00  0.00     0.023 A 
ATOM      2  C1  UNL d   1       0.157  -1.421   2.596  0.00  0.00     0.003 A 
ATOM      3  C2  UNL d   1       0.495  -1.676   1.266  0.00  0.00     0.048 A 
ATOM      4  C3  UNL d   1       1.708  -1.211   0.760  0.00  0.00     0.023 A 
ATOM      5  C4  UNL d   1       2.586  -0.494   1.575  0.00  0.00     0.048 A 
ATOM      6  C5  UNL d   1       2.243  -0.240   2.904  0.00  0.00     0.003 A 
ATOM      7  I   UNL d   1       2.214  -1.590  -1.220  0.00  0.00    -0.146 I 
ENDROOT
TORSDOF 0
ENDMDL
