MODEL 1
REMARK minimizedAffinity 5.51366425
REMARK minimizedRMSD -1
REMARK  0 active torsions:
REMARK  status: ('A' for Active; 'I' for Inactive)
ROOT
ATOM      1  C   UNL d   1       1.790  -3.215   1.480  0.00  0.00     0.023 A 
ATOM      2  C1  UNL d   1       0.898  -3.033   2.536  0.00  0.00     0.003 A 
ATOM      3  C2  UNL d   1      -0.039  -1.998   2.492  0.00  0.00     0.048 A 
ATOM      4  C3  UNL d   1      -0.078  -1.149   1.386  0.00  0.00     0.023 A 
ATOM      5  C4  UNL d   1       0.813  -1.327   0.326  0.00  0.00     0.048 A 
ATOM      6  C5  UNL d   1       1.748  -2.363   0.376  0.00  0.00     0.003 A 
ATOM      7  I   UNL d   1      -1.470   0.393   1.317  0.00  0.00    -0.146 I 
ENDROOT
TORSDOF 0
ENDMDL
