MODEL 1
REMARK minimizedAffinity 9.69623852
REMARK minimizedRMSD -1
REMARK  0 active torsions:
REMARK  status: ('A' for Active; 'I' for Inactive)
ROOT
ATOM      1  C   UNL d   1      -0.309  -0.476   1.764  0.00  0.00     0.023 A 
ATOM      2  C1  UNL d   1       0.474  -0.656   0.623  0.00  0.00     0.003 A 
ATOM      3  C2  UNL d   1       1.327  -1.757   0.527  0.00  0.00     0.048 A 
ATOM      4  C3  UNL d   1       1.391  -2.676   1.574  0.00  0.00     0.023 A 
ATOM      5  C4  UNL d   1       0.608  -2.500   2.717  0.00  0.00     0.048 A 
ATOM      6  C5  UNL d   1      -0.242  -1.397   2.809  0.00  0.00     0.003 A 
ATOM      7  I   UNL d   1       2.659  -4.316   1.433  0.00  0.00    -0.146 I 
ENDROOT
TORSDOF 0
ENDMDL
