MODEL 1
REMARK minimizedAffinity -2.22060466
REMARK minimizedRMSD -1
REMARK  0 active torsions:
REMARK  status: ('A' for Active; 'I' for Inactive)
ROOT
ATOM      1  C   UNL d   1       1.041  -1.811   1.082  0.00  0.00     0.023 A 
ATOM      2  C1  UNL d   1       0.389  -1.391  -0.077  0.00  0.00     0.003 A 
ATOM      3  C2  UNL d   1      -0.922  -0.915  -0.008  0.00  0.00     0.048 A 
ATOM      4  C3  UNL d   1      -1.575  -0.862   1.223  0.00  0.00     0.023 A 
ATOM      5  C4  UNL d   1      -0.925  -1.280   2.385  0.00  0.00     0.048 A 
ATOM      6  C5  UNL d   1       0.385  -1.756   2.311  0.00  0.00     0.003 A 
ATOM      7  I   UNL d   1      -3.526  -0.154   1.328  0.00  0.00    -0.146 I 
ENDROOT
TORSDOF 0
ENDMDL
