MODEL 1
REMARK minimizedAffinity 6.98184729
REMARK minimizedRMSD -1
REMARK  0 active torsions:
REMARK  status: ('A' for Active; 'I' for Inactive)
ROOT
ATOM      1  C   UNL d   1       0.325  -4.199   2.719  0.00  0.00     0.023 A 
ATOM      2  C1  UNL d   1       1.103  -3.456   1.832  0.00  0.00     0.003 A 
ATOM      3  C2  UNL d   1       0.705  -2.170   1.460  0.00  0.00     0.048 A 
ATOM      4  C3  UNL d   1      -0.472  -1.634   1.981  0.00  0.00     0.023 A 
ATOM      5  C4  UNL d   1      -1.254  -2.374   2.870  0.00  0.00     0.048 A 
ATOM      6  C5  UNL d   1      -0.852  -3.659   3.237  0.00  0.00     0.003 A 
ATOM      7  I   UNL d   1      -1.068   0.280   1.429  0.00  0.00    -0.146 I 
ENDROOT
TORSDOF 0
ENDMDL
