MODEL 1
REMARK minimizedAffinity 1.78305614
REMARK minimizedRMSD -1
REMARK  1 active torsions:
REMARK  status: ('A' for Active; 'I' for Inactive)
REMARK    1  A    between atoms: C3_4  and  O_7 
ROOT
ATOM      1  C   UNL d   1       1.918  -5.466  -2.872  0.00  0.00    -0.033 A 
ATOM      2  C1  UNL d   1       2.394  -5.806  -4.140  0.00  0.00     0.039 A 
ATOM      3  C2  UNL d   1       1.500  -5.989  -5.197  0.00  0.00    -0.080 A 
ATOM      4  C3  UNL d   1       0.135  -5.827  -4.974  0.00  0.00     0.150 A 
ATOM      5  C4  UNL d   1      -0.345  -5.484  -3.714  0.00  0.00    -0.007 A 
ATOM      6  C5  UNL d   1       0.549  -5.303  -2.660  0.00  0.00     0.039 A 
ENDROOT
BRANCH   4   7
ATOM      7  O   UNL d   1      -0.775  -6.000  -5.973  0.00  0.00    -0.526 OA
ATOM      8  H5  UNL d   1      -0.301  -6.263  -6.780  0.00  0.00     0.418 HD
ENDBRANCH   4   7
TORSDOF 1
ENDMDL
