MODEL 1
REMARK minimizedAffinity -0.232442066
REMARK minimizedRMSD -1
REMARK  1 active torsions:
REMARK  status: ('A' for Active; 'I' for Inactive)
REMARK    1  A    between atoms: C3_4  and  O_7 
ROOT
ATOM      1  C   UNL d   1      -2.236  -1.271   0.017  0.00  0.00    -0.033 A 
ATOM      2  C1  UNL d   1      -1.838   0.009  -0.374  0.00  0.00     0.039 A 
ATOM      3  C2  UNL d   1      -1.460   0.949   0.586  0.00  0.00    -0.080 A 
ATOM      4  C3  UNL d   1      -1.484   0.597   1.933  0.00  0.00     0.150 A 
ATOM      5  C4  UNL d   1      -1.876  -0.677   2.330  0.00  0.00    -0.007 A 
ATOM      6  C5  UNL d   1      -2.254  -1.614   1.369  0.00  0.00     0.039 A 
ENDROOT
BRANCH   4   7
ATOM      7  O   UNL d   1      -1.129   1.482   2.907  0.00  0.00    -0.526 OA
ATOM      8  H5  UNL d   1      -0.909   2.330   2.487  0.00  0.00     0.418 HD
ENDBRANCH   4   7
TORSDOF 1
ENDMDL
