MODEL 1
REMARK minimizedAffinity -4.39542913
REMARK minimizedRMSD -1
REMARK  1 active torsions:
REMARK  status: ('A' for Active; 'I' for Inactive)
REMARK    1  A    between atoms: C3_4  and  O_7 
ROOT
ATOM      1  C   UNL d   1      -1.470  -0.412   1.665  0.00  0.00    -0.033 A 
ATOM      2  C1  UNL d   1      -0.173  -0.389   1.150  0.00  0.00     0.039 A 
ATOM      3  C2  UNL d   1       0.897  -0.839   1.927  0.00  0.00    -0.080 A 
ATOM      4  C3  UNL d   1       0.655  -1.311   3.214  0.00  0.00     0.150 A 
ATOM      5  C4  UNL d   1      -0.636  -1.341   3.732  0.00  0.00    -0.007 A 
ATOM      6  C5  UNL d   1      -1.702  -0.890   2.955  0.00  0.00     0.039 A 
ENDROOT
BRANCH   4   7
ATOM      7  O   UNL d   1       1.667  -1.756   4.012  0.00  0.00    -0.526 OA
ATOM      8  H5  UNL d   1       2.506  -1.649   3.533  0.00  0.00     0.418 HD
ENDBRANCH   4   7
TORSDOF 1
ENDMDL
