MODEL 1
REMARK minimizedAffinity -1.9527843
REMARK minimizedRMSD -1
REMARK  1 active torsions:
REMARK  status: ('A' for Active; 'I' for Inactive)
REMARK    1  A    between atoms: C3_4  and  O_7 
ROOT
ATOM      1  C   UNL d   1       1.293  -5.626  -5.999  0.00  0.00    -0.033 A 
ATOM      2  C1  UNL d   1       2.241  -5.260  -5.041  0.00  0.00     0.039 A 
ATOM      3  C2  UNL d   1       1.904  -5.261  -3.686  0.00  0.00    -0.080 A 
ATOM      4  C3  UNL d   1       0.618  -5.630  -3.303  0.00  0.00     0.150 A 
ATOM      5  C4  UNL d   1      -0.330  -5.999  -4.251  0.00  0.00    -0.007 A 
ATOM      6  C5  UNL d   1       0.008  -5.997  -5.603  0.00  0.00     0.039 A 
ENDROOT
BRANCH   4   7
ATOM      7  O   UNL d   1       0.241  -5.642  -1.993  0.00  0.00    -0.526 OA
ATOM      8  H5  UNL d   1       0.990  -5.336  -1.454  0.00  0.00     0.418 HD
ENDBRANCH   4   7
TORSDOF 1
ENDMDL
