MODEL 1
REMARK minimizedAffinity -0.673967957
REMARK minimizedRMSD -1
REMARK  1 active torsions:
REMARK  status: ('A' for Active; 'I' for Inactive)
REMARK    1  A    between atoms: C3_4  and  O_7 
ROOT
ATOM      1  C   UNL d   1      -1.388  -1.107   4.269  0.00  0.00    -0.033 A 
ATOM      2  C1  UNL d   1      -1.843  -1.018   2.952  0.00  0.00     0.039 A 
ATOM      3  C2  UNL d   1      -0.929  -0.882   1.904  0.00  0.00    -0.080 A 
ATOM      4  C3  UNL d   1       0.433  -0.837   2.187  0.00  0.00     0.150 A 
ATOM      5  C4  UNL d   1       0.893  -0.930   3.497  0.00  0.00    -0.007 A 
ATOM      6  C5  UNL d   1      -0.021  -1.065   4.541  0.00  0.00     0.039 A 
ENDROOT
BRANCH   4   7
ATOM      7  O   UNL d   1       1.362  -0.701   1.198  0.00  0.00    -0.526 OA
ATOM      8  H5  UNL d   1       0.897  -0.620   0.349  0.00  0.00     0.418 HD
ENDBRANCH   4   7
TORSDOF 1
ENDMDL
