MODEL 1
REMARK minimizedAffinity -1.59952152
REMARK minimizedRMSD -1
REMARK  1 active torsions:
REMARK  status: ('A' for Active; 'I' for Inactive)
REMARK    1  A    between atoms: C3_4  and  O_7 
ROOT
ATOM      1  C   UNL d   1      -1.935  -1.044   2.714  0.00  0.00    -0.033 A 
ATOM      2  C1  UNL d   1      -1.911  -1.952   3.773  0.00  0.00     0.039 A 
ATOM      3  C2  UNL d   1      -0.700  -2.281   4.386  0.00  0.00    -0.080 A 
ATOM      4  C3  UNL d   1       0.478  -1.694   3.931  0.00  0.00     0.150 A 
ATOM      5  C4  UNL d   1       0.460  -0.785   2.878  0.00  0.00    -0.007 A 
ATOM      6  C5  UNL d   1      -0.750  -0.459   2.267  0.00  0.00     0.039 A 
ENDROOT
BRANCH   4   7
ATOM      7  O   UNL d   1       1.684  -1.987   4.494  0.00  0.00    -0.526 OA
ATOM      8  H5  UNL d   1       1.545  -2.651   5.190  0.00  0.00     0.418 HD
ENDBRANCH   4   7
TORSDOF 1
ENDMDL
