MODEL 1
REMARK minimizedAffinity -2.06312871
REMARK minimizedRMSD -1
REMARK  1 active torsions:
REMARK  status: ('A' for Active; 'I' for Inactive)
REMARK    1  A    between atoms: C3_4  and  O_7 
ROOT
ATOM      1  C   UNL d   1       1.811  -4.877  -2.550  0.00  0.00    -0.033 A 
ATOM      2  C1  UNL d   1       2.315  -4.483  -3.792  0.00  0.00     0.039 A 
ATOM      3  C2  UNL d   1       1.650  -4.848  -4.964  0.00  0.00    -0.080 A 
ATOM      4  C3  UNL d   1       0.485  -5.606  -4.882  0.00  0.00     0.150 A 
ATOM      5  C4  UNL d   1      -0.024  -5.999  -3.648  0.00  0.00    -0.007 A 
ATOM      6  C5  UNL d   1       0.642  -5.634  -2.479  0.00  0.00     0.039 A 
ENDROOT
BRANCH   4   7
ATOM      7  O   UNL d   1      -0.195  -5.991  -5.999  0.00  0.00    -0.526 OA
ATOM      8  H5  UNL d   1       0.289  -5.672  -6.779  0.00  0.00     0.418 HD
ENDBRANCH   4   7
TORSDOF 1
ENDMDL
