MODEL 1
REMARK minimizedAffinity -2.40528727
REMARK minimizedRMSD -1
REMARK  1 active torsions:
REMARK  status: ('A' for Active; 'I' for Inactive)
REMARK    1  A    between atoms: C3_4  and  O_7 
ROOT
ATOM      1  C   UNL d   1      -0.979   0.229   1.808  0.00  0.00    -0.033 A 
ATOM      2  C1  UNL d   1       0.209  -0.087   1.144  0.00  0.00     0.039 A 
ATOM      3  C2  UNL d   1       1.216  -0.790   1.808  0.00  0.00    -0.080 A 
ATOM      4  C3  UNL d   1       1.023  -1.172   3.133  0.00  0.00     0.150 A 
ATOM      5  C4  UNL d   1      -0.159  -0.865   3.799  0.00  0.00    -0.007 A 
ATOM      6  C5  UNL d   1      -1.163  -0.162   3.135  0.00  0.00     0.039 A 
ENDROOT
BRANCH   4   7
ATOM      7  O   UNL d   1       1.979  -1.856   3.824  0.00  0.00    -0.526 OA
ATOM      8  H5  UNL d   1       2.752  -1.972   3.246  0.00  0.00     0.418 HD
ENDBRANCH   4   7
TORSDOF 1
ENDMDL
