MODEL 1
REMARK minimizedAffinity 8.85231876
REMARK minimizedRMSD -1
REMARK  1 active torsions:
REMARK  status: ('A' for Active; 'I' for Inactive)
REMARK    1  A    between atoms: C1_2  and  C2_3 
ROOT
ATOM      1  C2  UNL d   1      -3.693   4.712   3.619  0.00  0.00    -0.076 A 
ATOM      2  C3  UNL d   1      -2.345   4.537   3.974  0.00  0.00     0.004 A 
ATOM      3  C4  UNL d   1      -1.833   5.090   5.147  0.00  0.00    -0.003 A 
ATOM      4  C5  UNL d   1      -2.663   5.827   5.984  0.00  0.00     0.000 A 
ATOM      5  C6  UNL d   1      -4.008   5.997   5.657  0.00  0.00     0.000 A 
ATOM      6  C7  UNL d   1      -4.543   5.432   4.487  0.00  0.00    -0.073 A 
ATOM      7  C8  UNL d   1      -5.999   5.651   4.179  0.00  0.00     0.078 C 
ENDROOT
BRANCH   1   8
ATOM      8  C1  UNL d   1      -4.185   4.112   2.322  0.00  0.00     0.053 C 
ATOM      9  C   UNL d   1      -3.337   4.527   1.129  0.00  0.00     0.018 C 
ENDBRANCH   1   8
TORSDOF 1
ENDMDL
