MODEL 1
REMARK minimizedAffinity 13.1551266
REMARK minimizedRMSD -1
REMARK  1 active torsions:
REMARK  status: ('A' for Active; 'I' for Inactive)
REMARK    1  A    between atoms: C1_2  and  C2_3 
ROOT
ATOM      1  C2  UNL d   1       2.905   0.267  -2.788  0.00  0.00    -0.076 A 
ATOM      2  C3  UNL d   1       3.145  -0.488  -1.627  0.00  0.00     0.004 A 
ATOM      3  C4  UNL d   1       2.097  -0.876  -0.794  0.00  0.00    -0.003 A 
ATOM      4  C5  UNL d   1       0.791  -0.516  -1.110  0.00  0.00     0.000 A 
ATOM      5  C6  UNL d   1       0.533   0.218  -2.267  0.00  0.00     0.000 A 
ATOM      6  C7  UNL d   1       1.577   0.603  -3.126  0.00  0.00    -0.073 A 
ATOM      7  C8  UNL d   1       1.241   1.399  -4.358  0.00  0.00     0.078 C 
ENDROOT
BRANCH   1   8
ATOM      8  C1  UNL d   1       4.084   0.683  -3.638  0.00  0.00     0.053 C 
ATOM      9  C   UNL d   1       5.394   0.082  -3.151  0.00  0.00     0.018 C 
ENDBRANCH   1   8
TORSDOF 1
ENDMDL
