MODEL 1
REMARK minimizedAffinity 15.1164322
REMARK minimizedRMSD -1
REMARK  1 active torsions:
REMARK  status: ('A' for Active; 'I' for Inactive)
REMARK    1  A    between atoms: C1_2  and  C2_3 
ROOT
ATOM      1  C2  UNL d   1       1.346  -0.449  -1.877  0.00  0.00    -0.076 A 
ATOM      2  C3  UNL d   1       2.445   0.014  -2.623  0.00  0.00     0.004 A 
ATOM      3  C4  UNL d   1       2.425   1.271  -3.225  0.00  0.00    -0.003 A 
ATOM      4  C5  UNL d   1       1.307   2.086  -3.090  0.00  0.00     0.000 A 
ATOM      5  C6  UNL d   1       0.216   1.651  -2.339  0.00  0.00     0.000 A 
ATOM      6  C7  UNL d   1       0.226   0.393  -1.712  0.00  0.00    -0.073 A 
ATOM      7  C8  UNL d   1      -0.981  -0.028  -0.919  0.00  0.00     0.078 C 
ENDROOT
BRANCH   1   8
ATOM      8  C1  UNL d   1       1.414  -1.832  -1.271  0.00  0.00     0.053 C 
ATOM      9  C   UNL d   1       0.634  -2.860  -2.076  0.00  0.00     0.018 C 
ENDBRANCH   1   8
TORSDOF 1
ENDMDL
