MODEL 1
REMARK minimizedAffinity 14.1457243
REMARK minimizedRMSD -1
REMARK  1 active torsions:
REMARK  status: ('A' for Active; 'I' for Inactive)
REMARK    1  A    between atoms: C1_2  and  C2_3 
ROOT
ATOM      1  C2  UNL d   1      -2.427   0.593   2.228  0.00  0.00    -0.076 A 
ATOM      2  C3  UNL d   1      -1.778   0.565   0.982  0.00  0.00     0.004 A 
ATOM      3  C4  UNL d   1      -1.930  -0.518   0.118  0.00  0.00    -0.003 A 
ATOM      4  C5  UNL d   1      -2.734  -1.591   0.487  0.00  0.00     0.000 A 
ATOM      5  C6  UNL d   1      -3.399  -1.572   1.713  0.00  0.00     0.000 A 
ATOM      6  C7  UNL d   1      -3.270  -0.480   2.588  0.00  0.00    -0.073 A 
ATOM      7  C8  UNL d   1      -4.005  -0.515   3.899  0.00  0.00     0.078 C 
ENDROOT
BRANCH   1   8
ATOM      8  C1  UNL d   1      -2.203   1.783   3.134  0.00  0.00     0.053 C 
ATOM      9  C   UNL d   1      -3.200   2.903   2.882  0.00  0.00     0.018 C 
ENDBRANCH   1   8
TORSDOF 1
ENDMDL
