MODEL 1
REMARK minimizedAffinity 0.459674269
REMARK minimizedRMSD -1
REMARK  1 active torsions:
REMARK  status: ('A' for Active; 'I' for Inactive)
REMARK    1  A    between atoms: C1_2  and  C2_3 
ROOT
ATOM      1  C2  UNL d   1       3.768  -5.962   3.335  0.00  0.00    -0.076 A 
ATOM      2  C3  UNL d   1       3.070  -5.919   4.554  0.00  0.00     0.004 A 
ATOM      3  C4  UNL d   1       3.750  -5.916   5.771  0.00  0.00    -0.003 A 
ATOM      4  C5  UNL d   1       5.140  -5.955   5.788  0.00  0.00     0.000 A 
ATOM      5  C6  UNL d   1       5.849  -5.979   4.588  0.00  0.00     0.000 A 
ATOM      6  C7  UNL d   1       5.179  -5.966   3.353  0.00  0.00    -0.073 A 
ATOM      7  C8  UNL d   1       5.995  -6.000   2.089  0.00  0.00     0.078 C 
ENDROOT
BRANCH   1   8
ATOM      8  C1  UNL d   1       2.976  -5.990   2.048  0.00  0.00     0.053 C 
ATOM      9  C   UNL d   1       1.880  -4.936   2.014  0.00  0.00     0.018 C 
ENDBRANCH   1   8
TORSDOF 1
ENDMDL
