MODEL 1
REMARK minimizedAffinity 15.5867329
REMARK minimizedRMSD -1
REMARK  1 active torsions:
REMARK  status: ('A' for Active; 'I' for Inactive)
REMARK    1  A    between atoms: C1_2  and  C2_3 
ROOT
ATOM      1  C2  UNL d   1       4.406  -2.345   4.444  0.00  0.00    -0.076 A 
ATOM      2  C3  UNL d   1       3.925  -3.639   4.178  0.00  0.00     0.004 A 
ATOM      3  C4  UNL d   1       4.479  -4.754   4.805  0.00  0.00    -0.003 A 
ATOM      4  C5  UNL d   1       5.522  -4.592   5.711  0.00  0.00     0.000 A 
ATOM      5  C6  UNL d   1       5.999  -3.314   6.000  0.00  0.00     0.000 A 
ATOM      6  C7  UNL d   1       5.441  -2.179   5.388  0.00  0.00    -0.073 A 
ATOM      7  C8  UNL d   1       6.000  -0.825   5.732  0.00  0.00     0.078 C 
ENDROOT
BRANCH   1   8
ATOM      8  C1  UNL d   1       3.784  -1.177   3.712  0.00  0.00     0.053 C 
ATOM      9  C   UNL d   1       4.754  -0.510   2.749  0.00  0.00     0.018 C 
ENDBRANCH   1   8
TORSDOF 1
ENDMDL
