MODEL 1
REMARK minimizedAffinity 10.514308
REMARK minimizedRMSD -1
REMARK  1 active torsions:
REMARK  status: ('A' for Active; 'I' for Inactive)
REMARK    1  A    between atoms: C1_2  and  C2_3 
ROOT
ATOM      1  C2  UNL d   1      -3.370   4.060   3.596  0.00  0.00    -0.076 A 
ATOM      2  C3  UNL d   1      -2.216   4.298   4.363  0.00  0.00     0.004 A 
ATOM      3  C4  UNL d   1      -2.211   5.260   5.372  0.00  0.00    -0.003 A 
ATOM      4  C5  UNL d   1      -3.360   5.999   5.630  0.00  0.00     0.000 A 
ATOM      5  C6  UNL d   1      -4.519   5.764   4.890  0.00  0.00     0.000 A 
ATOM      6  C7  UNL d   1      -4.545   4.787   3.881  0.00  0.00    -0.073 A 
ATOM      7  C8  UNL d   1      -5.820   4.580   3.110  0.00  0.00     0.078 C 
ENDROOT
BRANCH   1   8
ATOM      8  C1  UNL d   1      -3.307   3.023   2.497  0.00  0.00     0.053 C 
ATOM      9  C   UNL d   1      -2.538   1.779   2.913  0.00  0.00     0.018 C 
ENDBRANCH   1   8
TORSDOF 1
ENDMDL
