MODEL 1
REMARK minimizedAffinity 3.02339149
REMARK minimizedRMSD -1
REMARK  1 active torsions:
REMARK  status: ('A' for Active; 'I' for Inactive)
REMARK    1  A    between atoms: C1_2  and  C2_3 
ROOT
ATOM      1  C2  UNL d   1      -3.067   4.349   3.514  0.00  0.00    -0.076 A 
ATOM      2  C3  UNL d   1      -2.398   4.538   4.735  0.00  0.00     0.004 A 
ATOM      3  C4  UNL d   1      -2.934   5.357   5.728  0.00  0.00    -0.003 A 
ATOM      4  C5  UNL d   1      -4.149   6.000   5.514  0.00  0.00     0.000 A 
ATOM      5  C6  UNL d   1      -4.834   5.809   4.315  0.00  0.00     0.000 A 
ATOM      6  C7  UNL d   1      -4.315   4.974   3.311  0.00  0.00    -0.073 A 
ATOM      7  C8  UNL d   1      -5.094   4.809   2.035  0.00  0.00     0.078 C 
ENDROOT
BRANCH   1   8
ATOM      8  C1  UNL d   1      -2.423   3.471   2.464  0.00  0.00     0.053 C 
ATOM      9  C   UNL d   1      -2.704   1.993   2.689  0.00  0.00     0.018 C 
ENDBRANCH   1   8
TORSDOF 1
ENDMDL
