MODEL 1
REMARK minimizedAffinity -3.3612504
REMARK minimizedRMSD -1
REMARK  1 active torsions:
REMARK  status: ('A' for Active; 'I' for Inactive)
REMARK    1  A    between atoms: C1_2  and  C2_3 
ROOT
ATOM      1  C2  UNL d   1       5.348  -1.986   4.900  0.00  0.00    -0.076 A 
ATOM      2  C3  UNL d   1       6.000  -2.925   5.718  0.00  0.00     0.004 A 
ATOM      3  C4  UNL d   1       5.435  -4.176   5.964  0.00  0.00    -0.003 A 
ATOM      4  C5  UNL d   1       4.210  -4.507   5.396  0.00  0.00     0.000 A 
ATOM      5  C6  UNL d   1       3.558  -3.594   4.568  0.00  0.00     0.000 A 
ATOM      6  C7  UNL d   1       4.121  -2.335   4.297  0.00  0.00    -0.073 A 
ATOM      7  C8  UNL d   1       3.372  -1.387   3.401  0.00  0.00     0.078 C 
ENDROOT
BRANCH   1   8
ATOM      8  C1  UNL d   1       5.995  -0.635   4.691  0.00  0.00     0.053 C 
ATOM      9  C   UNL d   1       5.999   0.211   5.955  0.00  0.00     0.018 C 
ENDBRANCH   1   8
TORSDOF 1
ENDMDL
