MODEL 1
REMARK minimizedAffinity 15.544322
REMARK minimizedRMSD -1
REMARK  1 active torsions:
REMARK  status: ('A' for Active; 'I' for Inactive)
REMARK    1  A    between atoms: C1_2  and  C2_3 
ROOT
ATOM      1  C2  UNL d   1      -3.298  -1.424   1.248  0.00  0.00    -0.076 A 
ATOM      2  C3  UNL d   1      -3.870  -1.544   2.526  0.00  0.00     0.004 A 
ATOM      3  C4  UNL d   1      -3.833  -0.485   3.431  0.00  0.00    -0.003 A 
ATOM      4  C5  UNL d   1      -3.222   0.712   3.073  0.00  0.00     0.000 A 
ATOM      5  C6  UNL d   1      -2.665   0.855   1.803  0.00  0.00     0.000 A 
ATOM      6  C7  UNL d   1      -2.709  -0.198   0.872  0.00  0.00    -0.073 A 
ATOM      7  C8  UNL d   1      -2.087   0.009  -0.482  0.00  0.00     0.078 C 
ENDROOT
BRANCH   1   8
ATOM      8  C1  UNL d   1      -3.345  -2.615   0.318  0.00  0.00     0.053 C 
ATOM      9  C   UNL d   1      -4.600  -2.635  -0.541  0.00  0.00     0.018 C 
ENDBRANCH   1   8
TORSDOF 1
ENDMDL
