MODEL 1
REMARK minimizedAffinity 3.76112652
REMARK minimizedRMSD -1
REMARK  1 active torsions:
REMARK  status: ('A' for Active; 'I' for Inactive)
REMARK    1  A    between atoms: C1_2  and  C2_3 
ROOT
ATOM      1  C2  UNL d   1       2.304   3.109  -1.527  0.00  0.00    -0.076 A 
ATOM      2  C3  UNL d   1       1.657   2.028  -0.904  0.00  0.00     0.004 A 
ATOM      3  C4  UNL d   1       1.213   0.934  -1.645  0.00  0.00    -0.003 A 
ATOM      4  C5  UNL d   1       1.410   0.903  -3.021  0.00  0.00     0.000 A 
ATOM      5  C6  UNL d   1       2.065   1.959  -3.654  0.00  0.00     0.000 A 
ATOM      6  C7  UNL d   1       2.533   3.062  -2.919  0.00  0.00    -0.073 A 
ATOM      7  C8  UNL d   1       3.229   4.176  -3.653  0.00  0.00     0.078 C 
ENDROOT
BRANCH   1   8
ATOM      8  C1  UNL d   1       2.739   4.281  -0.676  0.00  0.00     0.053 C 
ATOM      9  C   UNL d   1       2.828   3.927   0.801  0.00  0.00     0.018 C 
ENDBRANCH   1   8
TORSDOF 1
ENDMDL
