MODEL 1
REMARK minimizedAffinity 11.2224159
REMARK minimizedRMSD -1
REMARK  1 active torsions:
REMARK  status: ('A' for Active; 'I' for Inactive)
REMARK    1  A    between atoms: C1_2  and  C2_3 
ROOT
ATOM      1  C2  UNL d   1       1.547   0.162  -4.072  0.00  0.00    -0.076 A 
ATOM      2  C3  UNL d   1       2.091   1.005  -3.088  0.00  0.00     0.004 A 
ATOM      3  C4  UNL d   1       2.325   0.539  -1.795  0.00  0.00    -0.003 A 
ATOM      4  C5  UNL d   1       2.020  -0.777  -1.466  0.00  0.00     0.000 A 
ATOM      5  C6  UNL d   1       1.496  -1.632  -2.435  0.00  0.00     0.000 A 
ATOM      6  C7  UNL d   1       1.268  -1.183  -3.748  0.00  0.00    -0.073 A 
ATOM      7  C8  UNL d   1       0.696  -2.146  -4.751  0.00  0.00     0.078 C 
ENDROOT
BRANCH   1   8
ATOM      8  C1  UNL d   1       1.289   0.730  -5.450  0.00  0.00     0.053 C 
ATOM      9  C   UNL d   1       1.061   2.234  -5.426  0.00  0.00     0.018 C 
ENDBRANCH   1   8
TORSDOF 1
ENDMDL
