MODEL 1
REMARK minimizedAffinity 16.1768665
REMARK minimizedRMSD -1
REMARK  1 active torsions:
REMARK  status: ('A' for Active; 'I' for Inactive)
REMARK    1  A    between atoms: C1_2  and  C2_3 
ROOT
ATOM      1  C2  UNL d   1       2.484   4.633   0.121  0.00  0.00    -0.076 A 
ATOM      2  C3  UNL d   1       2.718   4.211   1.442  0.00  0.00     0.004 A 
ATOM      3  C4  UNL d   1       4.014   4.111   1.944  0.00  0.00    -0.003 A 
ATOM      4  C5  UNL d   1       5.098   4.431   1.134  0.00  0.00     0.000 A 
ATOM      5  C6  UNL d   1       4.884   4.868  -0.173  0.00  0.00     0.000 A 
ATOM      6  C7  UNL d   1       3.583   4.990  -0.690  0.00  0.00    -0.073 A 
ATOM      7  C8  UNL d   1       3.410   5.460  -2.108  0.00  0.00     0.078 C 
ENDROOT
BRANCH   1   8
ATOM      8  C1  UNL d   1       1.058   4.696  -0.377  0.00  0.00     0.053 C 
ATOM      9  C   UNL d   1       0.368   6.000  -0.005  0.00  0.00     0.018 C 
ENDBRANCH   1   8
TORSDOF 1
ENDMDL
