MODEL 1
REMARK minimizedAffinity 6.09020853
REMARK minimizedRMSD -1
REMARK  2 active torsions:
REMARK  status: ('A' for Active; 'I' for Inactive)
REMARK    1  A    between atoms: C2'_3  and  C1'_4 
REMARK    2  A    between atoms: C1'_4  and  C1_5 
ROOT
ATOM      1  C1  I4B d   1       3.139  -1.559   4.245  0.00  0.00    -0.075 A 
ATOM      2  C2  I4B d   1       3.172  -0.275   3.760  0.00  0.00     0.003 A 
ATOM      3  C3  I4B d   1       2.355   0.093   2.663  0.00  0.00     0.002 A 
ATOM      4  C4  I4B d   1       1.565  -0.860   2.054  0.00  0.00    -0.004 A 
ATOM      5  C5  I4B d   1       1.515  -2.155   2.562  0.00  0.00     0.002 A 
ATOM      6  C6  I4B d   1       2.298  -2.504   3.672  0.00  0.00     0.003 A 
ENDROOT
BRANCH   1   7
ATOM      7  C1' I4B d   1       4.038  -1.922   5.384  0.00  0.00     0.060 C 
BRANCH   7   8
ATOM      8  C2' I4B d   1       5.158  -2.784   4.838  0.00  0.00    -0.013 C 
ATOM      9  C4' I4B d   1       5.998  -2.023   3.846  0.00  0.00     0.013 C 
ATOM     10  C3' I4B d   1       5.984  -3.258   5.996  0.00  0.00     0.013 C 
ENDBRANCH   7   8
ENDBRANCH   1   7
TORSDOF 2
ENDMDL
