MODEL 1
REMARK minimizedAffinity 15.4303102
REMARK minimizedRMSD -1
REMARK  2 active torsions:
REMARK  status: ('A' for Active; 'I' for Inactive)
REMARK    1  A    between atoms: C2'_3  and  C1'_4 
REMARK    2  A    between atoms: C1'_4  and  C1_5 
ROOT
ATOM      1  C1  I4B d   1       2.702  -1.454   3.734  0.00  0.00    -0.075 A 
ATOM      2  C2  I4B d   1       4.004  -1.889   3.707  0.00  0.00     0.003 A 
ATOM      3  C3  I4B d   1       4.563  -2.533   4.837  0.00  0.00     0.002 A 
ATOM      4  C4  I4B d   1       3.807  -2.675   5.983  0.00  0.00    -0.004 A 
ATOM      5  C5  I4B d   1       2.480  -2.254   6.000  0.00  0.00     0.002 A 
ATOM      6  C6  I4B d   1       1.920  -1.650   4.864  0.00  0.00     0.003 A 
ENDROOT
BRANCH   1   7
ATOM      7  C1' I4B d   1       2.153  -0.748   2.534  0.00  0.00     0.060 C 
BRANCH   7   8
ATOM      8  C2' I4B d   1       3.046   0.441   2.244  0.00  0.00    -0.013 C 
ATOM      9  C4' I4B d   1       3.328   0.564   0.770  0.00  0.00     0.013 C 
ATOM     10  C3' I4B d   1       2.364   1.670   2.768  0.00  0.00     0.013 C 
ENDBRANCH   7   8
ENDBRANCH   1   7
TORSDOF 2
ENDMDL
