MODEL 1
REMARK minimizedAffinity 0.939873338
REMARK minimizedRMSD -1
REMARK  2 active torsions:
REMARK  status: ('A' for Active; 'I' for Inactive)
REMARK    1  A    between atoms: C2'_3  and  C1'_4 
REMARK    2  A    between atoms: C1'_4  and  C1_5 
ROOT
ATOM      1  C1  I4B d   1       3.603  -2.555   3.957  0.00  0.00    -0.075 A 
ATOM      2  C2  I4B d   1       4.763  -2.163   3.336  0.00  0.00     0.003 A 
ATOM      3  C3  I4B d   1       5.988  -2.170   4.045  0.00  0.00     0.002 A 
ATOM      4  C4  I4B d   1       6.000  -2.526   5.378  0.00  0.00    -0.004 A 
ATOM      5  C5  I4B d   1       4.827  -2.945   6.000  0.00  0.00     0.002 A 
ATOM      6  C6  I4B d   1       3.623  -2.972   5.281  0.00  0.00     0.003 A 
ENDROOT
BRANCH   1   7
ATOM      7  C1' I4B d   1       2.321  -2.503   3.188  0.00  0.00     0.060 C 
BRANCH   7   8
ATOM      8  C2' I4B d   1       1.919  -1.049   3.048  0.00  0.00    -0.013 C 
ATOM      9  C4' I4B d   1       2.109  -0.304   4.342  0.00  0.00     0.013 C 
ATOM     10  C3' I4B d   1       2.742  -0.445   1.949  0.00  0.00     0.013 C 
ENDBRANCH   7   8
ENDBRANCH   1   7
TORSDOF 2
ENDMDL
