MODEL 1
REMARK minimizedAffinity 9.60029125
REMARK minimizedRMSD -1
REMARK  2 active torsions:
REMARK  status: ('A' for Active; 'I' for Inactive)
REMARK    1  A    between atoms: C2'_3  and  C1'_4 
REMARK    2  A    between atoms: C1'_4  and  C1_5 
ROOT
ATOM      1  C1  I4B d   1       3.568  -2.253   3.928  0.00  0.00    -0.075 A 
ATOM      2  C2  I4B d   1       3.586  -2.290   5.300  0.00  0.00     0.003 A 
ATOM      3  C3  I4B d   1       4.816  -2.235   5.999  0.00  0.00     0.002 A 
ATOM      4  C4  I4B d   1       5.999  -2.196   5.290  0.00  0.00    -0.004 A 
ATOM      5  C5  I4B d   1       5.979  -2.136   3.899  0.00  0.00     0.002 A 
ATOM      6  C6  I4B d   1       4.755  -2.152   3.214  0.00  0.00     0.003 A 
ENDROOT
BRANCH   1   7
ATOM      7  C1' I4B d   1       2.253  -2.346   3.221  0.00  0.00     0.060 C 
BRANCH   7   8
ATOM      8  C2' I4B d   1       1.761  -0.936   2.965  0.00  0.00    -0.013 C 
ATOM      9  C4' I4B d   1       2.898  -0.020   2.594  0.00  0.00     0.013 C 
ATOM     10  C3' I4B d   1       0.735  -0.995   1.873  0.00  0.00     0.013 C 
ENDBRANCH   7   8
ENDBRANCH   1   7
TORSDOF 2
ENDMDL
