MODEL 1
REMARK minimizedAffinity 4.05388641
REMARK minimizedRMSD -1
REMARK  2 active torsions:
REMARK  status: ('A' for Active; 'I' for Inactive)
REMARK    1  A    between atoms: C2'_3  and  C1'_4 
REMARK    2  A    between atoms: C1'_4  and  C1_5 
ROOT
ATOM      1  C1  I4B d   1       3.560  -1.916   4.104  0.00  0.00    -0.075 A 
ATOM      2  C2  I4B d   1       3.623  -2.296   5.421  0.00  0.00     0.003 A 
ATOM      3  C3  I4B d   1       4.864  -2.657   6.000  0.00  0.00     0.002 A 
ATOM      4  C4  I4B d   1       6.000  -2.673   5.217  0.00  0.00    -0.004 A 
ATOM      5  C5  I4B d   1       5.938  -2.266   3.887  0.00  0.00     0.002 A 
ATOM      6  C6  I4B d   1       4.712  -1.872   3.330  0.00  0.00     0.003 A 
ENDROOT
BRANCH   1   7
ATOM      7  C1' I4B d   1       2.228  -1.572   3.516  0.00  0.00     0.060 C 
BRANCH   7   8
ATOM      8  C2' I4B d   1       2.466  -0.710   2.293  0.00  0.00    -0.013 C 
ATOM      9  C4' I4B d   1       1.570  -1.121   1.154  0.00  0.00     0.013 C 
ATOM     10  C3' I4B d   1       2.230   0.719   2.680  0.00  0.00     0.013 C 
ENDBRANCH   7   8
ENDBRANCH   1   7
TORSDOF 2
ENDMDL
