MODEL 1
REMARK minimizedAffinity 11.6413345
REMARK minimizedRMSD -1
REMARK  2 active torsions:
REMARK  status: ('A' for Active; 'I' for Inactive)
REMARK    1  A    between atoms: C2'_3  and  C1'_4 
REMARK    2  A    between atoms: C1'_4  and  C1_5 
ROOT
ATOM      1  C1  I4B d   1       2.896  -2.245   4.116  0.00  0.00    -0.075 A 
ATOM      2  C2  I4B d   1       3.752  -2.041   3.063  0.00  0.00     0.003 A 
ATOM      3  C3  I4B d   1       3.414  -1.126   2.037  0.00  0.00     0.002 A 
ATOM      4  C4  I4B d   1       2.197  -0.477   2.078  0.00  0.00    -0.004 A 
ATOM      5  C5  I4B d   1       1.340  -0.668   3.159  0.00  0.00     0.002 A 
ATOM      6  C6  I4B d   1       1.697  -1.547   4.191  0.00  0.00     0.003 A 
ENDROOT
BRANCH   1   7
ATOM      7  C1' I4B d   1       3.269  -3.244   5.166  0.00  0.00     0.060 C 
BRANCH   7   8
ATOM      8  C2' I4B d   1       2.577  -4.550   4.834  0.00  0.00    -0.013 C 
ATOM      9  C4' I4B d   1       3.123  -5.149   3.565  0.00  0.00     0.013 C 
ATOM     10  C3' I4B d   1       2.762  -5.480   5.995  0.00  0.00     0.013 C 
ENDBRANCH   7   8
ENDBRANCH   1   7
TORSDOF 2
ENDMDL
