MODEL 1
REMARK minimizedAffinity -1.17395163
REMARK minimizedRMSD -1
REMARK  2 active torsions:
REMARK  status: ('A' for Active; 'I' for Inactive)
REMARK    1  A    between atoms: C2'_3  and  C1'_4 
REMARK    2  A    between atoms: C1'_4  and  C1_5 
ROOT
ATOM      1  C1  I4B d   1       5.542  -0.913  -4.865  0.00  0.00    -0.075 A 
ATOM      2  C2  I4B d   1       4.750  -0.349  -3.896  0.00  0.00     0.003 A 
ATOM      3  C3  I4B d   1       4.393   1.019  -3.975  0.00  0.00     0.002 A 
ATOM      4  C4  I4B d   1       4.888   1.793  -5.005  0.00  0.00    -0.004 A 
ATOM      5  C5  I4B d   1       5.673   1.214  -5.998  0.00  0.00     0.002 A 
ATOM      6  C6  I4B d   1       5.991  -0.151  -5.935  0.00  0.00     0.003 A 
ENDROOT
BRANCH   1   7
ATOM      7  C1' I4B d   1       5.926  -2.353  -4.733  0.00  0.00     0.060 C 
BRANCH   7   8
ATOM      8  C2' I4B d   1       5.450  -3.078  -5.975  0.00  0.00    -0.013 C 
ATOM      9  C4' I4B d   1       5.945  -4.501  -5.999  0.00  0.00     0.013 C 
ATOM     10  C3' I4B d   1       3.952  -3.026  -5.996  0.00  0.00     0.013 C 
ENDBRANCH   7   8
ENDBRANCH   1   7
TORSDOF 2
ENDMDL
