MODEL 1
REMARK minimizedAffinity -2.07869983
REMARK minimizedRMSD -1
REMARK  1 active torsions:
REMARK  status: ('A' for Active; 'I' for Inactive)
REMARK    1  A    between atoms: C1_2  and  C2_3 
ROOT
ATOM      1  C2  UNL d   1       3.612   2.657  -5.494  0.00  0.00    -0.073 A 
ATOM      2  C3  UNL d   1       4.735   3.453  -5.746  0.00  0.00    -0.002 A 
ATOM      3  C4  UNL d   1       4.589   4.818  -5.998  0.00  0.00     0.004 A 
ATOM      4  C5  UNL d   1       3.322   5.401  -5.995  0.00  0.00    -0.004 A 
ATOM      5  C6  UNL d   1       2.189   4.624  -5.734  0.00  0.00    -0.075 A 
ATOM      6  C7  UNL d   1       0.819   5.236  -5.729  0.00  0.00     0.076 C 
ATOM      7  C8  UNL d   1       2.343   3.254  -5.484  0.00  0.00     0.001 A 
ENDROOT
BRANCH   1   8
ATOM      8  C1  UNL d   1       3.764   1.184  -5.214  0.00  0.00     0.053 C 
ATOM      9  C   UNL d   1       4.150   0.916  -3.768  0.00  0.00     0.018 C 
ENDBRANCH   1   8
TORSDOF 1
ENDMDL
