MODEL 1
REMARK minimizedAffinity -3.17773509
REMARK minimizedRMSD -1
REMARK  1 active torsions:
REMARK  status: ('A' for Active; 'I' for Inactive)
REMARK    1  A    between atoms: C1_2  and  C2_3 
ROOT
ATOM      1  C2  UNL d   1       2.485   5.023  -5.495  0.00  0.00    -0.073 A 
ATOM      2  C3  UNL d   1       3.643   5.634  -5.989  0.00  0.00    -0.002 A 
ATOM      3  C4  UNL d   1       4.855   4.942  -6.000  0.00  0.00     0.004 A 
ATOM      4  C5  UNL d   1       4.920   3.632  -5.525  0.00  0.00    -0.004 A 
ATOM      5  C6  UNL d   1       3.770   3.000  -5.039  0.00  0.00    -0.075 A 
ATOM      6  C7  UNL d   1       3.824   1.592  -4.523  0.00  0.00     0.076 C 
ATOM      7  C8  UNL d   1       2.558   3.703  -5.028  0.00  0.00     0.001 A 
ENDROOT
BRANCH   1   8
ATOM      8  C1  UNL d   1       1.173   5.764  -5.486  0.00  0.00     0.053 C 
ATOM      9  C   UNL d   1       0.025   4.897  -5.980  0.00  0.00     0.018 C 
ENDBRANCH   1   8
TORSDOF 1
ENDMDL
