MODEL 1
REMARK minimizedAffinity 3.83163214
REMARK minimizedRMSD -1
REMARK  1 active torsions:
REMARK  status: ('A' for Active; 'I' for Inactive)
REMARK    1  A    between atoms: C1_2  and  C2_3 
ROOT
ATOM      1  C2  UNL d   1       4.133   2.548  -5.691  0.00  0.00    -0.073 A 
ATOM      2  C3  UNL d   1       5.150   3.482  -5.922  0.00  0.00    -0.002 A 
ATOM      3  C4  UNL d   1       4.853   4.843  -5.999  0.00  0.00     0.004 A 
ATOM      4  C5  UNL d   1       3.539   5.285  -5.840  0.00  0.00    -0.004 A 
ATOM      5  C6  UNL d   1       2.511   4.368  -5.597  0.00  0.00    -0.075 A 
ATOM      6  C7  UNL d   1       1.093   4.827  -5.426  0.00  0.00     0.076 C 
ATOM      7  C8  UNL d   1       2.817   3.003  -5.523  0.00  0.00     0.001 A 
ENDROOT
BRANCH   1   8
ATOM      8  C1  UNL d   1       4.450   1.078  -5.601  0.00  0.00     0.053 C 
ATOM      9  C   UNL d   1       3.194   0.221  -5.621  0.00  0.00     0.018 C 
ENDBRANCH   1   8
TORSDOF 1
ENDMDL
