MODEL 1
REMARK minimizedAffinity -2.94707394
REMARK minimizedRMSD -1
REMARK  1 active torsions:
REMARK  status: ('A' for Active; 'I' for Inactive)
REMARK    1  A    between atoms: C1_2  and  C2_3 
ROOT
ATOM      1  C2  UNL d   1       2.499   3.622  -5.641  0.00  0.00    -0.073 A 
ATOM      2  C3  UNL d   1       2.785   2.433  -4.960  0.00  0.00    -0.002 A 
ATOM      3  C4  UNL d   1       4.101   2.112  -4.625  0.00  0.00     0.004 A 
ATOM      4  C5  UNL d   1       5.142   2.978  -4.959  0.00  0.00    -0.004 A 
ATOM      5  C6  UNL d   1       4.875   4.176  -5.629  0.00  0.00    -0.075 A 
ATOM      6  C7  UNL d   1       5.984   5.118  -5.998  0.00  0.00     0.076 C 
ATOM      7  C8  UNL d   1       3.551   4.491  -5.965  0.00  0.00     0.001 A 
ENDROOT
BRANCH   1   8
ATOM      8  C1  UNL d   1       1.079   3.976  -5.999  0.00  0.00     0.053 C 
ATOM      9  C   UNL d   1       0.448   4.908  -4.977  0.00  0.00     0.018 C 
ENDBRANCH   1   8
TORSDOF 1
ENDMDL
