MODEL 1
REMARK minimizedAffinity -1.74474633
REMARK minimizedRMSD -1
REMARK  1 active torsions:
REMARK  status: ('A' for Active; 'I' for Inactive)
REMARK    1  A    between atoms: C1_2  and  C2_3 
ROOT
ATOM      1  C2  UNL d   1       3.566   3.514  -5.950  0.00  0.00    -0.073 A 
ATOM      2  C3  UNL d   1       4.308   4.701  -5.964  0.00  0.00    -0.002 A 
ATOM      3  C4  UNL d   1       3.660   5.937  -5.992  0.00  0.00     0.004 A 
ATOM      4  C5  UNL d   1       2.267   5.999  -6.000  0.00  0.00    -0.004 A 
ATOM      5  C6  UNL d   1       1.508   4.825  -5.974  0.00  0.00    -0.075 A 
ATOM      6  C7  UNL d   1       0.008   4.875  -5.983  0.00  0.00     0.076 C 
ATOM      7  C8  UNL d   1       2.166   3.587  -5.948  0.00  0.00     0.001 A 
ENDROOT
BRANCH   1   8
ATOM      8  C1  UNL d   1       4.261   2.178  -5.913  0.00  0.00     0.053 C 
ATOM      9  C   UNL d   1       3.409   1.111  -5.244  0.00  0.00     0.018 C 
ENDBRANCH   1   8
TORSDOF 1
ENDMDL
