MODEL 1
REMARK minimizedAffinity 0.455485731
REMARK minimizedRMSD -1
REMARK  1 active torsions:
REMARK  status: ('A' for Active; 'I' for Inactive)
REMARK    1  A    between atoms: C1_2  and  C2_3 
ROOT
ATOM      1  C2  UNL d   1       2.866   5.140  -5.674  0.00  0.00    -0.073 A 
ATOM      2  C3  UNL d   1       4.080   5.757  -6.000  0.00  0.00    -0.002 A 
ATOM      3  C4  UNL d   1       5.272   5.032  -5.961  0.00  0.00     0.004 A 
ATOM      4  C5  UNL d   1       5.262   3.684  -5.603  0.00  0.00    -0.004 A 
ATOM      5  C6  UNL d   1       4.058   3.046  -5.287  0.00  0.00    -0.075 A 
ATOM      6  C7  UNL d   1       4.031   1.597  -4.898  0.00  0.00     0.076 C 
ATOM      7  C8  UNL d   1       2.866   3.782  -5.325  0.00  0.00     0.001 A 
ENDROOT
BRANCH   1   8
ATOM      8  C1  UNL d   1       1.576   5.917  -5.721  0.00  0.00     0.053 C 
ATOM      9  C   UNL d   1       0.380   5.020  -6.000  0.00  0.00     0.018 C 
ENDBRANCH   1   8
TORSDOF 1
ENDMDL
