MODEL 1
REMARK minimizedAffinity 0.732705653
REMARK minimizedRMSD -1
REMARK  1 active torsions:
REMARK  status: ('A' for Active; 'I' for Inactive)
REMARK    1  A    between atoms: C1_2  and  C2_3 
ROOT
ATOM      1  C2  UNL d   1       4.103   2.922  -5.987  0.00  0.00    -0.073 A 
ATOM      2  C3  UNL d   1       5.042   3.960  -5.989  0.00  0.00    -0.002 A 
ATOM      3  C4  UNL d   1       4.622   5.290  -5.996  0.00  0.00     0.004 A 
ATOM      4  C5  UNL d   1       3.261   5.597  -5.995  0.00  0.00    -0.004 A 
ATOM      5  C6  UNL d   1       2.308   4.574  -5.982  0.00  0.00    -0.075 A 
ATOM      6  C7  UNL d   1       0.840   4.887  -5.983  0.00  0.00     0.076 C 
ATOM      7  C8  UNL d   1       2.737   3.240  -5.977  0.00  0.00     0.001 A 
ENDROOT
BRANCH   1   8
ATOM      8  C1  UNL d   1       4.552   1.483  -5.972  0.00  0.00     0.053 C 
ATOM      9  C   UNL d   1       3.376   0.519  -5.982  0.00  0.00     0.018 C 
ENDBRANCH   1   8
TORSDOF 1
ENDMDL
