MODEL 1
REMARK minimizedAffinity -1.67935932
REMARK minimizedRMSD -1
REMARK  1 active torsions:
REMARK  status: ('A' for Active; 'I' for Inactive)
REMARK    1  A    between atoms: C1_2  and  C2_3 
ROOT
ATOM      1  C2  UNL d   1       3.406   3.171  -5.742  0.00  0.00    -0.073 A 
ATOM      2  C3  UNL d   1       2.217   3.908  -5.793  0.00  0.00    -0.002 A 
ATOM      3  C4  UNL d   1       2.254   5.299  -5.900  0.00  0.00     0.004 A 
ATOM      4  C5  UNL d   1       3.477   5.966  -5.965  0.00  0.00    -0.004 A 
ATOM      5  C6  UNL d   1       4.676   5.246  -5.928  0.00  0.00    -0.075 A 
ATOM      6  C7  UNL d   1       6.000   5.949  -5.994  0.00  0.00     0.076 C 
ATOM      7  C8  UNL d   1       4.630   3.850  -5.817  0.00  0.00     0.001 A 
ENDROOT
BRANCH   1   8
ATOM      8  C1  UNL d   1       3.371   1.669  -5.633  0.00  0.00     0.053 C 
ATOM      9  C   UNL d   1       4.133   1.168  -4.416  0.00  0.00     0.018 C 
ENDBRANCH   1   8
TORSDOF 1
ENDMDL
