MODEL 1
REMARK minimizedAffinity -3.6011405
REMARK minimizedRMSD -1
REMARK  1 active torsions:
REMARK  status: ('A' for Active; 'I' for Inactive)
REMARK    1  A    between atoms: C1_2  and  C2_3 
ROOT
ATOM      1  C2  UNL d   1       4.701   2.983  -5.755  0.00  0.00    -0.073 A 
ATOM      2  C3  UNL d   1       5.927   3.600  -5.480  0.00  0.00    -0.002 A 
ATOM      3  C4  UNL d   1       5.994   4.980  -5.284  0.00  0.00     0.004 A 
ATOM      4  C5  UNL d   1       4.837   5.756  -5.354  0.00  0.00    -0.004 A 
ATOM      5  C6  UNL d   1       3.601   5.157  -5.617  0.00  0.00    -0.075 A 
ATOM      6  C7  UNL d   1       2.347   5.978  -5.698  0.00  0.00     0.076 C 
ATOM      7  C8  UNL d   1       3.542   3.771  -5.815  0.00  0.00     0.001 A 
ENDROOT
BRANCH   1   8
ATOM      8  C1  UNL d   1       4.622   1.493  -5.961  0.00  0.00     0.053 C 
ATOM      9  C   UNL d   1       6.000   0.850  -6.000  0.00  0.00     0.018 C 
ENDBRANCH   1   8
TORSDOF 1
ENDMDL
