MODEL 1
REMARK minimizedAffinity 0.797835469
REMARK minimizedRMSD -1
REMARK  1 active torsions:
REMARK  status: ('A' for Active; 'I' for Inactive)
REMARK    1  A    between atoms: C1_2  and  C2_3 
ROOT
ATOM      1  C2  UNL d   1       3.527   4.932  -5.620  0.00  0.00    -0.073 A 
ATOM      2  C3  UNL d   1       2.219   5.298  -5.280  0.00  0.00    -0.002 A 
ATOM      3  C4  UNL d   1       1.220   4.329  -5.181  0.00  0.00     0.004 A 
ATOM      4  C5  UNL d   1       1.518   2.986  -5.413  0.00  0.00    -0.004 A 
ATOM      5  C6  UNL d   1       2.822   2.600  -5.742  0.00  0.00    -0.075 A 
ATOM      6  C7  UNL d   1       3.159   1.160  -5.997  0.00  0.00     0.076 C 
ATOM      7  C8  UNL d   1       3.819   3.579  -5.843  0.00  0.00     0.001 A 
ENDROOT
BRANCH   1   8
ATOM      8  C1  UNL d   1       4.611   5.974  -5.723  0.00  0.00     0.053 C 
ATOM      9  C   UNL d   1       5.972   5.356  -5.998  0.00  0.00     0.018 C 
ENDBRANCH   1   8
TORSDOF 1
ENDMDL
