MODEL 1
REMARK minimizedAffinity 1.71252489
REMARK minimizedRMSD -1
REMARK  1 active torsions:
REMARK  status: ('A' for Active; 'I' for Inactive)
REMARK    1  A    between atoms: C1_2  and  C2_3 
ROOT
ATOM      1  C2  UNL d   1      -0.462  -1.006   0.824  0.00  0.00    -0.073 A 
ATOM      2  C3  UNL d   1       0.427  -2.046   0.529  0.00  0.00    -0.002 A 
ATOM      3  C4  UNL d   1       1.802  -1.864   0.685  0.00  0.00     0.004 A 
ATOM      4  C5  UNL d   1       2.301  -0.644   1.143  0.00  0.00    -0.004 A 
ATOM      5  C6  UNL d   1       1.427   0.403   1.454  0.00  0.00    -0.075 A 
ATOM      6  C7  UNL d   1       1.948   1.721   1.946  0.00  0.00     0.076 C 
ATOM      7  C8  UNL d   1       0.048   0.213   1.292  0.00  0.00     0.001 A 
ENDROOT
BRANCH   1   8
ATOM      8  C1  UNL d   1      -1.948  -1.201   0.664  0.00  0.00     0.053 C 
ATOM      9  C   UNL d   1      -2.369  -1.190  -0.797  0.00  0.00     0.018 C 
ENDBRANCH   1   8
TORSDOF 1
ENDMDL
