MODEL 1
REMARK minimizedAffinity 4.18865919
REMARK minimizedRMSD -1
REMARK  1 active torsions:
REMARK  status: ('A' for Active; 'I' for Inactive)
REMARK    1  A    between atoms: C1_2  and  C2_3 
ROOT
ATOM      1  C2  UNL d   1       3.390   0.561   1.594  0.00  0.00    -0.073 A 
ATOM      2  C3  UNL d   1       4.618  -0.040   1.890  0.00  0.00    -0.002 A 
ATOM      3  C4  UNL d   1       4.877  -0.518   3.175  0.00  0.00     0.004 A 
ATOM      4  C5  UNL d   1       3.911  -0.405   4.174  0.00  0.00    -0.004 A 
ATOM      5  C6  UNL d   1       2.673   0.183   3.895  0.00  0.00    -0.075 A 
ATOM      6  C7  UNL d   1       1.623   0.314   4.959  0.00  0.00     0.076 C 
ATOM      7  C8  UNL d   1       2.421   0.662   2.602  0.00  0.00     0.001 A 
ENDROOT
BRANCH   1   8
ATOM      8  C1  UNL d   1       3.102   1.072   0.206  0.00  0.00     0.053 C 
ATOM      9  C   UNL d   1       3.065   2.592   0.154  0.00  0.00     0.018 C 
ENDBRANCH   1   8
TORSDOF 1
ENDMDL
