MODEL 1
REMARK minimizedAffinity 3.57082319
REMARK minimizedRMSD -1
REMARK  1 active torsions:
REMARK  status: ('A' for Active; 'I' for Inactive)
REMARK    1  A    between atoms: C1_2  and  C2_3 
ROOT
ATOM      1  C2  UNL d   1       2.363   0.962   1.897  0.00  0.00    -0.073 A 
ATOM      2  C3  UNL d   1       1.516   0.347   2.826  0.00  0.00    -0.002 A 
ATOM      3  C4  UNL d   1       0.335   0.973   3.226  0.00  0.00     0.004 A 
ATOM      4  C5  UNL d   1      -0.015   2.216   2.697  0.00  0.00    -0.004 A 
ATOM      5  C6  UNL d   1       0.813   2.841   1.759  0.00  0.00    -0.075 A 
ATOM      6  C7  UNL d   1       0.452   4.178   1.182  0.00  0.00     0.076 C 
ATOM      7  C8  UNL d   1       1.998   2.207   1.364  0.00  0.00     0.001 A 
ENDROOT
BRANCH   1   8
ATOM      8  C1  UNL d   1       3.636   0.287   1.457  0.00  0.00     0.053 C 
ATOM      9  C   UNL d   1       4.871   1.056   1.898  0.00  0.00     0.018 C 
ENDBRANCH   1   8
TORSDOF 1
ENDMDL
