MODEL 1
REMARK minimizedAffinity -1.30469942
REMARK minimizedRMSD -1
REMARK  0 active torsions:
REMARK  status: ('A' for Active; 'I' for Inactive)
ROOT
ATOM      1  C   UNL d   1      -1.794  -1.375  -5.755  0.00  0.00     0.077 C 
ATOM      2  C1  UNL d   1      -0.838  -0.570  -4.926  0.00  0.00    -0.074 A 
ATOM      3  C2  UNL d   1      -0.474   0.727  -5.303  0.00  0.00    -0.005 A 
ATOM      4  C3  UNL d   1       0.409   1.467  -4.517  0.00  0.00     0.006 A 
ATOM      5  C4  UNL d   1       0.935   0.919  -3.347  0.00  0.00    -0.005 A 
ATOM      6  C5  UNL d   1       0.582  -0.376  -2.952  0.00  0.00    -0.074 A 
ATOM      7  C6  UNL d   1       1.132  -0.976  -1.692  0.00  0.00     0.077 C 
ATOM      8  C7  UNL d   1      -0.311  -1.110  -3.744  0.00  0.00    -0.001 A 
ENDROOT
TORSDOF 0
ENDMDL
