MODEL 1
REMARK minimizedAffinity -3.51400399
REMARK minimizedRMSD -1
REMARK  0 active torsions:
REMARK  status: ('A' for Active; 'I' for Inactive)
ROOT
ATOM      1  C   UNL d   1       1.158   0.828  -1.847  0.00  0.00     0.077 C 
ATOM      2  C1  UNL d   1       0.195   0.175  -0.901  0.00  0.00    -0.074 A 
ATOM      3  C2  UNL d   1      -0.553  -0.940  -1.293  0.00  0.00    -0.005 A 
ATOM      4  C3  UNL d   1      -1.438  -1.543  -0.399  0.00  0.00     0.006 A 
ATOM      5  C4  UNL d   1      -1.583  -1.038   0.894  0.00  0.00    -0.005 A 
ATOM      6  C5  UNL d   1      -0.842   0.075   1.304  0.00  0.00    -0.074 A 
ATOM      7  C6  UNL d   1      -0.979   0.624   2.693  0.00  0.00     0.077 C 
ATOM      8  C7  UNL d   1       0.050   0.671   0.402  0.00  0.00    -0.001 A 
ENDROOT
TORSDOF 0
ENDMDL
