MODEL 1
REMARK minimizedAffinity -4.35469007
REMARK minimizedRMSD -1
REMARK  0 active torsions:
REMARK  status: ('A' for Active; 'I' for Inactive)
ROOT
ATOM      1  C   UNL d   1      -0.010   0.357   3.162  0.00  0.00     0.077 C 
ATOM      2  C1  UNL d   1      -0.576   0.269   1.776  0.00  0.00    -0.074 A 
ATOM      3  C2  UNL d   1      -1.951   0.393   1.551  0.00  0.00    -0.005 A 
ATOM      4  C3  UNL d   1      -2.461   0.318   0.256  0.00  0.00     0.006 A 
ATOM      5  C4  UNL d   1      -1.604   0.119  -0.827  0.00  0.00    -0.005 A 
ATOM      6  C5  UNL d   1      -0.226  -0.005  -0.622  0.00  0.00    -0.074 A 
ATOM      7  C6  UNL d   1       0.711  -0.210  -1.776  0.00  0.00     0.077 C 
ATOM      8  C7  UNL d   1       0.280   0.078   0.682  0.00  0.00    -0.001 A 
ENDROOT
TORSDOF 0
ENDMDL
