MODEL 1
REMARK minimizedAffinity -3.12069106
REMARK minimizedRMSD -1
REMARK  0 active torsions:
REMARK  status: ('A' for Active; 'I' for Inactive)
ROOT
ATOM      1  C   UNL d   1      -0.469  -1.097  -4.187  0.00  0.00     0.077 C 
ATOM      2  C1  UNL d   1       0.492  -0.466  -3.224  0.00  0.00    -0.074 A 
ATOM      3  C2  UNL d   1       1.496   0.398  -3.673  0.00  0.00    -0.005 A 
ATOM      4  C3  UNL d   1       2.377   0.984  -2.765  0.00  0.00     0.006 A 
ATOM      5  C4  UNL d   1       2.265   0.712  -1.401  0.00  0.00    -0.005 A 
ATOM      6  C5  UNL d   1       1.267  -0.149  -0.934  0.00  0.00    -0.074 A 
ATOM      7  C6  UNL d   1       1.125  -0.444   0.530  0.00  0.00     0.077 C 
ATOM      8  C7  UNL d   1       0.381  -0.729  -1.852  0.00  0.00    -0.001 A 
ENDROOT
TORSDOF 0
ENDMDL
