MODEL 1
REMARK minimizedAffinity -3.41487885
REMARK minimizedRMSD -1
REMARK  0 active torsions:
REMARK  status: ('A' for Active; 'I' for Inactive)
ROOT
ATOM      1  C   UNL d   1      -3.362   1.079   0.227  0.00  0.00     0.077 C 
ATOM      2  C1  UNL d   1      -1.923   0.658   0.244  0.00  0.00    -0.074 A 
ATOM      3  C2  UNL d   1      -1.280   0.343   1.446  0.00  0.00    -0.005 A 
ATOM      4  C3  UNL d   1       0.056  -0.056   1.446  0.00  0.00     0.006 A 
ATOM      5  C4  UNL d   1       0.762  -0.145   0.245  0.00  0.00    -0.005 A 
ATOM      6  C5  UNL d   1       0.136   0.165  -0.966  0.00  0.00    -0.074 A 
ATOM      7  C6  UNL d   1       0.878   0.066  -2.266  0.00  0.00     0.077 C 
ATOM      8  C7  UNL d   1      -1.209   0.559  -0.958  0.00  0.00    -0.001 A 
ENDROOT
TORSDOF 0
ENDMDL
