MODEL 1
REMARK minimizedAffinity -1.48870349
REMARK minimizedRMSD -1
REMARK  0 active torsions:
REMARK  status: ('A' for Active; 'I' for Inactive)
ROOT
ATOM      1  C   UNL d   1       0.757  -0.731   0.486  0.00  0.00     0.077 C 
ATOM      2  C1  UNL d   1       0.436  -0.009  -0.789  0.00  0.00    -0.074 A 
ATOM      3  C2  UNL d   1      -0.676   0.834  -0.878  0.00  0.00    -0.005 A 
ATOM      4  C3  UNL d   1      -0.956   1.506  -2.068  0.00  0.00     0.006 A 
ATOM      5  C4  UNL d   1      -0.128   1.342  -3.179  0.00  0.00    -0.005 A 
ATOM      6  C5  UNL d   1       0.989   0.504  -3.109  0.00  0.00    -0.074 A 
ATOM      7  C6  UNL d   1       1.895   0.324  -4.291  0.00  0.00     0.077 C 
ATOM      8  C7  UNL d   1       1.268  -0.163  -1.907  0.00  0.00    -0.001 A 
ENDROOT
TORSDOF 0
ENDMDL
