MODEL 1
REMARK minimizedAffinity -0.642569005
REMARK minimizedRMSD -1
REMARK  0 active torsions:
REMARK  status: ('A' for Active; 'I' for Inactive)
ROOT
ATOM      1  C   UNL d   1       0.561  -0.438  -1.439  0.00  0.00     0.020 A 
ATOM      2  C1  UNL d   1      -0.093   0.774  -1.656  0.00  0.00     0.020 A 
ATOM      3  C2  UNL d   1      -0.372   1.620  -0.581  0.00  0.00     0.034 A 
ATOM      4  C3  UNL d   1       0.003   1.254   0.718  0.00  0.00     0.017 A 
ATOM      5  C4  UNL d   1       0.659   0.037   0.935  0.00  0.00     0.017 A 
ATOM      6  C5  UNL d   1       0.936  -0.806  -0.146  0.00  0.00     0.034 A 
ATOM      7 Cl   UNL d   1       1.151  -0.483   2.508  0.00  0.00    -0.070 Cl
ATOM      8 Cl1  UNL d   1      -0.374   2.348   2.001  0.00  0.00    -0.070 Cl
ENDROOT
TORSDOF 0
ENDMDL
