MODEL 1
REMARK minimizedAffinity -4.80877256
REMARK minimizedRMSD -1
REMARK  0 active torsions:
REMARK  status: ('A' for Active; 'I' for Inactive)
ROOT
ATOM      1  C   UNL d   1      -1.188   2.345  -0.083  0.00  0.00     0.020 A 
ATOM      2  C1  UNL d   1      -0.926   2.430   1.284  0.00  0.00     0.020 A 
ATOM      3  C2  UNL d   1      -0.209   1.415   1.921  0.00  0.00     0.034 A 
ATOM      4  C3  UNL d   1       0.247   0.311   1.193  0.00  0.00     0.017 A 
ATOM      5  C4  UNL d   1      -0.017   0.226  -0.179  0.00  0.00     0.017 A 
ATOM      6  C5  UNL d   1      -0.734   1.245  -0.813  0.00  0.00     0.034 A 
ATOM      7 Cl   UNL d   1       0.514  -1.106  -1.145  0.00  0.00    -0.070 Cl
ATOM      8 Cl1  UNL d   1       1.127  -0.907   2.046  0.00  0.00    -0.070 Cl
ENDROOT
TORSDOF 0
ENDMDL
