MODEL 1
REMARK minimizedAffinity -0.0416696481
REMARK minimizedRMSD -1
REMARK  0 active torsions:
REMARK  status: ('A' for Active; 'I' for Inactive)
ROOT
ATOM      1  C   UNL d   1      -1.656   2.335   2.179  0.00  0.00     0.020 A 
ATOM      2  C1  UNL d   1      -0.479   2.035   2.864  0.00  0.00     0.020 A 
ATOM      3  C2  UNL d   1       0.426   1.118   2.327  0.00  0.00     0.034 A 
ATOM      4  C3  UNL d   1       0.156   0.496   1.103  0.00  0.00     0.017 A 
ATOM      5  C4  UNL d   1      -1.026   0.797   0.417  0.00  0.00     0.017 A 
ATOM      6  C5  UNL d   1      -1.929   1.716   0.959  0.00  0.00     0.034 A 
ATOM      7 Cl   UNL d   1      -1.429   0.070  -1.099  0.00  0.00    -0.070 Cl
ATOM      8 Cl1  UNL d   1       1.320  -0.629   0.498  0.00  0.00    -0.070 Cl
ENDROOT
TORSDOF 0
ENDMDL
