MODEL 1
REMARK minimizedAffinity -4.07428789
REMARK minimizedRMSD -1
REMARK  0 active torsions:
REMARK  status: ('A' for Active; 'I' for Inactive)
ROOT
ATOM      1  C   UNL d   1      -1.814   1.890   1.145  0.00  0.00     0.020 A 
ATOM      2  C1  UNL d   1      -1.100   2.178   2.308  0.00  0.00     0.020 A 
ATOM      3  C2  UNL d   1       0.006   1.400   2.657  0.00  0.00     0.034 A 
ATOM      4  C3  UNL d   1       0.401   0.332   1.844  0.00  0.00     0.017 A 
ATOM      5  C4  UNL d   1      -0.316   0.044   0.677  0.00  0.00     0.017 A 
ATOM      6  C5  UNL d   1      -1.423   0.826   0.332  0.00  0.00     0.034 A 
ATOM      7 Cl   UNL d   1       0.111  -1.257  -0.376  0.00  0.00    -0.070 Cl
ATOM      8 Cl1  UNL d   1       1.779  -0.587   2.337  0.00  0.00    -0.070 Cl
ENDROOT
TORSDOF 0
ENDMDL
