MODEL 1
REMARK minimizedAffinity -0.259146422
REMARK minimizedRMSD -1
REMARK  0 active torsions:
REMARK  status: ('A' for Active; 'I' for Inactive)
ROOT
ATOM      1  C   UNL d   1       0.314  -1.001  -1.112  0.00  0.00     0.020 A 
ATOM      2  C1  UNL d   1       0.393  -1.113   0.276  0.00  0.00     0.020 A 
ATOM      3  C2  UNL d   1      -0.120  -0.099   1.088  0.00  0.00     0.034 A 
ATOM      4  C3  UNL d   1      -0.713   1.031   0.514  0.00  0.00     0.017 A 
ATOM      5  C4  UNL d   1      -0.791   1.143  -0.879  0.00  0.00     0.017 A 
ATOM      6  C5  UNL d   1      -0.277   0.125  -1.688  0.00  0.00     0.034 A 
ATOM      7 Cl   UNL d   1      -1.509   2.507  -1.660  0.00  0.00    -0.070 Cl
ATOM      8 Cl1  UNL d   1      -1.326   2.246   1.579  0.00  0.00    -0.070 Cl
ENDROOT
TORSDOF 0
ENDMDL
