MODEL 1
REMARK minimizedAffinity -1.36834669
REMARK minimizedRMSD -1
REMARK  0 active torsions:
REMARK  status: ('A' for Active; 'I' for Inactive)
ROOT
ATOM      1  C   UNL d   1       1.345  -0.757  -1.021  0.00  0.00     0.020 A 
ATOM      2  C1  UNL d   1       1.242  -0.779   0.370  0.00  0.00     0.020 A 
ATOM      3  C2  UNL d   1       0.476   0.185   1.028  0.00  0.00     0.034 A 
ATOM      4  C3  UNL d   1      -0.190   1.175   0.296  0.00  0.00     0.017 A 
ATOM      5  C4  UNL d   1      -0.087   1.196  -1.099  0.00  0.00     0.017 A 
ATOM      6  C5  UNL d   1       0.682   0.228  -1.754  0.00  0.00     0.034 A 
ATOM      7 Cl   UNL d   1      -0.880   2.385  -2.070  0.00  0.00    -0.070 Cl
ATOM      8 Cl1  UNL d   1      -1.120   2.336   1.176  0.00  0.00    -0.070 Cl
ENDROOT
TORSDOF 0
ENDMDL
