MODEL 1
REMARK minimizedAffinity -1.7494303
REMARK minimizedRMSD -1
REMARK  0 active torsions:
REMARK  status: ('A' for Active; 'I' for Inactive)
ROOT
ATOM      1  C   UNL d   1      -1.568  -3.611  -0.860  0.00  0.00     0.020 A 
ATOM      2  C1  UNL d   1      -0.341  -4.105  -1.303  0.00  0.00     0.020 A 
ATOM      3  C2  UNL d   1       0.788  -3.284  -1.286  0.00  0.00     0.034 A 
ATOM      4  C3  UNL d   1       0.694  -1.965  -0.827  0.00  0.00     0.017 A 
ATOM      5  C4  UNL d   1      -0.538  -1.471  -0.382  0.00  0.00     0.017 A 
ATOM      6  C5  UNL d   1      -1.666  -2.297  -0.401  0.00  0.00     0.034 A 
ATOM      7 Cl   UNL d   1      -0.733   0.145   0.199  0.00  0.00    -0.070 Cl
ATOM      8 Cl1  UNL d   1       2.131  -1.007  -0.834  0.00  0.00    -0.070 Cl
ENDROOT
TORSDOF 0
ENDMDL
