MODEL 1
REMARK minimizedAffinity -2.80755949
REMARK minimizedRMSD -1
REMARK  0 active torsions:
REMARK  status: ('A' for Active; 'I' for Inactive)
ROOT
ATOM      1  C   UNL d   1       0.541  -0.431   1.721  0.00  0.00     0.020 A 
ATOM      2  C1  UNL d   1       0.664  -0.749   0.369  0.00  0.00     0.020 A 
ATOM      3  C2  UNL d   1       0.012   0.026  -0.593  0.00  0.00     0.034 A 
ATOM      4  C3  UNL d   1      -0.765   1.123  -0.204  0.00  0.00     0.017 A 
ATOM      5  C4  UNL d   1      -0.888   1.441   1.154  0.00  0.00     0.017 A 
ATOM      6  C5  UNL d   1      -0.233   0.662   2.112  0.00  0.00     0.034 A 
ATOM      7 Cl   UNL d   1      -1.829   2.780   1.711  0.00  0.00    -0.070 Cl
ATOM      8 Cl1  UNL d   1      -1.542   2.038  -1.446  0.00  0.00    -0.070 Cl
ENDROOT
TORSDOF 0
ENDMDL
