MODEL 1
REMARK minimizedAffinity -5.29095078
REMARK minimizedRMSD -1
REMARK  0 active torsions:
REMARK  status: ('A' for Active; 'I' for Inactive)
ROOT
ATOM      1  C   UNL d   1       0.964  -0.269   1.573  0.00  0.00     0.020 A 
ATOM      2  C1  UNL d   1       1.201  -0.624   0.245  0.00  0.00     0.020 A 
ATOM      3  C2  UNL d   1       0.603   0.100  -0.788  0.00  0.00     0.034 A 
ATOM      4  C3  UNL d   1      -0.235   1.182  -0.497  0.00  0.00     0.017 A 
ATOM      5  C4  UNL d   1      -0.473   1.537   0.836  0.00  0.00     0.017 A 
ATOM      6  C5  UNL d   1       0.129   0.809   1.867  0.00  0.00     0.034 A 
ATOM      7 Cl   UNL d   1      -1.495   2.860   1.275  0.00  0.00    -0.070 Cl
ATOM      8 Cl1  UNL d   1      -0.941   2.033  -1.825  0.00  0.00    -0.070 Cl
ENDROOT
TORSDOF 0
ENDMDL
