MODEL 1
REMARK minimizedAffinity -0.256687373
REMARK minimizedRMSD -1
REMARK  1 active torsions:
REMARK  status: ('A' for Active; 'I' for Inactive)
REMARK    1  A    between atoms: C3_4  and  O_7 
ROOT
ATOM      1  C   UNL d   1       5.230  -3.950   6.000  0.00  0.00    -0.033 A 
ATOM      2  C1  UNL d   1       4.864  -5.217   5.541  0.00  0.00     0.039 A 
ATOM      3  C2  UNL d   1       4.753  -5.461   4.171  0.00  0.00    -0.080 A 
ATOM      4  C3  UNL d   1       5.010  -4.430   3.271  0.00  0.00     0.150 A 
ATOM      5  C4  UNL d   1       5.378  -3.167   3.720  0.00  0.00    -0.007 A 
ATOM      6  C5  UNL d   1       5.488  -2.925   5.089  0.00  0.00     0.039 A 
ENDROOT
BRANCH   4   7
ATOM      7  O   UNL d   1       4.909  -4.619   1.924  0.00  0.00    -0.526 OA
ATOM      8  H5  UNL d   1       4.618  -5.532   1.762  0.00  0.00     0.418 HD
ENDBRANCH   4   7
TORSDOF 1
ENDMDL
