MODEL 1
REMARK minimizedAffinity -2.78386521
REMARK minimizedRMSD -1
REMARK  1 active torsions:
REMARK  status: ('A' for Active; 'I' for Inactive)
REMARK    1  A    between atoms: C3_4  and  O_7 
ROOT
ATOM      1  C   UNL d   1      -3.925  -1.605  -4.927  0.00  0.00    -0.033 A 
ATOM      2  C1  UNL d   1      -3.199  -0.807  -5.813  0.00  0.00     0.039 A 
ATOM      3  C2  UNL d   1      -2.907   0.518  -5.484  0.00  0.00    -0.080 A 
ATOM      4  C3  UNL d   1      -3.345   1.031  -4.266  0.00  0.00     0.150 A 
ATOM      5  C4  UNL d   1      -4.064   0.241  -3.376  0.00  0.00    -0.007 A 
ATOM      6  C5  UNL d   1      -4.356  -1.082  -3.707  0.00  0.00     0.039 A 
ENDROOT
BRANCH   4   7
ATOM      7  O   UNL d   1      -3.088   2.320  -3.903  0.00  0.00    -0.526 OA
ATOM      8  H5  UNL d   1      -2.607   2.754  -4.627  0.00  0.00     0.418 HD
ENDBRANCH   4   7
TORSDOF 1
ENDMDL
