MODEL 1
REMARK minimizedAffinity -2.15272665
REMARK minimizedRMSD -1
REMARK  1 active torsions:
REMARK  status: ('A' for Active; 'I' for Inactive)
REMARK    1  A    between atoms: C3_4  and  O_7 
ROOT
ATOM      1  C   UNL d   1      -4.410   0.125  -5.435  0.00  0.00    -0.033 A 
ATOM      2  C1  UNL d   1      -3.067  -0.024  -5.084  0.00  0.00     0.039 A 
ATOM      3  C2  UNL d   1      -2.719  -0.752  -3.944  0.00  0.00    -0.080 A 
ATOM      4  C3  UNL d   1      -3.721  -1.325  -3.166  0.00  0.00     0.150 A 
ATOM      5  C4  UNL d   1      -5.061  -1.184  -3.513  0.00  0.00    -0.007 A 
ATOM      6  C5  UNL d   1      -5.407  -0.456  -4.651  0.00  0.00     0.039 A 
ENDROOT
BRANCH   4   7
ATOM      7  O   UNL d   1      -3.430  -2.040  -2.042  0.00  0.00    -0.526 OA
ATOM      8  H5  UNL d   1      -2.467  -2.029  -1.912  0.00  0.00     0.418 HD
ENDBRANCH   4   7
TORSDOF 1
ENDMDL
