MODEL 1
REMARK minimizedAffinity 6.74210691
REMARK minimizedRMSD -1
REMARK  1 active torsions:
REMARK  status: ('A' for Active; 'I' for Inactive)
REMARK    1  A    between atoms: C3_4  and  O_7 
ROOT
ATOM      1  C   UNL d   1       2.977   1.687  -0.309  0.00  0.00    -0.033 A 
ATOM      2  C1  UNL d   1       1.679   1.251  -0.040  0.00  0.00     0.039 A 
ATOM      3  C2  UNL d   1       1.418  -0.110   0.127  0.00  0.00    -0.080 A 
ATOM      4  C3  UNL d   1       2.464  -1.024   0.024  0.00  0.00     0.150 A 
ATOM      5  C4  UNL d   1       3.761  -0.596  -0.240  0.00  0.00    -0.007 A 
ATOM      6  C5  UNL d   1       4.019   0.764  -0.407  0.00  0.00     0.039 A 
ENDROOT
BRANCH   4   7
ATOM      7  O   UNL d   1       2.257  -2.363   0.175  0.00  0.00    -0.526 OA
ATOM      8  H5  UNL d   1       1.309  -2.513   0.324  0.00  0.00     0.418 HD
ENDBRANCH   4   7
TORSDOF 1
ENDMDL
