MODEL 1
REMARK minimizedAffinity 5.86645079
REMARK minimizedRMSD -1
REMARK  1 active torsions:
REMARK  status: ('A' for Active; 'I' for Inactive)
REMARK    1  A    between atoms: C3_4  and  O_7 
ROOT
ATOM      1  C   UNL d   1      -4.135  -0.068  -5.998  0.00  0.00    -0.033 A 
ATOM      2  C1  UNL d   1      -2.886  -0.661  -5.798  0.00  0.00     0.039 A 
ATOM      3  C2  UNL d   1      -2.500  -1.064  -4.518  0.00  0.00    -0.080 A 
ATOM      4  C3  UNL d   1      -3.371  -0.870  -3.449  0.00  0.00     0.150 A 
ATOM      5  C4  UNL d   1      -4.618  -0.284  -3.642  0.00  0.00    -0.007 A 
ATOM      6  C5  UNL d   1      -5.001   0.119  -4.920  0.00  0.00     0.039 A 
ENDROOT
BRANCH   4   7
ATOM      7  O   UNL d   1      -3.036  -1.243  -2.181  0.00  0.00    -0.526 OA
ATOM      8  H5  UNL d   1      -2.135  -1.607  -2.195  0.00  0.00     0.418 HD
ENDBRANCH   4   7
TORSDOF 1
ENDMDL
