MODEL 1
REMARK minimizedAffinity -4.20922947
REMARK minimizedRMSD -1
REMARK  1 active torsions:
REMARK  status: ('A' for Active; 'I' for Inactive)
REMARK    1  A    between atoms: C3_4  and  O_7 
ROOT
ATOM      1  C   UNL d   1      -4.241   0.328  -5.784  0.00  0.00    -0.033 A 
ATOM      2  C1  UNL d   1      -5.290  -0.151  -4.997  0.00  0.00     0.039 A 
ATOM      3  C2  UNL d   1      -5.019  -0.866  -3.829  0.00  0.00    -0.080 A 
ATOM      4  C3  UNL d   1      -3.696  -1.095  -3.460  0.00  0.00     0.150 A 
ATOM      5  C4  UNL d   1      -2.646  -0.617  -4.238  0.00  0.00    -0.007 A 
ATOM      6  C5  UNL d   1      -2.919   0.096  -5.404  0.00  0.00     0.039 A 
ENDROOT
BRANCH   4   7
ATOM      7  O   UNL d   1      -3.382  -1.792  -2.332  0.00  0.00    -0.526 OA
ATOM      8  H5  UNL d   1      -4.207  -2.084  -1.910  0.00  0.00     0.418 HD
ENDBRANCH   4   7
TORSDOF 1
ENDMDL
