MODEL 1
REMARK minimizedAffinity -1.25949705
REMARK minimizedRMSD -1
REMARK  1 active torsions:
REMARK  status: ('A' for Active; 'I' for Inactive)
REMARK    1  A    between atoms: C3_4  and  O_7 
ROOT
ATOM      1  C   UNL d   1      -3.369   3.079  -5.043  0.00  0.00    -0.033 A 
ATOM      2  C1  UNL d   1      -3.464   1.914  -5.807  0.00  0.00     0.039 A 
ATOM      3  C2  UNL d   1      -3.641   0.679  -5.180  0.00  0.00    -0.080 A 
ATOM      4  C3  UNL d   1      -3.722   0.622  -3.791  0.00  0.00     0.150 A 
ATOM      5  C4  UNL d   1      -3.632   1.780  -3.025  0.00  0.00    -0.007 A 
ATOM      6  C5  UNL d   1      -3.454   3.012  -3.652  0.00  0.00     0.039 A 
ENDROOT
BRANCH   4   7
ATOM      7  O   UNL d   1      -3.890  -0.560  -3.135  0.00  0.00    -0.526 OA
ATOM      8  H5  UNL d   1      -3.907  -1.277  -3.791  0.00  0.00     0.418 HD
ENDBRANCH   4   7
TORSDOF 1
ENDMDL
