MODEL 1
REMARK minimizedAffinity -2.2943387
REMARK minimizedRMSD -1
REMARK  1 active torsions:
REMARK  status: ('A' for Active; 'I' for Inactive)
REMARK    1  A    between atoms: C3_4  and  O_7 
ROOT
ATOM      1  C   UNL d   1      -4.776   0.806  -5.456  0.00  0.00    -0.033 A 
ATOM      2  C1  UNL d   1      -5.224  -0.399  -4.911  0.00  0.00     0.039 A 
ATOM      3  C2  UNL d   1      -4.306  -1.324  -4.409  0.00  0.00    -0.080 A 
ATOM      4  C3  UNL d   1      -2.946  -1.032  -4.458  0.00  0.00     0.150 A 
ATOM      5  C4  UNL d   1      -2.493   0.168  -4.996  0.00  0.00    -0.007 A 
ATOM      6  C5  UNL d   1      -3.411   1.090  -5.497  0.00  0.00     0.039 A 
ENDROOT
BRANCH   4   7
ATOM      7  O   UNL d   1      -2.013  -1.906  -3.985  0.00  0.00    -0.526 OA
ATOM      8  H5  UNL d   1      -2.470  -2.703  -3.669  0.00  0.00     0.418 HD
ENDBRANCH   4   7
TORSDOF 1
ENDMDL
