MODEL 1
REMARK minimizedAffinity -3.75308776
REMARK minimizedRMSD -1
REMARK  1 active torsions:
REMARK  status: ('A' for Active; 'I' for Inactive)
REMARK    1  A    between atoms: C3_4  and  O_7 
ROOT
ATOM      1  C   UNL d   1      -3.823   0.879  -5.720  0.00  0.00    -0.033 A 
ATOM      2  C1  UNL d   1      -2.659   0.141  -5.498  0.00  0.00     0.039 A 
ATOM      3  C2  UNL d   1      -2.570  -0.712  -4.396  0.00  0.00    -0.080 A 
ATOM      4  C3  UNL d   1      -3.651  -0.818  -3.525  0.00  0.00     0.150 A 
ATOM      5  C4  UNL d   1      -4.815  -0.088  -3.742  0.00  0.00    -0.007 A 
ATOM      6  C5  UNL d   1      -4.902   0.764  -4.842  0.00  0.00     0.039 A 
ENDROOT
BRANCH   4   7
ATOM      7  O   UNL d   1      -3.609  -1.634  -2.434  0.00  0.00    -0.526 OA
ATOM      8  H5  UNL d   1      -2.733  -2.053  -2.396  0.00  0.00     0.418 HD
ENDBRANCH   4   7
TORSDOF 1
ENDMDL
