MODEL 1
REMARK minimizedAffinity 0.439872473
REMARK minimizedRMSD -1
REMARK  1 active torsions:
REMARK  status: ('A' for Active; 'I' for Inactive)
REMARK    1  A    between atoms: C3_4  and  O_7 
ROOT
ATOM      1  C   UNL d   1      -4.029   0.736  -4.201  0.00  0.00    -0.033 A 
ATOM      2  C1  UNL d   1      -3.769  -0.114  -3.125  0.00  0.00     0.039 A 
ATOM      3  C2  UNL d   1      -2.888  -1.186  -3.277  0.00  0.00    -0.080 A 
ATOM      4  C3  UNL d   1      -2.273  -1.396  -4.508  0.00  0.00     0.150 A 
ATOM      5  C4  UNL d   1      -2.524  -0.551  -5.584  0.00  0.00    -0.007 A 
ATOM      6  C5  UNL d   1      -3.405   0.519  -5.430  0.00  0.00     0.039 A 
ENDROOT
BRANCH   4   7
ATOM      7  O   UNL d   1      -1.409  -2.432  -4.706  0.00  0.00    -0.526 OA
ATOM      8  H5  UNL d   1      -1.354  -2.949  -3.884  0.00  0.00     0.418 HD
ENDBRANCH   4   7
TORSDOF 1
ENDMDL
