MODEL 1
REMARK minimizedAffinity 4.77522945
REMARK minimizedRMSD -1
REMARK  0 active torsions:
REMARK  status: ('A' for Active; 'I' for Inactive)
ROOT
ATOM      1  C   UNL d   1       2.563  -2.967   0.979  0.00  0.00     0.078 C 
ATOM      2  C1  UNL d   1       1.248  -2.711   1.653  0.00  0.00    -0.077 A 
ATOM      3  C2  UNL d   1       0.880  -1.419   2.050  0.00  0.00    -0.001 A 
ATOM      4  C3  UNL d   1      -0.342  -1.197   2.685  0.00  0.00     0.003 A 
ATOM      5  C4  UNL d   1      -1.207  -2.262   2.930  0.00  0.00    -0.005 A 
ATOM      6  C5  UNL d   1      -0.849  -3.551   2.541  0.00  0.00     0.003 A 
ATOM      7  C6  UNL d   1       0.374  -3.775   1.906  0.00  0.00    -0.001 A 
ENDROOT
TORSDOF 0
ENDMDL
