MODEL 1
REMARK minimizedAffinity 8.63518047
REMARK minimizedRMSD -1
REMARK  0 active torsions:
REMARK  status: ('A' for Active; 'I' for Inactive)
ROOT
ATOM      1  C   UNL d   1      -1.613   2.381  -2.876  0.00  0.00     0.078 C 
ATOM      2  C1  UNL d   1      -2.185   1.172  -2.197  0.00  0.00    -0.077 A 
ATOM      3  C2  UNL d   1      -1.353   0.230  -1.580  0.00  0.00    -0.001 A 
ATOM      4  C3  UNL d   1      -1.899  -0.895  -0.960  0.00  0.00     0.003 A 
ATOM      5  C4  UNL d   1      -3.279  -1.089  -0.951  0.00  0.00    -0.005 A 
ATOM      6  C5  UNL d   1      -4.115  -0.158  -1.564  0.00  0.00     0.003 A 
ATOM      7  C6  UNL d   1      -3.571   0.968  -2.185  0.00  0.00    -0.001 A 
ENDROOT
TORSDOF 0
ENDMDL
