MODEL 1
REMARK minimizedAffinity 12.2837467
REMARK minimizedRMSD -1
REMARK  0 active torsions:
REMARK  status: ('A' for Active; 'I' for Inactive)
ROOT
ATOM      1  C   UNL d   1       3.750  -2.275   4.138  0.00  0.00     0.078 C 
ATOM      2  C1  UNL d   1       2.870  -2.203   2.927  0.00  0.00    -0.077 A 
ATOM      3  C2  UNL d   1       3.141  -2.975   1.790  0.00  0.00    -0.001 A 
ATOM      4  C3  UNL d   1       2.318  -2.890   0.666  0.00  0.00     0.003 A 
ATOM      5  C4  UNL d   1       1.219  -2.034   0.667  0.00  0.00    -0.005 A 
ATOM      6  C5  UNL d   1       0.942  -1.260   1.792  0.00  0.00     0.003 A 
ATOM      7  C6  UNL d   1       1.764  -1.343   2.917  0.00  0.00    -0.001 A 
ENDROOT
TORSDOF 0
ENDMDL
