MODEL 1
REMARK minimizedAffinity 1.33734179
REMARK minimizedRMSD -1
REMARK  0 active torsions:
REMARK  status: ('A' for Active; 'I' for Inactive)
ROOT
ATOM      1  C   UNL d   1       0.192   4.725  -5.796  0.00  0.00     0.078 C 
ATOM      2  C1  UNL d   1      -0.636   3.803  -4.952  0.00  0.00    -0.077 A 
ATOM      3  C2  UNL d   1      -1.170   2.623  -5.484  0.00  0.00    -0.001 A 
ATOM      4  C3  UNL d   1      -1.947   1.779  -4.689  0.00  0.00     0.003 A 
ATOM      5  C4  UNL d   1      -2.198   2.106  -3.358  0.00  0.00    -0.005 A 
ATOM      6  C5  UNL d   1      -1.672   3.279  -2.820  0.00  0.00     0.003 A 
ATOM      7  C6  UNL d   1      -0.895   4.125  -3.613  0.00  0.00    -0.001 A 
ENDROOT
TORSDOF 0
ENDMDL
