MODEL 1
REMARK minimizedAffinity 12.3521509
REMARK minimizedRMSD -1
REMARK  0 active torsions:
REMARK  status: ('A' for Active; 'I' for Inactive)
ROOT
ATOM      1  C   UNL d   1      -1.833   2.462  -2.847  0.00  0.00     0.078 C 
ATOM      2  C1  UNL d   1      -2.356   1.124  -2.420  0.00  0.00    -0.077 A 
ATOM      3  C2  UNL d   1      -1.511   0.171  -1.838  0.00  0.00    -0.001 A 
ATOM      4  C3  UNL d   1      -2.010  -1.074  -1.453  0.00  0.00     0.003 A 
ATOM      5  C4  UNL d   1      -3.355  -1.380  -1.648  0.00  0.00    -0.005 A 
ATOM      6  C5  UNL d   1      -4.204  -0.439  -2.229  0.00  0.00     0.003 A 
ATOM      7  C6  UNL d   1      -3.707   0.807  -2.614  0.00  0.00    -0.001 A 
ENDROOT
TORSDOF 0
ENDMDL
