MODEL 1
REMARK minimizedAffinity 1.88466823
REMARK minimizedRMSD -1
REMARK  0 active torsions:
REMARK  status: ('A' for Active; 'I' for Inactive)
ROOT
ATOM      1  C   UNL d   1      -4.835   0.871  -4.980  0.00  0.00     0.078 C 
ATOM      2  C1  UNL d   1      -3.994   1.176  -3.777  0.00  0.00    -0.077 A 
ATOM      3  C2  UNL d   1      -4.210   0.519  -2.560  0.00  0.00    -0.001 A 
ATOM      4  C3  UNL d   1      -3.425   0.820  -1.446  0.00  0.00     0.003 A 
ATOM      5  C4  UNL d   1      -2.419   1.779  -1.537  0.00  0.00    -0.005 A 
ATOM      6  C5  UNL d   1      -2.197   2.440  -2.744  0.00  0.00     0.003 A 
ATOM      7  C6  UNL d   1      -2.982   2.141  -3.859  0.00  0.00    -0.001 A 
ENDROOT
TORSDOF 0
ENDMDL
