MODEL 1
REMARK minimizedAffinity 9.00104332
REMARK minimizedRMSD -1
REMARK  0 active torsions:
REMARK  status: ('A' for Active; 'I' for Inactive)
ROOT
ATOM      1  C   UNL d   1       0.627   3.062  -4.579  0.00  0.00     0.078 C 
ATOM      2  C1  UNL d   1      -0.561   2.638  -3.768  0.00  0.00    -0.077 A 
ATOM      3  C2  UNL d   1      -0.415   1.786  -2.666  0.00  0.00    -0.001 A 
ATOM      4  C3  UNL d   1      -1.530   1.392  -1.926  0.00  0.00     0.003 A 
ATOM      5  C4  UNL d   1      -2.800   1.844  -2.279  0.00  0.00    -0.005 A 
ATOM      6  C5  UNL d   1      -2.956   2.691  -3.375  0.00  0.00     0.003 A 
ATOM      7  C6  UNL d   1      -1.841   3.086  -4.117  0.00  0.00    -0.001 A 
ENDROOT
TORSDOF 0
ENDMDL
