MODEL 1
REMARK minimizedAffinity 0.592884004
REMARK minimizedRMSD -1
REMARK  0 active torsions:
REMARK  status: ('A' for Active; 'I' for Inactive)
ROOT
ATOM      1  C   UNL d   1       4.147  -3.073   0.615  0.00  0.00     0.078 C 
ATOM      2  C1  UNL d   1       2.793  -2.499   0.324  0.00  0.00    -0.077 A 
ATOM      3  C2  UNL d   1       2.164  -1.639   1.233  0.00  0.00    -0.001 A 
ATOM      4  C3  UNL d   1       0.898  -1.120   0.954  0.00  0.00     0.003 A 
ATOM      5  C4  UNL d   1       0.250  -1.457  -0.233  0.00  0.00    -0.005 A 
ATOM      6  C5  UNL d   1       0.867  -2.314  -1.142  0.00  0.00     0.003 A 
ATOM      7  C6  UNL d   1       2.133  -2.834  -0.865  0.00  0.00    -0.001 A 
ENDROOT
TORSDOF 0
ENDMDL
