MODEL 1
REMARK minimizedAffinity 5.79108477
REMARK minimizedRMSD -1
REMARK  1 active torsions:
REMARK  status: ('A' for Active; 'I' for Inactive)
REMARK    1  A    between atoms: C1_2  and  C2_3 
ROOT
ATOM      1  C2  UNL d   1      -5.192   0.880  -0.449  0.00  0.00    -0.076 A 
ATOM      2  C3  UNL d   1      -5.999   1.091   0.683  0.00  0.00     0.004 A 
ATOM      3  C4  UNL d   1      -5.906   2.269   1.421  0.00  0.00    -0.003 A 
ATOM      4  C5  UNL d   1      -5.003   3.257   1.040  0.00  0.00     0.000 A 
ATOM      5  C6  UNL d   1      -4.207   3.072  -0.089  0.00  0.00     0.000 A 
ATOM      6  C7  UNL d   1      -4.300   1.896  -0.855  0.00  0.00    -0.073 A 
ATOM      7  C8  UNL d   1      -3.413   1.747  -2.060  0.00  0.00     0.078 C 
ENDROOT
BRANCH   1   8
ATOM      8  C1  UNL d   1      -5.318  -0.429  -1.195  0.00  0.00     0.053 C 
ATOM      9  C   UNL d   1      -4.530  -1.552  -0.538  0.00  0.00     0.018 C 
ENDBRANCH   1   8
TORSDOF 1
ENDMDL
