MODEL 1
REMARK minimizedAffinity 0.510092556
REMARK minimizedRMSD -1
REMARK  1 active torsions:
REMARK  status: ('A' for Active; 'I' for Inactive)
REMARK    1  A    between atoms: C1_2  and  C2_3 
ROOT
ATOM      1  C2  UNL d   1      -4.738   1.033  -3.601  0.00  0.00    -0.076 A 
ATOM      2  C3  UNL d   1      -3.527   0.370  -3.333  0.00  0.00     0.004 A 
ATOM      3  C4  UNL d   1      -2.331   1.078  -3.225  0.00  0.00    -0.003 A 
ATOM      4  C5  UNL d   1      -2.327   2.459  -3.382  0.00  0.00     0.000 A 
ATOM      5  C6  UNL d   1      -3.521   3.135  -3.630  0.00  0.00     0.000 A 
ATOM      6  C7  UNL d   1      -4.738   2.438  -3.726  0.00  0.00    -0.073 A 
ATOM      7  C8  UNL d   1      -5.995   3.217  -4.001  0.00  0.00     0.078 C 
ENDROOT
BRANCH   1   8
ATOM      8  C1  UNL d   1      -6.000   0.210  -3.734  0.00  0.00     0.053 C 
ATOM      9  C   UNL d   1      -5.999  -0.659  -4.982  0.00  0.00     0.018 C 
ENDBRANCH   1   8
TORSDOF 1
ENDMDL
