MODEL 1
REMARK minimizedAffinity 2.34967065
REMARK minimizedRMSD -1
REMARK  1 active torsions:
REMARK  status: ('A' for Active; 'I' for Inactive)
REMARK    1  A    between atoms: C1_2  and  C2_3 
ROOT
ATOM      1  C2  UNL d   1      -3.575   1.885  -3.269  0.00  0.00    -0.076 A 
ATOM      2  C3  UNL d   1      -4.797   2.421  -2.828  0.00  0.00     0.004 A 
ATOM      3  C4  UNL d   1      -6.000   1.760  -3.071  0.00  0.00    -0.003 A 
ATOM      4  C5  UNL d   1      -6.000   0.551  -3.759  0.00  0.00     0.000 A 
ATOM      5  C6  UNL d   1      -4.795  -0.004  -4.188  0.00  0.00     0.000 A 
ATOM      6  C7  UNL d   1      -3.572   0.641  -3.937  0.00  0.00    -0.073 A 
ATOM      7  C8  UNL d   1      -2.303   0.000  -4.428  0.00  0.00     0.078 C 
ENDROOT
BRANCH   1   8
ATOM      8  C1  UNL d   1      -2.305   2.660  -3.000  0.00  0.00     0.053 C 
ATOM      9  C   UNL d   1      -2.428   4.128  -3.375  0.00  0.00     0.018 C 
ENDBRANCH   1   8
TORSDOF 1
ENDMDL
