MODEL 1
REMARK minimizedAffinity 2.77527404
REMARK minimizedRMSD -1
REMARK  1 active torsions:
REMARK  status: ('A' for Active; 'I' for Inactive)
REMARK    1  A    between atoms: C1_2  and  C2_3 
ROOT
ATOM      1  C2  UNL d   1      -5.597   1.263  -2.613  0.00  0.00    -0.076 A 
ATOM      2  C3  UNL d   1      -5.998   1.135  -1.272  0.00  0.00     0.004 A 
ATOM      3  C4  UNL d   1      -5.676  -0.001  -0.532  0.00  0.00    -0.003 A 
ATOM      4  C5  UNL d   1      -4.947  -1.029  -1.121  0.00  0.00     0.000 A 
ATOM      5  C6  UNL d   1      -4.527  -0.911  -2.446  0.00  0.00     0.000 A 
ATOM      6  C7  UNL d   1      -4.829   0.235  -3.201  0.00  0.00    -0.073 A 
ATOM      7  C8  UNL d   1      -4.355   0.306  -4.627  0.00  0.00     0.078 C 
ENDROOT
BRANCH   1   8
ATOM      8  C1  UNL d   1      -5.999   2.506  -3.374  0.00  0.00     0.053 C 
ATOM      9  C   UNL d   1      -6.000   3.750  -2.499  0.00  0.00     0.018 C 
ENDBRANCH   1   8
TORSDOF 1
ENDMDL
