MODEL 1
REMARK minimizedAffinity -3.0935955
REMARK minimizedRMSD -1
REMARK  0 active torsions:
REMARK  status: ('A' for Active; 'I' for Inactive)
ROOT
ATOM      1  C   UNL d   1      -1.666  -1.970   1.586  0.00  0.00    -0.002 A 
ATOM      2  C1  UNL d   1      -1.602  -2.719   0.420  0.00  0.00     0.010 A 
ATOM      3  C2  UNL d   1      -1.030  -2.185  -0.737  0.00  0.00     0.041 A 
ATOM      4  C3  UNL d   1      -0.517  -0.874  -0.700  0.00  0.00    -0.075 A 
ATOM      5  S   UNL d   1       0.229  -0.013  -1.995  0.00  0.00     0.015 SA
ATOM      6  C4  UNL d   1       0.481   1.369  -1.029  0.00  0.00     0.022 A 
ATOM      7  C5  UNL d   1       0.013   1.196   0.252  0.00  0.00     0.026 A 
ATOM      8  C6  UNL d   1      -0.569  -0.100   0.463  0.00  0.00    -0.082 A 
ATOM      9  C7  UNL d   1      -1.156  -0.669   1.618  0.00  0.00     0.045 A 
ENDROOT
TORSDOF 0
ENDMDL
