MODEL 1
REMARK minimizedAffinity 0.312401444
REMARK minimizedRMSD -1
REMARK  0 active torsions:
REMARK  status: ('A' for Active; 'I' for Inactive)
ROOT
ATOM      1  C   UNL d   1      -1.270  -1.916   0.968  0.00  0.00    -0.002 A 
ATOM      2  C1  UNL d   1      -0.469  -2.373  -0.069  0.00  0.00     0.010 A 
ATOM      3  C2  UNL d   1       0.378  -1.496  -0.751  0.00  0.00     0.041 A 
ATOM      4  C3  UNL d   1       0.408  -0.141  -0.367  0.00  0.00    -0.075 A 
ATOM      5  S   UNL d   1       1.368   1.113  -1.058  0.00  0.00     0.015 SA
ATOM      6  C4  UNL d   1       0.739   2.284   0.009  0.00  0.00     0.022 A 
ATOM      7  C5  UNL d   1      -0.183   1.749   0.877  0.00  0.00     0.026 A 
ATOM      8  C6  UNL d   1      -0.388   0.342   0.675  0.00  0.00    -0.082 A 
ATOM      9  C7  UNL d   1      -1.237  -0.571   1.346  0.00  0.00     0.045 A 
ENDROOT
TORSDOF 0
ENDMDL
