MODEL 1
REMARK minimizedAffinity 4.45830727
REMARK minimizedRMSD -1
REMARK  0 active torsions:
REMARK  status: ('A' for Active; 'I' for Inactive)
ROOT
ATOM      1  C   UNL d   1      -1.027  -1.245   1.870  0.00  0.00    -0.002 A 
ATOM      2  C1  UNL d   1      -1.364  -2.500   1.384  0.00  0.00     0.010 A 
ATOM      3  C2  UNL d   1      -1.068  -2.854   0.066  0.00  0.00     0.041 A 
ATOM      4  C3  UNL d   1      -0.419  -1.917  -0.762  0.00  0.00    -0.075 A 
ATOM      5  S   UNL d   1       0.044  -2.131  -2.409  0.00  0.00     0.015 SA
ATOM      6  C4  UNL d   1       0.701  -0.561  -2.505  0.00  0.00     0.022 A 
ATOM      7  C5  UNL d   1       0.578   0.123  -1.319  0.00  0.00     0.026 A 
ATOM      8  C6  UNL d   1      -0.069  -0.647  -0.295  0.00  0.00    -0.082 A 
ATOM      9  C7  UNL d   1      -0.384  -0.318   1.046  0.00  0.00     0.045 A 
ENDROOT
TORSDOF 0
ENDMDL
