MODEL 1
REMARK minimizedAffinity -1.25731444
REMARK minimizedRMSD -1
REMARK  0 active torsions:
REMARK  status: ('A' for Active; 'I' for Inactive)
ROOT
ATOM      1  C   UNL d   1      -1.779  -0.454   1.592  0.00  0.00    -0.002 A 
ATOM      2  C1  UNL d   1      -1.502  -1.790   1.339  0.00  0.00     0.010 A 
ATOM      3  C2  UNL d   1      -0.811  -2.166   0.186  0.00  0.00     0.041 A 
ATOM      4  C3  UNL d   1      -0.397  -1.167  -0.717  0.00  0.00    -0.075 A 
ATOM      5  S   UNL d   1       0.463  -1.392  -2.194  0.00  0.00     0.015 SA
ATOM      6  C4  UNL d   1       0.484   0.280  -2.524  0.00  0.00     0.022 A 
ATOM      7  C5  UNL d   1      -0.146   1.007  -1.542  0.00  0.00     0.026 A 
ATOM      8  C6  UNL d   1      -0.664   0.186  -0.484  0.00  0.00    -0.082 A 
ATOM      9  C7  UNL d   1      -1.367   0.535   0.694  0.00  0.00     0.045 A 
ENDROOT
TORSDOF 0
ENDMDL
