MODEL 1
REMARK minimizedAffinity -3.15011549
REMARK minimizedRMSD -1
REMARK  0 active torsions:
REMARK  status: ('A' for Active; 'I' for Inactive)
ROOT
ATOM      1  C   UNL d   1      -0.366  -3.491  -1.817  0.00  0.00    -0.002 A 
ATOM      2  C1  UNL d   1       0.184  -2.516  -2.637  0.00  0.00     0.010 A 
ATOM      3  C2  UNL d   1       0.342  -1.207  -2.176  0.00  0.00     0.041 A 
ATOM      4  C3  UNL d   1      -0.065  -0.893  -0.865  0.00  0.00    -0.075 A 
ATOM      5  S   UNL d   1       0.033   0.643  -0.086  0.00  0.00     0.015 SA
ATOM      6  C4  UNL d   1      -0.652   0.040   1.353  0.00  0.00     0.022 A 
ATOM      7  C5  UNL d   1      -0.954  -1.298   1.260  0.00  0.00     0.026 A 
ATOM      8  C6  UNL d   1      -0.620  -1.858  -0.020  0.00  0.00    -0.082 A 
ATOM      9  C7  UNL d   1      -0.767  -3.175  -0.516  0.00  0.00     0.045 A 
ENDROOT
TORSDOF 0
ENDMDL
