MODEL 1
REMARK minimizedAffinity 0.986214936
REMARK minimizedRMSD -1
REMARK  0 active torsions:
REMARK  status: ('A' for Active; 'I' for Inactive)
ROOT
ATOM      1  C   UNL d   1       0.187   1.501  -0.218  0.00  0.00    -0.002 A 
ATOM      2  C1  UNL d   1       0.648   0.773  -1.306  0.00  0.00     0.010 A 
ATOM      3  C2  UNL d   1       0.406  -0.599  -1.397  0.00  0.00     0.041 A 
ATOM      4  C3  UNL d   1      -0.315  -1.233  -0.367  0.00  0.00    -0.075 A 
ATOM      5  S   UNL d   1      -0.731  -2.903  -0.265  0.00  0.00     0.015 SA
ATOM      6  C4  UNL d   1      -1.531  -2.690   1.224  0.00  0.00     0.022 A 
ATOM      7  C5  UNL d   1      -1.491  -1.383   1.649  0.00  0.00     0.026 A 
ATOM      8  C6  UNL d   1      -0.790  -0.522   0.738  0.00  0.00    -0.082 A 
ATOM      9  C7  UNL d   1      -0.528   0.868   0.802  0.00  0.00     0.045 A 
ENDROOT
TORSDOF 0
ENDMDL
