MODEL 1
REMARK minimizedAffinity -5.62316656
REMARK minimizedRMSD -1
REMARK  2 active torsions:
REMARK  status: ('A' for Active; 'I' for Inactive)
REMARK    1  A    between atoms: C2'_3  and  C1'_4 
REMARK    2  A    between atoms: C1'_4  and  C1_5 
ROOT
ATOM      1  C1  I4B d   1      -0.155  -0.484   0.558  0.00  0.00    -0.075 A 
ATOM      2  C2  I4B d   1      -1.225  -1.260   0.931  0.00  0.00     0.003 A 
ATOM      3  C3  I4B d   1      -1.250  -2.639   0.612  0.00  0.00     0.002 A 
ATOM      4  C4  I4B d   1      -0.217  -3.187  -0.120  0.00  0.00    -0.004 A 
ATOM      5  C5  I4B d   1       0.877  -2.404  -0.477  0.00  0.00     0.002 A 
ATOM      6  C6  I4B d   1       0.915  -1.047  -0.126  0.00  0.00     0.003 A 
ENDROOT
BRANCH   1   7
ATOM      7  C1' I4B d   1      -0.176   0.976   0.883  0.00  0.00     0.060 C 
BRANCH   7   8
ATOM      8  C2' I4B d   1       0.482   1.718  -0.263  0.00  0.00    -0.013 C 
ATOM      9  C4' I4B d   1      -0.403   1.733  -1.482  0.00  0.00     0.013 C 
ATOM     10  C3' I4B d   1       0.786   3.111   0.202  0.00  0.00     0.013 C 
ENDBRANCH   7   8
ENDBRANCH   1   7
TORSDOF 2
ENDMDL
