MODEL 1
REMARK minimizedAffinity -4.1291399
REMARK minimizedRMSD -1
REMARK  2 active torsions:
REMARK  status: ('A' for Active; 'I' for Inactive)
REMARK    1  A    between atoms: C2'_3  and  C1'_4 
REMARK    2  A    between atoms: C1'_4  and  C1_5 
ROOT
ATOM      1  C1  I4B d   1       0.390  -1.364  -0.004  0.00  0.00    -0.075 A 
ATOM      2  C2  I4B d   1       0.802  -0.422  -0.913  0.00  0.00     0.003 A 
ATOM      3  C3  I4B d   1       0.120   0.815  -1.017  0.00  0.00     0.002 A 
ATOM      4  C4  I4B d   1      -0.992   1.046  -0.232  0.00  0.00    -0.004 A 
ATOM      5  C5  I4B d   1      -1.394   0.099   0.706  0.00  0.00     0.002 A 
ATOM      6  C6  I4B d   1      -0.691  -1.109   0.829  0.00  0.00     0.003 A 
ENDROOT
BRANCH   1   7
ATOM      7  C1' I4B d   1       1.113  -2.672   0.056  0.00  0.00     0.060 C 
BRANCH   7   8
ATOM      8  C2' I4B d   1       0.573  -3.555  -1.051  0.00  0.00    -0.013 C 
ATOM      9  C4' I4B d   1      -0.877  -3.891  -0.821  0.00  0.00     0.013 C 
ATOM     10  C3' I4B d   1       0.762  -2.834  -2.352  0.00  0.00     0.013 C 
ENDBRANCH   7   8
ENDBRANCH   1   7
TORSDOF 2
ENDMDL
