MODEL 1
REMARK minimizedAffinity -2.52762222
REMARK minimizedRMSD -1
REMARK  2 active torsions:
REMARK  status: ('A' for Active; 'I' for Inactive)
REMARK    1  A    between atoms: C2'_3  and  C1'_4 
REMARK    2  A    between atoms: C1'_4  and  C1_5 
ROOT
ATOM      1  C1  I4B d   1       0.292   0.307  -0.481  0.00  0.00    -0.075 A 
ATOM      2  C2  I4B d   1       1.106  -0.488  -1.248  0.00  0.00     0.003 A 
ATOM      3  C3  I4B d   1       1.145  -1.887  -1.032  0.00  0.00     0.002 A 
ATOM      4  C4  I4B d   1       0.396  -2.438  -0.012  0.00  0.00    -0.004 A 
ATOM      5  C5  I4B d   1      -0.447  -1.633   0.749  0.00  0.00     0.002 A 
ATOM      6  C6  I4B d   1      -0.509  -0.254   0.506  0.00  0.00     0.003 A 
ENDROOT
BRANCH   1   7
ATOM      7  C1' I4B d   1       0.300   1.785  -0.714  0.00  0.00     0.060 C 
BRANCH   7   8
ATOM      8  C2' I4B d   1       1.187   2.418   0.339  0.00  0.00    -0.013 C 
ATOM      9  C4' I4B d   1       2.488   2.890  -0.256  0.00  0.00     0.013 C 
ATOM     10  C3' I4B d   1       0.431   3.555   0.958  0.00  0.00     0.013 C 
ENDBRANCH   7   8
ENDBRANCH   1   7
TORSDOF 2
ENDMDL
