MODEL 1
REMARK minimizedAffinity -5.47660732
REMARK minimizedRMSD -1
REMARK  2 active torsions:
REMARK  status: ('A' for Active; 'I' for Inactive)
REMARK    1  A    between atoms: C2'_3  and  C1'_4 
REMARK    2  A    between atoms: C1'_4  and  C1_5 
ROOT
ATOM      1  C1  I4B d   1       0.038   0.607   0.089  0.00  0.00    -0.075 A 
ATOM      2  C2  I4B d   1      -0.009  -0.342   1.080  0.00  0.00     0.003 A 
ATOM      3  C3  I4B d   1       0.043  -1.718   0.751  0.00  0.00     0.002 A 
ATOM      4  C4  I4B d   1       0.091  -2.100  -0.574  0.00  0.00    -0.004 A 
ATOM      5  C5  I4B d   1       0.161  -1.136  -1.576  0.00  0.00     0.002 A 
ATOM      6  C6  I4B d   1       0.147   0.226  -1.242  0.00  0.00     0.003 A 
ENDROOT
BRANCH   1   7
ATOM      7  C1' I4B d   1      -0.053   2.051   0.469  0.00  0.00     0.060 C 
BRANCH   7   8
ATOM      8  C2' I4B d   1       1.185   2.402   1.269  0.00  0.00    -0.013 C 
ATOM      9  C4' I4B d   1       2.288   2.904   0.375  0.00  0.00     0.013 C 
ATOM     10  C3' I4B d   1       0.801   3.434   2.287  0.00  0.00     0.013 C 
ENDBRANCH   7   8
ENDBRANCH   1   7
TORSDOF 2
ENDMDL
