MODEL 1
REMARK minimizedAffinity -5.49801874
REMARK minimizedRMSD -1
REMARK  2 active torsions:
REMARK  status: ('A' for Active; 'I' for Inactive)
REMARK    1  A    between atoms: C2'_3  and  C1'_4 
REMARK    2  A    between atoms: C1'_4  and  C1_5 
ROOT
ATOM      1  C1  I4B d   1       0.217  -0.269  -0.602  0.00  0.00    -0.075 A 
ATOM      2  C2  I4B d   1       0.016  -0.814   0.642  0.00  0.00     0.003 A 
ATOM      3  C3  I4B d   1       0.062  -2.218   0.820  0.00  0.00     0.002 A 
ATOM      4  C4  I4B d   1       0.260  -3.036  -0.274  0.00  0.00    -0.004 A 
ATOM      5  C5  I4B d   1       0.486  -2.481  -1.530  0.00  0.00     0.002 A 
ATOM      6  C6  I4B d   1       0.477  -1.088  -1.693  0.00  0.00     0.003 A 
ENDROOT
BRANCH   1   7
ATOM      7  C1' I4B d   1       0.130   1.216  -0.760  0.00  0.00     0.060 C 
BRANCH   7   8
ATOM      8  C2' I4B d   1       0.926   1.853   0.360  0.00  0.00    -0.013 C 
ATOM      9  C4' I4B d   1       2.328   2.178  -0.083  0.00  0.00     0.013 C 
ATOM     10  C3' I4B d   1       0.197   3.087   0.803  0.00  0.00     0.013 C 
ENDBRANCH   7   8
ENDBRANCH   1   7
TORSDOF 2
ENDMDL
