MODEL 1
REMARK minimizedAffinity -3.6422267
REMARK minimizedRMSD -1
REMARK  2 active torsions:
REMARK  status: ('A' for Active; 'I' for Inactive)
REMARK    1  A    between atoms: C2'_3  and  C1'_4 
REMARK    2  A    between atoms: C1'_4  and  C1_5 
ROOT
ATOM      1  C1  I4B d   1      -0.136   0.643  -0.035  0.00  0.00    -0.075 A 
ATOM      2  C2  I4B d   1       0.577  -0.342  -0.670  0.00  0.00     0.003 A 
ATOM      3  C3  I4B d   1       0.413  -1.697  -0.292  0.00  0.00     0.002 A 
ATOM      4  C4  I4B d   1      -0.432  -2.014   0.752  0.00  0.00    -0.004 A 
ATOM      5  C5  I4B d   1      -1.172  -1.016   1.379  0.00  0.00     0.002 A 
ATOM      6  C6  I4B d   1      -1.033   0.320   0.976  0.00  0.00     0.003 A 
ENDROOT
BRANCH   1   7
ATOM      7  C1' I4B d   1       0.087   2.067  -0.436  0.00  0.00     0.060 C 
BRANCH   7   8
ATOM      8  C2' I4B d   1       1.014   2.699   0.581  0.00  0.00    -0.013 C 
ATOM      9  C4' I4B d   1       2.394   2.899   0.011  0.00  0.00     0.013 C 
ATOM     10  C3' I4B d   1       0.411   4.004   1.009  0.00  0.00     0.013 C 
ENDBRANCH   7   8
ENDBRANCH   1   7
TORSDOF 2
ENDMDL
