MODEL 1
REMARK minimizedAffinity -2.01465845
REMARK minimizedRMSD -1
REMARK  2 active torsions:
REMARK  status: ('A' for Active; 'I' for Inactive)
REMARK    1  A    between atoms: C2'_3  and  C1'_4 
REMARK    2  A    between atoms: C1'_4  and  C1_5 
ROOT
ATOM      1  C1  I4B d   1       0.135   0.273  -0.413  0.00  0.00    -0.075 A 
ATOM      2  C2  I4B d   1       0.930  -0.705  -0.955  0.00  0.00     0.003 A 
ATOM      3  C3  I4B d   1       0.824  -2.043  -0.502  0.00  0.00     0.002 A 
ATOM      4  C4  I4B d   1      -0.049  -2.346   0.523  0.00  0.00    -0.004 A 
ATOM      5  C5  I4B d   1      -0.871  -1.357   1.055  0.00  0.00     0.002 A 
ATOM      6  C6  I4B d   1      -0.788  -0.041   0.576  0.00  0.00     0.003 A 
ENDROOT
BRANCH   1   7
ATOM      7  C1' I4B d   1       0.296   1.681  -0.892  0.00  0.00     0.060 C 
BRANCH   7   8
ATOM      8  C2' I4B d   1       1.020   2.461   0.187  0.00  0.00    -0.013 C 
ATOM      9  C4' I4B d   1       2.335   2.995  -0.316  0.00  0.00     0.013 C 
ATOM     10  C3' I4B d   1       0.121   3.573   0.637  0.00  0.00     0.013 C 
ENDBRANCH   7   8
ENDBRANCH   1   7
TORSDOF 2
ENDMDL
