MODEL 1
REMARK minimizedAffinity -3.98804402
REMARK minimizedRMSD -1
REMARK  2 active torsions:
REMARK  status: ('A' for Active; 'I' for Inactive)
REMARK    1  A    between atoms: C2'_3  and  C1'_4 
REMARK    2  A    between atoms: C1'_4  and  C1_5 
ROOT
ATOM      1  C1  I4B d   1       0.734   1.973  -0.060  0.00  0.00    -0.075 A 
ATOM      2  C2  I4B d   1       0.008   2.887   0.662  0.00  0.00     0.003 A 
ATOM      3  C3  I4B d   1       0.669   3.907   1.389  0.00  0.00     0.002 A 
ATOM      4  C4  I4B d   1       2.048   3.945   1.407  0.00  0.00    -0.004 A 
ATOM      5  C5  I4B d   1       2.781   3.031   0.655  0.00  0.00     0.002 A 
ATOM      6  C6  I4B d   1       2.120   2.046  -0.093  0.00  0.00     0.003 A 
ENDROOT
BRANCH   1   7
ATOM      7  C1' I4B d   1       0.005   0.889  -0.789  0.00  0.00     0.060 C 
BRANCH   7   8
ATOM      8  C2' I4B d   1       0.731  -0.416  -0.533  0.00  0.00    -0.013 C 
ATOM      9  C4' I4B d   1       0.059  -1.210   0.555  0.00  0.00     0.013 C 
ATOM     10  C3' I4B d   1       0.770  -1.185  -1.820  0.00  0.00     0.013 C 
ENDBRANCH   7   8
ENDBRANCH   1   7
TORSDOF 2
ENDMDL
