MODEL 1
REMARK minimizedAffinity -3.98745084
REMARK minimizedRMSD -1
REMARK  2 active torsions:
REMARK  status: ('A' for Active; 'I' for Inactive)
REMARK    1  A    between atoms: C2'_3  and  C1'_4 
REMARK    2  A    between atoms: C1'_4  and  C1_5 
ROOT
ATOM      1  C1  I4B d   1      -0.361   0.311   0.254  0.00  0.00    -0.075 A 
ATOM      2  C2  I4B d   1       0.152  -0.878  -0.203  0.00  0.00     0.003 A 
ATOM      3  C3  I4B d   1      -0.139  -2.087   0.473  0.00  0.00     0.002 A 
ATOM      4  C4  I4B d   1      -0.900  -2.056   1.624  0.00  0.00    -0.004 A 
ATOM      5  C5  I4B d   1      -1.438  -0.853   2.073  0.00  0.00     0.002 A 
ATOM      6  C6  I4B d   1      -1.177   0.336   1.377  0.00  0.00     0.003 A 
ENDROOT
BRANCH   1   7
ATOM      7  C1' I4B d   1      -0.006   1.573  -0.466  0.00  0.00     0.060 C 
BRANCH   7   8
ATOM      8  C2' I4B d   1       0.579   2.538   0.544  0.00  0.00    -0.013 C 
ATOM      9  C4' I4B d   1       1.998   2.902   0.192  0.00  0.00     0.013 C 
ATOM     10  C3' I4B d   1      -0.297   3.754   0.586  0.00  0.00     0.013 C 
ENDBRANCH   7   8
ENDBRANCH   1   7
TORSDOF 2
ENDMDL
