MODEL 1
REMARK minimizedAffinity 0.813303888
REMARK minimizedRMSD -1
REMARK  0 active torsions:
REMARK  status: ('A' for Active; 'I' for Inactive)
ROOT
ATOM      1  C   UNL d   1       0.042   2.310   1.514  0.00  0.00     0.172 C 
ATOM      2  N   UNL d   1       0.160   1.312   2.551  0.00  0.00    -0.070 N 
ATOM      3  C1  UNL d   1      -0.732   1.111   3.571  0.00  0.00    -0.004 A 
ATOM      4  C2  UNL d   1      -0.262   0.071   4.343  0.00  0.00    -0.047 A 
ATOM      5  C3  UNL d   1       0.955  -0.367   3.769  0.00  0.00    -0.047 A 
ATOM      6  C4  UNL d   1       1.193   0.418   2.661  0.00  0.00    -0.004 A 
ENDROOT
TORSDOF 0
ENDMDL
