MODEL 1
REMARK minimizedAffinity 2.68879104
REMARK minimizedRMSD -1
REMARK  0 active torsions:
REMARK  status: ('A' for Active; 'I' for Inactive)
ROOT
ATOM      1  C   UNL d   1       0.498   1.469   0.829  0.00  0.00     0.172 C 
ATOM      2  N   UNL d   1       0.137   1.388  -0.567  0.00  0.00    -0.070 N 
ATOM      3  C1  UNL d   1       0.302   0.292  -1.372  0.00  0.00    -0.004 A 
ATOM      4  C2  UNL d   1      -0.165   0.616  -2.627  0.00  0.00    -0.047 A 
ATOM      5  C3  UNL d   1      -0.626   1.953  -2.576  0.00  0.00    -0.047 A 
ATOM      6  C4  UNL d   1      -0.427   2.407  -1.289  0.00  0.00    -0.004 A 
ENDROOT
TORSDOF 0
ENDMDL
