MODEL 1
REMARK minimizedAffinity 0.0275499262
REMARK minimizedRMSD -1
REMARK  0 active torsions:
REMARK  status: ('A' for Active; 'I' for Inactive)
ROOT
ATOM      1  C   UNL d   1       0.255  -4.501  -1.059  0.00  0.00     0.172 C 
ATOM      2  N   UNL d   1      -0.665  -3.690  -1.820  0.00  0.00    -0.070 N 
ATOM      3  C1  UNL d   1      -1.175  -2.480  -1.430  0.00  0.00    -0.004 A 
ATOM      4  C2  UNL d   1      -2.010  -2.031  -2.429  0.00  0.00    -0.047 A 
ATOM      5  C3  UNL d   1      -2.004  -3.005  -3.456  0.00  0.00    -0.047 A 
ATOM      6  C4  UNL d   1      -1.163  -4.021  -3.053  0.00  0.00    -0.004 A 
ENDROOT
TORSDOF 0
ENDMDL
