MODEL 1
REMARK minimizedAffinity 1.01929402
REMARK minimizedRMSD -1
REMARK  0 active torsions:
REMARK  status: ('A' for Active; 'I' for Inactive)
ROOT
ATOM      1  C   UNL d   1       0.156  -0.357   4.237  0.00  0.00     0.172 C 
ATOM      2  N   UNL d   1       0.112   0.624   3.178  0.00  0.00    -0.070 N 
ATOM      3  C1  UNL d   1       1.141   0.926   2.326  0.00  0.00    -0.004 A 
ATOM      4  C2  UNL d   1       0.701   1.908   1.465  0.00  0.00    -0.047 A 
ATOM      5  C3  UNL d   1      -0.638   2.207   1.811  0.00  0.00    -0.047 A 
ATOM      6  C4  UNL d   1      -0.977   1.398   2.875  0.00  0.00    -0.004 A 
ENDROOT
TORSDOF 0
ENDMDL
