MODEL 1
REMARK minimizedAffinity 3.44674015
REMARK minimizedRMSD -1
REMARK  0 active torsions:
REMARK  status: ('A' for Active; 'I' for Inactive)
ROOT
ATOM      1  C   UNL d   1      -0.150   1.771   0.481  0.00  0.00     0.172 C 
ATOM      2  N   UNL d   1      -0.340   1.342  -0.885  0.00  0.00    -0.070 N 
ATOM      3  C1  UNL d   1       0.378   0.365  -1.522  0.00  0.00    -0.004 A 
ATOM      4  C2  UNL d   1      -0.107   0.255  -2.807  0.00  0.00    -0.047 A 
ATOM      5  C3  UNL d   1      -1.152   1.199  -2.947  0.00  0.00    -0.047 A 
ATOM      6  C4  UNL d   1      -1.275   1.858  -1.742  0.00  0.00    -0.004 A 
ENDROOT
TORSDOF 0
ENDMDL
