MODEL 1
REMARK minimizedAffinity 3.31627464
REMARK minimizedRMSD -1
REMARK  0 active torsions:
REMARK  status: ('A' for Active; 'I' for Inactive)
ROOT
ATOM      1  C   UNL d   1      -0.980   2.171  -2.699  0.00  0.00     0.172 C 
ATOM      2  N   UNL d   1      -2.301   2.694  -2.441  0.00  0.00    -0.070 N 
ATOM      3  C1  UNL d   1      -3.305   2.035  -1.783  0.00  0.00    -0.004 A 
ATOM      4  C2  UNL d   1      -4.401   2.870  -1.743  0.00  0.00    -0.047 A 
ATOM      5  C3  UNL d   1      -4.044   4.071  -2.400  0.00  0.00    -0.047 A 
ATOM      6  C4  UNL d   1      -2.738   3.935  -2.822  0.00  0.00    -0.004 A 
ENDROOT
TORSDOF 0
ENDMDL
