MODEL 1
REMARK minimizedAffinity 0.250161916
REMARK minimizedRMSD -1
REMARK  0 active torsions:
REMARK  status: ('A' for Active; 'I' for Inactive)
ROOT
ATOM      1  C   UNL d   1       0.142  -0.022  -0.246  0.00  0.00     0.172 C 
ATOM      2  N   UNL d   1       0.239   0.714   0.993  0.00  0.00    -0.070 N 
ATOM      3  C1  UNL d   1       0.280   0.165   2.247  0.00  0.00    -0.004 A 
ATOM      4  C2  UNL d   1       0.374   1.196   3.157  0.00  0.00    -0.047 A 
ATOM      5  C3  UNL d   1       0.389   2.407   2.424  0.00  0.00    -0.047 A 
ATOM      6  C4  UNL d   1       0.305   2.079   1.088  0.00  0.00    -0.004 A 
ENDROOT
TORSDOF 0
ENDMDL
