MODEL 1
REMARK minimizedAffinity -2.42647648
REMARK minimizedRMSD -1
REMARK  0 active torsions:
REMARK  status: ('A' for Active; 'I' for Inactive)
ROOT
ATOM      1  C   UNL d   1       0.507   0.774  -1.461  0.00  0.00     0.172 C 
ATOM      2  N   UNL d   1       0.527   1.411  -0.166  0.00  0.00    -0.070 N 
ATOM      3  C1  UNL d   1       0.395   0.774   1.039  0.00  0.00    -0.004 A 
ATOM      4  C2  UNL d   1       0.469   1.728   2.031  0.00  0.00    -0.047 A 
ATOM      5  C3  UNL d   1       0.651   2.981   1.401  0.00  0.00    -0.047 A 
ATOM      6  C4  UNL d   1       0.683   2.756   0.041  0.00  0.00    -0.004 A 
ENDROOT
TORSDOF 0
ENDMDL
