MODEL 1
REMARK minimizedAffinity -3.27331114
REMARK minimizedRMSD -1
REMARK  0 active torsions:
REMARK  status: ('A' for Active; 'I' for Inactive)
ROOT
ATOM      1  C   UNL d   1       1.228   1.466   1.196  0.00  0.00     0.172 C 
ATOM      2  N   UNL d   1       1.297   0.631   0.020  0.00  0.00    -0.070 N 
ATOM      3  C1  UNL d   1       2.008   0.910  -1.116  0.00  0.00    -0.004 A 
ATOM      4  C2  UNL d   1       1.816  -0.130  -2.000  0.00  0.00    -0.047 A 
ATOM      5  C3  UNL d   1       0.959  -1.066  -1.374  0.00  0.00    -0.047 A 
ATOM      6  C4  UNL d   1       0.653  -0.570  -0.124  0.00  0.00    -0.004 A 
ENDROOT
TORSDOF 0
ENDMDL
