MODEL 1
REMARK minimizedAffinity -3.37678647
REMARK minimizedRMSD -1
REMARK  0 active torsions:
REMARK  status: ('A' for Active; 'I' for Inactive)
ROOT
ATOM      1  C   UNL d   1       0.539  -2.489  -0.478  0.00  0.00     0.172 C 
ATOM      2  N   UNL d   1       0.897  -1.121  -0.769  0.00  0.00    -0.070 N 
ATOM      3  C1  UNL d   1       0.543  -0.028  -0.024  0.00  0.00    -0.004 A 
ATOM      4  C2  UNL d   1       1.078   1.088  -0.632  0.00  0.00    -0.047 A 
ATOM      5  C3  UNL d   1       1.776   0.650  -1.782  0.00  0.00    -0.047 A 
ATOM      6  C4  UNL d   1       1.648  -0.722  -1.843  0.00  0.00    -0.004 A 
ENDROOT
TORSDOF 0
ENDMDL
