MODEL 1
REMARK minimizedAffinity -1.06490827
REMARK minimizedRMSD -1
REMARK  0 active torsions:
REMARK  status: ('A' for Active; 'I' for Inactive)
ROOT
ATOM      1  C   UNL d   1      -1.744   0.152   1.580  0.00  0.00     0.172 C 
ATOM      2  N   UNL d   1      -0.781  -0.421   0.670  0.00  0.00    -0.070 N 
ATOM      3  C1  UNL d   1      -0.204  -1.657   0.792  0.00  0.00    -0.004 A 
ATOM      4  C2  UNL d   1       0.654  -1.830  -0.272  0.00  0.00    -0.047 A 
ATOM      5  C3  UNL d   1       0.592  -0.656  -1.061  0.00  0.00    -0.047 A 
ATOM      6  C4  UNL d   1      -0.304   0.199  -0.455  0.00  0.00    -0.004 A 
ENDROOT
TORSDOF 0
ENDMDL
