MODEL 1
REMARK minimizedAffinity -1.92077577
REMARK minimizedRMSD -1
REMARK  0 active torsions:
REMARK  status: ('A' for Active; 'I' for Inactive)
ROOT
ATOM      1  C   UNL d   1      -1.854   3.739  -5.988  0.00  0.00     0.172 C 
ATOM      2  N   UNL d   1      -3.250   4.105  -5.950  0.00  0.00    -0.070 N 
ATOM      3  C1  UNL d   1      -3.742   5.383  -5.999  0.00  0.00    -0.004 A 
ATOM      4  C2  UNL d   1      -5.117   5.308  -5.939  0.00  0.00    -0.047 A 
ATOM      5  C3  UNL d   1      -5.463   3.939  -5.849  0.00  0.00    -0.047 A 
ATOM      6  C4  UNL d   1      -4.289   3.217  -5.858  0.00  0.00    -0.004 A 
ENDROOT
TORSDOF 0
ENDMDL
