MODEL 1
REMARK minimizedAffinity -2.90646005
REMARK minimizedRMSD -1
REMARK  0 active torsions:
REMARK  status: ('A' for Active; 'I' for Inactive)
ROOT
ATOM      1  C   UNL d   1       1.862   2.247   0.738  0.00  0.00     0.172 C 
ATOM      2  N   UNL d   1       1.557   1.443  -0.422  0.00  0.00    -0.070 N 
ATOM      3  C1  UNL d   1       0.343   0.875  -0.703  0.00  0.00    -0.004 A 
ATOM      4  C2  UNL d   1       0.462   0.192  -1.894  0.00  0.00    -0.047 A 
ATOM      5  C3  UNL d   1       1.794   0.354  -2.344  0.00  0.00    -0.047 A 
ATOM      6  C4  UNL d   1       2.449   1.133  -1.414  0.00  0.00    -0.004 A 
ENDROOT
TORSDOF 0
ENDMDL
