MODEL 1
REMARK minimizedAffinity -1.20305145
REMARK minimizedRMSD -1
REMARK  0 active torsions:
REMARK  status: ('A' for Active; 'I' for Inactive)
ROOT
ATOM      1  C   UNL d   1      -0.956  -0.602   1.143  0.00  0.00     0.172 C 
ATOM      2  N   UNL d   1      -2.214   0.067   1.377  0.00  0.00    -0.070 N 
ATOM      3  C1  UNL d   1      -3.455  -0.453   1.118  0.00  0.00    -0.004 A 
ATOM      4  C2  UNL d   1      -4.391   0.492   1.479  0.00  0.00    -0.047 A 
ATOM      5  C3  UNL d   1      -3.690   1.618   1.970  0.00  0.00    -0.047 A 
ATOM      6  C4  UNL d   1      -2.344   1.328   1.896  0.00  0.00    -0.004 A 
ENDROOT
TORSDOF 0
ENDMDL
