MODEL 1
REMARK minimizedAffinity -2.68742681
REMARK minimizedRMSD -1
REMARK  0 active torsions:
REMARK  status: ('A' for Active; 'I' for Inactive)
ROOT
ATOM      1  C   UNL d   1       1.530   1.514   2.667  0.00  0.00     0.172 C 
ATOM      2  N   UNL d   1       0.990   1.184   1.369  0.00  0.00    -0.070 N 
ATOM      3  C1  UNL d   1       1.276   1.831   0.197  0.00  0.00    -0.004 A 
ATOM      4  C2  UNL d   1       0.563   1.217  -0.810  0.00  0.00    -0.047 A 
ATOM      5  C3  UNL d   1      -0.177   0.163  -0.222  0.00  0.00    -0.047 A 
ATOM      6  C4  UNL d   1       0.106   0.165   1.127  0.00  0.00    -0.004 A 
ENDROOT
TORSDOF 0
ENDMDL
