MODEL 1
REMARK minimizedAffinity -1.91545486
REMARK minimizedRMSD -1
REMARK  0 active torsions:
REMARK  status: ('A' for Active; 'I' for Inactive)
ROOT
ATOM      1  C   UNL d   1       2.306   0.529  -2.216  0.00  0.00     0.172 C 
ATOM      2  N   UNL d   1       1.377   0.391  -1.119  0.00  0.00    -0.070 N 
ATOM      3  C1  UNL d   1       0.640  -0.727  -0.833  0.00  0.00    -0.004 A 
ATOM      4  C2  UNL d   1      -0.118  -0.458   0.286  0.00  0.00    -0.047 A 
ATOM      5  C3  UNL d   1       0.173   0.868   0.685  0.00  0.00    -0.047 A 
ATOM      6  C4  UNL d   1       1.101   1.370  -0.202  0.00  0.00    -0.004 A 
ENDROOT
TORSDOF 0
ENDMDL
