MODEL 1
REMARK minimizedAffinity -2.91845131
REMARK minimizedRMSD -1
REMARK  0 active torsions:
REMARK  status: ('A' for Active; 'I' for Inactive)
ROOT
ATOM      1  C   UNL d   1       1.675   0.080  -2.868  0.00  0.00     0.172 C 
ATOM      2  N   UNL d   1       1.072  -0.161  -1.578  0.00  0.00    -0.070 N 
ATOM      3  C1  UNL d   1       0.691   0.802  -0.682  0.00  0.00    -0.004 A 
ATOM      4  C2  UNL d   1       0.160   0.167   0.420  0.00  0.00    -0.047 A 
ATOM      5  C3  UNL d   1       0.226  -1.226   0.179  0.00  0.00    -0.047 A 
ATOM      6  C4  UNL d   1       0.794  -1.401  -1.065  0.00  0.00    -0.004 A 
ENDROOT
TORSDOF 0
ENDMDL
