MODEL 1
REMARK minimizedAffinity -1.68515897
REMARK minimizedRMSD -1
REMARK  0 active torsions:
REMARK  status: ('A' for Active; 'I' for Inactive)
ROOT
ATOM      1  C   UNL d   1      -0.765  -0.247   1.730  0.00  0.00     0.172 C 
ATOM      2  N   UNL d   1      -0.291  -0.570   0.405  0.00  0.00    -0.070 N 
ATOM      3  C1  UNL d   1       0.018  -1.824  -0.049  0.00  0.00    -0.004 A 
ATOM      4  C2  UNL d   1       0.430  -1.709  -1.359  0.00  0.00    -0.047 A 
ATOM      5  C3  UNL d   1       0.367  -0.338  -1.705  0.00  0.00    -0.047 A 
ATOM      6  C4  UNL d   1      -0.083   0.345  -0.594  0.00  0.00    -0.004 A 
ENDROOT
TORSDOF 0
ENDMDL
