MODEL 1
REMARK minimizedAffinity -2.48892975
REMARK minimizedRMSD -1
REMARK  0 active torsions:
REMARK  status: ('A' for Active; 'I' for Inactive)
ROOT
ATOM      1  C   UNL d   1       1.223  -0.346  -2.670  0.00  0.00     0.172 C 
ATOM      2  N   UNL d   1       0.525  -0.630  -1.438  0.00  0.00    -0.070 N 
ATOM      3  C1  UNL d   1       0.435  -1.857  -0.837  0.00  0.00    -0.004 A 
ATOM      4  C2  UNL d   1      -0.310  -1.709   0.313  0.00  0.00    -0.047 A 
ATOM      5  C3  UNL d   1      -0.681  -0.346   0.406  0.00  0.00    -0.047 A 
ATOM      6  C4  UNL d   1      -0.151   0.299  -0.692  0.00  0.00    -0.004 A 
ENDROOT
TORSDOF 0
ENDMDL
