MODEL 1
REMARK minimizedAffinity -3.26704073
REMARK minimizedRMSD -1
REMARK  0 active torsions:
REMARK  status: ('A' for Active; 'I' for Inactive)
ROOT
ATOM      1  C   UNL d   1       1.347   0.244  -3.066  0.00  0.00     0.172 C 
ATOM      2  N   UNL d   1       1.014  -0.126  -1.710  0.00  0.00    -0.070 N 
ATOM      3  C1  UNL d   1       0.993   0.720  -0.634  0.00  0.00    -0.004 A 
ATOM      4  C2  UNL d   1       0.629  -0.015   0.474  0.00  0.00    -0.047 A 
ATOM      5  C3  UNL d   1       0.425  -1.349   0.048  0.00  0.00    -0.047 A 
ATOM      6  C4  UNL d   1       0.670  -1.390  -1.308  0.00  0.00    -0.004 A 
ENDROOT
TORSDOF 0
ENDMDL
