MODEL 1
REMARK minimizedAffinity -3.77728701
REMARK minimizedRMSD -1
REMARK  0 active torsions:
REMARK  status: ('A' for Active; 'I' for Inactive)
ROOT
ATOM      1  C   UNL d   1      -1.052  -0.021  -0.010  0.00  0.00     0.172 C 
ATOM      2  N   UNL d   1      -0.096  -0.047  -1.092  0.00  0.00    -0.070 N 
ATOM      3  C1  UNL d   1      -0.342  -0.491  -2.364  0.00  0.00    -0.004 A 
ATOM      4  C2  UNL d   1       0.821  -0.352  -3.092  0.00  0.00    -0.047 A 
ATOM      5  C3  UNL d   1       1.799   0.193  -2.227  0.00  0.00    -0.047 A 
ATOM      6  C4  UNL d   1       1.205   0.372  -0.995  0.00  0.00    -0.004 A 
ENDROOT
TORSDOF 0
ENDMDL
