MODEL 1
REMARK minimizedAffinity -1.49733937
REMARK minimizedRMSD -1
REMARK  0 active torsions:
REMARK  status: ('A' for Active; 'I' for Inactive)
ROOT
ATOM      1  C   UNL d   1       0.805  -0.204  -2.407  0.00  0.00     0.172 C 
ATOM      2  N   UNL d   1       0.460  -0.339  -1.011  0.00  0.00    -0.070 N 
ATOM      3  C1  UNL d   1       0.469   0.671  -0.086  0.00  0.00    -0.004 A 
ATOM      4  C2  UNL d   1       0.080   0.137   1.124  0.00  0.00    -0.047 A 
ATOM      5  C3  UNL d   1      -0.171  -1.240   0.919  0.00  0.00    -0.047 A 
ATOM      6  C4  UNL d   1       0.073  -1.508  -0.412  0.00  0.00    -0.004 A 
ENDROOT
TORSDOF 0
ENDMDL
