MODEL 1
REMARK minimizedAffinity -0.944871187
REMARK minimizedRMSD -1
REMARK  0 active torsions:
REMARK  status: ('A' for Active; 'I' for Inactive)
ROOT
ATOM      1  C   UNL d   1       0.427  -0.158   0.238  0.00  0.00     0.172 C 
ATOM      2  N   UNL d   1       0.676   1.205  -0.168  0.00  0.00    -0.070 N 
ATOM      3  C1  UNL d   1      -0.242   2.051  -0.730  0.00  0.00    -0.004 A 
ATOM      4  C2  UNL d   1       0.385   3.255  -0.971  0.00  0.00    -0.047 A 
ATOM      5  C3  UNL d   1       1.727   3.126  -0.541  0.00  0.00    -0.047 A 
ATOM      6  C4  UNL d   1       1.880   1.848  -0.048  0.00  0.00    -0.004 A 
ENDROOT
TORSDOF 0
ENDMDL
