MODEL 1
REMARK minimizedAffinity 3.62547898
REMARK minimizedRMSD -1
REMARK  1 active torsions:
REMARK  status: ('A' for Active; 'I' for Inactive)
REMARK    1  A    between atoms: C1_2  and  C2_3 
ROOT
ATOM      1  C2  UNL d   1       3.975   2.429   2.942  0.00  0.00    -0.077 A 
ATOM      2  C3  UNL d   1       4.236   3.402   3.917  0.00  0.00     0.002 A 
ATOM      3  C4  UNL d   1       4.367   4.745   3.557  0.00  0.00     0.002 A 
ATOM      4  C5  UNL d   1       4.234   5.127   2.224  0.00  0.00    -0.004 A 
ATOM      5  C6  UNL d   1       3.976   4.166   1.247  0.00  0.00     0.002 A 
ATOM      6  C7  UNL d   1       3.846   2.823   1.604  0.00  0.00     0.002 A 
ENDROOT
BRANCH   1   7
ATOM      7  C1  UNL d   1       3.784   0.987   3.334  0.00  0.00     0.055 C 
ATOM      8  C   UNL d   1       2.308   0.625   3.411  0.00  0.00     0.019 C 
ENDBRANCH   1   7
TORSDOF 1
ENDMDL
