MODEL 1
REMARK minimizedAffinity 10.9176855
REMARK minimizedRMSD -1
REMARK  1 active torsions:
REMARK  status: ('A' for Active; 'I' for Inactive)
REMARK    1  A    between atoms: C1_2  and  C2_3 
ROOT
ATOM      1  C2  UNL d   1      -0.479  -0.663   1.991  0.00  0.00    -0.077 A 
ATOM      2  C3  UNL d   1       0.584  -1.492   2.374  0.00  0.00     0.002 A 
ATOM      3  C4  UNL d   1       1.641  -0.982   3.130  0.00  0.00     0.002 A 
ATOM      4  C5  UNL d   1       1.643   0.358   3.513  0.00  0.00    -0.004 A 
ATOM      5  C6  UNL d   1       0.591   1.191   3.135  0.00  0.00     0.002 A 
ATOM      6  C7  UNL d   1      -0.466   0.683   2.379  0.00  0.00     0.002 A 
ENDROOT
BRANCH   1   7
ATOM      7  C1  UNL d   1      -1.644  -1.223   1.218  0.00  0.00     0.055 C 
ATOM      8  C   UNL d   1      -2.968  -0.874   1.881  0.00  0.00     0.019 C 
ENDBRANCH   1   7
TORSDOF 1
ENDMDL
