MODEL 1
REMARK minimizedAffinity 3.78676748
REMARK minimizedRMSD -1
REMARK  1 active torsions:
REMARK  status: ('A' for Active; 'I' for Inactive)
REMARK    1  A    between atoms: C1_2  and  C2_3 
ROOT
ATOM      1  C2  UNL d   1       0.946   1.020   4.527  0.00  0.00    -0.077 A 
ATOM      2  C3  UNL d   1       0.003   1.397   3.560  0.00  0.00     0.002 A 
ATOM      3  C4  UNL d   1      -0.374   0.503   2.555  0.00  0.00     0.002 A 
ATOM      4  C5  UNL d   1       0.184  -0.772   2.510  0.00  0.00    -0.004 A 
ATOM      5  C6  UNL d   1       1.124  -1.156   3.466  0.00  0.00     0.002 A 
ATOM      6  C7  UNL d   1       1.503  -0.264   4.470  0.00  0.00     0.002 A 
ENDROOT
BRANCH   1   7
ATOM      7  C1  UNL d   1       1.317   1.965   5.640  0.00  0.00     0.055 C 
ATOM      8  C   UNL d   1       0.158   2.887   5.993  0.00  0.00     0.019 C 
ENDBRANCH   1   7
TORSDOF 1
ENDMDL
