MODEL 1
REMARK minimizedAffinity 6.5223875
REMARK minimizedRMSD -1
REMARK  1 active torsions:
REMARK  status: ('A' for Active; 'I' for Inactive)
REMARK    1  A    between atoms: C1_2  and  C2_3 
ROOT
ATOM      1  C2  UNL d   1      -0.961  -2.815  -5.348  0.00  0.00    -0.077 A 
ATOM      2  C3  UNL d   1      -0.002  -1.945  -5.885  0.00  0.00     0.002 A 
ATOM      3  C4  UNL d   1       0.280  -0.730  -5.258  0.00  0.00     0.002 A 
ATOM      4  C5  UNL d   1      -0.391  -0.375  -4.089  0.00  0.00    -0.004 A 
ATOM      5  C6  UNL d   1      -1.348  -1.232  -3.549  0.00  0.00     0.002 A 
ATOM      6  C7  UNL d   1      -1.632  -2.447  -4.175  0.00  0.00     0.002 A 
ENDROOT
BRANCH   1   7
ATOM      7  C1  UNL d   1      -1.231  -4.148  -5.995  0.00  0.00     0.055 C 
ATOM      8  C   UNL d   1       0.015  -5.023  -6.000  0.00  0.00     0.019 C 
ENDBRANCH   1   7
TORSDOF 1
ENDMDL
