MODEL 1
REMARK minimizedAffinity 4.34439707
REMARK minimizedRMSD -1
REMARK  1 active torsions:
REMARK  status: ('A' for Active; 'I' for Inactive)
REMARK    1  A    between atoms: C1_2  and  C2_3 
ROOT
ATOM      1  C2  UNL d   1       0.936  -1.822   3.853  0.00  0.00    -0.077 A 
ATOM      2  C3  UNL d   1       1.756  -0.685   3.818  0.00  0.00     0.002 A 
ATOM      3  C4  UNL d   1       1.309   0.491   3.213  0.00  0.00     0.002 A 
ATOM      4  C5  UNL d   1       0.039   0.542   2.642  0.00  0.00    -0.004 A 
ATOM      5  C6  UNL d   1      -0.784  -0.583   2.669  0.00  0.00     0.002 A 
ATOM      6  C7  UNL d   1      -0.338  -1.760   3.273  0.00  0.00     0.002 A 
ENDROOT
BRANCH   1   7
ATOM      7  C1  UNL d   1       1.397  -3.075   4.549  0.00  0.00     0.055 C 
ATOM      8  C   UNL d   1       2.471  -2.771   5.583  0.00  0.00     0.019 C 
ENDBRANCH   1   7
TORSDOF 1
ENDMDL
