MODEL 1
REMARK minimizedAffinity -3.42009211
REMARK minimizedRMSD -1
REMARK  0 active torsions:
REMARK  status: ('A' for Active; 'I' for Inactive)
ROOT
ATOM      1  C1  BNZ d   1      -2.811   4.590  -2.723  0.00  0.00     0.000 A 
ATOM      2  C2  BNZ d   1      -3.304   5.697  -3.361  0.00  0.00     0.000 A 
ATOM      3  C3  BNZ d   1      -2.919   5.999  -4.637  0.00  0.00     0.000 A 
ATOM      4  C4  BNZ d   1      -2.012   5.218  -5.259  0.00  0.00     0.000 A 
ATOM      5  C5  BNZ d   1      -1.499   4.104  -4.626  0.00  0.00     0.000 A 
ATOM      6  C6  BNZ d   1      -1.918   3.781  -3.355  0.00  0.00     0.000 A 
ENDROOT
TORSDOF 0
ENDMDL
