MODEL 1
REMARK minimizedAffinity 3.95828032
REMARK minimizedRMSD -1
REMARK  0 active torsions:
REMARK  status: ('A' for Active; 'I' for Inactive)
ROOT
ATOM      1  C1  BNZ d   1      -1.317  -0.993   2.304  0.00  0.00     0.000 A 
ATOM      2  C2  BNZ d   1       0.009  -1.302   2.455  0.00  0.00     0.000 A 
ATOM      3  C3  BNZ d   1       0.655  -2.083   1.538  0.00  0.00     0.000 A 
ATOM      4  C4  BNZ d   1      -0.034  -2.588   0.495  0.00  0.00     0.000 A 
ATOM      5  C5  BNZ d   1      -1.373  -2.293   0.333  0.00  0.00     0.000 A 
ATOM      6  C6  BNZ d   1      -2.011  -1.475   1.237  0.00  0.00     0.000 A 
ENDROOT
TORSDOF 0
ENDMDL
