MODEL 1
REMARK minimizedAffinity -3.51717687
REMARK minimizedRMSD -1
REMARK  0 active torsions:
REMARK  status: ('A' for Active; 'I' for Inactive)
ROOT
ATOM      1  C1  BNZ d   1      -2.665   2.574  -2.038  0.00  0.00     0.000 A 
ATOM      2  C2  BNZ d   1      -2.268   2.884  -3.311  0.00  0.00     0.000 A 
ATOM      3  C3  BNZ d   1      -2.461   4.139  -3.818  0.00  0.00     0.000 A 
ATOM      4  C4  BNZ d   1      -3.085   5.069  -3.067  0.00  0.00     0.000 A 
ATOM      5  C5  BNZ d   1      -3.500   4.768  -1.785  0.00  0.00     0.000 A 
ATOM      6  C6  BNZ d   1      -3.270   3.515  -1.264  0.00  0.00     0.000 A 
ENDROOT
TORSDOF 0
ENDMDL
