MODEL 1
REMARK minimizedAffinity -2.25053406
REMARK minimizedRMSD -1
REMARK  0 active torsions:
REMARK  status: ('A' for Active; 'I' for Inactive)
ROOT
ATOM      1  C1  BNZ d   1      -0.076  -1.008   2.097  0.00  0.00     0.000 A 
ATOM      2  C2  BNZ d   1      -0.773  -0.367   3.086  0.00  0.00     0.000 A 
ATOM      3  C3  BNZ d   1      -2.105  -0.097   2.941  0.00  0.00     0.000 A 
ATOM      4  C4  BNZ d   1      -2.728  -0.432   1.794  0.00  0.00     0.000 A 
ATOM      5  C5  BNZ d   1      -2.037  -1.071   0.784  0.00  0.00     0.000 A 
ATOM      6  C6  BNZ d   1      -0.706  -1.376   0.948  0.00  0.00     0.000 A 
ENDROOT
TORSDOF 0
ENDMDL
