MODEL 1
REMARK minimizedAffinity 0.325571805
REMARK minimizedRMSD -1
REMARK  0 active torsions:
REMARK  status: ('A' for Active; 'I' for Inactive)
ROOT
ATOM      1  C1  BNZ d   1       5.998   4.913   1.111  0.00  0.00     0.000 A 
ATOM      2  C2  BNZ d   1       5.999   6.000   1.945  0.00  0.00     0.000 A 
ATOM      3  C3  BNZ d   1       5.698   5.864   3.271  0.00  0.00     0.000 A 
ATOM      4  C4  BNZ d   1       5.358   4.651   3.753  0.00  0.00     0.000 A 
ATOM      5  C5  BNZ d   1       5.344   3.548   2.924  0.00  0.00     0.000 A 
ATOM      6  C6  BNZ d   1       5.686   3.681   1.597  0.00  0.00     0.000 A 
ENDROOT
TORSDOF 0
ENDMDL
