MODEL 1
REMARK minimizedAffinity 2.44618392
REMARK minimizedRMSD -1
REMARK  0 active torsions:
REMARK  status: ('A' for Active; 'I' for Inactive)
ROOT
ATOM      1  C1  BNZ d   1       0.106  -1.173   2.929  0.00  0.00     0.000 A 
ATOM      2  C2  BNZ d   1      -1.146  -0.626   2.845  0.00  0.00     0.000 A 
ATOM      3  C3  BNZ d   1      -1.829  -0.618   1.661  0.00  0.00     0.000 A 
ATOM      4  C4  BNZ d   1      -1.243  -1.119   0.555  0.00  0.00     0.000 A 
ATOM      5  C5  BNZ d   1       0.023  -1.666   0.621  0.00  0.00     0.000 A 
ATOM      6  C6  BNZ d   1       0.691  -1.708   1.823  0.00  0.00     0.000 A 
ENDROOT
TORSDOF 0
ENDMDL
