MODEL 1
REMARK minimizedAffinity -0.443563759
REMARK minimizedRMSD -1
REMARK  0 active torsions:
REMARK  status: ('A' for Active; 'I' for Inactive)
ROOT
ATOM      1  C1  BNZ d   1      -1.869  -0.590   4.150  0.00  0.00     0.000 A 
ATOM      2  C2  BNZ d   1      -0.798  -1.215   3.570  0.00  0.00     0.000 A 
ATOM      3  C3  BNZ d   1      -0.824  -1.567   2.249  0.00  0.00     0.000 A 
ATOM      4  C4  BNZ d   1      -1.935  -1.329   1.522  0.00  0.00     0.000 A 
ATOM      5  C5  BNZ d   1      -3.026  -0.708   2.095  0.00  0.00     0.000 A 
ATOM      6  C6  BNZ d   1      -2.981  -0.320   3.415  0.00  0.00     0.000 A 
ENDROOT
TORSDOF 0
ENDMDL
