MODEL 1
REMARK minimizedAffinity -2.54650283
REMARK minimizedRMSD -1
REMARK  0 active torsions:
REMARK  status: ('A' for Active; 'I' for Inactive)
ROOT
ATOM      1  C1  BNZ d   1      -2.180   4.497  -3.464  0.00  0.00     0.000 A 
ATOM      2  C2  BNZ d   1      -1.147   3.648  -3.170  0.00  0.00     0.000 A 
ATOM      3  C3  BNZ d   1      -1.376   2.320  -2.938  0.00  0.00     0.000 A 
ATOM      4  C4  BNZ d   1      -2.641   1.852  -2.962  0.00  0.00     0.000 A 
ATOM      5  C5  BNZ d   1      -3.694   2.698  -3.248  0.00  0.00     0.000 A 
ATOM      6  C6  BNZ d   1      -3.455   4.026  -3.518  0.00  0.00     0.000 A 
ENDROOT
TORSDOF 0
ENDMDL
