MODEL 1
REMARK minimizedAffinity -3.8666873
REMARK minimizedRMSD -1
REMARK  0 active torsions:
REMARK  status: ('A' for Active; 'I' for Inactive)
ROOT
ATOM      1  C   UNL d   1      -4.115   1.502  -3.003  0.00  0.00     0.078 C 
ATOM      2  C1  UNL d   1      -4.416   1.725  -1.551  0.00  0.00    -0.077 A 
ATOM      3  C2  UNL d   1      -5.734   1.721  -1.079  0.00  0.00    -0.001 A 
ATOM      4  C3  UNL d   1      -6.000   1.940   0.274  0.00  0.00     0.003 A 
ATOM      5  C4  UNL d   1      -4.953   2.166   1.165  0.00  0.00    -0.005 A 
ATOM      6  C5  UNL d   1      -3.638   2.174   0.704  0.00  0.00     0.003 A 
ATOM      7  C6  UNL d   1      -3.370   1.955  -0.649  0.00  0.00    -0.001 A 
ENDROOT
TORSDOF 0
ENDMDL
