MODEL 1
REMARK minimizedAffinity -0.516999185
REMARK minimizedRMSD -1
REMARK  0 active torsions:
REMARK  status: ('A' for Active; 'I' for Inactive)
ROOT
ATOM      1  C   UNL d   1      -3.218   2.654   0.675  0.00  0.00     0.078 C 
ATOM      2  C1  UNL d   1      -3.033   1.718  -0.482  0.00  0.00    -0.077 A 
ATOM      3  C2  UNL d   1      -3.586   2.004  -1.736  0.00  0.00    -0.001 A 
ATOM      4  C3  UNL d   1      -3.414   1.119  -2.802  0.00  0.00     0.003 A 
ATOM      5  C4  UNL d   1      -2.691  -0.058  -2.624  0.00  0.00    -0.005 A 
ATOM      6  C5  UNL d   1      -2.139  -0.353  -1.379  0.00  0.00     0.003 A 
ATOM      7  C6  UNL d   1      -2.309   0.531  -0.312  0.00  0.00    -0.001 A 
ENDROOT
TORSDOF 0
ENDMDL
