MODEL 1
REMARK minimizedAffinity 1.56359243
REMARK minimizedRMSD -1
REMARK  0 active torsions:
REMARK  status: ('A' for Active; 'I' for Inactive)
ROOT
ATOM      1  C   UNL d   1       5.467  -2.856   4.530  0.00  0.00     0.078 C 
ATOM      2  C1  UNL d   1       4.012  -3.049   4.222  0.00  0.00    -0.077 A 
ATOM      3  C2  UNL d   1       3.335  -4.204   4.634  0.00  0.00    -0.001 A 
ATOM      4  C3  UNL d   1       1.983  -4.374   4.332  0.00  0.00     0.003 A 
ATOM      5  C4  UNL d   1       1.297  -3.395   3.617  0.00  0.00    -0.005 A 
ATOM      6  C5  UNL d   1       1.963  -2.244   3.201  0.00  0.00     0.003 A 
ATOM      7  C6  UNL d   1       3.315  -2.072   3.502  0.00  0.00    -0.001 A 
ENDROOT
TORSDOF 0
ENDMDL
