MODEL 1
REMARK minimizedAffinity 3.72569728
REMARK minimizedRMSD -1
REMARK  0 active torsions:
REMARK  status: ('A' for Active; 'I' for Inactive)
ROOT
ATOM      1  C   UNL d   1      -0.634  -1.685   0.193  0.00  0.00     0.078 C 
ATOM      2  C1  UNL d   1       0.387  -2.177   1.175  0.00  0.00    -0.077 A 
ATOM      3  C2  UNL d   1       0.765  -3.525   1.207  0.00  0.00    -0.001 A 
ATOM      4  C3  UNL d   1       1.709  -3.971   2.133  0.00  0.00     0.003 A 
ATOM      5  C4  UNL d   1       2.283  -3.077   3.034  0.00  0.00    -0.005 A 
ATOM      6  C5  UNL d   1       1.911  -1.734   3.012  0.00  0.00     0.003 A 
ATOM      7  C6  UNL d   1       0.967  -1.286   2.087  0.00  0.00    -0.001 A 
ENDROOT
TORSDOF 0
ENDMDL
