MODEL 1
REMARK minimizedAffinity 3.34581113
REMARK minimizedRMSD -1
REMARK  0 active torsions:
REMARK  status: ('A' for Active; 'I' for Inactive)
ROOT
ATOM      1  C   UNL d   1       1.554  -0.690   2.588  0.00  0.00     0.078 C 
ATOM      2  C1  UNL d   1       1.795  -2.008   3.261  0.00  0.00    -0.077 A 
ATOM      3  C2  UNL d   1       2.718  -2.124   4.308  0.00  0.00    -0.001 A 
ATOM      4  C3  UNL d   1       2.939  -3.359   4.920  0.00  0.00     0.003 A 
ATOM      5  C4  UNL d   1       2.243  -4.487   4.491  0.00  0.00    -0.005 A 
ATOM      6  C5  UNL d   1       1.325  -4.382   3.448  0.00  0.00     0.003 A 
ATOM      7  C6  UNL d   1       1.102  -3.148   2.836  0.00  0.00    -0.001 A 
ENDROOT
TORSDOF 0
ENDMDL
