MODEL 1
REMARK minimizedAffinity 6.15438032
REMARK minimizedRMSD -1
REMARK  0 active torsions:
REMARK  status: ('A' for Active; 'I' for Inactive)
ROOT
ATOM      1  C   UNL d   1       6.000   0.117  -5.624  0.00  0.00     0.078 C 
ATOM      2  C1  UNL d   1       4.991  -0.287  -4.590  0.00  0.00    -0.077 A 
ATOM      3  C2  UNL d   1       5.174  -1.439  -3.815  0.00  0.00    -0.001 A 
ATOM      4  C3  UNL d   1       4.222  -1.808  -2.864  0.00  0.00     0.003 A 
ATOM      5  C4  UNL d   1       3.080  -1.031  -2.678  0.00  0.00    -0.005 A 
ATOM      6  C5  UNL d   1       2.889   0.116  -3.446  0.00  0.00     0.003 A 
ATOM      7  C6  UNL d   1       3.840   0.487  -4.398  0.00  0.00    -0.001 A 
ENDROOT
TORSDOF 0
ENDMDL
