MODEL 1
REMARK minimizedAffinity 3.77467418
REMARK minimizedRMSD -1
REMARK  2 active torsions:
REMARK  status: ('A' for Active; 'I' for Inactive)
REMARK    1  A    between atoms: C1_2  and  C2_3 
REMARK    2  A    between atoms: C2_3  and  C3_4 
ROOT
ATOM      1  C3  UNL d   1      -0.128  -1.056   2.210  0.00  0.00    -0.075 A 
ATOM      2  C4  UNL d   1      -0.564  -2.094   3.048  0.00  0.00     0.002 A 
ATOM      3  C5  UNL d   1       0.305  -2.666   3.977  0.00  0.00     0.002 A 
ATOM      4  C6  UNL d   1       1.621  -2.217   4.074  0.00  0.00    -0.004 A 
ATOM      5  C7  UNL d   1       2.069  -1.199   3.235  0.00  0.00     0.002 A 
ATOM      6  C8  UNL d   1       1.200  -0.621   2.308  0.00  0.00     0.002 A 
ENDROOT
BRANCH   1   7
ATOM      7  C2  UNL d   1      -1.073  -0.413   1.223  0.00  0.00     0.056 C 
BRANCH   7   8
ATOM      8  C1  UNL d   1      -2.096   0.531   1.863  0.00  0.00     0.007 C 
ATOM      9  C   UNL d   1      -2.381   1.768   1.021  0.00  0.00     0.009 C 
ENDBRANCH   7   8
ENDBRANCH   1   7
TORSDOF 2
ENDMDL
