MODEL 1
REMARK minimizedAffinity -2.12865806
REMARK minimizedRMSD -1
REMARK  2 active torsions:
REMARK  status: ('A' for Active; 'I' for Inactive)
REMARK    1  A    between atoms: C1_2  and  C2_3 
REMARK    2  A    between atoms: C2_3  and  C3_4 
ROOT
ATOM      1  C3  UNL d   1      -0.496  -1.624  -3.651  0.00  0.00    -0.075 A 
ATOM      2  C4  UNL d   1      -0.273  -2.038  -4.972  0.00  0.00     0.002 A 
ATOM      3  C5  UNL d   1      -0.164  -1.100  -6.000  0.00  0.00     0.002 A 
ATOM      4  C6  UNL d   1      -0.286   0.259  -5.722  0.00  0.00    -0.004 A 
ATOM      5  C7  UNL d   1      -0.524   0.681  -4.415  0.00  0.00     0.002 A 
ATOM      6  C8  UNL d   1      -0.629  -0.255  -3.385  0.00  0.00     0.002 A 
ENDROOT
BRANCH   1   7
ATOM      7  C2  UNL d   1      -0.585  -2.632  -2.530  0.00  0.00     0.056 C 
BRANCH   7   8
ATOM      8  C1  UNL d   1      -0.973  -2.027  -1.177  0.00  0.00     0.007 C 
ATOM      9  C   UNL d   1      -2.121  -2.763  -0.498  0.00  0.00     0.009 C 
ENDBRANCH   7   8
ENDBRANCH   1   7
TORSDOF 2
ENDMDL
