MODEL 1
REMARK minimizedAffinity 2.97965336
REMARK minimizedRMSD -1
REMARK  2 active torsions:
REMARK  status: ('A' for Active; 'I' for Inactive)
REMARK    1  A    between atoms: C1_2  and  C2_3 
REMARK    2  A    between atoms: C2_3  and  C3_4 
ROOT
ATOM      1  C3  UNL d   1      -1.780  -1.051   0.736  0.00  0.00    -0.075 A 
ATOM      2  C4  UNL d   1      -0.766  -1.464   1.612  0.00  0.00     0.002 A 
ATOM      3  C5  UNL d   1      -0.440  -0.698   2.731  0.00  0.00     0.002 A 
ATOM      4  C6  UNL d   1      -1.115   0.495   2.983  0.00  0.00    -0.004 A 
ATOM      5  C7  UNL d   1      -2.113   0.924   2.111  0.00  0.00     0.002 A 
ATOM      6  C8  UNL d   1      -2.444   0.157   0.993  0.00  0.00     0.002 A 
ENDROOT
BRANCH   1   7
ATOM      7  C2  UNL d   1      -2.158  -1.890  -0.460  0.00  0.00     0.056 C 
BRANCH   7   8
ATOM      8  C1  UNL d   1      -1.107  -2.937  -0.845  0.00  0.00     0.007 C 
ATOM      9  C   UNL d   1      -0.695  -2.865  -2.309  0.00  0.00     0.009 C 
ENDBRANCH   7   8
ENDBRANCH   1   7
TORSDOF 2
ENDMDL
