MODEL 1
REMARK minimizedAffinity -2.88005018
REMARK minimizedRMSD -1
REMARK  2 active torsions:
REMARK  status: ('A' for Active; 'I' for Inactive)
REMARK    1  A    between atoms: C1_2  and  C2_3 
REMARK    2  A    between atoms: C2_3  and  C3_4 
ROOT
ATOM      1  C3  UNL d   1      -0.803  -0.183  -4.424  0.00  0.00    -0.075 A 
ATOM      2  C4  UNL d   1      -0.157  -1.056  -5.312  0.00  0.00     0.002 A 
ATOM      3  C5  UNL d   1       0.548  -2.160  -4.833  0.00  0.00     0.002 A 
ATOM      4  C6  UNL d   1       0.626  -2.400  -3.462  0.00  0.00    -0.004 A 
ATOM      5  C7  UNL d   1       0.003  -1.530  -2.570  0.00  0.00     0.002 A 
ATOM      6  C8  UNL d   1      -0.708  -0.427  -3.047  0.00  0.00     0.002 A 
ENDROOT
BRANCH   1   7
ATOM      7  C2  UNL d   1      -1.592   0.997  -4.937  0.00  0.00     0.056 C 
BRANCH   7   8
ATOM      8  C1  UNL d   1      -2.681   0.626  -5.950  0.00  0.00     0.007 C 
ATOM      9  C   UNL d   1      -3.932   0.048  -5.302  0.00  0.00     0.009 C 
ENDBRANCH   7   8
ENDBRANCH   1   7
TORSDOF 2
ENDMDL
