MODEL 1
REMARK minimizedAffinity 0.371153891
REMARK minimizedRMSD -1
REMARK  2 active torsions:
REMARK  status: ('A' for Active; 'I' for Inactive)
REMARK    1  A    between atoms: C1_2  and  C2_3 
REMARK    2  A    between atoms: C2_3  and  C3_4 
ROOT
ATOM      1  C3  UNL d   1      -2.502  -0.520  -5.403  0.00  0.00    -0.075 A 
ATOM      2  C4  UNL d   1      -1.734   0.012  -4.357  0.00  0.00     0.002 A 
ATOM      3  C5  UNL d   1      -0.574  -0.635  -3.931  0.00  0.00     0.002 A 
ATOM      4  C6  UNL d   1      -0.173  -1.824  -4.536  0.00  0.00    -0.004 A 
ATOM      5  C7  UNL d   1      -0.937  -2.370  -5.564  0.00  0.00     0.002 A 
ATOM      6  C8  UNL d   1      -2.096  -1.723  -5.997  0.00  0.00     0.002 A 
ENDROOT
BRANCH   1   7
ATOM      7  C2  UNL d   1      -3.743   0.190  -5.890  0.00  0.00     0.056 C 
BRANCH   7   8
ATOM      8  C1  UNL d   1      -4.943   0.065  -4.946  0.00  0.00     0.007 C 
ATOM      9  C   UNL d   1      -4.724  -0.943  -3.826  0.00  0.00     0.009 C 
ENDBRANCH   7   8
ENDBRANCH   1   7
TORSDOF 2
ENDMDL
