MODEL 1
REMARK minimizedAffinity 6.5968008
REMARK minimizedRMSD -1
REMARK  2 active torsions:
REMARK  status: ('A' for Active; 'I' for Inactive)
REMARK    1  A    between atoms: C1_2  and  C2_3 
REMARK    2  A    between atoms: C2_3  and  C3_4 
ROOT
ATOM      1  C3  UNL d   1       4.669   2.253   3.592  0.00  0.00    -0.075 A 
ATOM      2  C4  UNL d   1       4.700   2.872   4.850  0.00  0.00     0.002 A 
ATOM      3  C5  UNL d   1       5.366   2.272   5.919  0.00  0.00     0.002 A 
ATOM      4  C6  UNL d   1       5.998   1.042   5.747  0.00  0.00    -0.004 A 
ATOM      5  C7  UNL d   1       5.959   0.410   4.507  0.00  0.00     0.002 A 
ATOM      6  C8  UNL d   1       5.298   1.010   3.434  0.00  0.00     0.002 A 
ENDROOT
BRANCH   1   7
ATOM      7  C2  UNL d   1       3.976   2.911   2.424  0.00  0.00     0.056 C 
BRANCH   7   8
ATOM      8  C1  UNL d   1       4.889   3.169   1.221  0.00  0.00     0.007 C 
ATOM      9  C   UNL d   1       5.777   4.395   1.393  0.00  0.00     0.009 C 
ENDBRANCH   7   8
ENDBRANCH   1   7
TORSDOF 2
ENDMDL
