MODEL 1
REMARK minimizedAffinity -4.34563732
REMARK minimizedRMSD -1
REMARK  1 active torsions:
REMARK  status: ('A' for Active; 'I' for Inactive)
REMARK    1  A    between atoms: C1_2  and  C2_3 
ROOT
ATOM      1  C2  UNL d   1       0.786  -2.864   1.258  0.00  0.00    -0.077 A 
ATOM      2  C3  UNL d   1       1.226  -4.185   1.097  0.00  0.00     0.002 A 
ATOM      3  C4  UNL d   1       1.856  -4.853   2.149  0.00  0.00     0.002 A 
ATOM      4  C5  UNL d   1       2.047  -4.210   3.370  0.00  0.00    -0.004 A 
ATOM      5  C6  UNL d   1       1.615  -2.895   3.539  0.00  0.00     0.002 A 
ATOM      6  C7  UNL d   1       0.987  -2.225   2.489  0.00  0.00     0.002 A 
ENDROOT
BRANCH   1   7
ATOM      7  C1  UNL d   1       0.063  -2.158   0.141  0.00  0.00     0.055 C 
ATOM      8  C   UNL d   1      -1.420  -2.500   0.139  0.00  0.00     0.019 C 
ENDBRANCH   1   7
TORSDOF 1
ENDMDL
