MODEL 1
REMARK minimizedAffinity 4.88846779
REMARK minimizedRMSD -1
REMARK  1 active torsions:
REMARK  status: ('A' for Active; 'I' for Inactive)
REMARK    1  A    between atoms: C1_2  and  C2_3 
ROOT
ATOM      1  C2  UNL d   1       2.094   0.028   2.339  0.00  0.00    -0.077 A 
ATOM      2  C3  UNL d   1       2.666   0.275   1.083  0.00  0.00     0.002 A 
ATOM      3  C4  UNL d   1       3.097   1.559   0.744  0.00  0.00     0.002 A 
ATOM      4  C5  UNL d   1       2.963   2.605   1.655  0.00  0.00    -0.004 A 
ATOM      5  C6  UNL d   1       2.394   2.369   2.906  0.00  0.00     0.002 A 
ATOM      6  C7  UNL d   1       1.961   1.087   3.247  0.00  0.00     0.002 A 
ENDROOT
BRANCH   1   7
ATOM      7  C1  UNL d   1       1.673  -1.366   2.725  0.00  0.00     0.055 C 
ATOM      8  C   UNL d   1       0.902  -2.043   1.602  0.00  0.00     0.019 C 
ENDBRANCH   1   7
TORSDOF 1
ENDMDL
