MODEL 1
REMARK minimizedAffinity 1.90075243
REMARK minimizedRMSD -1
REMARK  1 active torsions:
REMARK  status: ('A' for Active; 'I' for Inactive)
REMARK    1  A    between atoms: C1_2  and  C2_3 
ROOT
ATOM      1  C2  UNL d   1      -1.026  -1.933  -0.840  0.00  0.00    -0.077 A 
ATOM      2  C3  UNL d   1      -1.487  -0.983  -1.762  0.00  0.00     0.002 A 
ATOM      3  C4  UNL d   1      -2.698  -1.176  -2.430  0.00  0.00     0.002 A 
ATOM      4  C5  UNL d   1      -3.459  -2.316  -2.180  0.00  0.00    -0.004 A 
ATOM      5  C6  UNL d   1      -3.007  -3.269  -1.267  0.00  0.00     0.002 A 
ATOM      6  C7  UNL d   1      -1.797  -3.077  -0.599  0.00  0.00     0.002 A 
ENDROOT
BRANCH   1   7
ATOM      7  C1  UNL d   1       0.256  -1.703  -0.082  0.00  0.00     0.055 C 
ATOM      8  C   UNL d   1       0.920  -3.019   0.295  0.00  0.00     0.019 C 
ENDBRANCH   1   7
TORSDOF 1
ENDMDL
