MODEL 1
REMARK minimizedAffinity 3.9169209
REMARK minimizedRMSD -1
REMARK  1 active torsions:
REMARK  status: ('A' for Active; 'I' for Inactive)
REMARK    1  A    between atoms: C1_2  and  C2_3 
ROOT
ATOM      1  C2  UNL d   1       4.044  -2.061   4.172  0.00  0.00    -0.077 A 
ATOM      2  C3  UNL d   1       3.488  -1.509   3.010  0.00  0.00     0.002 A 
ATOM      3  C4  UNL d   1       2.126  -1.202   2.956  0.00  0.00     0.002 A 
ATOM      4  C5  UNL d   1       1.312  -1.441   4.061  0.00  0.00    -0.004 A 
ATOM      5  C6  UNL d   1       1.856  -1.993   5.220  0.00  0.00     0.002 A 
ATOM      6  C7  UNL d   1       3.216  -2.300   5.276  0.00  0.00     0.002 A 
ENDROOT
BRANCH   1   7
ATOM      7  C1  UNL d   1       5.521  -2.346   4.250  0.00  0.00     0.055 C 
ATOM      8  C   UNL d   1       5.999  -2.401   5.693  0.00  0.00     0.019 C 
ENDBRANCH   1   7
TORSDOF 1
ENDMDL
