MODEL 1
REMARK minimizedAffinity 9.73565578
REMARK minimizedRMSD -1
REMARK  1 active torsions:
REMARK  status: ('A' for Active; 'I' for Inactive)
REMARK    1  A    between atoms: C1_2  and  C2_3 
ROOT
ATOM      1  C2  UNL d   1      -3.615  -0.888  -3.319  0.00  0.00    -0.077 A 
ATOM      2  C3  UNL d   1      -2.513  -0.525  -2.532  0.00  0.00     0.002 A 
ATOM      3  C4  UNL d   1      -2.323   0.806  -2.154  0.00  0.00     0.002 A 
ATOM      4  C5  UNL d   1      -3.232   1.782  -2.554  0.00  0.00    -0.004 A 
ATOM      5  C6  UNL d   1      -4.330   1.432  -3.338  0.00  0.00     0.002 A 
ATOM      6  C7  UNL d   1      -4.521   0.103  -3.718  0.00  0.00     0.002 A 
ENDROOT
BRANCH   1   7
ATOM      7  C1  UNL d   1      -3.848  -2.330  -3.687  0.00  0.00     0.055 C 
ATOM      8  C   UNL d   1      -4.391  -3.122  -2.506  0.00  0.00     0.019 C 
ENDBRANCH   1   7
TORSDOF 1
ENDMDL
