MODEL 1
REMARK minimizedAffinity 7.8738842
REMARK minimizedRMSD -1
REMARK  0 active torsions:
REMARK  status: ('A' for Active; 'I' for Inactive)
ROOT
ATOM      1  C2' OXE d   1       2.854   1.132   0.180  0.00  0.00     0.078 C 
ATOM      2  C1' OXE d   1       4.905   2.627   1.379  0.00  0.00     0.078 C 
ATOM      3  C1  OXE d   1       4.948   2.448  -0.118  0.00  0.00    -0.078 A 
ATOM      4  C2  OXE d   1       3.966   1.676  -0.691  0.00  0.00    -0.078 A 
ATOM      5  C3  OXE d   1       3.928   1.524  -2.074  0.00  0.00     0.003 A 
ATOM      6  C4  OXE d   1       4.966   2.022  -2.870  0.00  0.00    -0.002 A 
ATOM      7  C5  OXE d   1       5.998   2.777  -2.302  0.00  0.00    -0.002 A 
ATOM      8  C6  OXE d   1       5.980   3.035  -0.936  0.00  0.00     0.003 A 
ENDROOT
TORSDOF 0
ENDMDL
