MODEL 1
REMARK minimizedAffinity 11.506403
REMARK minimizedRMSD -1
REMARK  0 active torsions:
REMARK  status: ('A' for Active; 'I' for Inactive)
ROOT
ATOM      1  C2' OXE d   1       5.905   1.608  -2.833  0.00  0.00     0.078 C 
ATOM      2  C1' OXE d   1       5.995   2.411  -0.145  0.00  0.00     0.078 C 
ATOM      3  C1  OXE d   1       5.968   3.488  -1.201  0.00  0.00    -0.078 A 
ATOM      4  C2  OXE d   1       5.971   3.086  -2.515  0.00  0.00    -0.078 A 
ATOM      5  C3  OXE d   1       5.891   4.038  -3.527  0.00  0.00     0.003 A 
ATOM      6  C4  OXE d   1       5.962   5.403  -3.224  0.00  0.00    -0.002 A 
ATOM      7  C5  OXE d   1       5.999   5.834  -1.893  0.00  0.00    -0.002 A 
ATOM      8  C6  OXE d   1       5.960   4.892  -0.871  0.00  0.00     0.003 A 
ENDROOT
TORSDOF 0
ENDMDL
