MODEL 1
REMARK minimizedAffinity 2.81312394
REMARK minimizedRMSD -1
REMARK  0 active torsions:
REMARK  status: ('A' for Active; 'I' for Inactive)
ROOT
ATOM      1  C2' OXE d   1       3.839   2.033   1.501  0.00  0.00     0.078 C 
ATOM      2  C1' OXE d   1       2.226   0.972  -0.538  0.00  0.00     0.078 C 
ATOM      3  C1  OXE d   1       3.526   1.626  -0.937  0.00  0.00    -0.078 A 
ATOM      4  C2  OXE d   1       4.286   2.183   0.063  0.00  0.00    -0.078 A 
ATOM      5  C3  OXE d   1       5.520   2.750  -0.244  0.00  0.00     0.003 A 
ATOM      6  C4  OXE d   1       5.922   2.894  -1.577  0.00  0.00    -0.002 A 
ATOM      7  C5  OXE d   1       5.144   2.368  -2.614  0.00  0.00    -0.002 A 
ATOM      8  C6  OXE d   1       3.966   1.695  -2.308  0.00  0.00     0.003 A 
ENDROOT
TORSDOF 0
ENDMDL
