MODEL 1
REMARK minimizedAffinity 9.12216759
REMARK minimizedRMSD -1
REMARK  0 active torsions:
REMARK  status: ('A' for Active; 'I' for Inactive)
ROOT
ATOM      1  C2' OXE d   1       3.029   1.346  -0.519  0.00  0.00     0.078 C 
ATOM      2  C1' OXE d   1       1.641  -1.062  -0.907  0.00  0.00     0.078 C 
ATOM      3  C1  OXE d   1       2.479  -0.926   0.340  0.00  0.00    -0.078 A 
ATOM      4  C2  OXE d   1       3.192   0.238   0.498  0.00  0.00    -0.078 A 
ATOM      5  C3  OXE d   1       3.938   0.437   1.656  0.00  0.00     0.003 A 
ATOM      6  C4  OXE d   1       4.091  -0.597   2.587  0.00  0.00    -0.002 A 
ATOM      7  C5  OXE d   1       3.405  -1.806   2.425  0.00  0.00    -0.002 A 
ATOM      8  C6  OXE d   1       2.563  -1.970   1.331  0.00  0.00     0.003 A 
ENDROOT
TORSDOF 0
ENDMDL
