MODEL 1
REMARK minimizedAffinity -2.93774867
REMARK minimizedRMSD -1
REMARK  0 active torsions:
REMARK  status: ('A' for Active; 'I' for Inactive)
ROOT
ATOM      1  C2' OXE d   1       2.165  -1.871   2.263  0.00  0.00     0.078 C 
ATOM      2  C1' OXE d   1       2.816   0.363   0.693  0.00  0.00     0.078 C 
ATOM      3  C1  OXE d   1       3.837  -0.114   1.695  0.00  0.00    -0.078 A 
ATOM      4  C2  OXE d   1       3.491  -1.179   2.492  0.00  0.00    -0.078 A 
ATOM      5  C3  OXE d   1       4.417  -1.692   3.396  0.00  0.00     0.003 A 
ATOM      6  C4  OXE d   1       5.637  -1.040   3.608  0.00  0.00    -0.002 A 
ATOM      7  C5  OXE d   1       5.993   0.070   2.835  0.00  0.00    -0.002 A 
ATOM      8  C6  OXE d   1       5.123   0.519   1.847  0.00  0.00     0.003 A 
ENDROOT
TORSDOF 0
ENDMDL
