MODEL 1
REMARK minimizedAffinity 22.3630619
REMARK minimizedRMSD -1
REMARK  0 active torsions:
REMARK  status: ('A' for Active; 'I' for Inactive)
ROOT
ATOM      1  C2' OXE d   1      -6.000  -0.046   0.393  0.00  0.00     0.078 C 
ATOM      2  C1' OXE d   1      -6.000  -1.026  -2.238  0.00  0.00     0.078 C 
ATOM      3  C1  OXE d   1      -4.730  -0.397  -1.721  0.00  0.00    -0.078 A 
ATOM      4  C2  OXE d   1      -4.753   0.122  -0.449  0.00  0.00    -0.078 A 
ATOM      5  C3  OXE d   1      -3.593   0.664   0.096  0.00  0.00     0.003 A 
ATOM      6  C4  OXE d   1      -2.447   0.824  -0.693  0.00  0.00    -0.002 A 
ATOM      7  C5  OXE d   1      -2.414   0.339  -2.004  0.00  0.00    -0.002 A 
ATOM      8  C6  OXE d   1      -3.531  -0.311  -2.518  0.00  0.00     0.003 A 
ENDROOT
TORSDOF 0
ENDMDL
