MODEL 1
REMARK minimizedAffinity 5.8501339
REMARK minimizedRMSD -1
REMARK  0 active torsions:
REMARK  status: ('A' for Active; 'I' for Inactive)
ROOT
ATOM      1  C2' OXE d   1       2.116   3.424   3.385  0.00  0.00     0.078 C 
ATOM      2  C1' OXE d   1       0.487   4.827   1.581  0.00  0.00     0.078 C 
ATOM      3  C1  OXE d   1       1.092   3.526   1.117  0.00  0.00    -0.078 A 
ATOM      4  C2  OXE d   1       1.925   2.870   1.990  0.00  0.00    -0.078 A 
ATOM      5  C3  OXE d   1       2.466   1.638   1.633  0.00  0.00     0.003 A 
ATOM      6  C4  OXE d   1       2.293   1.137   0.337  0.00  0.00    -0.002 A 
ATOM      7  C5  OXE d   1       1.480   1.809  -0.581  0.00  0.00    -0.002 A 
ATOM      8  C6  OXE d   1       0.839   2.981  -0.194  0.00  0.00     0.003 A 
ENDROOT
TORSDOF 0
ENDMDL
