MODEL 1
REMARK minimizedAffinity 4.81590176
REMARK minimizedRMSD -1
REMARK  0 active torsions:
REMARK  status: ('A' for Active; 'I' for Inactive)
ROOT
ATOM      1  C2' OXE d   1       3.842   1.869   1.420  0.00  0.00     0.078 C 
ATOM      2  C1' OXE d   1       2.293   0.977  -0.745  0.00  0.00     0.078 C 
ATOM      3  C1  OXE d   1       3.596   1.673  -1.051  0.00  0.00    -0.078 A 
ATOM      4  C2  OXE d   1       4.324   2.148   0.012  0.00  0.00    -0.078 A 
ATOM      5  C3  OXE d   1       5.560   2.749  -0.212  0.00  0.00     0.003 A 
ATOM      6  C4  OXE d   1       5.994   3.011  -1.517  0.00  0.00    -0.002 A 
ATOM      7  C5  OXE d   1       5.248   2.571  -2.615  0.00  0.00    -0.002 A 
ATOM      8  C6  OXE d   1       4.070   1.864  -2.400  0.00  0.00     0.003 A 
ENDROOT
TORSDOF 0
ENDMDL
