MODEL 1
REMARK minimizedAffinity 4.81985378
REMARK minimizedRMSD -1
REMARK  0 active torsions:
REMARK  status: ('A' for Active; 'I' for Inactive)
ROOT
ATOM      1  C2' OXE d   1       0.868   3.825   1.218  0.00  0.00     0.078 C 
ATOM      2  C1' OXE d   1       3.527   3.347   1.981  0.00  0.00     0.078 C 
ATOM      3  C1  OXE d   1       2.439   2.995   2.964  0.00  0.00    -0.078 A 
ATOM      4  C2  OXE d   1       1.144   3.276   2.601  0.00  0.00    -0.078 A 
ATOM      5  C3  OXE d   1       0.098   2.920   3.448  0.00  0.00     0.003 A 
ATOM      6  C4  OXE d   1       0.362   2.422   4.730  0.00  0.00    -0.002 A 
ATOM      7  C5  OXE d   1       1.676   2.165   5.135  0.00  0.00    -0.002 A 
ATOM      8  C6  OXE d   1       2.722   2.406   4.250  0.00  0.00     0.003 A 
ENDROOT
TORSDOF 0
ENDMDL
