MODEL 1
REMARK minimizedAffinity 2.67855692
REMARK minimizedRMSD -1
REMARK  0 active torsions:
REMARK  status: ('A' for Active; 'I' for Inactive)
ROOT
ATOM      1  C2' OXE d   1       2.943  -0.741   2.346  0.00  0.00     0.078 C 
ATOM      2  C1' OXE d   1       1.761  -0.454   4.876  0.00  0.00     0.078 C 
ATOM      3  C1  OXE d   1       3.254  -0.657   4.817  0.00  0.00    -0.078 A 
ATOM      4  C2  OXE d   1       3.818  -0.843   3.577  0.00  0.00    -0.078 A 
ATOM      5  C3  OXE d   1       5.198  -0.979   3.461  0.00  0.00     0.003 A 
ATOM      6  C4  OXE d   1       5.999  -1.083   4.605  0.00  0.00    -0.002 A 
ATOM      7  C5  OXE d   1       5.440  -0.936   5.879  0.00  0.00    -0.002 A 
ATOM      8  C6  OXE d   1       4.078  -0.680   6.000  0.00  0.00     0.003 A 
ENDROOT
TORSDOF 0
ENDMDL
