MODEL 1
REMARK minimizedAffinity 7.76435757
REMARK minimizedRMSD -1
REMARK  0 active torsions:
REMARK  status: ('A' for Active; 'I' for Inactive)
ROOT
ATOM      1  C2' OXE d   1       5.998   3.353  -1.510  0.00  0.00     0.078 C 
ATOM      2  C1' OXE d   1       6.000   3.395   1.297  0.00  0.00     0.078 C 
ATOM      3  C1  OXE d   1       4.864   2.683   0.604  0.00  0.00    -0.078 A 
ATOM      4  C2  OXE d   1       4.847   2.708  -0.769  0.00  0.00    -0.078 A 
ATOM      5  C3  OXE d   1       3.852   2.020  -1.458  0.00  0.00     0.003 A 
ATOM      6  C4  OXE d   1       2.785   1.434  -0.766  0.00  0.00    -0.002 A 
ATOM      7  C5  OXE d   1       2.763   1.432   0.633  0.00  0.00    -0.002 A 
ATOM      8  C6  OXE d   1       3.815   2.014   1.332  0.00  0.00     0.003 A 
ENDROOT
TORSDOF 0
ENDMDL
