MODEL 1
REMARK minimizedAffinity -0.495267004
REMARK minimizedRMSD -1
REMARK  0 active torsions:
REMARK  status: ('A' for Active; 'I' for Inactive)
ROOT
ATOM      1  C2' OXE d   1       6.000   2.720  -2.330  0.00  0.00     0.078 C 
ATOM      2  C1' OXE d   1       3.995   1.098  -3.438  0.00  0.00     0.078 C 
ATOM      3  C1  OXE d   1       3.899   1.431  -1.970  0.00  0.00    -0.078 A 
ATOM      4  C2  OXE d   1       4.910   2.187  -1.426  0.00  0.00    -0.078 A 
ATOM      5  C3  OXE d   1       4.842   2.568  -0.089  0.00  0.00     0.003 A 
ATOM      6  C4  OXE d   1       3.835   2.062   0.742  0.00  0.00    -0.002 A 
ATOM      7  C5  OXE d   1       2.818   1.258   0.217  0.00  0.00    -0.002 A 
ATOM      8  C6  OXE d   1       2.812   0.969  -1.143  0.00  0.00     0.003 A 
ENDROOT
TORSDOF 0
ENDMDL
