MODEL 1
REMARK minimizedAffinity 7.83195877
REMARK minimizedRMSD -1
REMARK  0 active torsions:
REMARK  status: ('A' for Active; 'I' for Inactive)
ROOT
ATOM      1  C2' OXE d   1       3.992  -0.336   3.554  0.00  0.00     0.078 C 
ATOM      2  C1' OXE d   1       2.319  -1.973   2.004  0.00  0.00     0.078 C 
ATOM      3  C1  OXE d   1       2.822  -0.693   1.384  0.00  0.00    -0.078 A 
ATOM      4  C2  OXE d   1       3.602   0.124   2.166  0.00  0.00    -0.078 A 
ATOM      5  C3  OXE d   1       4.137   1.290   1.625  0.00  0.00     0.003 A 
ATOM      6  C4  OXE d   1       3.762   1.713   0.344  0.00  0.00    -0.002 A 
ATOM      7  C5  OXE d   1       2.937   0.915  -0.455  0.00  0.00    -0.002 A 
ATOM      8  C6  OXE d   1       2.494  -0.309   0.034  0.00  0.00     0.003 A 
ENDROOT
TORSDOF 0
ENDMDL
