MODEL 1
REMARK minimizedAffinity -0.212218493
REMARK minimizedRMSD -1
REMARK  1 active torsions:
REMARK  status: ('A' for Active; 'I' for Inactive)
REMARK    1  A    between atoms: C1_2  and  C2_3 
ROOT
ATOM      1  C2  UNL d   1      -3.212   3.754  -5.993  0.00  0.00    -0.077 A 
ATOM      2  C3  UNL d   1      -3.031   5.144  -5.987  0.00  0.00     0.002 A 
ATOM      3  C4  UNL d   1      -4.134   6.000  -5.989  0.00  0.00     0.002 A 
ATOM      4  C5  UNL d   1      -5.425   5.476  -5.993  0.00  0.00    -0.004 A 
ATOM      5  C6  UNL d   1      -5.616   4.094  -6.000  0.00  0.00     0.002 A 
ATOM      6  C7  UNL d   1      -4.514   3.237  -5.999  0.00  0.00     0.002 A 
ENDROOT
BRANCH   1   7
ATOM      7  C1  UNL d   1      -2.024   2.829  -5.941  0.00  0.00     0.055 C 
ATOM      8  C   UNL d   1      -1.266   2.975  -4.630  0.00  0.00     0.019 C 
ENDBRANCH   1   7
TORSDOF 1
ENDMDL
