MODEL 1
REMARK minimizedAffinity -0.940181673
REMARK minimizedRMSD -1
REMARK  1 active torsions:
REMARK  status: ('A' for Active; 'I' for Inactive)
REMARK    1  A    between atoms: C1_2  and  C2_3 
ROOT
ATOM      1  C2  UNL d   1      -0.216   0.714   0.752  0.00  0.00    -0.077 A 
ATOM      2  C3  UNL d   1       1.015   1.375   0.645  0.00  0.00     0.002 A 
ATOM      3  C4  UNL d   1       2.185   0.654   0.399  0.00  0.00     0.002 A 
ATOM      4  C5  UNL d   1       2.135  -0.730   0.256  0.00  0.00    -0.004 A 
ATOM      5  C6  UNL d   1       0.916  -1.398   0.363  0.00  0.00     0.002 A 
ATOM      6  C7  UNL d   1      -0.255  -0.679   0.609  0.00  0.00     0.002 A 
ENDROOT
BRANCH   1   7
ATOM      7  C1  UNL d   1      -1.487   1.494   0.968  0.00  0.00     0.055 C 
ATOM      8  C   UNL d   1      -1.210   2.988   1.058  0.00  0.00     0.019 C 
ENDBRANCH   1   7
TORSDOF 1
ENDMDL
