MODEL 1
REMARK minimizedAffinity -1.47929561
REMARK minimizedRMSD -1
REMARK  1 active torsions:
REMARK  status: ('A' for Active; 'I' for Inactive)
REMARK    1  A    between atoms: C1_2  and  C2_3 
ROOT
ATOM      1  C2  UNL d   1       0.928   2.417   1.435  0.00  0.00    -0.077 A 
ATOM      2  C3  UNL d   1       1.186   1.105   1.014  0.00  0.00     0.002 A 
ATOM      3  C4  UNL d   1       0.141   0.278   0.599  0.00  0.00     0.002 A 
ATOM      4  C5  UNL d   1      -1.168   0.755   0.596  0.00  0.00    -0.004 A 
ATOM      5  C6  UNL d   1      -1.436   2.057   1.015  0.00  0.00     0.002 A 
ATOM      6  C7  UNL d   1      -0.392   2.885   1.432  0.00  0.00     0.002 A 
ENDROOT
BRANCH   1   7
ATOM      7  C1  UNL d   1       2.059   3.327   1.837  0.00  0.00     0.055 C 
ATOM      8  C   UNL d   1       3.144   2.564   2.583  0.00  0.00     0.019 C 
ENDBRANCH   1   7
TORSDOF 1
ENDMDL
