MODEL 1
REMARK minimizedAffinity 2.65624332
REMARK minimizedRMSD -1
REMARK  1 active torsions:
REMARK  status: ('A' for Active; 'I' for Inactive)
REMARK    1  A    between atoms: C1_2  and  C2_3 
ROOT
ATOM      1  C2  UNL d   1      -0.039   1.510   0.901  0.00  0.00    -0.077 A 
ATOM      2  C3  UNL d   1      -0.842   2.652   0.763  0.00  0.00     0.002 A 
ATOM      3  C4  UNL d   1      -2.230   2.533   0.672  0.00  0.00     0.002 A 
ATOM      4  C5  UNL d   1      -2.827   1.275   0.722  0.00  0.00    -0.004 A 
ATOM      5  C6  UNL d   1      -2.038   0.134   0.856  0.00  0.00     0.002 A 
ATOM      6  C7  UNL d   1      -0.650   0.251   0.946  0.00  0.00     0.002 A 
ENDROOT
BRANCH   1   7
ATOM      7  C1  UNL d   1       1.454   1.640   1.049  0.00  0.00     0.055 C 
ATOM      8  C   UNL d   1       1.818   2.679   2.100  0.00  0.00     0.019 C 
ENDBRANCH   1   7
TORSDOF 1
ENDMDL
