MODEL 1
REMARK minimizedAffinity 1.945943
REMARK minimizedRMSD -1
REMARK  1 active torsions:
REMARK  status: ('A' for Active; 'I' for Inactive)
REMARK    1  A    between atoms: C1_2  and  C2_3 
ROOT
ATOM      1  C2  UNL d   1       0.267   1.217   0.952  0.00  0.00    -0.077 A 
ATOM      2  C3  UNL d   1      -0.485   2.397   1.031  0.00  0.00     0.002 A 
ATOM      3  C4  UNL d   1      -1.877   2.343   1.136  0.00  0.00     0.002 A 
ATOM      4  C5  UNL d   1      -2.527   1.111   1.166  0.00  0.00    -0.004 A 
ATOM      5  C6  UNL d   1      -1.788  -0.069   1.085  0.00  0.00     0.002 A 
ATOM      6  C7  UNL d   1      -0.397  -0.016   0.979  0.00  0.00     0.002 A 
ENDROOT
BRANCH   1   7
ATOM      7  C1  UNL d   1       1.771   1.273   0.888  0.00  0.00     0.055 C 
ATOM      8  C   UNL d   1       2.331   2.267   1.895  0.00  0.00     0.019 C 
ENDBRANCH   1   7
TORSDOF 1
ENDMDL
