MODEL 1
REMARK minimizedAffinity -1.88794577
REMARK minimizedRMSD -1
REMARK  1 active torsions:
REMARK  status: ('A' for Active; 'I' for Inactive)
REMARK    1  A    between atoms: C1_2  and  C2_3 
ROOT
ATOM      1  C2  UNL d   1       0.229   0.736   0.764  0.00  0.00    -0.077 A 
ATOM      2  C3  UNL d   1      -0.385   1.996   0.756  0.00  0.00     0.002 A 
ATOM      3  C4  UNL d   1      -1.770   2.108   0.887  0.00  0.00     0.002 A 
ATOM      4  C5  UNL d   1      -2.553   0.964   1.031  0.00  0.00    -0.004 A 
ATOM      5  C6  UNL d   1      -1.952  -0.294   1.038  0.00  0.00     0.002 A 
ATOM      6  C7  UNL d   1      -0.567  -0.408   0.906  0.00  0.00     0.002 A 
ENDROOT
BRANCH   1   7
ATOM      7  C1  UNL d   1       1.728   0.616   0.673  0.00  0.00     0.055 C 
ATOM      8  C   UNL d   1       2.138  -0.652  -0.061  0.00  0.00     0.019 C 
ENDBRANCH   1   7
TORSDOF 1
ENDMDL
