MODEL 1
REMARK minimizedAffinity 1.04825771
REMARK minimizedRMSD -1
REMARK  1 active torsions:
REMARK  status: ('A' for Active; 'I' for Inactive)
REMARK    1  A    between atoms: C1_2  and  C2_3 
ROOT
ATOM      1  C2  UNL d   1       1.262   2.409   2.031  0.00  0.00    -0.077 A 
ATOM      2  C3  UNL d   1      -0.031   2.929   2.187  0.00  0.00     0.002 A 
ATOM      3  C4  UNL d   1      -1.056   2.545   1.320  0.00  0.00     0.002 A 
ATOM      4  C5  UNL d   1      -0.800   1.637   0.295  0.00  0.00    -0.004 A 
ATOM      5  C6  UNL d   1       0.483   1.115   0.131  0.00  0.00     0.002 A 
ATOM      6  C7  UNL d   1       1.509   1.498   0.996  0.00  0.00     0.002 A 
ENDROOT
BRANCH   1   7
ATOM      7  C1  UNL d   1       2.357   2.784   2.995  0.00  0.00     0.055 C 
ATOM      8  C   UNL d   1       3.712   2.283   2.516  0.00  0.00     0.019 C 
ENDBRANCH   1   7
TORSDOF 1
ENDMDL
