MODEL 1
REMARK minimizedAffinity -0.191738695
REMARK minimizedRMSD -1
REMARK  1 active torsions:
REMARK  status: ('A' for Active; 'I' for Inactive)
REMARK    1  A    between atoms: C1_2  and  C2_3 
ROOT
ATOM      1  C2  UNL d   1       0.825   0.555   0.886  0.00  0.00    -0.077 A 
ATOM      2  C3  UNL d   1       0.333   1.866   0.960  0.00  0.00     0.002 A 
ATOM      3  C4  UNL d   1      -1.038   2.100   1.084  0.00  0.00     0.002 A 
ATOM      4  C5  UNL d   1      -1.927   1.028   1.141  0.00  0.00    -0.004 A 
ATOM      5  C6  UNL d   1      -1.448  -0.279   1.066  0.00  0.00     0.002 A 
ATOM      6  C7  UNL d   1      -0.078  -0.515   0.941  0.00  0.00     0.002 A 
ENDROOT
BRANCH   1   7
ATOM      7  C1  UNL d   1       2.307   0.299   0.802  0.00  0.00     0.055 C 
ATOM      8  C   UNL d   1       2.709  -0.175  -0.588  0.00  0.00     0.019 C 
ENDBRANCH   1   7
TORSDOF 1
ENDMDL
