MODEL 1
REMARK minimizedAffinity 4.71350956
REMARK minimizedRMSD -1
REMARK  1 active torsions:
REMARK  status: ('A' for Active; 'I' for Inactive)
REMARK    1  A    between atoms: C1_2  and  C2_3 
ROOT
ATOM      1  C2  UNL d   1       0.201   0.434   0.484  0.00  0.00    -0.077 A 
ATOM      2  C3  UNL d   1      -0.517  -0.768   0.556  0.00  0.00     0.002 A 
ATOM      3  C4  UNL d   1      -1.897  -0.754   0.764  0.00  0.00     0.002 A 
ATOM      4  C5  UNL d   1      -2.572   0.458   0.896  0.00  0.00    -0.004 A 
ATOM      5  C6  UNL d   1      -1.866   1.658   0.828  0.00  0.00     0.002 A 
ATOM      6  C7  UNL d   1      -0.486   1.647   0.622  0.00  0.00     0.002 A 
ENDROOT
BRANCH   1   7
ATOM      7  C1  UNL d   1       1.683   0.423   0.211  0.00  0.00     0.055 C 
ATOM      8  C   UNL d   1       1.971   0.231  -1.271  0.00  0.00     0.019 C 
ENDBRANCH   1   7
TORSDOF 1
ENDMDL
