MODEL 1
REMARK minimizedAffinity 0.147183478
REMARK minimizedRMSD -1
REMARK  1 active torsions:
REMARK  status: ('A' for Active; 'I' for Inactive)
REMARK    1  A    between atoms: C1_2  and  C2_3 
ROOT
ATOM      1  C2  UNL d   1       2.187  -0.133  -0.843  0.00  0.00    -0.077 A 
ATOM      2  C3  UNL d   1       3.022  -1.257  -0.902  0.00  0.00     0.002 A 
ATOM      3  C4  UNL d   1       3.521  -1.702  -2.128  0.00  0.00     0.002 A 
ATOM      4  C5  UNL d   1       3.194  -1.027  -3.302  0.00  0.00    -0.004 A 
ATOM      5  C6  UNL d   1       2.362   0.091  -3.253  0.00  0.00     0.002 A 
ATOM      6  C7  UNL d   1       1.862   0.537  -2.029  0.00  0.00     0.002 A 
ENDROOT
BRANCH   1   7
ATOM      7  C1  UNL d   1       1.688   0.379   0.484  0.00  0.00     0.055 C 
ATOM      8  C   UNL d   1       1.976   1.864   0.648  0.00  0.00     0.019 C 
ENDBRANCH   1   7
TORSDOF 1
ENDMDL
