MODEL 1
REMARK minimizedAffinity 7.44341326
REMARK minimizedRMSD -1
REMARK  1 active torsions:
REMARK  status: ('A' for Active; 'I' for Inactive)
REMARK    1  A    between atoms: C1_2  and  C2_3 
ROOT
ATOM      1  C2  UNL d   1      -0.179   1.145   0.762  0.00  0.00    -0.077 A 
ATOM      2  C3  UNL d   1      -1.056   0.051   0.774  0.00  0.00     0.002 A 
ATOM      3  C4  UNL d   1      -2.434   0.252   0.874  0.00  0.00     0.002 A 
ATOM      4  C5  UNL d   1      -2.947   1.545   0.959  0.00  0.00    -0.004 A 
ATOM      5  C6  UNL d   1      -2.083   2.639   0.950  0.00  0.00     0.002 A 
ATOM      6  C7  UNL d   1      -0.705   2.440   0.852  0.00  0.00     0.002 A 
ENDROOT
BRANCH   1   7
ATOM      7  C1  UNL d   1       1.304   0.933   0.605  0.00  0.00     0.055 C 
ATOM      8  C   UNL d   1       1.659   0.541  -0.822  0.00  0.00     0.019 C 
ENDBRANCH   1   7
TORSDOF 1
ENDMDL
