MODEL 1
REMARK minimizedAffinity 9.82253075
REMARK minimizedRMSD -1
REMARK  1 active torsions:
REMARK  status: ('A' for Active; 'I' for Inactive)
REMARK    1  A    between atoms: C1_2  and  C2_3 
ROOT
ATOM      1  C2  UNL d   1       1.560   0.813  -3.307  0.00  0.00    -0.077 A 
ATOM      2  C3  UNL d   1       2.245   1.521  -4.304  0.00  0.00     0.002 A 
ATOM      3  C4  UNL d   1       1.641   2.606  -4.942  0.00  0.00     0.002 A 
ATOM      4  C5  UNL d   1       0.352   2.995  -4.587  0.00  0.00    -0.004 A 
ATOM      5  C6  UNL d   1      -0.339   2.297  -3.597  0.00  0.00     0.002 A 
ATOM      6  C7  UNL d   1       0.263   1.211  -2.959  0.00  0.00     0.002 A 
ENDROOT
BRANCH   1   7
ATOM      7  C1  UNL d   1       2.228  -0.327  -2.583  0.00  0.00     0.055 C 
ATOM      8  C   UNL d   1       1.488  -0.678  -1.301  0.00  0.00     0.019 C 
ENDBRANCH   1   7
TORSDOF 1
ENDMDL
