MODEL 1
REMARK minimizedAffinity 0.306736261
REMARK minimizedRMSD -1
REMARK  1 active torsions:
REMARK  status: ('A' for Active; 'I' for Inactive)
REMARK    1  A    between atoms: C1_2  and  C2_3 
ROOT
ATOM      1  C2  UNL d   1      -2.870  -4.295  -5.906  0.00  0.00    -0.077 A 
ATOM      2  C3  UNL d   1      -2.290  -3.019  -5.956  0.00  0.00     0.002 A 
ATOM      3  C4  UNL d   1      -0.902  -2.876  -6.000  0.00  0.00     0.002 A 
ATOM      4  C5  UNL d   1      -0.083  -4.004  -5.999  0.00  0.00    -0.004 A 
ATOM      5  C6  UNL d   1      -0.650  -5.276  -5.948  0.00  0.00     0.002 A 
ATOM      6  C7  UNL d   1      -2.038  -5.421  -5.903  0.00  0.00     0.002 A 
ENDROOT
BRANCH   1   7
ATOM      7  C1  UNL d   1      -4.368  -4.453  -5.909  0.00  0.00     0.055 C 
ATOM      8  C   UNL d   1      -4.770  -5.917  -5.999  0.00  0.00     0.019 C 
ENDBRANCH   1   7
TORSDOF 1
ENDMDL
