MODEL 1
REMARK minimizedAffinity 0.36766988
REMARK minimizedRMSD -1
REMARK  1 active torsions:
REMARK  status: ('A' for Active; 'I' for Inactive)
REMARK    1  A    between atoms: C1_2  and  C2_3 
ROOT
ATOM      1  C2  UNL d   1      -5.425  -1.728   3.972  0.00  0.00    -0.077 A 
ATOM      2  C3  UNL d   1      -5.768  -0.522   4.599  0.00  0.00     0.002 A 
ATOM      3  C4  UNL d   1      -5.280   0.691   4.110  0.00  0.00     0.002 A 
ATOM      4  C5  UNL d   1      -4.451   0.711   2.991  0.00  0.00    -0.004 A 
ATOM      5  C6  UNL d   1      -4.102  -0.483   2.361  0.00  0.00     0.002 A 
ATOM      6  C7  UNL d   1      -4.588  -1.697   2.849  0.00  0.00     0.002 A 
ENDROOT
BRANCH   1   7
ATOM      7  C1  UNL d   1      -5.990  -3.034   4.468  0.00  0.00     0.055 C 
ATOM      8  C   UNL d   1      -6.000  -3.091   5.988  0.00  0.00     0.019 C 
ENDBRANCH   1   7
TORSDOF 1
ENDMDL
