MODEL 1
REMARK minimizedAffinity 7.59635258
REMARK minimizedRMSD -1
REMARK  1 active torsions:
REMARK  status: ('A' for Active; 'I' for Inactive)
REMARK    1  A    between atoms: C1_2  and  C2_3 
ROOT
ATOM      1  C2  UNL d   1      -0.828   3.761  -2.120  0.00  0.00    -0.077 A 
ATOM      2  C3  UNL d   1      -0.912   5.050  -2.665  0.00  0.00     0.002 A 
ATOM      3  C4  UNL d   1      -2.049   5.445  -3.373  0.00  0.00     0.002 A 
ATOM      4  C5  UNL d   1      -3.111   4.559  -3.538  0.00  0.00    -0.004 A 
ATOM      5  C6  UNL d   1      -3.036   3.274  -3.002  0.00  0.00     0.002 A 
ATOM      6  C7  UNL d   1      -1.900   2.877  -2.295  0.00  0.00     0.002 A 
ENDROOT
BRANCH   1   7
ATOM      7  C1  UNL d   1       0.377   3.350  -1.315  0.00  0.00     0.055 C 
ATOM      8  C   UNL d   1       0.003   2.350  -0.231  0.00  0.00     0.019 C 
ENDBRANCH   1   7
TORSDOF 1
ENDMDL
