MODEL 1
REMARK minimizedAffinity -0.570005059
REMARK minimizedRMSD -1
REMARK  1 active torsions:
REMARK  status: ('A' for Active; 'I' for Inactive)
REMARK    1  A    between atoms: C1_2  and  C2_3 
ROOT
ATOM      1  C2  UNL d   1      -5.824  -2.916   4.876  0.00  0.00    -0.077 A 
ATOM      2  C3  UNL d   1      -5.831  -3.246   3.514  0.00  0.00     0.002 A 
ATOM      3  C4  UNL d   1      -5.921  -2.245   2.545  0.00  0.00     0.002 A 
ATOM      4  C5  UNL d   1      -6.000  -0.908   2.927  0.00  0.00    -0.004 A 
ATOM      5  C6  UNL d   1      -5.995  -0.569   4.280  0.00  0.00     0.002 A 
ATOM      6  C7  UNL d   1      -5.907  -1.568   5.250  0.00  0.00     0.002 A 
ENDROOT
BRANCH   1   7
ATOM      7  C1  UNL d   1      -5.678  -3.990   5.922  0.00  0.00     0.055 C 
ATOM      8  C   UNL d   1      -4.245  -4.496   5.999  0.00  0.00     0.019 C 
ENDBRANCH   1   7
TORSDOF 1
ENDMDL
