MODEL 1
REMARK minimizedAffinity 7.25084782
REMARK minimizedRMSD -1
REMARK  1 active torsions:
REMARK  status: ('A' for Active; 'I' for Inactive)
REMARK    1  A    between atoms: C1_2  and  C2_3 
ROOT
ATOM      1  C2  UNL d   1      -1.847  -4.938  -5.211  0.00  0.00    -0.077 A 
ATOM      2  C3  UNL d   1      -1.285  -3.922  -5.996  0.00  0.00     0.002 A 
ATOM      3  C4  UNL d   1      -0.447  -2.965  -5.420  0.00  0.00     0.002 A 
ATOM      4  C5  UNL d   1      -0.161  -3.018  -4.058  0.00  0.00    -0.004 A 
ATOM      5  C6  UNL d   1      -0.716  -4.023  -3.267  0.00  0.00     0.002 A 
ATOM      6  C7  UNL d   1      -1.555  -4.980  -3.842  0.00  0.00     0.002 A 
ENDROOT
BRANCH   1   7
ATOM      7  C1  UNL d   1      -2.712  -5.999  -5.840  0.00  0.00     0.055 C 
ATOM      8  C   UNL d   1      -4.152  -5.529  -5.978  0.00  0.00     0.019 C 
ENDBRANCH   1   7
TORSDOF 1
ENDMDL
