MODEL 1
REMARK minimizedAffinity 1.78884673
REMARK minimizedRMSD -1
REMARK  1 active torsions:
REMARK  status: ('A' for Active; 'I' for Inactive)
REMARK    1  A    between atoms: C1_2  and  C2_3 
ROOT
ATOM      1  C2  UNL d   1      -0.207   3.674  -0.618  0.00  0.00    -0.077 A 
ATOM      2  C3  UNL d   1      -0.603   4.813   0.098  0.00  0.00     0.002 A 
ATOM      3  C4  UNL d   1      -0.996   5.970  -0.577  0.00  0.00     0.002 A 
ATOM      4  C5  UNL d   1      -1.002   5.999  -1.970  0.00  0.00    -0.004 A 
ATOM      5  C6  UNL d   1      -0.608   4.872  -2.691  0.00  0.00     0.002 A 
ATOM      6  C7  UNL d   1      -0.213   3.715  -2.019  0.00  0.00     0.002 A 
ENDROOT
BRANCH   1   7
ATOM      7  C1  UNL d   1       0.171   2.409   0.107  0.00  0.00     0.055 C 
ATOM      8  C   UNL d   1      -0.356   2.412   1.535  0.00  0.00     0.019 C 
ENDBRANCH   1   7
TORSDOF 1
ENDMDL
