MODEL 1
REMARK minimizedAffinity 7.12588739
REMARK minimizedRMSD -1
REMARK  1 active torsions:
REMARK  status: ('A' for Active; 'I' for Inactive)
REMARK    1  A    between atoms: C1_2  and  C2_3 
ROOT
ATOM      1  C2  UNL d   1      -1.127   4.128  -2.812  0.00  0.00    -0.077 A 
ATOM      2  C3  UNL d   1      -0.364   3.218  -2.067  0.00  0.00     0.002 A 
ATOM      3  C4  UNL d   1       0.109   3.565  -0.800  0.00  0.00     0.002 A 
ATOM      4  C5  UNL d   1      -0.180   4.819  -0.266  0.00  0.00    -0.004 A 
ATOM      5  C6  UNL d   1      -0.936   5.731  -1.000  0.00  0.00     0.002 A 
ATOM      6  C7  UNL d   1      -1.408   5.387  -2.268  0.00  0.00     0.002 A 
ENDROOT
BRANCH   1   7
ATOM      7  C1  UNL d   1      -1.679   3.738  -4.159  0.00  0.00     0.055 C 
ATOM      8  C   UNL d   1      -3.165   3.419  -4.077  0.00  0.00     0.019 C 
ENDBRANCH   1   7
TORSDOF 1
ENDMDL
