MODEL 1
REMARK minimizedAffinity -2.59488869
REMARK minimizedRMSD -1
REMARK  0 active torsions:
REMARK  status: ('A' for Active; 'I' for Inactive)
ROOT
ATOM      1  C   UNL d   1      -2.632   0.675   1.966  0.00  0.00    -0.002 A 
ATOM      2  C1  UNL d   1      -3.078   0.746   0.654  0.00  0.00     0.010 A 
ATOM      3  C2  UNL d   1      -2.218   0.451  -0.406  0.00  0.00     0.041 A 
ATOM      4  C3  UNL d   1      -0.890   0.077  -0.122  0.00  0.00    -0.075 A 
ATOM      5  S   UNL d   1       0.341  -0.331  -1.258  0.00  0.00     0.015 SA
ATOM      6  C4  UNL d   1       1.488  -0.610  -0.029  0.00  0.00     0.022 A 
ATOM      7  C5  UNL d   1       0.962  -0.402   1.224  0.00  0.00     0.026 A 
ATOM      8  C6  UNL d   1      -0.417  -0.003   1.191  0.00  0.00    -0.082 A 
ATOM      9  C7  UNL d   1      -1.313   0.304   2.244  0.00  0.00     0.045 A 
ENDROOT
TORSDOF 0
ENDMDL
