MODEL 1
REMARK minimizedAffinity 3.81861472
REMARK minimizedRMSD -1
REMARK  0 active torsions:
REMARK  status: ('A' for Active; 'I' for Inactive)
ROOT
ATOM      1  C   UNL d   1       1.905  -2.630   1.126  0.00  0.00     0.172 C 
ATOM      2  N   UNL d   1       0.961  -2.004   2.021  0.00  0.00    -0.070 N 
ATOM      3  C1  UNL d   1       1.186  -0.869   2.753  0.00  0.00    -0.004 A 
ATOM      4  C2  UNL d   1       0.044  -0.600   3.476  0.00  0.00    -0.047 A 
ATOM      5  C3  UNL d   1      -0.900  -1.608   3.169  0.00  0.00    -0.047 A 
ATOM      6  C4  UNL d   1      -0.306  -2.465   2.266  0.00  0.00    -0.004 A 
ENDROOT
TORSDOF 0
ENDMDL
