MODEL 1
REMARK minimizedAffinity -0.297717512
REMARK minimizedRMSD -1
REMARK  0 active torsions:
REMARK  status: ('A' for Active; 'I' for Inactive)
ROOT
ATOM      1  C   UNL d   1       4.309  -2.403   5.087  0.00  0.00     0.172 C 
ATOM      2  N   UNL d   1       4.774  -3.750   5.316  0.00  0.00    -0.070 N 
ATOM      3  C1  UNL d   1       5.909  -4.098   5.999  0.00  0.00    -0.004 A 
ATOM      4  C2  UNL d   1       5.999  -5.473   5.997  0.00  0.00    -0.047 A 
ATOM      5  C3  UNL d   1       4.880  -5.969   5.287  0.00  0.00    -0.047 A 
ATOM      6  C4  UNL d   1       4.138  -4.881   4.877  0.00  0.00    -0.004 A 
ENDROOT
TORSDOF 0
ENDMDL
