MODEL 1
REMARK minimizedAffinity 11.1887636
REMARK minimizedRMSD -1
REMARK  0 active torsions:
REMARK  status: ('A' for Active; 'I' for Inactive)
ROOT
ATOM      1  C   UNL d   1       4.875   2.577   1.144  0.00  0.00     0.172 C 
ATOM      2  N   UNL d   1       5.331   1.615   0.168  0.00  0.00    -0.070 N 
ATOM      3  C1  UNL d   1       5.587   0.292   0.410  0.00  0.00    -0.004 A 
ATOM      4  C2  UNL d   1       6.000  -0.282  -0.773  0.00  0.00    -0.047 A 
ATOM      5  C3  UNL d   1       5.993   0.732  -1.760  0.00  0.00    -0.047 A 
ATOM      6  C4  UNL d   1       5.575   1.896  -1.150  0.00  0.00    -0.004 A 
ENDROOT
TORSDOF 0
ENDMDL
