MODEL 1
REMARK minimizedAffinity 1.50671411
REMARK minimizedRMSD -1
REMARK  0 active torsions:
REMARK  status: ('A' for Active; 'I' for Inactive)
ROOT
ATOM      1  C   UNL d   1       1.237  -2.174   0.752  0.00  0.00     0.172 C 
ATOM      2  N   UNL d   1       2.192  -3.258   0.770  0.00  0.00    -0.070 N 
ATOM      3  C1  UNL d   1       3.549  -3.123   0.893  0.00  0.00    -0.004 A 
ATOM      4  C2  UNL d   1       4.102  -4.385   0.867  0.00  0.00    -0.047 A 
ATOM      5  C3  UNL d   1       3.040  -5.310   0.722  0.00  0.00    -0.047 A 
ATOM      6  C4  UNL d   1       1.869  -4.585   0.665  0.00  0.00    -0.004 A 
ENDROOT
TORSDOF 0
ENDMDL
