MODEL 1
REMARK minimizedAffinity 12.5584288
REMARK minimizedRMSD -1
REMARK  0 active torsions:
REMARK  status: ('A' for Active; 'I' for Inactive)
ROOT
ATOM      1  C   UNL d   1       2.335  -4.016  -0.508  0.00  0.00     0.172 C 
ATOM      2  N   UNL d   1       1.938  -2.962   0.396  0.00  0.00    -0.070 N 
ATOM      3  C1  UNL d   1       2.776  -2.041   0.966  0.00  0.00    -0.004 A 
ATOM      4  C2  UNL d   1       2.014  -1.212   1.761  0.00  0.00    -0.047 A 
ATOM      5  C3  UNL d   1       0.672  -1.650   1.666  0.00  0.00    -0.047 A 
ATOM      6  C4  UNL d   1       0.653  -2.735   0.815  0.00  0.00    -0.004 A 
ENDROOT
TORSDOF 0
ENDMDL
