MODEL 1
REMARK minimizedAffinity 8.8783083
REMARK minimizedRMSD -1
REMARK  0 active torsions:
REMARK  status: ('A' for Active; 'I' for Inactive)
ROOT
ATOM      1  C   UNL d   1      -1.439  -0.288   3.599  0.00  0.00     0.172 C 
ATOM      2  N   UNL d   1      -2.712   0.323   3.300  0.00  0.00    -0.070 N 
ATOM      3  C1  UNL d   1      -3.409   1.162   4.128  0.00  0.00    -0.004 A 
ATOM      4  C2  UNL d   1      -4.569   1.527   3.479  0.00  0.00    -0.047 A 
ATOM      5  C3  UNL d   1      -4.569   0.885   2.218  0.00  0.00    -0.047 A 
ATOM      6  C4  UNL d   1      -3.408   0.146   2.133  0.00  0.00    -0.004 A 
ENDROOT
TORSDOF 0
ENDMDL
