MODEL 1
REMARK minimizedAffinity 2.67735648
REMARK minimizedRMSD -1
REMARK  0 active torsions:
REMARK  status: ('A' for Active; 'I' for Inactive)
ROOT
ATOM      1  C   UNL d   1      -4.782   1.814   6.000  0.00  0.00     0.172 C 
ATOM      2  N   UNL d   1      -4.907   1.771   4.562  0.00  0.00    -0.070 N 
ATOM      3  C1  UNL d   1      -5.994   2.192   3.843  0.00  0.00    -0.004 A 
ATOM      4  C2  UNL d   1      -5.722   1.985   2.508  0.00  0.00    -0.047 A 
ATOM      5  C3  UNL d   1      -4.428   1.419   2.422  0.00  0.00    -0.047 A 
ATOM      6  C4  UNL d   1      -3.947   1.297   3.708  0.00  0.00    -0.004 A 
ENDROOT
TORSDOF 0
ENDMDL
