MODEL 1
REMARK minimizedAffinity 6.18959951
REMARK minimizedRMSD -1
REMARK  0 active torsions:
REMARK  status: ('A' for Active; 'I' for Inactive)
ROOT
ATOM      1  C   UNL d   1       2.549  -3.815  -0.618  0.00  0.00     0.172 C 
ATOM      2  N   UNL d   1       2.103  -2.848   0.358  0.00  0.00    -0.070 N 
ATOM      3  C1  UNL d   1       2.823  -2.416   1.440  0.00  0.00    -0.004 A 
ATOM      4  C2  UNL d   1       2.052  -1.499   2.120  0.00  0.00    -0.047 A 
ATOM      5  C3  UNL d   1       0.826  -1.376   1.424  0.00  0.00    -0.047 A 
ATOM      6  C4  UNL d   1       0.885  -2.223   0.337  0.00  0.00    -0.004 A 
ENDROOT
TORSDOF 0
ENDMDL
