MODEL 1
REMARK minimizedAffinity 6.25046253
REMARK minimizedRMSD -1
REMARK  0 active torsions:
REMARK  status: ('A' for Active; 'I' for Inactive)
ROOT
ATOM      1  C   UNL d   1       0.214  -1.633   1.410  0.00  0.00     0.172 C 
ATOM      2  N   UNL d   1       1.184  -2.442   0.709  0.00  0.00    -0.070 N 
ATOM      3  C1  UNL d   1       1.193  -3.810   0.657  0.00  0.00    -0.004 A 
ATOM      4  C2  UNL d   1       2.274  -4.195  -0.107  0.00  0.00    -0.047 A 
ATOM      5  C3  UNL d   1       2.937  -3.018  -0.528  0.00  0.00    -0.047 A 
ATOM      6  C4  UNL d   1       2.241  -1.947  -0.008  0.00  0.00    -0.004 A 
ENDROOT
TORSDOF 0
ENDMDL
