MODEL 1
REMARK minimizedAffinity -2.08079052
REMARK minimizedRMSD -1
REMARK  0 active torsions:
REMARK  status: ('A' for Active; 'I' for Inactive)
ROOT
ATOM      1  C1  DEN d   1       2.312  -2.325   0.573  0.00  0.00     0.130 A 
ATOM      2  C2  DEN d   1       1.196  -2.841  -0.214  0.00  0.00    -0.031 A 
ATOM      3  C3  DEN d   1       0.272  -1.722  -0.484  0.00  0.00     0.027 A 
ATOM      4  C4  DEN d   1       0.463   0.749   0.232  0.00  0.00     0.027 A 
ATOM      5  C5  DEN d   1       1.229   1.661   0.923  0.00  0.00    -0.003 A 
ATOM      6  C6  DEN d   1       2.383   1.305   1.569  0.00  0.00     0.001 A 
ATOM      7  C7  DEN d   1       2.828   0.011   1.500  0.00  0.00     0.017 A 
ATOM      8  C8  DEN d   1       2.057  -0.916   0.811  0.00  0.00    -0.094 A 
ATOM      9  C9  DEN d   1       0.900  -0.534   0.154  0.00  0.00    -0.072 A 
ENDROOT
TORSDOF 0
ENDMDL
