MODEL 1
REMARK minimizedAffinity -4.41528511
REMARK minimizedRMSD -1
REMARK  0 active torsions:
REMARK  status: ('A' for Active; 'I' for Inactive)
ROOT
ATOM      1  C1  DEN d   1      -0.603   1.351  -0.010  0.00  0.00     0.130 A 
ATOM      2  C2  DEN d   1      -1.597   0.408  -0.517  0.00  0.00    -0.031 A 
ATOM      3  C3  DEN d   1      -0.956  -0.917  -0.626  0.00  0.00     0.027 A 
ATOM      4  C4  DEN d   1       1.467  -1.599  -0.059  0.00  0.00     0.027 A 
ATOM      5  C5  DEN d   1       2.685  -1.142   0.393  0.00  0.00    -0.003 A 
ATOM      6  C6  DEN d   1       2.900   0.174   0.706  0.00  0.00     0.001 A 
ATOM      7  C7  DEN d   1       1.869   1.071   0.616  0.00  0.00     0.017 A 
ATOM      8  C8  DEN d   1       0.640   0.619   0.155  0.00  0.00    -0.094 A 
ATOM      9  C9  DEN d   1       0.438  -0.717  -0.146  0.00  0.00    -0.072 A 
ENDROOT
TORSDOF 0
ENDMDL
