MODEL 1
REMARK minimizedAffinity -4.24203348
REMARK minimizedRMSD -1
REMARK  0 active torsions:
REMARK  status: ('A' for Active; 'I' for Inactive)
ROOT
ATOM      1  C1  DEN d   1      -2.417   0.735  -2.254  0.00  0.00     0.130 A 
ATOM      2  C2  DEN d   1      -2.991  -0.573  -2.559  0.00  0.00    -0.031 A 
ATOM      3  C3  DEN d   1      -2.325  -1.575  -1.703  0.00  0.00     0.027 A 
ATOM      4  C4  DEN d   1      -0.473  -1.229   0.059  0.00  0.00     0.027 A 
ATOM      5  C5  DEN d   1       0.343  -0.298   0.662  0.00  0.00    -0.003 A 
ATOM      6  C6  DEN d   1       0.321   1.027   0.314  0.00  0.00     0.001 A 
ATOM      7  C7  DEN d   1      -0.568   1.465  -0.633  0.00  0.00     0.017 A 
ATOM      8  C8  DEN d   1      -1.389   0.531  -1.250  0.00  0.00    -0.094 A 
ATOM      9  C9  DEN d   1      -1.360  -0.802  -0.876  0.00  0.00    -0.072 A 
ENDROOT
TORSDOF 0
ENDMDL
