MODEL 1
REMARK minimizedAffinity -6.23852348
REMARK minimizedRMSD -1
REMARK  0 active torsions:
REMARK  status: ('A' for Active; 'I' for Inactive)
ROOT
ATOM      1  C1  DEN d   1      -0.951  -0.708   0.569  0.00  0.00     0.130 A 
ATOM      2  C2  DEN d   1      -1.542   0.613   0.378  0.00  0.00    -0.031 A 
ATOM      3  C3  DEN d   1      -0.444   1.598   0.306  0.00  0.00     0.027 A 
ATOM      4  C4  DEN d   1       2.100   1.206   0.467  0.00  0.00     0.027 A 
ATOM      5  C5  DEN d   1       3.081   0.254   0.641  0.00  0.00    -0.003 A 
ATOM      6  C6  DEN d   1       2.787  -1.070   0.836  0.00  0.00     0.001 A 
ATOM      7  C7  DEN d   1       1.481  -1.485   0.816  0.00  0.00     0.017 A 
ATOM      8  C8  DEN d   1       0.487  -0.530   0.649  0.00  0.00    -0.094 A 
ATOM      9  C9  DEN d   1       0.805   0.801   0.441  0.00  0.00    -0.072 A 
ENDROOT
TORSDOF 0
ENDMDL
