MODEL 1
REMARK minimizedAffinity -2.89398885
REMARK minimizedRMSD -1
REMARK  0 active torsions:
REMARK  status: ('A' for Active; 'I' for Inactive)
ROOT
ATOM      1  C1  DEN d   1      -0.040  -1.871   1.019  0.00  0.00     0.130 A 
ATOM      2  C2  DEN d   1      -1.374  -1.528   0.533  0.00  0.00    -0.031 A 
ATOM      3  C3  DEN d   1      -1.325  -0.154  -0.005  0.00  0.00     0.027 A 
ATOM      4  C4  DEN d   1       0.678   1.466  -0.138  0.00  0.00     0.027 A 
ATOM      5  C5  DEN d   1       2.013   1.627   0.159  0.00  0.00    -0.003 A 
ATOM      6  C6  DEN d   1       2.744   0.654   0.788  0.00  0.00     0.001 A 
ATOM      7  C7  DEN d   1       2.154  -0.542   1.101  0.00  0.00     0.017 A 
ATOM      8  C8  DEN d   1       0.806  -0.709   0.812  0.00  0.00    -0.094 A 
ATOM      9  C9  DEN d   1       0.088   0.282   0.165  0.00  0.00    -0.072 A 
ENDROOT
TORSDOF 0
ENDMDL
