MODEL 1
REMARK minimizedAffinity -5.75667667
REMARK minimizedRMSD -1
REMARK  0 active torsions:
REMARK  status: ('A' for Active; 'I' for Inactive)
ROOT
ATOM      1  C1  DEN d   1      -0.772  -0.828   0.578  0.00  0.00     0.130 A 
ATOM      2  C2  DEN d   1      -0.889   0.473  -0.075  0.00  0.00    -0.031 A 
ATOM      3  C3  DEN d   1       0.459   1.072  -0.142  0.00  0.00     0.027 A 
ATOM      4  C4  DEN d   1       2.704   0.114   0.692  0.00  0.00     0.027 A 
ATOM      5  C5  DEN d   1       3.304  -0.953   1.323  0.00  0.00    -0.003 A 
ATOM      6  C6  DEN d   1       2.588  -2.029   1.777  0.00  0.00     0.001 A 
ATOM      7  C7  DEN d   1       1.236  -2.083   1.566  0.00  0.00     0.017 A 
ATOM      8  C8  DEN d   1       0.623  -1.007   0.937  0.00  0.00    -0.094 A 
ATOM      9  C9  DEN d   1       1.366   0.066   0.474  0.00  0.00    -0.072 A 
ENDROOT
TORSDOF 0
ENDMDL
