MODEL 1
REMARK minimizedAffinity -6.37173796
REMARK minimizedRMSD -1
REMARK  0 active torsions:
REMARK  status: ('A' for Active; 'I' for Inactive)
ROOT
ATOM      1  C1  DEN d   1       1.354   1.185   0.090  0.00  0.00     0.130 A 
ATOM      2  C2  DEN d   1       2.661   0.681   0.502  0.00  0.00    -0.031 A 
ATOM      3  C3  DEN d   1       2.453  -0.593   1.219  0.00  0.00     0.027 A 
ATOM      4  C4  DEN d   1       0.247  -1.831   1.723  0.00  0.00     0.027 A 
ATOM      5  C5  DEN d   1      -1.122  -1.786   1.583  0.00  0.00    -0.003 A 
ATOM      6  C6  DEN d   1      -1.760  -0.740   0.970  0.00  0.00     0.001 A 
ATOM      7  C7  DEN d   1      -1.024   0.284   0.434  0.00  0.00     0.017 A 
ATOM      8  C8  DEN d   1       0.357   0.249   0.578  0.00  0.00    -0.094 A 
ATOM      9  C9  DEN d   1       0.984  -0.823   1.190  0.00  0.00    -0.072 A 
ENDROOT
TORSDOF 0
ENDMDL
