MODEL 1
REMARK minimizedAffinity -4.24004316
REMARK minimizedRMSD -1
REMARK  0 active torsions:
REMARK  status: ('A' for Active; 'I' for Inactive)
ROOT
ATOM      1  C1  DEN d   1       2.775  -1.195   0.409  0.00  0.00     0.130 A 
ATOM      2  C2  DEN d   1       3.556  -0.123   1.020  0.00  0.00    -0.031 A 
ATOM      3  C3  DEN d   1       2.648   1.013   1.277  0.00  0.00     0.027 A 
ATOM      4  C4  DEN d   1       0.122   1.212   0.796  0.00  0.00     0.027 A 
ATOM      5  C5  DEN d   1      -0.976   0.565   0.273  0.00  0.00    -0.003 A 
ATOM      6  C6  DEN d   1      -0.894  -0.691  -0.267  0.00  0.00     0.001 A 
ATOM      7  C7  DEN d   1       0.302  -1.358  -0.256  0.00  0.00     0.017 A 
ATOM      8  C8  DEN d   1       1.415  -0.709   0.262  0.00  0.00    -0.094 A 
ATOM      9  C9  DEN d   1       1.309   0.556   0.814  0.00  0.00    -0.072 A 
ENDROOT
TORSDOF 0
ENDMDL
