MODEL 1
REMARK minimizedAffinity -6.17302275
REMARK minimizedRMSD -1
REMARK  0 active torsions:
REMARK  status: ('A' for Active; 'I' for Inactive)
ROOT
ATOM      1  C1  DEN d   1       0.434   1.187  -0.266  0.00  0.00     0.130 A 
ATOM      2  C2  DEN d   1      -0.887   0.587  -0.433  0.00  0.00    -0.031 A 
ATOM      3  C3  DEN d   1      -0.845  -0.774   0.140  0.00  0.00     0.027 A 
ATOM      4  C4  DEN d   1       1.123  -2.001   1.267  0.00  0.00     0.027 A 
ATOM      5  C5  DEN d   1       2.449  -1.902   1.628  0.00  0.00    -0.003 A 
ATOM      6  C6  DEN d   1       3.199  -0.788   1.356  0.00  0.00     0.001 A 
ATOM      7  C7  DEN d   1       2.616   0.289   0.743  0.00  0.00     0.017 A 
ATOM      8  C8  DEN d   1       1.282   0.194   0.368  0.00  0.00    -0.094 A 
ATOM      9  C9  DEN d   1       0.538  -0.936   0.664  0.00  0.00    -0.072 A 
ENDROOT
TORSDOF 0
ENDMDL
