MODEL 1
REMARK minimizedAffinity -4.76679802
REMARK minimizedRMSD -1
REMARK  1 active torsions:
REMARK  status: ('A' for Active; 'I' for Inactive)
REMARK    1  A    between atoms: C1_2  and  C2_3 
ROOT
ATOM      1  C2  UNL d   1       1.773   2.811  -0.874  0.00  0.00    -0.076 A 
ATOM      2  C3  UNL d   1       1.923   2.386   0.458  0.00  0.00     0.004 A 
ATOM      3  C4  UNL d   1       1.403   1.165   0.885  0.00  0.00    -0.003 A 
ATOM      4  C5  UNL d   1       0.724   0.349  -0.013  0.00  0.00     0.000 A 
ATOM      5  C6  UNL d   1       0.580   0.747  -1.342  0.00  0.00     0.000 A 
ATOM      6  C7  UNL d   1       1.113   1.967  -1.793  0.00  0.00    -0.073 A 
ATOM      7  C8  UNL d   1       0.924   2.349  -3.235  0.00  0.00     0.078 C 
ENDROOT
BRANCH   1   8
ATOM      8  C1  UNL d   1       2.335   4.157  -1.272  0.00  0.00     0.053 C 
ATOM      9  C   UNL d   1       1.765   5.296  -0.441  0.00  0.00     0.018 C 
ENDBRANCH   1   8
TORSDOF 1
ENDMDL
