MODEL 1
REMARK minimizedAffinity -4.11174202
REMARK minimizedRMSD -1
REMARK  1 active torsions:
REMARK  status: ('A' for Active; 'I' for Inactive)
REMARK    1  A    between atoms: C1_2  and  C2_3 
ROOT
ATOM      1  C2  UNL d   1       1.144   1.412  -1.417  0.00  0.00    -0.076 A 
ATOM      2  C3  UNL d   1       1.526   0.487  -2.404  0.00  0.00     0.004 A 
ATOM      3  C4  UNL d   1       1.789  -0.842  -2.078  0.00  0.00    -0.003 A 
ATOM      4  C5  UNL d   1       1.672  -1.269  -0.759  0.00  0.00     0.000 A 
ATOM      5  C6  UNL d   1       1.277  -0.369   0.230  0.00  0.00     0.000 A 
ATOM      6  C7  UNL d   1       0.993   0.971  -0.084  0.00  0.00    -0.073 A 
ATOM      7  C8  UNL d   1       0.576   1.900   1.023  0.00  0.00     0.078 C 
ENDROOT
BRANCH   1   8
ATOM      8  C1  UNL d   1       0.898   2.847  -1.825  0.00  0.00     0.053 C 
ATOM      9  C   UNL d   1       1.723   3.834  -1.013  0.00  0.00     0.018 C 
ENDBRANCH   1   8
TORSDOF 1
ENDMDL
