MODEL 1
REMARK minimizedAffinity -4.41253042
REMARK minimizedRMSD -1
REMARK  1 active torsions:
REMARK  status: ('A' for Active; 'I' for Inactive)
REMARK    1  A    between atoms: C1_2  and  C2_3 
ROOT
ATOM      1  C2  UNL d   1       1.209   2.465  -1.239  0.00  0.00    -0.076 A 
ATOM      2  C3  UNL d   1       1.524   1.397  -2.097  0.00  0.00     0.004 A 
ATOM      3  C4  UNL d   1       1.593   0.089  -1.619  0.00  0.00    -0.003 A 
ATOM      4  C5  UNL d   1       1.347  -0.171  -0.275  0.00  0.00     0.000 A 
ATOM      5  C6  UNL d   1       1.016   0.875   0.586  0.00  0.00     0.000 A 
ATOM      6  C7  UNL d   1       0.926   2.196   0.117  0.00  0.00    -0.073 A 
ATOM      7  C8  UNL d   1       0.571   3.286   1.091  0.00  0.00     0.078 C 
ENDROOT
BRANCH   1   8
ATOM      8  C1  UNL d   1       1.175   3.865  -1.809  0.00  0.00     0.053 C 
ATOM      9  C   UNL d   1       1.981   4.852  -0.978  0.00  0.00     0.018 C 
ENDBRANCH   1   8
TORSDOF 1
ENDMDL
