MODEL 1
REMARK minimizedAffinity 0.955991864
REMARK minimizedRMSD -1
REMARK  1 active torsions:
REMARK  status: ('A' for Active; 'I' for Inactive)
REMARK    1  A    between atoms: C1_2  and  C2_3 
ROOT
ATOM      1  C2  UNL d   1       1.324   4.071  -1.154  0.00  0.00    -0.076 A 
ATOM      2  C3  UNL d   1       0.837   4.001  -2.470  0.00  0.00     0.004 A 
ATOM      3  C4  UNL d   1       0.418   2.789  -3.017  0.00  0.00    -0.003 A 
ATOM      4  C5  UNL d   1       0.478   1.628  -2.255  0.00  0.00     0.000 A 
ATOM      5  C6  UNL d   1       0.942   1.682  -0.941  0.00  0.00     0.000 A 
ATOM      6  C7  UNL d   1       1.353   2.898  -0.369  0.00  0.00    -0.073 A 
ATOM      7  C8  UNL d   1       1.850   2.898   1.050  0.00  0.00     0.078 C 
ENDROOT
BRANCH   1   8
ATOM      8  C1  UNL d   1       1.790   5.409  -0.624  0.00  0.00     0.053 C 
ATOM      9  C   UNL d   1       2.923   5.999  -1.449  0.00  0.00     0.018 C 
ENDBRANCH   1   8
TORSDOF 1
ENDMDL
