MODEL 1
REMARK minimizedAffinity 4.90191412
REMARK minimizedRMSD -1
REMARK  1 active torsions:
REMARK  status: ('A' for Active; 'I' for Inactive)
REMARK    1  A    between atoms: C1_2  and  C2_3 
ROOT
ATOM      1  C2  UNL d   1       0.915   1.502  -0.142  0.00  0.00    -0.076 A 
ATOM      2  C3  UNL d   1       0.593   0.371   0.629  0.00  0.00     0.004 A 
ATOM      3  C4  UNL d   1       1.030  -0.899   0.258  0.00  0.00    -0.003 A 
ATOM      4  C5  UNL d   1       1.797  -1.060  -0.891  0.00  0.00     0.000 A 
ATOM      5  C6  UNL d   1       2.141   0.052  -1.658  0.00  0.00     0.000 A 
ATOM      6  C7  UNL d   1       1.722   1.342  -1.289  0.00  0.00    -0.073 A 
ATOM      7  C8  UNL d   1       2.116   2.506  -2.157  0.00  0.00     0.078 C 
ENDROOT
BRANCH   1   8
ATOM      8  C1  UNL d   1       0.390   2.850   0.295  0.00  0.00     0.053 C 
ATOM      9  C   UNL d   1       1.503   3.805   0.702  0.00  0.00     0.018 C 
ENDBRANCH   1   8
TORSDOF 1
ENDMDL
