MODEL 1
REMARK minimizedAffinity -0.139376014
REMARK minimizedRMSD -1
REMARK  1 active torsions:
REMARK  status: ('A' for Active; 'I' for Inactive)
REMARK    1  A    between atoms: C1_2  and  C2_3 
ROOT
ATOM      1  C2  UNL d   1       1.161   0.772  -0.594  0.00  0.00    -0.076 A 
ATOM      2  C3  UNL d   1       0.823   0.929   0.761  0.00  0.00     0.004 A 
ATOM      3  C4  UNL d   1       0.853   2.183   1.368  0.00  0.00    -0.003 A 
ATOM      4  C5  UNL d   1       1.221   3.302   0.628  0.00  0.00     0.000 A 
ATOM      5  C6  UNL d   1       1.543   3.168  -0.722  0.00  0.00     0.000 A 
ATOM      6  C7  UNL d   1       1.502   1.913  -1.353  0.00  0.00    -0.073 A 
ATOM      7  C8  UNL d   1       1.864   1.825  -2.810  0.00  0.00     0.078 C 
ENDROOT
BRANCH   1   8
ATOM      8  C1  UNL d   1       1.136  -0.617  -1.191  0.00  0.00     0.053 C 
ATOM      9  C   UNL d   1       1.915  -1.623  -0.357  0.00  0.00     0.018 C 
ENDBRANCH   1   8
TORSDOF 1
ENDMDL
