MODEL 1
REMARK minimizedAffinity 2.03708982
REMARK minimizedRMSD -1
REMARK  1 active torsions:
REMARK  status: ('A' for Active; 'I' for Inactive)
REMARK    1  A    between atoms: C1_2  and  C2_3 
ROOT
ATOM      1  C2  UNL d   1       1.268   2.653  -0.975  0.00  0.00    -0.076 A 
ATOM      2  C3  UNL d   1       1.283   1.580  -1.883  0.00  0.00     0.004 A 
ATOM      3  C4  UNL d   1       1.212   0.262  -1.437  0.00  0.00    -0.003 A 
ATOM      4  C5  UNL d   1       1.123  -0.005  -0.075  0.00  0.00     0.000 A 
ATOM      5  C6  UNL d   1       1.090   1.047   0.838  0.00  0.00     0.000 A 
ATOM      6  C7  UNL d   1       1.144   2.383   0.404  0.00  0.00    -0.073 A 
ATOM      7  C8  UNL d   1       1.110   3.479   1.434  0.00  0.00     0.078 C 
ENDROOT
BRANCH   1   8
ATOM      8  C1  UNL d   1       1.376   4.061  -1.516  0.00  0.00     0.053 C 
ATOM      9  C   UNL d   1       1.903   5.044  -0.482  0.00  0.00     0.018 C 
ENDBRANCH   1   8
TORSDOF 1
ENDMDL
