MODEL 1
REMARK minimizedAffinity 7.41413355
REMARK minimizedRMSD -1
REMARK  1 active torsions:
REMARK  status: ('A' for Active; 'I' for Inactive)
REMARK    1  A    between atoms: C1_2  and  C2_3 
ROOT
ATOM      1  C2  UNL d   1       1.396   3.178  -0.826  0.00  0.00    -0.076 A 
ATOM      2  C3  UNL d   1       1.529   2.386  -1.980  0.00  0.00     0.004 A 
ATOM      3  C4  UNL d   1       1.851   1.033  -1.889  0.00  0.00    -0.003 A 
ATOM      4  C5  UNL d   1       2.045   0.449  -0.642  0.00  0.00     0.000 A 
ATOM      5  C6  UNL d   1       1.900   1.215   0.514  0.00  0.00     0.000 A 
ATOM      6  C7  UNL d   1       1.559   2.577   0.440  0.00  0.00    -0.073 A 
ATOM      7  C8  UNL d   1       1.422   3.357   1.719  0.00  0.00     0.078 C 
ENDROOT
BRANCH   1   8
ATOM      8  C1  UNL d   1       1.072   4.646  -0.988  0.00  0.00     0.053 C 
ATOM      9  C   UNL d   1       2.319   5.515  -1.044  0.00  0.00     0.018 C 
ENDBRANCH   1   8
TORSDOF 1
ENDMDL
