MODEL 1
REMARK minimizedAffinity -4.15230989
REMARK minimizedRMSD -1
REMARK  1 active torsions:
REMARK  status: ('A' for Active; 'I' for Inactive)
REMARK    1  A    between atoms: C1_2  and  C2_3 
ROOT
ATOM      1  C2  UNL d   1       1.450   3.800  -0.806  0.00  0.00    -0.076 A 
ATOM      2  C3  UNL d   1       1.669   3.398  -2.135  0.00  0.00     0.004 A 
ATOM      3  C4  UNL d   1       1.577   2.057  -2.504  0.00  0.00    -0.003 A 
ATOM      4  C5  UNL d   1       1.262   1.096  -1.549  0.00  0.00     0.000 A 
ATOM      5  C6  UNL d   1       1.024   1.479  -0.230  0.00  0.00     0.000 A 
ATOM      6  C7  UNL d   1       1.097   2.828   0.155  0.00  0.00    -0.073 A 
ATOM      7  C8  UNL d   1       0.836   3.184   1.593  0.00  0.00     0.078 C 
ENDROOT
BRANCH   1   8
ATOM      8  C1  UNL d   1       1.591   5.265  -0.459  0.00  0.00     0.053 C 
ATOM      9  C   UNL d   1       2.535   5.998  -1.400  0.00  0.00     0.018 C 
ENDBRANCH   1   8
TORSDOF 1
ENDMDL
