MODEL 1
REMARK minimizedAffinity 1.668208
REMARK minimizedRMSD -1
REMARK  1 active torsions:
REMARK  status: ('A' for Active; 'I' for Inactive)
REMARK    1  A    between atoms: C1_2  and  C2_3 
ROOT
ATOM      1  C2  UNL d   1       1.113   1.543  -1.018  0.00  0.00    -0.076 A 
ATOM      2  C3  UNL d   1       1.012   2.286   0.171  0.00  0.00     0.004 A 
ATOM      3  C4  UNL d   1       0.941   1.650   1.410  0.00  0.00    -0.003 A 
ATOM      4  C5  UNL d   1       0.970   0.262   1.479  0.00  0.00     0.000 A 
ATOM      5  C6  UNL d   1       1.087  -0.490   0.310  0.00  0.00     0.000 A 
ATOM      6  C7  UNL d   1       1.177   0.136  -0.945  0.00  0.00    -0.073 A 
ATOM      7  C8  UNL d   1       1.296  -0.724  -2.173  0.00  0.00     0.078 C 
ENDROOT
BRANCH   1   8
ATOM      8  C1  UNL d   1       1.160   2.287  -2.334  0.00  0.00     0.053 C 
ATOM      9  C   UNL d   1       1.782   3.668  -2.201  0.00  0.00     0.018 C 
ENDBRANCH   1   8
TORSDOF 1
ENDMDL
