MODEL 1
REMARK minimizedAffinity 0.683479965
REMARK minimizedRMSD -1
REMARK  1 active torsions:
REMARK  status: ('A' for Active; 'I' for Inactive)
REMARK    1  A    between atoms: C1_2  and  C2_3 
ROOT
ATOM      1  C2  UNL d   1       1.183   3.002  -0.697  0.00  0.00    -0.076 A 
ATOM      2  C3  UNL d   1       1.053   2.928  -2.094  0.00  0.00     0.004 A 
ATOM      3  C4  UNL d   1       0.874   1.703  -2.734  0.00  0.00    -0.003 A 
ATOM      4  C5  UNL d   1       0.823   0.532  -1.987  0.00  0.00     0.000 A 
ATOM      5  C6  UNL d   1       0.933   0.588  -0.598  0.00  0.00     0.000 A 
ATOM      6  C7  UNL d   1       1.097   1.817   0.064  0.00  0.00    -0.073 A 
ATOM      7  C8  UNL d   1       1.216   1.818   1.564  0.00  0.00     0.078 C 
ENDROOT
BRANCH   1   8
ATOM      8  C1  UNL d   1       1.402   4.356  -0.060  0.00  0.00     0.053 C 
ATOM      9  C   UNL d   1       1.720   5.436  -1.083  0.00  0.00     0.018 C 
ENDBRANCH   1   8
TORSDOF 1
ENDMDL
