MODEL 1
REMARK minimizedAffinity 6.03222609
REMARK minimizedRMSD -1
REMARK  1 active torsions:
REMARK  status: ('A' for Active; 'I' for Inactive)
REMARK    1  A    between atoms: C1_2  and  C2_3 
ROOT
ATOM      1  C2  UNL d   1       1.650   1.597  -0.498  0.00  0.00    -0.076 A 
ATOM      2  C3  UNL d   1       1.251   2.120   0.744  0.00  0.00     0.004 A 
ATOM      3  C4  UNL d   1       0.929   3.469   0.884  0.00  0.00    -0.003 A 
ATOM      4  C5  UNL d   1       1.001   4.317  -0.216  0.00  0.00     0.000 A 
ATOM      5  C6  UNL d   1       1.378   3.811  -1.460  0.00  0.00     0.000 A 
ATOM      6  C7  UNL d   1       1.690   2.450  -1.622  0.00  0.00    -0.073 A 
ATOM      7  C8  UNL d   1       2.097   1.960  -2.984  0.00  0.00     0.078 C 
ENDROOT
BRANCH   1   8
ATOM      8  C1  UNL d   1       2.013   0.132  -0.583  0.00  0.00     0.053 C 
ATOM      9  C   UNL d   1       3.159  -0.240   0.346  0.00  0.00     0.018 C 
ENDBRANCH   1   8
TORSDOF 1
ENDMDL
