MODEL 1
REMARK minimizedAffinity 1.12380993
REMARK minimizedRMSD -1
REMARK  0 active torsions:
REMARK  status: ('A' for Active; 'I' for Inactive)
ROOT
ATOM      1  C   UNL d   1       2.253  -2.264  -0.427  0.00  0.00    -0.002 A 
ATOM      2  C1  UNL d   1       3.063  -1.174  -0.142  0.00  0.00     0.010 A 
ATOM      3  C2  UNL d   1       2.524   0.112  -0.069  0.00  0.00     0.041 A 
ATOM      4  C3  UNL d   1       1.143   0.286  -0.288  0.00  0.00    -0.075 A 
ATOM      5  S   UNL d   1       0.263   1.767  -0.248  0.00  0.00     0.015 SA
ATOM      6  C4  UNL d   1      -1.210   0.988  -0.607  0.00  0.00     0.022 A 
ATOM      7  C5  UNL d   1      -1.052  -0.369  -0.757  0.00  0.00     0.026 A 
ATOM      8  C6  UNL d   1       0.307  -0.797  -0.575  0.00  0.00    -0.082 A 
ATOM      9  C7  UNL d   1       0.884  -2.088  -0.643  0.00  0.00     0.045 A 
ENDROOT
TORSDOF 0
ENDMDL
