MODEL 1
REMARK minimizedAffinity 2.64761806
REMARK minimizedRMSD -1
REMARK  0 active torsions:
REMARK  status: ('A' for Active; 'I' for Inactive)
ROOT
ATOM      1  C   UNL d   1      -3.491   2.040   1.286  0.00  0.00    -0.002 A 
ATOM      2  C1  UNL d   1      -3.956   0.762   1.565  0.00  0.00     0.010 A 
ATOM      3  C2  UNL d   1      -3.210  -0.360   1.203  0.00  0.00     0.041 A 
ATOM      4  C3  UNL d   1      -1.975  -0.176   0.550  0.00  0.00    -0.075 A 
ATOM      5  S   UNL d   1      -0.890  -1.404   0.013  0.00  0.00     0.015 SA
ATOM      6  C4  UNL d   1       0.217  -0.261  -0.599  0.00  0.00     0.022 A 
ATOM      7  C5  UNL d   1      -0.215   1.030  -0.407  0.00  0.00     0.026 A 
ATOM      8  C6  UNL d   1      -1.485   1.100   0.259  0.00  0.00    -0.082 A 
ATOM      9  C7  UNL d   1      -2.266   2.218   0.638  0.00  0.00     0.045 A 
ENDROOT
TORSDOF 0
ENDMDL
