MODEL 1
REMARK minimizedAffinity -1.31332815
REMARK minimizedRMSD -1
REMARK  0 active torsions:
REMARK  status: ('A' for Active; 'I' for Inactive)
ROOT
ATOM      1  C   UNL d   1      -0.541  -2.196  -0.971  0.00  0.00    -0.002 A 
ATOM      2  C1  UNL d   1       0.761  -2.677  -0.944  0.00  0.00     0.010 A 
ATOM      3  C2  UNL d   1       1.839  -1.799  -0.812  0.00  0.00     0.041 A 
ATOM      4  C3  UNL d   1       1.585  -0.418  -0.704  0.00  0.00    -0.075 A 
ATOM      5  S   UNL d   1       2.748   0.843  -0.533  0.00  0.00     0.015 SA
ATOM      6  C4  UNL d   1       1.544   2.049  -0.490  0.00  0.00     0.022 A 
ATOM      7  C5  UNL d   1       0.280   1.520  -0.603  0.00  0.00     0.026 A 
ATOM      8  C6  UNL d   1       0.283   0.090  -0.727  0.00  0.00    -0.082 A 
ATOM      9  C7  UNL d   1      -0.789  -0.825  -0.863  0.00  0.00     0.045 A 
ENDROOT
TORSDOF 0
ENDMDL
