MODEL 1
REMARK minimizedAffinity -1.39589489
REMARK minimizedRMSD -1
REMARK  0 active torsions:
REMARK  status: ('A' for Active; 'I' for Inactive)
ROOT
ATOM      1  C   UNL d   1      -4.077  -0.126   1.252  0.00  0.00    -0.002 A 
ATOM      2  C1  UNL d   1      -3.814   1.217   1.024  0.00  0.00     0.010 A 
ATOM      3  C2  UNL d   1      -2.583   1.621   0.501  0.00  0.00     0.041 A 
ATOM      4  C3  UNL d   1      -1.613   0.643   0.208  0.00  0.00    -0.075 A 
ATOM      5  S   UNL d   1      -0.037   0.903  -0.439  0.00  0.00     0.015 SA
ATOM      6  C4  UNL d   1       0.324  -0.763  -0.429  0.00  0.00     0.022 A 
ATOM      7  C5  UNL d   1      -0.721  -1.514   0.053  0.00  0.00     0.026 A 
ATOM      8  C6  UNL d   1      -1.856  -0.716   0.428  0.00  0.00    -0.082 A 
ATOM      9  C7  UNL d   1      -3.112  -1.094   0.959  0.00  0.00     0.045 A 
ENDROOT
TORSDOF 0
ENDMDL
