MODEL 1
REMARK minimizedAffinity -0.561485946
REMARK minimizedRMSD -1
REMARK  0 active torsions:
REMARK  status: ('A' for Active; 'I' for Inactive)
ROOT
ATOM      1  C   UNL d   1       1.075  -2.500   0.006  0.00  0.00    -0.002 A 
ATOM      2  C1  UNL d   1       1.970  -1.480  -0.288  0.00  0.00     0.010 A 
ATOM      3  C2  UNL d   1       1.522  -0.169  -0.457  0.00  0.00     0.041 A 
ATOM      4  C3  UNL d   1       0.147   0.104  -0.321  0.00  0.00    -0.075 A 
ATOM      5  S   UNL d   1      -0.630   1.635  -0.483  0.00  0.00     0.015 SA
ATOM      6  C4  UNL d   1      -2.168   0.972  -0.165  0.00  0.00     0.022 A 
ATOM      7  C5  UNL d   1      -2.108  -0.382   0.062  0.00  0.00     0.026 A 
ATOM      8  C6  UNL d   1      -0.774  -0.905  -0.024  0.00  0.00    -0.082 A 
ATOM      9  C7  UNL d   1      -0.288  -2.225   0.140  0.00  0.00     0.045 A 
ENDROOT
TORSDOF 0
ENDMDL
