MODEL 1
REMARK minimizedAffinity -1.21684468
REMARK minimizedRMSD -1
REMARK  0 active torsions:
REMARK  status: ('A' for Active; 'I' for Inactive)
ROOT
ATOM      1  C   UNL d   1       1.691  -1.838  -0.393  0.00  0.00    -0.002 A 
ATOM      2  C1  UNL d   1       2.633  -0.858  -0.117  0.00  0.00     0.010 A 
ATOM      3  C2  UNL d   1       2.254   0.481  -0.006  0.00  0.00     0.041 A 
ATOM      4  C3  UNL d   1       0.897   0.822  -0.176  0.00  0.00    -0.075 A 
ATOM      5  S   UNL d   1       0.201   2.396  -0.083  0.00  0.00     0.015 SA
ATOM      6  C4  UNL d   1      -1.364   1.805  -0.406  0.00  0.00     0.022 A 
ATOM      7  C5  UNL d   1      -1.374   0.442  -0.584  0.00  0.00     0.026 A 
ATOM      8  C6  UNL d   1      -0.071  -0.148  -0.453  0.00  0.00    -0.082 A 
ATOM      9  C7  UNL d   1       0.346  -1.496  -0.561  0.00  0.00     0.045 A 
ENDROOT
TORSDOF 0
ENDMDL
