MODEL 1
REMARK minimizedAffinity -2.2846024
REMARK minimizedRMSD -1
REMARK  0 active torsions:
REMARK  status: ('A' for Active; 'I' for Inactive)
ROOT
ATOM      1  C   UNL d   1       3.871   0.256   0.313  0.00  0.00    -0.002 A 
ATOM      2  C1  UNL d   1       3.660  -1.108   0.165  0.00  0.00     0.010 A 
ATOM      3  C2  UNL d   1       2.388  -1.602  -0.130  0.00  0.00     0.041 A 
ATOM      4  C3  UNL d   1       1.321  -0.693  -0.277  0.00  0.00    -0.075 A 
ATOM      5  S   UNL d   1      -0.322  -1.069  -0.639  0.00  0.00     0.015 SA
ATOM      6  C4  UNL d   1      -0.783   0.571  -0.606  0.00  0.00     0.022 A 
ATOM      7  C5  UNL d   1       0.279   1.400  -0.328  0.00  0.00     0.026 A 
ATOM      8  C6  UNL d   1       1.509   0.685  -0.134  0.00  0.00    -0.082 A 
ATOM      9  C7  UNL d   1       2.810   1.154   0.166  0.00  0.00     0.045 A 
ENDROOT
TORSDOF 0
ENDMDL
