MODEL 1
REMARK minimizedAffinity -1.28197503
REMARK minimizedRMSD -1
REMARK  0 active torsions:
REMARK  status: ('A' for Active; 'I' for Inactive)
ROOT
ATOM      1  C   UNL d   1       3.369   0.376  -0.192  0.00  0.00    -0.002 A 
ATOM      2  C1  UNL d   1       3.373  -1.004  -0.336  0.00  0.00     0.010 A 
ATOM      3  C2  UNL d   1       2.176  -1.706  -0.484  0.00  0.00     0.041 A 
ATOM      4  C3  UNL d   1       0.962  -0.990  -0.487  0.00  0.00    -0.075 A 
ATOM      5  S   UNL d   1      -0.627  -1.639  -0.655  0.00  0.00     0.015 SA
ATOM      6  C4  UNL d   1      -1.348  -0.099  -0.540  0.00  0.00     0.022 A 
ATOM      7  C5  UNL d   1      -0.414   0.897  -0.377  0.00  0.00     0.026 A 
ATOM      8  C6  UNL d   1       0.932   0.400  -0.344  0.00  0.00    -0.082 A 
ATOM      9  C7  UNL d   1       2.163   1.083  -0.195  0.00  0.00     0.045 A 
ENDROOT
TORSDOF 0
ENDMDL
