MODEL 1
REMARK minimizedAffinity -3.17865157
REMARK minimizedRMSD -1
REMARK  0 active torsions:
REMARK  status: ('A' for Active; 'I' for Inactive)
ROOT
ATOM      1  C4' PXY d   1      -1.991   0.618   1.902  0.00  0.00     0.077 C 
ATOM      2  C1' PXY d   1       1.722  -1.681  -1.886  0.00  0.00     0.077 C 
ATOM      3  C1  PXY d   1       0.738  -1.084  -0.899  0.00  0.00    -0.082 A 
ATOM      4  C2  PXY d   1       1.049   0.032  -0.260  0.00  0.00     0.003 A 
ATOM      5  C3  PXY d   1       0.185   0.568   0.660  0.00  0.00     0.003 A 
ATOM      6  C4  PXY d   1      -1.033  -0.015   0.889  0.00  0.00    -0.082 A 
ATOM      7  C5  PXY d   1      -1.362  -1.148   0.233  0.00  0.00     0.003 A 
ATOM      8  C6  PXY d   1      -0.453  -1.699  -0.667  0.00  0.00     0.003 A 
ENDROOT
TORSDOF 0
ENDMDL
