MODEL 1
REMARK minimizedAffinity -4.25207567
REMARK minimizedRMSD -1
REMARK  0 active torsions:
REMARK  status: ('A' for Active; 'I' for Inactive)
ROOT
ATOM      1  C4' PXY d   1       3.048  -0.351  -1.311  0.00  0.00     0.077 C 
ATOM      2  C1' PXY d   1      -2.246   0.584   0.814  0.00  0.00     0.077 C 
ATOM      3  C1  PXY d   1      -0.859   0.348   0.248  0.00  0.00    -0.082 A 
ATOM      4  C2  PXY d   1      -0.294  -0.841   0.375  0.00  0.00     0.003 A 
ATOM      5  C3  PXY d   1       0.972  -1.062  -0.102  0.00  0.00     0.003 A 
ATOM      6  C4  PXY d   1       1.646  -0.071  -0.764  0.00  0.00    -0.082 A 
ATOM      7  C5  PXY d   1       1.072   1.143  -0.907  0.00  0.00     0.003 A 
ATOM      8  C6  PXY d   1      -0.197   1.359  -0.379  0.00  0.00     0.003 A 
ENDROOT
TORSDOF 0
ENDMDL
