MODEL 1
REMARK minimizedAffinity -4.01069784
REMARK minimizedRMSD -1
REMARK  0 active torsions:
REMARK  status: ('A' for Active; 'I' for Inactive)
ROOT
ATOM      1  C4' PXY d   1      -2.144   0.443   1.626  0.00  0.00     0.077 C 
ATOM      2  C1' PXY d   1       3.053   0.231  -0.897  0.00  0.00     0.077 C 
ATOM      3  C1  PXY d   1       1.687   0.297  -0.243  0.00  0.00    -0.082 A 
ATOM      4  C2  PXY d   1       1.522  -0.187   0.977  0.00  0.00     0.003 A 
ATOM      5  C3  PXY d   1       0.286  -0.165   1.571  0.00  0.00     0.003 A 
ATOM      6  C4  PXY d   1      -0.780   0.406   0.930  0.00  0.00    -0.082 A 
ATOM      7  C5  PXY d   1      -0.617   0.912  -0.311  0.00  0.00     0.003 A 
ATOM      8  C6  PXY d   1       0.636   0.843  -0.913  0.00  0.00     0.003 A 
ENDROOT
TORSDOF 0
ENDMDL
