MODEL 1
REMARK minimizedAffinity -2.97628117
REMARK minimizedRMSD -1
REMARK  0 active torsions:
REMARK  status: ('A' for Active; 'I' for Inactive)
ROOT
ATOM      1  C4' PXY d   1      -2.235   0.628   1.457  0.00  0.00     0.077 C 
ATOM      2  C1' PXY d   1       2.609  -1.042  -1.219  0.00  0.00     0.077 C 
ATOM      3  C1  PXY d   1       1.341  -0.592  -0.521  0.00  0.00    -0.082 A 
ATOM      4  C2  PXY d   1       0.815  -1.346   0.431  0.00  0.00     0.003 A 
ATOM      5  C3  PXY d   1      -0.348  -0.970   1.051  0.00  0.00     0.003 A 
ATOM      6  C4  PXY d   1      -0.951   0.217   0.731  0.00  0.00    -0.082 A 
ATOM      7  C5  PXY d   1      -0.415   0.997  -0.231  0.00  0.00     0.003 A 
ATOM      8  C6  PXY d   1       0.744   0.578  -0.878  0.00  0.00     0.003 A 
ENDROOT
TORSDOF 0
ENDMDL
