MODEL 1
REMARK minimizedAffinity -4.84703732
REMARK minimizedRMSD -1
REMARK  0 active torsions:
REMARK  status: ('A' for Active; 'I' for Inactive)
ROOT
ATOM      1  C4' PXY d   1      -1.796   0.032   1.398  0.00  0.00     0.077 C 
ATOM      2  C1' PXY d   1       3.116  -0.371  -1.622  0.00  0.00     0.077 C 
ATOM      3  C1  PXY d   1       1.824  -0.277  -0.835  0.00  0.00    -0.082 A 
ATOM      4  C2  PXY d   1       1.353   0.910  -0.491  0.00  0.00     0.003 A 
ATOM      5  C3  PXY d   1       0.203   1.012   0.249  0.00  0.00     0.003 A 
ATOM      6  C4  PXY d   1      -0.500  -0.111   0.595  0.00  0.00    -0.082 A 
ATOM      7  C5  PXY d   1      -0.032  -1.325   0.238  0.00  0.00     0.003 A 
ATOM      8  C6  PXY d   1       1.159  -1.409  -0.477  0.00  0.00     0.003 A 
ENDROOT
TORSDOF 0
ENDMDL
