MODEL 1
REMARK minimizedAffinity -3.75549316
REMARK minimizedRMSD -1
REMARK  0 active torsions:
REMARK  status: ('A' for Active; 'I' for Inactive)
ROOT
ATOM      1  C4' PXY d   1       1.279   2.257  -3.013  0.00  0.00     0.077 C 
ATOM      2  C1' PXY d   1       1.188  -2.515   0.249  0.00  0.00     0.077 C 
ATOM      3  C1  PXY d   1       1.224  -1.265  -0.609  0.00  0.00    -0.082 A 
ATOM      4  C2  PXY d   1       0.334  -0.307  -0.408  0.00  0.00     0.003 A 
ATOM      5  C3  PXY d   1       0.333   0.815  -1.195  0.00  0.00     0.003 A 
ATOM      6  C4  PXY d   1       1.286   0.983  -2.164  0.00  0.00    -0.082 A 
ATOM      7  C5  PXY d   1       2.204   0.014  -2.369  0.00  0.00     0.003 A 
ATOM      8  C6  PXY d   1       2.163  -1.136  -1.586  0.00  0.00     0.003 A 
ENDROOT
TORSDOF 0
ENDMDL
