MODEL 1
REMARK minimizedAffinity -4.97653008
REMARK minimizedRMSD -1
REMARK  0 active torsions:
REMARK  status: ('A' for Active; 'I' for Inactive)
ROOT
ATOM      1  C4' PXY d   1       3.273   0.009  -2.311  0.00  0.00     0.077 C 
ATOM      2  C1' PXY d   1      -1.660   0.617   0.640  0.00  0.00     0.077 C 
ATOM      3  C1  PXY d   1      -0.371   0.466  -0.143  0.00  0.00    -0.082 A 
ATOM      4  C2  PXY d   1       0.335  -0.647  -0.033  0.00  0.00     0.003 A 
ATOM      5  C3  PXY d   1       1.519  -0.788  -0.709  0.00  0.00     0.003 A 
ATOM      6  C4  PXY d   1       1.960   0.201  -1.547  0.00  0.00    -0.082 A 
ATOM      7  C5  PXY d   1       1.240   1.336  -1.673  0.00  0.00     0.003 A 
ATOM      8  C6  PXY d   1       0.061   1.476  -0.947  0.00  0.00     0.003 A 
ENDROOT
TORSDOF 0
ENDMDL
