MODEL 1
REMARK minimizedAffinity -5.84040785
REMARK minimizedRMSD -1
REMARK  0 active torsions:
REMARK  status: ('A' for Active; 'I' for Inactive)
ROOT
ATOM      1  C4' PXY d   1      -1.237   0.330   0.126  0.00  0.00     0.077 C 
ATOM      2  C1' PXY d   1       4.016  -0.625  -2.091  0.00  0.00     0.077 C 
ATOM      3  C1  PXY d   1       2.634  -0.385  -1.516  0.00  0.00    -0.082 A 
ATOM      4  C2  PXY d   1       2.269   0.841  -1.179  0.00  0.00     0.003 A 
ATOM      5  C3  PXY d   1       1.035   1.071  -0.627  0.00  0.00     0.003 A 
ATOM      6  C4  PXY d   1       0.145   0.043  -0.468  0.00  0.00    -0.082 A 
ATOM      7  C5  PXY d   1       0.506  -1.210  -0.819  0.00  0.00     0.003 A 
ATOM      8  C6  PXY d   1       1.778  -1.428  -1.339  0.00  0.00     0.003 A 
ENDROOT
TORSDOF 0
ENDMDL
