MODEL 1
REMARK minimizedAffinity -3.37844539
REMARK minimizedRMSD -1
REMARK  0 active torsions:
REMARK  status: ('A' for Active; 'I' for Inactive)
ROOT
ATOM      1  C4' PXY d   1      -0.354  -2.714   0.586  0.00  0.00     0.077 C 
ATOM      2  C1' PXY d   1       1.145   2.466  -1.497  0.00  0.00     0.077 C 
ATOM      3  C1  PXY d   1       0.744   1.113  -0.942  0.00  0.00    -0.082 A 
ATOM      4  C2  PXY d   1       1.570   0.086  -1.061  0.00  0.00     0.003 A 
ATOM      5  C3  PXY d   1       1.210  -1.151  -0.593  0.00  0.00     0.003 A 
ATOM      6  C4  PXY d   1       0.014  -1.328   0.050  0.00  0.00    -0.082 A 
ATOM      7  C5  PXY d   1      -0.830  -0.283   0.184  0.00  0.00     0.003 A 
ATOM      8  C6  PXY d   1      -0.463   0.956  -0.334  0.00  0.00     0.003 A 
ENDROOT
TORSDOF 0
ENDMDL
