MODEL 1
REMARK minimizedAffinity -2.61580515
REMARK minimizedRMSD -1
REMARK  0 active torsions:
REMARK  status: ('A' for Active; 'I' for Inactive)
ROOT
ATOM      1  C4' PXY d   1       1.567  -3.101  -2.640  0.00  0.00     0.077 C 
ATOM      2  C1' PXY d   1       0.914   1.452   0.862  0.00  0.00     0.077 C 
ATOM      3  C1  PXY d   1       1.090   0.265  -0.065  0.00  0.00    -0.082 A 
ATOM      4  C2  PXY d   1       0.325  -0.803   0.087  0.00  0.00     0.003 A 
ATOM      5  C3  PXY d   1       0.493  -1.897  -0.723  0.00  0.00     0.003 A 
ATOM      6  C4  PXY d   1       1.417  -1.877  -1.732  0.00  0.00    -0.082 A 
ATOM      7  C5  PXY d   1       2.195  -0.786  -1.900  0.00  0.00     0.003 A 
ATOM      8  C6  PXY d   1       2.037   0.298  -1.042  0.00  0.00     0.003 A 
ENDROOT
TORSDOF 0
ENDMDL
