MODEL 1
REMARK minimizedAffinity -5.27744341
REMARK minimizedRMSD -1
REMARK  0 active torsions:
REMARK  status: ('A' for Active; 'I' for Inactive)
ROOT
ATOM      1  C4' PXY d   1       2.255  -1.050  -1.785  0.00  0.00     0.077 C 
ATOM      2  C1' PXY d   1      -2.161   0.717   1.500  0.00  0.00     0.077 C 
ATOM      3  C1  PXY d   1      -1.004   0.264   0.631  0.00  0.00    -0.082 A 
ATOM      4  C2  PXY d   1      -0.739  -1.027   0.514  0.00  0.00     0.003 A 
ATOM      5  C3  PXY d   1       0.323  -1.451  -0.241  0.00  0.00     0.003 A 
ATOM      6  C4  PXY d   1       1.091  -0.548  -0.927  0.00  0.00    -0.082 A 
ATOM      7  C5  PXY d   1       0.821   0.770  -0.821  0.00  0.00     0.003 A 
ATOM      8  C6  PXY d   1      -0.237   1.183  -0.016  0.00  0.00     0.003 A 
ENDROOT
TORSDOF 0
ENDMDL
