MODEL 1
REMARK minimizedAffinity -4.61760855
REMARK minimizedRMSD -1
REMARK  0 active torsions:
REMARK  status: ('A' for Active; 'I' for Inactive)
ROOT
ATOM      1  C4' PXY d   1      -1.595   0.302   1.336  0.00  0.00     0.077 C 
ATOM      2  C1' PXY d   1       3.009  -0.912  -1.943  0.00  0.00     0.077 C 
ATOM      3  C1  PXY d   1       1.803  -0.581  -1.086  0.00  0.00    -0.082 A 
ATOM      4  C2  PXY d   1       1.438  -1.410  -0.121  0.00  0.00     0.003 A 
ATOM      5  C3  PXY d   1       0.331  -1.142   0.643  0.00  0.00     0.003 A 
ATOM      6  C4  PXY d   1      -0.379   0.013   0.452  0.00  0.00    -0.082 A 
ATOM      7  C5  PXY d   1      -0.007   0.870  -0.523  0.00  0.00     0.003 A 
ATOM      8  C6  PXY d   1       1.095   0.559  -1.314  0.00  0.00     0.003 A 
ENDROOT
TORSDOF 0
ENDMDL
