MODEL 1
REMARK minimizedAffinity -4.49286795
REMARK minimizedRMSD -1
REMARK  0 active torsions:
REMARK  status: ('A' for Active; 'I' for Inactive)
ROOT
ATOM      1  C4' PXY d   1      -1.779   0.050   1.958  0.00  0.00     0.077 C 
ATOM      2  C1' PXY d   1       2.855  -0.594  -1.436  0.00  0.00     0.077 C 
ATOM      3  C1  PXY d   1       1.632  -0.431  -0.555  0.00  0.00    -0.082 A 
ATOM      4  C2  PXY d   1       1.593   0.546   0.336  0.00  0.00     0.003 A 
ATOM      5  C3  PXY d   1       0.509   0.688   1.163  0.00  0.00     0.003 A 
ATOM      6  C4  PXY d   1      -0.569  -0.146   1.041  0.00  0.00    -0.082 A 
ATOM      7  C5  PXY d   1      -0.542  -1.140   0.127  0.00  0.00     0.003 A 
ATOM      8  C6  PXY d   1       0.586  -1.292  -0.675  0.00  0.00     0.003 A 
ENDROOT
TORSDOF 0
ENDMDL
