MODEL 1
REMARK minimizedAffinity -5.58354235
REMARK minimizedRMSD -1
REMARK  0 active torsions:
REMARK  status: ('A' for Active; 'I' for Inactive)
ROOT
ATOM      1  C4' PXY d   1      -1.529   0.397   1.030  0.00  0.00     0.077 C 
ATOM      2  C1' PXY d   1       2.909   0.510  -2.672  0.00  0.00     0.077 C 
ATOM      3  C1  PXY d   1       1.746   0.468  -1.701  0.00  0.00    -0.082 A 
ATOM      4  C2  PXY d   1       0.893   1.478  -1.657  0.00  0.00     0.003 A 
ATOM      5  C3  PXY d   1      -0.146   1.470  -0.763  0.00  0.00     0.003 A 
ATOM      6  C4  PXY d   1      -0.346   0.393   0.059  0.00  0.00    -0.082 A 
ATOM      7  C5  PXY d   1       0.514  -0.647   0.012  0.00  0.00     0.003 A 
ATOM      8  C6  PXY d   1       1.586  -0.601  -0.874  0.00  0.00     0.003 A 
ENDROOT
TORSDOF 0
ENDMDL
