MODEL 1
REMARK minimizedAffinity -2.67625237
REMARK minimizedRMSD -1
REMARK  0 active torsions:
REMARK  status: ('A' for Active; 'I' for Inactive)
ROOT
ATOM      1  C4' PXY d   1      -3.107   0.272   2.651  0.00  0.00     0.077 C 
ATOM      2  C1' PXY d   1       1.610   0.331  -0.691  0.00  0.00     0.077 C 
ATOM      3  C1  PXY d   1       0.378   0.324   0.193  0.00  0.00    -0.082 A 
ATOM      4  C2  PXY d   1      -0.416  -0.734   0.201  0.00  0.00     0.003 A 
ATOM      5  C3  PXY d   1      -1.551  -0.744   0.970  0.00  0.00     0.003 A 
ATOM      6  C4  PXY d   1      -1.848   0.319   1.781  0.00  0.00    -0.082 A 
ATOM      7  C5  PXY d   1      -1.037   1.398   1.787  0.00  0.00     0.003 A 
ATOM      8  C6  PXY d   1       0.088   1.405   0.967  0.00  0.00     0.003 A 
ENDROOT
TORSDOF 0
ENDMDL
