MODEL 1
REMARK minimizedAffinity -3.6933713
REMARK minimizedRMSD -1
REMARK  0 active torsions:
REMARK  status: ('A' for Active; 'I' for Inactive)
ROOT
ATOM      1  C4' PXY d   1       0.451   2.460  -1.492  0.00  0.00     0.077 C 
ATOM      2  C1' PXY d   1       0.298  -3.133  -0.038  0.00  0.00     0.077 C 
ATOM      3  C1  PXY d   1       0.325  -1.666  -0.420  0.00  0.00    -0.082 A 
ATOM      4  C2  PXY d   1       1.407  -1.157  -0.986  0.00  0.00     0.003 A 
ATOM      5  C3  PXY d   1       1.461   0.174  -1.309  0.00  0.00     0.003 A 
ATOM      6  C4  PXY d   1       0.375   0.982  -1.098  0.00  0.00    -0.082 A 
ATOM      7  C5  PXY d   1      -0.736   0.469  -0.530  0.00  0.00     0.003 A 
ATOM      8  C6  PXY d   1      -0.755  -0.876  -0.173  0.00  0.00     0.003 A 
ENDROOT
TORSDOF 0
ENDMDL
