MODEL 1
REMARK minimizedAffinity -5.27950716
REMARK minimizedRMSD -1
REMARK  0 active torsions:
REMARK  status: ('A' for Active; 'I' for Inactive)
ROOT
ATOM      1  C4' PXY d   1       1.923   1.912  -1.326  0.00  0.00     0.077 C 
ATOM      2  C1' PXY d   1      -1.061  -2.883  -0.090  0.00  0.00     0.077 C 
ATOM      3  C1  PXY d   1      -0.267  -1.632  -0.411  0.00  0.00    -0.082 A 
ATOM      4  C2  PXY d   1      -0.848  -0.447  -0.319  0.00  0.00     0.003 A 
ATOM      5  C3  PXY d   1      -0.155   0.693  -0.637  0.00  0.00     0.003 A 
ATOM      6  C4  PXY d   1       1.163   0.623  -1.002  0.00  0.00    -0.082 A 
ATOM      7  C5  PXY d   1       1.766  -0.582  -1.087  0.00  0.00     0.003 A 
ATOM      8  C6  PXY d   1       1.033  -1.730  -0.800  0.00  0.00     0.003 A 
ENDROOT
TORSDOF 0
ENDMDL
