MODEL 1
REMARK minimizedAffinity -3.97991061
REMARK minimizedRMSD -1
REMARK  0 active torsions:
REMARK  status: ('A' for Active; 'I' for Inactive)
ROOT
ATOM      1  C4' PXY d   1      -0.656  -3.323  -0.285  0.00  0.00     0.077 C 
ATOM      2  C1' PXY d   1       1.826   1.824  -1.163  0.00  0.00     0.077 C 
ATOM      3  C1  PXY d   1       1.182   0.469  -0.942  0.00  0.00    -0.082 A 
ATOM      4  C2  PXY d   1      -0.013   0.396  -0.378  0.00  0.00     0.003 A 
ATOM      5  C3  PXY d   1      -0.595  -0.822  -0.142  0.00  0.00     0.003 A 
ATOM      6  C4  PXY d   1       0.028  -1.976  -0.536  0.00  0.00    -0.082 A 
ATOM      7  C5  PXY d   1       1.243  -1.910  -1.121  0.00  0.00     0.003 A 
ATOM      8  C6  PXY d   1       1.835  -0.665  -1.314  0.00  0.00     0.003 A 
ENDROOT
TORSDOF 0
ENDMDL
