MODEL 1
REMARK minimizedAffinity -4.01339006
REMARK minimizedRMSD -1
REMARK  0 active torsions:
REMARK  status: ('A' for Active; 'I' for Inactive)
ROOT
ATOM      1  C4' PXY d   1       2.694  -1.296  -1.749  0.00  0.00     0.077 C 
ATOM      2  C1' PXY d   1      -1.457   1.011   1.548  0.00  0.00     0.077 C 
ATOM      3  C1  PXY d   1      -0.369   0.417   0.675  0.00  0.00    -0.082 A 
ATOM      4  C2  PXY d   1      -0.181  -0.893   0.666  0.00  0.00     0.003 A 
ATOM      5  C3  PXY d   1       0.820  -1.445  -0.093  0.00  0.00     0.003 A 
ATOM      6  C4  PXY d   1       1.601  -0.652  -0.891  0.00  0.00    -0.082 A 
ATOM      7  C5  PXY d   1       1.408   0.684  -0.895  0.00  0.00     0.003 A 
ATOM      8  C6  PXY d   1       0.414   1.228  -0.086  0.00  0.00     0.003 A 
ENDROOT
TORSDOF 0
ENDMDL
