MODEL 1
REMARK minimizedAffinity -4.95912409
REMARK minimizedRMSD -1
REMARK  0 active torsions:
REMARK  status: ('A' for Active; 'I' for Inactive)
ROOT
ATOM      1  C4' PXY d   1      -2.102   0.516   1.184  0.00  0.00     0.077 C 
ATOM      2  C1' PXY d   1       3.019  -0.576  -1.265  0.00  0.00     0.077 C 
ATOM      3  C1  PXY d   1       1.671  -0.300  -0.629  0.00  0.00    -0.082 A 
ATOM      4  C2  PXY d   1       1.374   0.927  -0.231  0.00  0.00     0.003 A 
ATOM      5  C3  PXY d   1       0.172   1.187   0.376  0.00  0.00     0.003 A 
ATOM      6  C4  PXY d   1      -0.757   0.193   0.528  0.00  0.00    -0.082 A 
ATOM      7  C5  PXY d   1      -0.466  -1.058   0.115  0.00  0.00     0.003 A 
ATOM      8  C6  PXY d   1       0.776  -1.311  -0.461  0.00  0.00     0.003 A 
ENDROOT
TORSDOF 0
ENDMDL
