MODEL 1
REMARK minimizedAffinity 4.79692793
REMARK minimizedRMSD -1
REMARK  1 active torsions:
REMARK  status: ('A' for Active; 'I' for Inactive)
REMARK    1  A    between atoms: C1_2  and  C2_3 
ROOT
ATOM      1  C2  UNL d   1      -5.581  -2.873  -2.045  0.00  0.00    -0.073 A 
ATOM      2  C3  UNL d   1      -5.779  -1.493  -2.170  0.00  0.00    -0.002 A 
ATOM      3  C4  UNL d   1      -5.983  -0.922  -3.427  0.00  0.00     0.004 A 
ATOM      4  C5  UNL d   1      -5.999  -1.723  -4.568  0.00  0.00    -0.004 A 
ATOM      5  C6  UNL d   1      -5.814  -3.106  -4.462  0.00  0.00    -0.075 A 
ATOM      6  C7  UNL d   1      -5.826  -3.981  -5.681  0.00  0.00     0.076 C 
ATOM      7  C8  UNL d   1      -5.607  -3.672  -3.197  0.00  0.00     0.001 A 
ENDROOT
BRANCH   1   8
ATOM      8  C1  UNL d   1      -5.366  -3.495  -0.689  0.00  0.00     0.053 C 
ATOM      9  C   UNL d   1      -5.285  -2.450   0.412  0.00  0.00     0.018 C 
ENDBRANCH   1   8
TORSDOF 1
ENDMDL
