MODEL 1
REMARK minimizedAffinity 11.7163
REMARK minimizedRMSD -1
REMARK  1 active torsions:
REMARK  status: ('A' for Active; 'I' for Inactive)
REMARK    1  A    between atoms: C1_2  and  C2_3 
ROOT
ATOM      1  C2  UNL d   1      -5.304  -2.908  -4.271  0.00  0.00    -0.073 A 
ATOM      2  C3  UNL d   1      -5.959  -4.062  -4.718  0.00  0.00    -0.002 A 
ATOM      3  C4  UNL d   1      -5.313  -4.948  -5.581  0.00  0.00     0.004 A 
ATOM      4  C5  UNL d   1      -4.007  -4.695  -6.000  0.00  0.00    -0.004 A 
ATOM      5  C6  UNL d   1      -3.333  -3.553  -5.555  0.00  0.00    -0.075 A 
ATOM      6  C7  UNL d   1      -1.929  -3.265  -5.998  0.00  0.00     0.076 C 
ATOM      7  C8  UNL d   1      -3.988  -2.667  -4.690  0.00  0.00     0.001 A 
ENDROOT
BRANCH   1   8
ATOM      8  C1  UNL d   1      -5.995  -1.951  -3.333  0.00  0.00     0.053 C 
ATOM      9  C   UNL d   1      -5.436  -0.542  -3.444  0.00  0.00     0.018 C 
ENDBRANCH   1   8
TORSDOF 1
ENDMDL
