MODEL 1
REMARK minimizedAffinity 2.89854026
REMARK minimizedRMSD -1
REMARK  1 active torsions:
REMARK  status: ('A' for Active; 'I' for Inactive)
REMARK    1  A    between atoms: C1_2  and  C2_3 
ROOT
ATOM      1  C2  UNL d   1      -3.779   1.880   1.708  0.00  0.00    -0.073 A 
ATOM      2  C3  UNL d   1      -4.219   0.552   1.761  0.00  0.00    -0.002 A 
ATOM      3  C4  UNL d   1      -3.329  -0.473   2.085  0.00  0.00     0.004 A 
ATOM      4  C5  UNL d   1      -1.995  -0.182   2.365  0.00  0.00    -0.004 A 
ATOM      5  C6  UNL d   1      -1.538   1.140   2.329  0.00  0.00    -0.075 A 
ATOM      6  C7  UNL d   1      -0.105   1.470   2.626  0.00  0.00     0.076 C 
ATOM      7  C8  UNL d   1      -2.437   2.164   2.001  0.00  0.00     0.001 A 
ENDROOT
BRANCH   1   8
ATOM      8  C1  UNL d   1      -4.737   2.991   1.366  0.00  0.00     0.053 C 
ATOM      9  C   UNL d   1      -4.663   4.136   2.364  0.00  0.00     0.018 C 
ENDBRANCH   1   8
TORSDOF 1
ENDMDL
