MODEL 1
REMARK minimizedAffinity 10.0949469
REMARK minimizedRMSD -1
REMARK  1 active torsions:
REMARK  status: ('A' for Active; 'I' for Inactive)
REMARK    1  A    between atoms: C1_2  and  C2_3 
ROOT
ATOM      1  C2  UNL d   1      -5.549  -2.935  -2.513  0.00  0.00    -0.073 A 
ATOM      2  C3  UNL d   1      -4.778  -4.024  -2.090  0.00  0.00    -0.002 A 
ATOM      3  C4  UNL d   1      -4.386  -4.133  -0.755  0.00  0.00     0.004 A 
ATOM      4  C5  UNL d   1      -4.766  -3.161   0.170  0.00  0.00    -0.004 A 
ATOM      5  C6  UNL d   1      -5.546  -2.072  -0.231  0.00  0.00    -0.075 A 
ATOM      6  C7  UNL d   1      -5.961  -1.017   0.751  0.00  0.00     0.076 C 
ATOM      7  C8  UNL d   1      -5.933  -1.968  -1.574  0.00  0.00     0.001 A 
ENDROOT
BRANCH   1   8
ATOM      8  C1  UNL d   1      -5.980  -2.816  -3.952  0.00  0.00     0.053 C 
ATOM      9  C   UNL d   1      -5.623  -1.461  -4.544  0.00  0.00     0.018 C 
ENDBRANCH   1   8
TORSDOF 1
ENDMDL
