MODEL 1
REMARK minimizedAffinity 8.85594177
REMARK minimizedRMSD -1
REMARK  1 active torsions:
REMARK  status: ('A' for Active; 'I' for Inactive)
REMARK    1  A    between atoms: C1_2  and  C2_3 
ROOT
ATOM      1  C2  UNL d   1      -4.755   0.163   1.498  0.00  0.00    -0.073 A 
ATOM      2  C3  UNL d   1      -4.990   1.541   1.559  0.00  0.00    -0.002 A 
ATOM      3  C4  UNL d   1      -3.928   2.430   1.731  0.00  0.00     0.004 A 
ATOM      4  C5  UNL d   1      -2.622   1.952   1.836  0.00  0.00    -0.004 A 
ATOM      5  C6  UNL d   1      -2.366   0.578   1.766  0.00  0.00    -0.075 A 
ATOM      6  C7  UNL d   1      -0.967   0.047   1.880  0.00  0.00     0.076 C 
ATOM      7  C8  UNL d   1      -3.438  -0.308   1.596  0.00  0.00     0.001 A 
ENDROOT
BRANCH   1   8
ATOM      8  C1  UNL d   1      -5.898  -0.800   1.306  0.00  0.00     0.053 C 
ATOM      9  C   UNL d   1      -5.618  -1.803   0.198  0.00  0.00     0.018 C 
ENDBRANCH   1   8
TORSDOF 1
ENDMDL
