MODEL 1
REMARK minimizedAffinity 9.22704411
REMARK minimizedRMSD -1
REMARK  1 active torsions:
REMARK  status: ('A' for Active; 'I' for Inactive)
REMARK    1  A    between atoms: C1_2  and  C2_3 
ROOT
ATOM      1  C2  UNL d   1      -5.215  -2.696  -3.020  0.00  0.00    -0.073 A 
ATOM      2  C3  UNL d   1      -5.824  -1.666  -3.745  0.00  0.00    -0.002 A 
ATOM      3  C4  UNL d   1      -5.998  -1.781  -5.125  0.00  0.00     0.004 A 
ATOM      4  C5  UNL d   1      -5.572  -2.930  -5.792  0.00  0.00    -0.004 A 
ATOM      5  C6  UNL d   1      -4.972  -3.976  -5.084  0.00  0.00    -0.075 A 
ATOM      6  C7  UNL d   1      -4.507  -5.217  -5.787  0.00  0.00     0.076 C 
ATOM      7  C8  UNL d   1      -4.799  -3.851  -3.699  0.00  0.00     0.001 A 
ENDROOT
BRANCH   1   8
ATOM      8  C1  UNL d   1      -5.031  -2.579  -1.529  0.00  0.00     0.053 C 
ATOM      9  C   UNL d   1      -5.912  -1.494  -0.930  0.00  0.00     0.018 C 
ENDBRANCH   1   8
TORSDOF 1
ENDMDL
