MODEL 1
REMARK minimizedAffinity 13.8550873
REMARK minimizedRMSD -1
REMARK  1 active torsions:
REMARK  status: ('A' for Active; 'I' for Inactive)
REMARK    1  A    between atoms: C1_2  and  C2_3 
ROOT
ATOM      1  C2  UNL d   1      -0.034  -0.886  -4.926  0.00  0.00    -0.073 A 
ATOM      2  C3  UNL d   1      -0.289  -2.232  -5.213  0.00  0.00    -0.002 A 
ATOM      3  C4  UNL d   1      -1.520  -2.619  -5.744  0.00  0.00     0.004 A 
ATOM      4  C5  UNL d   1      -2.505  -1.666  -6.000  0.00  0.00    -0.004 A 
ATOM      5  C6  UNL d   1      -2.265  -0.314  -5.732  0.00  0.00    -0.075 A 
ATOM      6  C7  UNL d   1      -3.315   0.723  -6.000  0.00  0.00     0.076 C 
ATOM      7  C8  UNL d   1      -1.027   0.066  -5.196  0.00  0.00     0.001 A 
ENDROOT
BRANCH   1   8
ATOM      8  C1  UNL d   1       1.296  -0.462  -4.359  0.00  0.00     0.053 C 
ATOM      9  C   UNL d   1       1.180  -0.011  -2.912  0.00  0.00     0.018 C 
ENDBRANCH   1   8
TORSDOF 1
ENDMDL
