MODEL 1
REMARK minimizedAffinity 7.47498846
REMARK minimizedRMSD -1
REMARK  1 active torsions:
REMARK  status: ('A' for Active; 'I' for Inactive)
REMARK    1  A    between atoms: C1_2  and  C2_3 
ROOT
ATOM      1  C2  UNL d   1      -1.976  -0.206  -0.643  0.00  0.00    -0.073 A 
ATOM      2  C3  UNL d   1      -3.099  -0.109  -1.472  0.00  0.00    -0.002 A 
ATOM      3  C4  UNL d   1      -3.796  -1.257  -1.852  0.00  0.00     0.004 A 
ATOM      4  C5  UNL d   1      -3.382  -2.511  -1.402  0.00  0.00    -0.004 A 
ATOM      5  C6  UNL d   1      -2.270  -2.627  -0.563  0.00  0.00    -0.075 A 
ATOM      6  C7  UNL d   1      -1.811  -3.969  -0.072  0.00  0.00     0.076 C 
ATOM      7  C8  UNL d   1      -1.573  -1.470  -0.188  0.00  0.00     0.001 A 
ENDROOT
BRANCH   1   8
ATOM      8  C1  UNL d   1      -1.224   1.031  -0.225  0.00  0.00     0.053 C 
ATOM      9  C   UNL d   1      -1.299   1.263   1.276  0.00  0.00     0.018 C 
ENDBRANCH   1   8
TORSDOF 1
ENDMDL
