MODEL 1
REMARK minimizedAffinity -1.41282356
REMARK minimizedRMSD -1
REMARK  1 active torsions:
REMARK  status: ('A' for Active; 'I' for Inactive)
REMARK    1  A    between atoms: C1_2  and  C2_3 
ROOT
ATOM      1  C2  UNL d   1      -2.358   0.696   1.256  0.00  0.00    -0.073 A 
ATOM      2  C3  UNL d   1      -2.366  -0.208   0.188  0.00  0.00    -0.002 A 
ATOM      3  C4  UNL d   1      -3.510  -0.955  -0.094  0.00  0.00     0.004 A 
ATOM      4  C5  UNL d   1      -4.658  -0.802   0.683  0.00  0.00    -0.004 A 
ATOM      5  C6  UNL d   1      -4.673   0.105   1.747  0.00  0.00    -0.075 A 
ATOM      6  C7  UNL d   1      -5.900   0.280   2.594  0.00  0.00     0.076 C 
ATOM      7  C8  UNL d   1      -3.520   0.850   2.026  0.00  0.00     0.001 A 
ENDROOT
BRANCH   1   8
ATOM      8  C1  UNL d   1      -1.127   1.510   1.561  0.00  0.00     0.053 C 
ATOM      9  C   UNL d   1      -0.141   0.749   2.433  0.00  0.00     0.018 C 
ENDBRANCH   1   8
TORSDOF 1
ENDMDL
