MODEL 1
REMARK minimizedAffinity 12.3416166
REMARK minimizedRMSD -1
REMARK  1 active torsions:
REMARK  status: ('A' for Active; 'I' for Inactive)
REMARK    1  A    between atoms: C1_2  and  C2_3 
ROOT
ATOM      1  C2  UNL d   1       4.599   0.939  -4.454  0.00  0.00    -0.073 A 
ATOM      2  C3  UNL d   1       5.296   1.040  -3.245  0.00  0.00    -0.002 A 
ATOM      3  C4  UNL d   1       5.995   2.206  -2.930  0.00  0.00     0.004 A 
ATOM      4  C5  UNL d   1       6.000   3.283  -3.816  0.00  0.00    -0.004 A 
ATOM      5  C6  UNL d   1       5.300   3.205  -5.024  0.00  0.00    -0.075 A 
ATOM      6  C7  UNL d   1       5.297   4.354  -5.989  0.00  0.00     0.076 C 
ATOM      7  C8  UNL d   1       4.602   2.030  -5.335  0.00  0.00     0.001 A 
ENDROOT
BRANCH   1   8
ATOM      8  C1  UNL d   1       3.837  -0.315  -4.796  0.00  0.00     0.053 C 
ATOM      9  C   UNL d   1       2.792  -0.652  -3.744  0.00  0.00     0.018 C 
ENDBRANCH   1   8
TORSDOF 1
ENDMDL
