MODEL 1
REMARK minimizedAffinity 4.23319292
REMARK minimizedRMSD -1
REMARK  1 active torsions:
REMARK  status: ('A' for Active; 'I' for Inactive)
REMARK    1  A    between atoms: C1_2  and  C2_3 
ROOT
ATOM      1  C2  UNL d   1      -0.081   0.667  -3.831  0.00  0.00    -0.073 A 
ATOM      2  C3  UNL d   1       0.435   1.748  -3.108  0.00  0.00    -0.002 A 
ATOM      3  C4  UNL d   1       1.791   1.797  -2.784  0.00  0.00     0.004 A 
ATOM      4  C5  UNL d   1       2.646   0.770  -3.185  0.00  0.00    -0.004 A 
ATOM      5  C6  UNL d   1       2.151  -0.313  -3.919  0.00  0.00    -0.075 A 
ATOM      6  C7  UNL d   1       3.057  -1.426  -4.357  0.00  0.00     0.076 C 
ATOM      7  C8  UNL d   1       0.787  -0.356  -4.238  0.00  0.00     0.001 A 
ENDROOT
BRANCH   1   8
ATOM      8  C1  UNL d   1      -1.544   0.614  -4.189  0.00  0.00     0.053 C 
ATOM      9  C   UNL d   1      -1.891  -0.633  -4.986  0.00  0.00     0.018 C 
ENDBRANCH   1   8
TORSDOF 1
ENDMDL
