MODEL 1
REMARK minimizedAffinity 6.36672354
REMARK minimizedRMSD -1
REMARK  1 active torsions:
REMARK  status: ('A' for Active; 'I' for Inactive)
REMARK    1  A    between atoms: C1_2  and  C2_3 
ROOT
ATOM      1  C2  UNL d   1      -3.534   0.392   2.838  0.00  0.00    -0.073 A 
ATOM      2  C3  UNL d   1      -3.325   1.294   1.789  0.00  0.00    -0.002 A 
ATOM      3  C4  UNL d   1      -2.100   1.326   1.121  0.00  0.00     0.004 A 
ATOM      4  C5  UNL d   1      -1.076   0.454   1.489  0.00  0.00    -0.004 A 
ATOM      5  C6  UNL d   1      -1.270  -0.463   2.527  0.00  0.00    -0.075 A 
ATOM      6  C7  UNL d   1      -0.178  -1.407   2.938  0.00  0.00     0.076 C 
ATOM      7  C8  UNL d   1      -2.502  -0.487   3.195  0.00  0.00     0.001 A 
ENDROOT
BRANCH   1   8
ATOM      8  C1  UNL d   1      -4.857   0.349   3.558  0.00  0.00     0.053 C 
ATOM      9  C   UNL d   1      -6.000  -0.027   2.628  0.00  0.00     0.018 C 
ENDBRANCH   1   8
TORSDOF 1
ENDMDL
