MODEL 1
REMARK minimizedAffinity 3.27655125
REMARK minimizedRMSD -1
REMARK  0 active torsions:
REMARK  status: ('A' for Active; 'I' for Inactive)
ROOT
ATOM      1  C   UNL d   1      -0.826  -3.588  -1.951  0.00  0.00     0.124 A 
ATOM      2  C1  UNL d   1      -1.947  -3.491  -1.139  0.00  0.00     0.062 A 
ATOM      3  C2  UNL d   1      -2.036  -2.482  -0.185  0.00  0.00     0.162 A 
ATOM      4  C3  UNL d   1      -1.000  -1.559  -0.038  0.00  0.00    -0.034 A 
ATOM      5  C4  UNL d   1       0.125  -1.663  -0.858  0.00  0.00     0.162 A 
ATOM      6  C5  UNL d   1       0.209  -2.674  -1.810  0.00  0.00     0.062 A 
ATOM      7  F   UNL d   1       1.293  -2.766  -2.594  0.00  0.00    -0.097 F 
ATOM      8  F1  UNL d   1       1.139  -0.793  -0.744  0.00  0.00    -0.096 F 
ATOM      9  I   UNL d   1      -1.129  -0.048   1.387  0.00  0.00    -0.060 I 
ATOM     10  F2  UNL d   1      -3.131  -2.413   0.586  0.00  0.00    -0.096 F 
ATOM     11  F3  UNL d   1      -2.948  -4.374  -1.273  0.00  0.00    -0.097 F 
ATOM     12  F4  UNL d   1      -0.743  -4.561  -2.868  0.00  0.00    -0.092 F 
ENDROOT
TORSDOF 0
ENDMDL
