MODEL 1
REMARK minimizedAffinity -1.74641013
REMARK minimizedRMSD -1
REMARK  0 active torsions:
REMARK  status: ('A' for Active; 'I' for Inactive)
ROOT
ATOM      1  C   UNL d   1       0.785   2.226   0.750  0.00  0.00     0.124 A 
ATOM      2  C1  UNL d   1       1.786   1.281   0.572  0.00  0.00     0.062 A 
ATOM      3  C2  UNL d   1       1.470   0.002   0.125  0.00  0.00     0.162 A 
ATOM      4  C3  UNL d   1       0.145  -0.340  -0.149  0.00  0.00    -0.034 A 
ATOM      5  C4  UNL d   1      -0.856   0.615   0.033  0.00  0.00     0.162 A 
ATOM      6  C5  UNL d   1      -0.534   1.892   0.481  0.00  0.00     0.062 A 
ATOM      7  F   UNL d   1      -1.503   2.804   0.652  0.00  0.00    -0.097 F 
ATOM      8  F1  UNL d   1      -2.140   0.320  -0.221  0.00  0.00    -0.096 F 
ATOM      9  I   UNL d   1      -0.332  -2.252  -0.819  0.00  0.00    -0.060 I 
ATOM     10  F2  UNL d   1       2.457  -0.891  -0.039  0.00  0.00    -0.096 F 
ATOM     11  F3  UNL d   1       3.062   1.601   0.833  0.00  0.00    -0.097 F 
ATOM     12  F4  UNL d   1       1.093   3.456   1.182  0.00  0.00    -0.092 F 
ENDROOT
TORSDOF 0
ENDMDL
