MODEL 1
REMARK minimizedAffinity -1.97809601
REMARK minimizedRMSD -1
REMARK  0 active torsions:
REMARK  status: ('A' for Active; 'I' for Inactive)
ROOT
ATOM      1  C   UNL d   1      -0.157   0.701   0.812  0.00  0.00     0.124 A 
ATOM      2  C1  UNL d   1       0.376  -0.580   0.765  0.00  0.00     0.062 A 
ATOM      3  C2  UNL d   1      -0.264  -1.579   0.037  0.00  0.00     0.162 A 
ATOM      4  C3  UNL d   1      -1.446  -1.300  -0.651  0.00  0.00    -0.034 A 
ATOM      5  C4  UNL d   1      -1.976  -0.010  -0.598  0.00  0.00     0.162 A 
ATOM      6  C5  UNL d   1      -1.332   0.984   0.130  0.00  0.00     0.062 A 
ATOM      7  F   UNL d   1      -1.848   2.221   0.174  0.00  0.00    -0.097 F 
ATOM      8  F1  UNL d   1      -3.110   0.292  -1.248  0.00  0.00    -0.096 F 
ATOM      9  I   UNL d   1      -2.407  -2.791  -1.740  0.00  0.00    -0.060 I 
ATOM     10  F2  UNL d   1       0.273  -2.807   0.009  0.00  0.00    -0.096 F 
ATOM     11  F3  UNL d   1       1.511  -0.857   1.423  0.00  0.00    -0.097 F 
ATOM     12  F4  UNL d   1       0.462   1.659   1.513  0.00  0.00    -0.092 F 
ENDROOT
TORSDOF 0
ENDMDL
