MODEL 1
REMARK minimizedAffinity 3.72796106
REMARK minimizedRMSD -1
REMARK  0 active torsions:
REMARK  status: ('A' for Active; 'I' for Inactive)
ROOT
ATOM      1  C   UNL d   1      -0.194   0.667   0.502  0.00  0.00     0.124 A 
ATOM      2  C1  UNL d   1       0.795  -0.244   0.157  0.00  0.00     0.062 A 
ATOM      3  C2  UNL d   1       0.501  -1.306  -0.693  0.00  0.00     0.162 A 
ATOM      4  C3  UNL d   1      -0.787  -1.464  -1.204  0.00  0.00    -0.034 A 
ATOM      5  C4  UNL d   1      -1.776  -0.544  -0.852  0.00  0.00     0.162 A 
ATOM      6  C5  UNL d   1      -1.478   0.517  -0.002  0.00  0.00     0.062 A 
ATOM      7  F   UNL d   1      -2.434   1.396   0.330  0.00  0.00    -0.097 F 
ATOM      8  F1  UNL d   1      -3.025  -0.665  -1.326  0.00  0.00    -0.096 F 
ATOM      9  I   UNL d   1      -1.230  -3.051  -2.475  0.00  0.00    -0.060 I 
ATOM     10  F2  UNL d   1       1.476  -2.171  -1.010  0.00  0.00    -0.096 F 
ATOM     11  F3  UNL d   1       2.036  -0.101   0.644  0.00  0.00    -0.097 F 
ATOM     12  F4  UNL d   1       0.091   1.688   1.321  0.00  0.00    -0.092 F 
ENDROOT
TORSDOF 0
ENDMDL
