MODEL 1
REMARK minimizedAffinity 2.28984046
REMARK minimizedRMSD -1
REMARK  0 active torsions:
REMARK  status: ('A' for Active; 'I' for Inactive)
ROOT
ATOM      1  C   UNL d   1       0.483   1.618   0.868  0.00  0.00     0.124 A 
ATOM      2  C1  UNL d   1       1.475   0.649   0.811  0.00  0.00     0.062 A 
ATOM      3  C2  UNL d   1       1.230  -0.567   0.180  0.00  0.00     0.162 A 
ATOM      4  C3  UNL d   1      -0.012  -0.821  -0.400  0.00  0.00    -0.034 A 
ATOM      5  C4  UNL d   1      -1.006   0.157  -0.338  0.00  0.00     0.162 A 
ATOM      6  C5  UNL d   1      -0.756   1.371   0.294  0.00  0.00     0.062 A 
ATOM      7  F   UNL d   1      -1.716   2.306   0.349  0.00  0.00    -0.097 F 
ATOM      8  F1  UNL d   1      -2.212  -0.054  -0.885  0.00  0.00    -0.096 F 
ATOM      9  I   UNL d   1      -0.382  -2.638  -1.345  0.00  0.00    -0.060 I 
ATOM     10  F2  UNL d   1       2.208  -1.485   0.139  0.00  0.00    -0.096 F 
ATOM     11  F3  UNL d   1       2.673   0.885   1.366  0.00  0.00    -0.097 F 
ATOM     12  F4  UNL d   1       0.720   2.787   1.477  0.00  0.00    -0.092 F 
ENDROOT
TORSDOF 0
ENDMDL
