MODEL 1
REMARK minimizedAffinity -1.67759395
REMARK minimizedRMSD -1
REMARK  0 active torsions:
REMARK  status: ('A' for Active; 'I' for Inactive)
ROOT
ATOM      1  C   UNL d   1      -1.214   0.588   0.501  0.00  0.00     0.124 A 
ATOM      2  C1  UNL d   1      -0.353  -0.477   0.273  0.00  0.00     0.062 A 
ATOM      3  C2  UNL d   1       1.015  -0.255   0.139  0.00  0.00     0.162 A 
ATOM      4  C3  UNL d   1       1.531   1.037   0.234  0.00  0.00    -0.034 A 
ATOM      5  C4  UNL d   1       0.659   2.103   0.463  0.00  0.00     0.162 A 
ATOM      6  C5  UNL d   1      -0.707   1.876   0.596  0.00  0.00     0.062 A 
ATOM      7  F   UNL d   1      -1.538   2.906   0.816  0.00  0.00    -0.097 F 
ATOM      8  F1  UNL d   1       1.121   3.358   0.559  0.00  0.00    -0.096 F 
ATOM      9  I   UNL d   1       3.575   1.373   0.034  0.00  0.00    -0.060 I 
ATOM     10  F2  UNL d   1       1.823  -1.303  -0.081  0.00  0.00    -0.096 F 
ATOM     11  F3  UNL d   1      -0.840  -1.723   0.180  0.00  0.00    -0.097 F 
ATOM     12  F4  UNL d   1      -2.529   0.371   0.628  0.00  0.00    -0.092 F 
ENDROOT
TORSDOF 0
ENDMDL
