MODEL 1
REMARK minimizedAffinity 1.67699957
REMARK minimizedRMSD -1
REMARK  0 active torsions:
REMARK  status: ('A' for Active; 'I' for Inactive)
ROOT
ATOM      1  C   UNL d   1       0.487   1.843   0.604  0.00  0.00     0.124 A 
ATOM      2  C1  UNL d   1       1.410   0.808   0.663  0.00  0.00     0.062 A 
ATOM      3  C2  UNL d   1       1.043  -0.480   0.284  0.00  0.00     0.162 A 
ATOM      4  C3  UNL d   1      -0.254  -0.741  -0.159  0.00  0.00    -0.034 A 
ATOM      5  C4  UNL d   1      -1.177   0.305  -0.215  0.00  0.00     0.162 A 
ATOM      6  C5  UNL d   1      -0.806   1.591   0.165  0.00  0.00     0.062 A 
ATOM      7  F   UNL d   1      -1.699   2.589   0.108  0.00  0.00    -0.097 F 
ATOM      8  F1  UNL d   1      -2.433   0.089  -0.635  0.00  0.00    -0.096 F 
ATOM      9  I   UNL d   1      -0.807  -2.665  -0.727  0.00  0.00    -0.060 I 
ATOM     10  F2  UNL d   1       1.955  -1.461   0.351  0.00  0.00    -0.096 F 
ATOM     11  F3  UNL d   1       2.659   1.049   1.087  0.00  0.00    -0.097 F 
ATOM     12  F4  UNL d   1       0.842   3.081   0.970  0.00  0.00    -0.092 F 
ENDROOT
TORSDOF 0
ENDMDL
