MODEL 1
REMARK minimizedAffinity -2.08254027
REMARK minimizedRMSD -1
REMARK  0 active torsions:
REMARK  status: ('A' for Active; 'I' for Inactive)
ROOT
ATOM      1  C   UNL d   1       0.220  -3.035  -1.271  0.00  0.00     0.124 A 
ATOM      2  C1  UNL d   1       1.128  -2.050  -1.634  0.00  0.00     0.062 A 
ATOM      3  C2  UNL d   1       1.024  -0.770  -1.098  0.00  0.00     0.162 A 
ATOM      4  C3  UNL d   1       0.008  -0.467  -0.192  0.00  0.00    -0.034 A 
ATOM      5  C4  UNL d   1      -0.902  -1.462   0.169  0.00  0.00     0.162 A 
ATOM      6  C5  UNL d   1      -0.793  -2.740  -0.370  0.00  0.00     0.062 A 
ATOM      7  F   UNL d   1      -1.672  -3.691  -0.018  0.00  0.00    -0.097 F 
ATOM      8  F1  UNL d   1      -1.890  -1.205   1.038  0.00  0.00    -0.096 F 
ATOM      9  I   UNL d   1      -0.150   1.446   0.612  0.00  0.00    -0.060 I 
ATOM     10  F2  UNL d   1       1.916   0.162  -1.467  0.00  0.00    -0.096 F 
ATOM     11  F3  UNL d   1       2.108  -2.332  -2.505  0.00  0.00    -0.097 F 
ATOM     12  F4  UNL d   1       0.322  -4.266  -1.789  0.00  0.00    -0.092 F 
ENDROOT
TORSDOF 0
ENDMDL
