MODEL 1
REMARK minimizedAffinity 4.20964956
REMARK minimizedRMSD -1
REMARK  0 active torsions:
REMARK  status: ('A' for Active; 'I' for Inactive)
ROOT
ATOM      1  C   UNL d   1       1.084   1.799   0.870  0.00  0.00     0.124 A 
ATOM      2  C1  UNL d   1       1.906   0.681   0.910  0.00  0.00     0.062 A 
ATOM      3  C2  UNL d   1       1.401  -0.571   0.570  0.00  0.00     0.162 A 
ATOM      4  C3  UNL d   1       0.067  -0.712   0.187  0.00  0.00    -0.034 A 
ATOM      5  C4  UNL d   1      -0.753   0.417   0.151  0.00  0.00     0.162 A 
ATOM      6  C5  UNL d   1      -0.244   1.666   0.491  0.00  0.00     0.062 A 
ATOM      7  F   UNL d   1      -1.039   2.745   0.452  0.00  0.00    -0.097 F 
ATOM      8  F1  UNL d   1      -2.040   0.317  -0.213  0.00  0.00    -0.096 F 
ATOM      9  I   UNL d   1      -0.691  -2.582  -0.321  0.00  0.00    -0.060 I 
ATOM     10  F2  UNL d   1       2.218  -1.634   0.618  0.00  0.00    -0.096 F 
ATOM     11  F3  UNL d   1       3.189   0.806   1.277  0.00  0.00    -0.097 F 
ATOM     12  F4  UNL d   1       1.573   3.002   1.198  0.00  0.00    -0.092 F 
ENDROOT
TORSDOF 0
ENDMDL
