MODEL 1
REMARK minimizedAffinity -3.61311269
REMARK minimizedRMSD -1
REMARK  0 active torsions:
REMARK  status: ('A' for Active; 'I' for Inactive)
ROOT
ATOM      1  C   UNL d   1       0.694   1.822   0.696  0.00  0.00     0.124 A 
ATOM      2  C1  UNL d   1      -0.628   1.665   0.304  0.00  0.00     0.062 A 
ATOM      3  C2  UNL d   1      -1.088   0.422  -0.123  0.00  0.00     0.162 A 
ATOM      4  C3  UNL d   1      -0.225  -0.673  -0.159  0.00  0.00    -0.034 A 
ATOM      5  C4  UNL d   1       1.103  -0.506   0.236  0.00  0.00     0.162 A 
ATOM      6  C5  UNL d   1       1.558   0.737   0.662  0.00  0.00     0.062 A 
ATOM      7  F   UNL d   1       2.836   0.888   1.040  0.00  0.00    -0.097 F 
ATOM      8  F1  UNL d   1       1.960  -1.539   0.213  0.00  0.00    -0.096 F 
ATOM      9  I   UNL d   1      -0.909  -2.532  -0.797  0.00  0.00    -0.060 I 
ATOM     10  F2  UNL d   1      -2.371   0.299  -0.496  0.00  0.00    -0.096 F 
ATOM     11  F3  UNL d   1      -1.465   2.712   0.336  0.00  0.00    -0.097 F 
ATOM     12  F4  UNL d   1       1.134   3.019   1.106  0.00  0.00    -0.092 F 
ENDROOT
TORSDOF 0
ENDMDL
