MODEL 1
REMARK minimizedAffinity -1.60361207
REMARK minimizedRMSD -1
REMARK  0 active torsions:
REMARK  status: ('A' for Active; 'I' for Inactive)
ROOT
ATOM      1  C   UNL d   1      -0.764  -2.895  -2.907  0.00  0.00     0.124 A 
ATOM      2  C1  UNL d   1      -1.336  -2.791  -1.647  0.00  0.00     0.062 A 
ATOM      3  C2  UNL d   1      -0.828  -1.886  -0.720  0.00  0.00     0.162 A 
ATOM      4  C3  UNL d   1       0.258  -1.076  -1.050  0.00  0.00    -0.034 A 
ATOM      5  C4  UNL d   1       0.829  -1.186  -2.320  0.00  0.00     0.162 A 
ATOM      6  C5  UNL d   1       0.317  -2.092  -3.243  0.00  0.00     0.062 A 
ATOM      7  F   UNL d   1       0.871  -2.191  -4.460  0.00  0.00    -0.097 F 
ATOM      8  F1  UNL d   1       1.874  -0.422  -2.670  0.00  0.00    -0.096 F 
ATOM      9  I   UNL d   1       1.021   0.279   0.333  0.00  0.00    -0.060 I 
ATOM     10  F2  UNL d   1      -1.400  -1.807   0.491  0.00  0.00    -0.096 F 
ATOM     11  F3  UNL d   1      -2.380  -3.566  -1.320  0.00  0.00    -0.097 F 
ATOM     12  F4  UNL d   1      -1.255  -3.768  -3.797  0.00  0.00    -0.092 F 
ENDROOT
TORSDOF 0
ENDMDL
