MODEL 1
REMARK minimizedAffinity 0.20180966
REMARK minimizedRMSD -1
REMARK  0 active torsions:
REMARK  status: ('A' for Active; 'I' for Inactive)
ROOT
ATOM      1  C   UNL d   1      -0.047  -2.024  -1.895  0.00  0.00     0.124 A 
ATOM      2  C1  UNL d   1       0.493  -1.565  -0.702  0.00  0.00     0.062 A 
ATOM      3  C2  UNL d   1      -0.062  -0.462  -0.061  0.00  0.00     0.162 A 
ATOM      4  C3  UNL d   1      -1.165   0.191  -0.611  0.00  0.00    -0.034 A 
ATOM      5  C4  UNL d   1      -1.702  -0.276  -1.812  0.00  0.00     0.162 A 
ATOM      6  C5  UNL d   1      -1.143  -1.380  -2.449  0.00  0.00     0.062 A 
ATOM      7  F   UNL d   1      -1.666  -1.821  -3.602  0.00  0.00    -0.097 F 
ATOM      8  F1  UNL d   1      -2.763   0.327  -2.370  0.00  0.00    -0.096 F 
ATOM      9  I   UNL d   1      -1.999   1.841   0.344  0.00  0.00    -0.060 I 
ATOM     10  F2  UNL d   1       0.480  -0.040   1.092  0.00  0.00    -0.096 F 
ATOM     11  F3  UNL d   1       1.554  -2.186  -0.165  0.00  0.00    -0.097 F 
ATOM     12  F4  UNL d   1       0.490  -3.086  -2.510  0.00  0.00    -0.092 F 
ENDROOT
TORSDOF 0
ENDMDL
