MODEL 1
REMARK minimizedAffinity 1.77890182
REMARK minimizedRMSD -1
REMARK  0 active torsions:
REMARK  status: ('A' for Active; 'I' for Inactive)
ROOT
ATOM      1  C   UNL d   1      -0.668  -2.721  -0.861  0.00  0.00     0.124 A 
ATOM      2  C1  UNL d   1      -1.132  -2.456   0.419  0.00  0.00     0.062 A 
ATOM      3  C2  UNL d   1      -0.989  -1.184   0.966  0.00  0.00     0.162 A 
ATOM      4  C3  UNL d   1      -0.379  -0.167   0.232  0.00  0.00    -0.034 A 
ATOM      5  C4  UNL d   1       0.087  -0.442  -1.055  0.00  0.00     0.162 A 
ATOM      6  C5  UNL d   1      -0.059  -1.714  -1.597  0.00  0.00     0.062 A 
ATOM      7  F   UNL d   1       0.391  -1.969  -2.835  0.00  0.00    -0.097 F 
ATOM      8  F1  UNL d   1       0.678   0.513  -1.789  0.00  0.00    -0.096 F 
ATOM      9  I   UNL d   1      -0.163   1.737   1.046  0.00  0.00    -0.060 I 
ATOM     10  F2  UNL d   1      -1.448  -0.955   2.206  0.00  0.00    -0.096 F 
ATOM     11  F3  UNL d   1      -1.720  -3.427   1.132  0.00  0.00    -0.097 F 
ATOM     12  F4  UNL d   1      -0.806  -3.946  -1.385  0.00  0.00    -0.092 F 
ENDROOT
TORSDOF 0
ENDMDL
