MODEL 1
REMARK minimizedAffinity 3.42900395
REMARK minimizedRMSD -1
REMARK  0 active torsions:
REMARK  status: ('A' for Active; 'I' for Inactive)
ROOT
ATOM      1  C   UNL d   1       0.447   1.730   0.669  0.00  0.00     0.124 A 
ATOM      2  C1  UNL d   1      -0.725   1.684  -0.073  0.00  0.00     0.062 A 
ATOM      3  C2  UNL d   1      -1.055   0.537  -0.790  0.00  0.00     0.162 A 
ATOM      4  C3  UNL d   1      -0.212  -0.574  -0.767  0.00  0.00    -0.034 A 
ATOM      5  C4  UNL d   1       0.965  -0.520  -0.019  0.00  0.00     0.162 A 
ATOM      6  C5  UNL d   1       1.290   0.628   0.696  0.00  0.00     0.062 A 
ATOM      7  F   UNL d   1       2.423   0.671   1.413  0.00  0.00    -0.097 F 
ATOM      8  F1  UNL d   1       1.798  -1.571   0.026  0.00  0.00    -0.096 F 
ATOM      9  I   UNL d   1      -0.702  -2.291  -1.837  0.00  0.00    -0.060 I 
ATOM     10  F2  UNL d   1      -2.194   0.521  -1.499  0.00  0.00    -0.096 F 
ATOM     11  F3  UNL d   1      -1.541   2.747  -0.102  0.00  0.00    -0.097 F 
ATOM     12  F4  UNL d   1       0.763   2.835   1.357  0.00  0.00    -0.092 F 
ENDROOT
TORSDOF 0
ENDMDL
