MODEL 1
REMARK minimizedAffinity 4.22399378
REMARK minimizedRMSD -1
REMARK  2 active torsions:
REMARK  status: ('A' for Active; 'I' for Inactive)
REMARK    1  A    between atoms: C2'_3  and  C1'_4 
REMARK    2  A    between atoms: C1'_4  and  C1_5 
ROOT
ATOM      1  C1  I4B d   1       1.663   5.518   5.205  0.00  0.00    -0.075 A 
ATOM      2  C2  I4B d   1       1.568   4.623   4.169  0.00  0.00     0.003 A 
ATOM      3  C3  I4B d   1       2.735   4.189   3.493  0.00  0.00     0.002 A 
ATOM      4  C4  I4B d   1       3.961   4.711   3.850  0.00  0.00    -0.004 A 
ATOM      5  C5  I4B d   1       4.058   5.602   4.916  0.00  0.00     0.002 A 
ATOM      6  C6  I4B d   1       2.903   5.999   5.606  0.00  0.00     0.003 A 
ENDROOT
BRANCH   1   7
ATOM      7  C1' I4B d   1       0.408   5.980   5.875  0.00  0.00     0.060 C 
BRANCH   7   8
ATOM      8  C2' I4B d   1      -0.765   5.330   5.170  0.00  0.00    -0.013 C 
ATOM      9  C4' I4B d   1      -2.024   5.442   5.988  0.00  0.00     0.013 C 
ATOM     10  C3' I4B d   1      -0.927   5.993   3.834  0.00  0.00     0.013 C 
ENDBRANCH   7   8
ENDBRANCH   1   7
TORSDOF 2
ENDMDL
