MODEL 1
REMARK minimizedAffinity 7.82544565
REMARK minimizedRMSD -1
REMARK  2 active torsions:
REMARK  status: ('A' for Active; 'I' for Inactive)
REMARK    1  A    between atoms: C2'_3  and  C1'_4 
REMARK    2  A    between atoms: C1'_4  and  C1_5 
ROOT
ATOM      1  C1  I4B d   1       3.259  -2.463   2.894  0.00  0.00    -0.075 A 
ATOM      2  C2  I4B d   1       2.478  -1.550   3.556  0.00  0.00     0.003 A 
ATOM      3  C3  I4B d   1       1.377  -0.945   2.902  0.00  0.00     0.002 A 
ATOM      4  C4  I4B d   1       1.125  -1.244   1.579  0.00  0.00    -0.004 A 
ATOM      5  C5  I4B d   1       1.904  -2.188   0.915  0.00  0.00     0.002 A 
ATOM      6  C6  I4B d   1       2.970  -2.811   1.580  0.00  0.00     0.003 A 
ENDROOT
BRANCH   1   7
ATOM      7  C1' I4B d   1       4.433  -3.057   3.604  0.00  0.00     0.060 C 
BRANCH   7   8
ATOM      8  C2' I4B d   1       3.972  -3.505   4.976  0.00  0.00    -0.013 C 
ATOM      9  C4' I4B d   1       4.075  -5.000   5.126  0.00  0.00     0.013 C 
ATOM     10  C3' I4B d   1       4.810  -2.799   6.000  0.00  0.00     0.013 C 
ENDBRANCH   7   8
ENDBRANCH   1   7
TORSDOF 2
ENDMDL
