MODEL 1
REMARK minimizedAffinity 14.4807329
REMARK minimizedRMSD -1
REMARK  2 active torsions:
REMARK  status: ('A' for Active; 'I' for Inactive)
REMARK    1  A    between atoms: C2'_3  and  C1'_4 
REMARK    2  A    between atoms: C1'_4  and  C1_5 
ROOT
ATOM      1  C1  I4B d   1       4.179  -2.715   3.664  0.00  0.00    -0.075 A 
ATOM      2  C2  I4B d   1       4.975  -1.860   4.385  0.00  0.00     0.003 A 
ATOM      3  C3  I4B d   1       5.627  -2.312   5.558  0.00  0.00     0.002 A 
ATOM      4  C4  I4B d   1       5.417  -3.603   5.998  0.00  0.00    -0.004 A 
ATOM      5  C5  I4B d   1       4.628  -4.475   5.253  0.00  0.00     0.002 A 
ATOM      6  C6  I4B d   1       4.015  -4.032   4.071  0.00  0.00     0.003 A 
ENDROOT
BRANCH   1   7
ATOM      7  C1' I4B d   1       3.479  -2.195   2.448  0.00  0.00     0.060 C 
BRANCH   7   8
ATOM      8  C2' I4B d   1       4.012  -2.947   1.245  0.00  0.00    -0.013 C 
ATOM      9  C4' I4B d   1       2.899  -3.332   0.306  0.00  0.00     0.013 C 
ATOM     10  C3' I4B d   1       5.019  -2.073   0.561  0.00  0.00     0.013 C 
ENDBRANCH   7   8
ENDBRANCH   1   7
TORSDOF 2
ENDMDL
