MODEL 1
REMARK minimizedAffinity 13.3003511
REMARK minimizedRMSD -1
REMARK  2 active torsions:
REMARK  status: ('A' for Active; 'I' for Inactive)
REMARK    1  A    between atoms: C2'_3  and  C1'_4 
REMARK    2  A    between atoms: C1'_4  and  C1_5 
ROOT
ATOM      1  C1  I4B d   1       0.764  -2.065   0.885  0.00  0.00    -0.075 A 
ATOM      2  C2  I4B d   1       1.731  -1.431   1.624  0.00  0.00     0.003 A 
ATOM      3  C3  I4B d   1       1.380  -0.717   2.795  0.00  0.00     0.002 A 
ATOM      4  C4  I4B d   1       0.053  -0.621   3.160  0.00  0.00    -0.004 A 
ATOM      5  C5  I4B d   1      -0.924  -1.283   2.422  0.00  0.00     0.002 A 
ATOM      6  C6  I4B d   1      -0.566  -2.020   1.284  0.00  0.00     0.003 A 
ENDROOT
BRANCH   1   7
ATOM      7  C1' I4B d   1       1.166  -2.783  -0.365  0.00  0.00     0.060 C 
BRANCH   7   8
ATOM      8  C2' I4B d   1       2.019  -3.970   0.033  0.00  0.00    -0.013 C 
ATOM      9  C4' I4B d   1       1.168  -5.126   0.488  0.00  0.00     0.013 C 
ATOM     10  C3' I4B d   1       2.862  -4.351  -1.148  0.00  0.00     0.013 C 
ENDBRANCH   7   8
ENDBRANCH   1   7
TORSDOF 2
ENDMDL
