MODEL 1
REMARK minimizedAffinity 8.39130974
REMARK minimizedRMSD -1
REMARK  2 active torsions:
REMARK  status: ('A' for Active; 'I' for Inactive)
REMARK    1  A    between atoms: C2'_3  and  C1'_4 
REMARK    2  A    between atoms: C1'_4  and  C1_5 
ROOT
ATOM      1  C1  I4B d   1       0.949  -1.812   1.199  0.00  0.00    -0.075 A 
ATOM      2  C2  I4B d   1       1.498  -1.103   2.239  0.00  0.00     0.003 A 
ATOM      3  C3  I4B d   1       0.674  -0.609   3.278  0.00  0.00     0.002 A 
ATOM      4  C4  I4B d   1      -0.691  -0.802   3.213  0.00  0.00    -0.004 A 
ATOM      5  C5  I4B d   1      -1.243  -1.540   2.170  0.00  0.00     0.002 A 
ATOM      6  C6  I4B d   1      -0.417  -2.060   1.163  0.00  0.00     0.003 A 
ENDROOT
BRANCH   1   7
ATOM      7  C1' I4B d   1       1.845  -2.291   0.101  0.00  0.00     0.060 C 
BRANCH   7   8
ATOM      8  C2' I4B d   1       2.776  -3.337   0.681  0.00  0.00    -0.013 C 
ATOM      9  C4' I4B d   1       2.624  -4.656  -0.030  0.00  0.00     0.013 C 
ATOM     10  C3' I4B d   1       4.179  -2.820   0.571  0.00  0.00     0.013 C 
ENDBRANCH   7   8
ENDBRANCH   1   7
TORSDOF 2
ENDMDL
