MODEL 1
REMARK minimizedAffinity 16.3642807
REMARK minimizedRMSD -1
REMARK  2 active torsions:
REMARK  status: ('A' for Active; 'I' for Inactive)
REMARK    1  A    between atoms: C2'_3  and  C1'_4 
REMARK    2  A    between atoms: C1'_4  and  C1_5 
ROOT
ATOM      1  C1  I4B d   1      -3.288  -0.109   1.535  0.00  0.00    -0.075 A 
ATOM      2  C2  I4B d   1      -4.276   0.624   0.926  0.00  0.00     0.003 A 
ATOM      3  C3  I4B d   1      -4.909   1.683   1.620  0.00  0.00     0.002 A 
ATOM      4  C4  I4B d   1      -4.560   1.942   2.930  0.00  0.00    -0.004 A 
ATOM      5  C5  I4B d   1      -3.542   1.213   3.538  0.00  0.00     0.002 A 
ATOM      6  C6  I4B d   1      -2.893   0.190   2.833  0.00  0.00     0.003 A 
ENDROOT
BRANCH   1   7
ATOM      7  C1' I4B d   1      -2.664  -1.242   0.784  0.00  0.00     0.060 C 
BRANCH   7   8
ATOM      8  C2' I4B d   1      -1.627  -1.883   1.684  0.00  0.00    -0.013 C 
ATOM      9  C4' I4B d   1      -2.000  -3.303   2.020  0.00  0.00     0.013 C 
ATOM     10  C3' I4B d   1      -0.304  -1.823   0.980  0.00  0.00     0.013 C 
ENDBRANCH   7   8
ENDBRANCH   1   7
TORSDOF 2
ENDMDL
