MODEL 1
REMARK minimizedAffinity 2.87139535
REMARK minimizedRMSD -1
REMARK  0 active torsions:
REMARK  status: ('A' for Active; 'I' for Inactive)
ROOT
ATOM      1  C   UNL d   1      -0.752   3.211   4.987  0.00  0.00     0.077 C 
ATOM      2  C1  UNL d   1      -0.006   2.675   3.802  0.00  0.00    -0.074 A 
ATOM      3  C2  UNL d   1       1.322   3.041   3.562  0.00  0.00    -0.005 A 
ATOM      4  C3  UNL d   1       2.006   2.526   2.461  0.00  0.00     0.006 A 
ATOM      5  C4  UNL d   1       1.369   1.642   1.589  0.00  0.00    -0.005 A 
ATOM      6  C5  UNL d   1       0.042   1.264   1.813  0.00  0.00    -0.074 A 
ATOM      7  C6  UNL d   1      -0.654   0.307   0.891  0.00  0.00     0.077 C 
ATOM      8  C7  UNL d   1      -0.637   1.780   2.926  0.00  0.00    -0.001 A 
ENDROOT
TORSDOF 0
ENDMDL
