MODEL 1
REMARK minimizedAffinity 9.13118172
REMARK minimizedRMSD -1
REMARK  0 active torsions:
REMARK  status: ('A' for Active; 'I' for Inactive)
ROOT
ATOM      1  C   UNL d   1      -0.653   3.547   5.125  0.00  0.00     0.077 C 
ATOM      2  C1  UNL d   1       0.242   3.116   4.001  0.00  0.00    -0.074 A 
ATOM      3  C2  UNL d   1       1.529   3.646   3.864  0.00  0.00    -0.005 A 
ATOM      4  C3  UNL d   1       2.353   3.228   2.819  0.00  0.00     0.006 A 
ATOM      5  C4  UNL d   1       1.900   2.278   1.903  0.00  0.00    -0.005 A 
ATOM      6  C5  UNL d   1       0.616   1.737   2.025  0.00  0.00    -0.074 A 
ATOM      7  C6  UNL d   1       0.117   0.707   1.055  0.00  0.00     0.077 C 
ATOM      8  C7  UNL d   1      -0.204   2.156   3.082  0.00  0.00    -0.001 A 
ENDROOT
TORSDOF 0
ENDMDL
