MODEL 1
REMARK minimizedAffinity 2.44641519
REMARK minimizedRMSD -1
REMARK  0 active torsions:
REMARK  status: ('A' for Active; 'I' for Inactive)
ROOT
ATOM      1  C   UNL d   1      -2.012   1.357   0.844  0.00  0.00     0.077 C 
ATOM      2  C1  UNL d   1      -1.017   2.003   1.762  0.00  0.00    -0.074 A 
ATOM      3  C2  UNL d   1       0.357   1.815   1.580  0.00  0.00    -0.005 A 
ATOM      4  C3  UNL d   1       1.270   2.430   2.436  0.00  0.00     0.006 A 
ATOM      5  C4  UNL d   1       0.820   3.238   3.481  0.00  0.00    -0.005 A 
ATOM      6  C5  UNL d   1      -0.550   3.438   3.678  0.00  0.00    -0.074 A 
ATOM      7  C6  UNL d   1      -1.051   4.311   4.791  0.00  0.00     0.077 C 
ATOM      8  C7  UNL d   1      -1.461   2.822   2.809  0.00  0.00    -0.001 A 
ENDROOT
TORSDOF 0
ENDMDL
