MODEL 1
REMARK minimizedAffinity -1.77841234
REMARK minimizedRMSD -1
REMARK  0 active torsions:
REMARK  status: ('A' for Active; 'I' for Inactive)
ROOT
ATOM      1  C   UNL d   1       1.954   1.637   1.468  0.00  0.00     0.077 C 
ATOM      2  C1  UNL d   1       0.646   2.036   2.085  0.00  0.00    -0.074 A 
ATOM      3  C2  UNL d   1      -0.564   1.774   1.436  0.00  0.00    -0.005 A 
ATOM      4  C3  UNL d   1      -1.773   2.142   2.026  0.00  0.00     0.006 A 
ATOM      5  C4  UNL d   1      -1.784   2.775   3.270  0.00  0.00    -0.005 A 
ATOM      6  C5  UNL d   1      -0.583   3.045   3.934  0.00  0.00    -0.074 A 
ATOM      7  C6  UNL d   1      -0.577   3.716   5.276  0.00  0.00     0.077 C 
ATOM      8  C7  UNL d   1       0.627   2.665   3.338  0.00  0.00    -0.001 A 
ENDROOT
TORSDOF 0
ENDMDL
