MODEL 1
REMARK minimizedAffinity -0.395128071
REMARK minimizedRMSD -1
REMARK  0 active torsions:
REMARK  status: ('A' for Active; 'I' for Inactive)
ROOT
ATOM      1  C   UNL d   1      -1.119   4.087   4.447  0.00  0.00     0.077 C 
ATOM      2  C1  UNL d   1      -0.485   3.421   3.262  0.00  0.00    -0.074 A 
ATOM      3  C2  UNL d   1       0.839   3.697   2.904  0.00  0.00    -0.005 A 
ATOM      4  C3  UNL d   1       1.417   3.062   1.805  0.00  0.00     0.006 A 
ATOM      5  C4  UNL d   1       0.679   2.147   1.053  0.00  0.00    -0.005 A 
ATOM      6  C5  UNL d   1      -0.645   1.858   1.396  0.00  0.00    -0.074 A 
ATOM      7  C6  UNL d   1      -1.449   0.870   0.604  0.00  0.00     0.077 C 
ATOM      8  C7  UNL d   1      -1.217   2.494   2.506  0.00  0.00    -0.001 A 
ENDROOT
TORSDOF 0
ENDMDL
