MODEL 1
REMARK minimizedAffinity 0.118550599
REMARK minimizedRMSD -1
REMARK  0 active torsions:
REMARK  status: ('A' for Active; 'I' for Inactive)
ROOT
ATOM      1  C   UNL d   1      -2.213   0.899   0.857  0.00  0.00     0.077 C 
ATOM      2  C1  UNL d   1      -2.641  -0.303   1.645  0.00  0.00    -0.074 A 
ATOM      3  C2  UNL d   1      -1.764  -1.371   1.859  0.00  0.00    -0.005 A 
ATOM      4  C3  UNL d   1      -2.172  -2.478   2.603  0.00  0.00     0.006 A 
ATOM      5  C4  UNL d   1      -3.460  -2.528   3.140  0.00  0.00    -0.005 A 
ATOM      6  C5  UNL d   1      -4.350  -1.469   2.937  0.00  0.00    -0.074 A 
ATOM      7  C6  UNL d   1      -5.733  -1.502   3.515  0.00  0.00     0.077 C 
ATOM      8  C7  UNL d   1      -3.930  -0.357   2.194  0.00  0.00    -0.001 A 
ENDROOT
TORSDOF 0
ENDMDL
