MODEL 1
REMARK minimizedAffinity -1.02862477
REMARK minimizedRMSD -1
REMARK  0 active torsions:
REMARK  status: ('A' for Active; 'I' for Inactive)
ROOT
ATOM      1  C   UNL d   1      -1.903   4.499   4.570  0.00  0.00     0.077 C 
ATOM      2  C1  UNL d   1      -1.023   3.731   3.630  0.00  0.00    -0.074 A 
ATOM      3  C2  UNL d   1       0.368   3.742   3.777  0.00  0.00    -0.005 A 
ATOM      4  C3  UNL d   1       1.174   3.015   2.900  0.00  0.00     0.006 A 
ATOM      5  C4  UNL d   1       0.598   2.272   1.869  0.00  0.00    -0.005 A 
ATOM      6  C5  UNL d   1      -0.791   2.249   1.707  0.00  0.00    -0.074 A 
ATOM      7  C6  UNL d   1      -1.427   1.447   0.610  0.00  0.00     0.077 C 
ATOM      8  C7  UNL d   1      -1.594   2.976   2.596  0.00  0.00    -0.001 A 
ENDROOT
TORSDOF 0
ENDMDL
