MODEL 1
REMARK minimizedAffinity 6.13627434
REMARK minimizedRMSD -1
REMARK  0 active torsions:
REMARK  status: ('A' for Active; 'I' for Inactive)
ROOT
ATOM      1  C   UNL d   1      -0.369   0.217   1.107  0.00  0.00     0.077 C 
ATOM      2  C1  UNL d   1      -1.241  -0.629   1.986  0.00  0.00    -0.074 A 
ATOM      3  C2  UNL d   1      -0.765  -1.826   2.533  0.00  0.00    -0.005 A 
ATOM      4  C3  UNL d   1      -1.585  -2.597   3.356  0.00  0.00     0.006 A 
ATOM      5  C4  UNL d   1      -2.887  -2.182   3.640  0.00  0.00    -0.005 A 
ATOM      6  C5  UNL d   1      -3.379  -0.989   3.102  0.00  0.00    -0.074 A 
ATOM      7  C6  UNL d   1      -4.772  -0.523   3.406  0.00  0.00     0.077 C 
ATOM      8  C7  UNL d   1      -2.547  -0.215   2.282  0.00  0.00    -0.001 A 
ENDROOT
TORSDOF 0
ENDMDL
