MODEL 1
REMARK minimizedAffinity 5.98442221
REMARK minimizedRMSD -1
REMARK  0 active torsions:
REMARK  status: ('A' for Active; 'I' for Inactive)
ROOT
ATOM      1  C   UNL d   1      -1.967   3.388   5.416  0.00  0.00     0.077 C 
ATOM      2  C1  UNL d   1      -1.124   2.987   4.243  0.00  0.00    -0.074 A 
ATOM      3  C2  UNL d   1       0.107   3.604   3.997  0.00  0.00    -0.005 A 
ATOM      4  C3  UNL d   1       0.884   3.213   2.907  0.00  0.00     0.006 A 
ATOM      5  C4  UNL d   1       0.440   2.203   2.053  0.00  0.00    -0.005 A 
ATOM      6  C5  UNL d   1      -0.788   1.573   2.284  0.00  0.00    -0.074 A 
ATOM      7  C6  UNL d   1      -1.276   0.479   1.382  0.00  0.00     0.077 C 
ATOM      8  C7  UNL d   1      -1.560   1.967   3.385  0.00  0.00    -0.001 A 
ENDROOT
TORSDOF 0
ENDMDL
