MODEL 1
REMARK minimizedAffinity 3.69022679
REMARK minimizedRMSD -1
REMARK  0 active torsions:
REMARK  status: ('A' for Active; 'I' for Inactive)
ROOT
ATOM      1  C   UNL d   1       5.996   3.003   5.625  0.00  0.00     0.077 C 
ATOM      2  C1  UNL d   1       4.780   3.864   5.450  0.00  0.00    -0.074 A 
ATOM      3  C2  UNL d   1       4.723   5.148   6.000  0.00  0.00    -0.005 A 
ATOM      4  C3  UNL d   1       3.589   5.941   5.821  0.00  0.00     0.006 A 
ATOM      5  C4  UNL d   1       2.502   5.457   5.091  0.00  0.00    -0.005 A 
ATOM      6  C5  UNL d   1       2.541   4.175   4.534  0.00  0.00    -0.074 A 
ATOM      7  C6  UNL d   1       1.386   3.644   3.738  0.00  0.00     0.077 C 
ATOM      8  C7  UNL d   1       3.687   3.388   4.712  0.00  0.00    -0.001 A 
ENDROOT
TORSDOF 0
ENDMDL
