MODEL 1
REMARK minimizedAffinity 3.06542635
REMARK minimizedRMSD -1
REMARK  0 active torsions:
REMARK  status: ('A' for Active; 'I' for Inactive)
ROOT
ATOM      1  C   UNL d   1       5.462   3.508   5.551  0.00  0.00     0.077 C 
ATOM      2  C1  UNL d   1       4.531   4.103   4.536  0.00  0.00    -0.074 A 
ATOM      3  C2  UNL d   1       4.996   5.008   3.577  0.00  0.00    -0.005 A 
ATOM      4  C3  UNL d   1       4.120   5.546   2.634  0.00  0.00     0.006 A 
ATOM      5  C4  UNL d   1       2.773   5.185   2.641  0.00  0.00    -0.005 A 
ATOM      6  C5  UNL d   1       2.289   4.280   3.592  0.00  0.00    -0.074 A 
ATOM      7  C6  UNL d   1       0.846   3.874   3.607  0.00  0.00     0.077 C 
ATOM      8  C7  UNL d   1       3.177   3.739   4.532  0.00  0.00    -0.001 A 
ENDROOT
TORSDOF 0
ENDMDL
