MODEL 1
REMARK minimizedAffinity 11.5883198
REMARK minimizedRMSD -1
REMARK  0 active torsions:
REMARK  status: ('A' for Active; 'I' for Inactive)
ROOT
ATOM      1  C   UNL d   1      -1.124   3.345   5.133  0.00  0.00     0.077 C 
ATOM      2  C1  UNL d   1      -0.722   3.014   3.726  0.00  0.00    -0.074 A 
ATOM      3  C2  UNL d   1       0.304   3.718   3.087  0.00  0.00    -0.005 A 
ATOM      4  C3  UNL d   1       0.673   3.393   1.782  0.00  0.00     0.006 A 
ATOM      5  C4  UNL d   1       0.021   2.362   1.104  0.00  0.00    -0.005 A 
ATOM      6  C5  UNL d   1      -1.007   1.647   1.727  0.00  0.00    -0.074 A 
ATOM      7  C6  UNL d   1      -1.711   0.530   1.015  0.00  0.00     0.077 C 
ATOM      8  C7  UNL d   1      -1.367   1.975   3.041  0.00  0.00    -0.001 A 
ENDROOT
TORSDOF 0
ENDMDL
