MODEL 1
REMARK minimizedAffinity 8.07138348
REMARK minimizedRMSD -1
REMARK  0 active torsions:
REMARK  status: ('A' for Active; 'I' for Inactive)
ROOT
ATOM      1  C   UNL d   1      -1.154   0.279   1.418  0.00  0.00     0.077 C 
ATOM      2  C1  UNL d   1      -0.477   1.472   2.025  0.00  0.00    -0.074 A 
ATOM      3  C2  UNL d   1       0.545   2.142   1.344  0.00  0.00    -0.005 A 
ATOM      4  C3  UNL d   1       1.159   3.256   1.917  0.00  0.00     0.006 A 
ATOM      5  C4  UNL d   1       0.758   3.711   3.173  0.00  0.00    -0.005 A 
ATOM      6  C5  UNL d   1      -0.263   3.055   3.869  0.00  0.00    -0.074 A 
ATOM      7  C6  UNL d   1      -0.712   3.536   5.216  0.00  0.00     0.077 C 
ATOM      8  C7  UNL d   1      -0.879   1.940   3.284  0.00  0.00    -0.001 A 
ENDROOT
TORSDOF 0
ENDMDL
