MODEL 1
REMARK minimizedAffinity 8.44021416
REMARK minimizedRMSD -1
REMARK  0 active torsions:
REMARK  status: ('A' for Active; 'I' for Inactive)
ROOT
ATOM      1  C   UNL d   1       1.205  -4.174  -2.665  0.00  0.00     0.077 C 
ATOM      2  C1  UNL d   1       1.555  -3.193  -1.586  0.00  0.00    -0.074 A 
ATOM      3  C2  UNL d   1       0.889  -3.209  -0.356  0.00  0.00    -0.005 A 
ATOM      4  C3  UNL d   1       1.233  -2.297   0.641  0.00  0.00     0.006 A 
ATOM      5  C4  UNL d   1       2.244  -1.361   0.419  0.00  0.00    -0.005 A 
ATOM      6  C5  UNL d   1       2.922  -1.331  -0.804  0.00  0.00    -0.074 A 
ATOM      7  C6  UNL d   1       4.017  -0.338  -1.055  0.00  0.00     0.077 C 
ATOM      8  C7  UNL d   1       2.575  -2.255  -1.798  0.00  0.00    -0.001 A 
ENDROOT
TORSDOF 0
ENDMDL
