MODEL 1
REMARK minimizedAffinity -1.41143167
REMARK minimizedRMSD -1
REMARK  0 active torsions:
REMARK  status: ('A' for Active; 'I' for Inactive)
ROOT
ATOM      1  C   UNL d   1      -0.769   2.912   4.348  0.00  0.00     0.077 C 
ATOM      2  C1  UNL d   1      -0.230   2.592   2.986  0.00  0.00    -0.074 A 
ATOM      3  C2  UNL d   1       0.857   3.296   2.459  0.00  0.00    -0.005 A 
ATOM      4  C3  UNL d   1       1.353   2.982   1.194  0.00  0.00     0.006 A 
ATOM      5  C4  UNL d   1       0.767   1.962   0.444  0.00  0.00    -0.005 A 
ATOM      6  C5  UNL d   1      -0.321   1.246   0.954  0.00  0.00    -0.074 A 
ATOM      7  C6  UNL d   1      -0.956   0.141   0.164  0.00  0.00     0.077 C 
ATOM      8  C7  UNL d   1      -0.809   1.564   2.229  0.00  0.00    -0.001 A 
ENDROOT
TORSDOF 0
ENDMDL
