MODEL 1
REMARK minimizedAffinity -4.59426928
REMARK minimizedRMSD -1
REMARK  1 active torsions:
REMARK  status: ('A' for Active; 'I' for Inactive)
REMARK    1  A    between atoms: C1_2  and  C2_3 
ROOT
ATOM      1  C2  UNL d   1      -0.314  -0.076   0.111  0.00  0.00    -0.076 A 
ATOM      2  C3  UNL d   1      -1.668   0.226  -0.117  0.00  0.00     0.004 A 
ATOM      3  C4  UNL d   1      -2.488   0.671   0.919  0.00  0.00    -0.003 A 
ATOM      4  C5  UNL d   1      -1.967   0.823   2.199  0.00  0.00     0.000 A 
ATOM      5  C6  UNL d   1      -0.622   0.545   2.440  0.00  0.00     0.000 A 
ATOM      6  C7  UNL d   1       0.222   0.111   1.403  0.00  0.00    -0.073 A 
ATOM      7  C8  UNL d   1       1.663  -0.180   1.721  0.00  0.00     0.078 C 
ENDROOT
BRANCH   1   8
ATOM      8  C1  UNL d   1       0.520  -0.581  -1.044  0.00  0.00     0.053 C 
ATOM      9  C   UNL d   1       0.060  -0.023  -2.382  0.00  0.00     0.018 C 
ENDBRANCH   1   8
TORSDOF 1
ENDMDL
