MODEL 1
REMARK minimizedAffinity -3.58661294
REMARK minimizedRMSD -1
REMARK  1 active torsions:
REMARK  status: ('A' for Active; 'I' for Inactive)
REMARK    1  A    between atoms: C1_2  and  C2_3 
ROOT
ATOM      1  C2  UNL d   1      -0.278  -0.180   0.378  0.00  0.00    -0.076 A 
ATOM      2  C3  UNL d   1       0.864   0.463   0.887  0.00  0.00     0.004 A 
ATOM      3  C4  UNL d   1       0.785   1.278   2.015  0.00  0.00    -0.003 A 
ATOM      4  C5  UNL d   1      -0.437   1.462   2.653  0.00  0.00     0.000 A 
ATOM      5  C6  UNL d   1      -1.576   0.818   2.172  0.00  0.00     0.000 A 
ATOM      6  C7  UNL d   1      -1.511  -0.020   1.046  0.00  0.00    -0.073 A 
ATOM      7  C8  UNL d   1      -2.772  -0.685   0.567  0.00  0.00     0.078 C 
ENDROOT
BRANCH   1   8
ATOM      8  C1  UNL d   1      -0.137  -1.030  -0.865  0.00  0.00     0.053 C 
ATOM      9  C   UNL d   1       0.907  -0.486  -1.828  0.00  0.00     0.018 C 
ENDBRANCH   1   8
TORSDOF 1
ENDMDL
