MODEL 1
REMARK minimizedAffinity -3.59727788
REMARK minimizedRMSD -1
REMARK  1 active torsions:
REMARK  status: ('A' for Active; 'I' for Inactive)
REMARK    1  A    between atoms: C1_2  and  C2_3 
ROOT
ATOM      1  C2  UNL d   1      -0.138  -0.340   0.421  0.00  0.00    -0.076 A 
ATOM      2  C3  UNL d   1       0.683   0.533   1.156  0.00  0.00     0.004 A 
ATOM      3  C4  UNL d   1       0.182   1.240   2.248  0.00  0.00    -0.003 A 
ATOM      4  C5  UNL d   1      -1.148   1.086   2.623  0.00  0.00     0.000 A 
ATOM      5  C6  UNL d   1      -1.972   0.211   1.915  0.00  0.00     0.000 A 
ATOM      6  C7  UNL d   1      -1.479  -0.522   0.822  0.00  0.00    -0.073 A 
ATOM      7  C8  UNL d   1      -2.414  -1.446   0.092  0.00  0.00     0.078 C 
ENDROOT
BRANCH   1   8
ATOM      8  C1  UNL d   1       0.453  -1.059  -0.770  0.00  0.00     0.053 C 
ATOM      9  C   UNL d   1       0.403  -0.223  -2.040  0.00  0.00     0.018 C 
ENDBRANCH   1   8
TORSDOF 1
ENDMDL
