MODEL 1
REMARK minimizedAffinity -3.99352527
REMARK minimizedRMSD -1
REMARK  1 active torsions:
REMARK  status: ('A' for Active; 'I' for Inactive)
REMARK    1  A    between atoms: C1_2  and  C2_3 
ROOT
ATOM      1  C2  UNL d   1       0.227   0.337  -2.912  0.00  0.00    -0.076 A 
ATOM      2  C3  UNL d   1      -0.636  -0.719  -3.252  0.00  0.00     0.004 A 
ATOM      3  C4  UNL d   1      -0.866  -1.057  -4.585  0.00  0.00    -0.003 A 
ATOM      4  C5  UNL d   1      -0.236  -0.344  -5.599  0.00  0.00     0.000 A 
ATOM      5  C6  UNL d   1       0.637   0.695  -5.279  0.00  0.00     0.000 A 
ATOM      6  C7  UNL d   1       0.893   1.038  -3.940  0.00  0.00    -0.073 A 
ATOM      7  C8  UNL d   1       1.839   2.171  -3.653  0.00  0.00     0.078 C 
ENDROOT
BRANCH   1   8
ATOM      8  C1  UNL d   1       0.418   0.675  -1.450  0.00  0.00     0.053 C 
ATOM      9  C   UNL d   1       0.338  -0.551  -0.554  0.00  0.00     0.018 C 
ENDBRANCH   1   8
TORSDOF 1
ENDMDL
