MODEL 1
REMARK minimizedAffinity -2.46735764
REMARK minimizedRMSD -1
REMARK  1 active torsions:
REMARK  status: ('A' for Active; 'I' for Inactive)
REMARK    1  A    between atoms: C1_2  and  C2_3 
ROOT
ATOM      1  C2  UNL d   1      -0.120   0.415   0.918  0.00  0.00    -0.076 A 
ATOM      2  C3  UNL d   1       0.828   1.271   1.505  0.00  0.00     0.004 A 
ATOM      3  C4  UNL d   1       0.464   2.160   2.515  0.00  0.00    -0.003 A 
ATOM      4  C5  UNL d   1      -0.854   2.208   2.955  0.00  0.00     0.000 A 
ATOM      5  C6  UNL d   1      -1.804   1.353   2.396  0.00  0.00     0.000 A 
ATOM      6  C7  UNL d   1      -1.450   0.440   1.389  0.00  0.00    -0.073 A 
ATOM      7  C8  UNL d   1      -2.517  -0.454   0.817  0.00  0.00     0.078 C 
ENDROOT
BRANCH   1   8
ATOM      8  C1  UNL d   1       0.327  -0.509  -0.192  0.00  0.00     0.053 C 
ATOM      9  C   UNL d   1       0.474   0.209  -1.524  0.00  0.00     0.018 C 
ENDBRANCH   1   8
TORSDOF 1
ENDMDL
