MODEL 1
REMARK minimizedAffinity -5.39904499
REMARK minimizedRMSD -1
REMARK  0 active torsions:
REMARK  status: ('A' for Active; 'I' for Inactive)
ROOT
ATOM      1  C1  DEN d   1       1.759  -0.975   0.815  0.00  0.00     0.130 A 
ATOM      2  C2  DEN d   1       3.039  -0.372   0.453  0.00  0.00    -0.031 A 
ATOM      3  C3  DEN d   1       2.790   1.031   0.066  0.00  0.00     0.027 A 
ATOM      4  C4  DEN d   1       0.558   2.322  -0.004  0.00  0.00     0.027 A 
ATOM      5  C5  DEN d   1      -0.800   2.228   0.204  0.00  0.00    -0.003 A 
ATOM      6  C6  DEN d   1      -1.400   1.060   0.595  0.00  0.00     0.001 A 
ATOM      7  C7  DEN d   1      -0.634  -0.050   0.833  0.00  0.00     0.017 A 
ATOM      8  C8  DEN d   1       0.736   0.035   0.618  0.00  0.00    -0.094 A 
ATOM      9  C9  DEN d   1       1.325   1.229   0.235  0.00  0.00    -0.072 A 
ENDROOT
TORSDOF 0
ENDMDL
