MODEL 1
REMARK minimizedAffinity -2.43421197
REMARK minimizedRMSD -1
REMARK  0 active torsions:
REMARK  status: ('A' for Active; 'I' for Inactive)
ROOT
ATOM      1  C1  DEN d   1       2.971   0.815   0.717  0.00  0.00     0.130 A 
ATOM      2  C2  DEN d   1       3.384   2.111   1.249  0.00  0.00    -0.031 A 
ATOM      3  C3  DEN d   1       2.172   2.932   1.443  0.00  0.00     0.027 A 
ATOM      4  C4  DEN d   1      -0.291   2.324   0.979  0.00  0.00     0.027 A 
ATOM      5  C5  DEN d   1      -1.136   1.342   0.512  0.00  0.00    -0.003 A 
ATOM      6  C6  DEN d   1      -0.673   0.137   0.053  0.00  0.00     0.001 A 
ATOM      7  C7  DEN d   1       0.670  -0.133   0.093  0.00  0.00     0.017 A 
ATOM      8  C8  DEN d   1       1.529   0.856   0.555  0.00  0.00    -0.094 A 
ATOM      9  C9  DEN d   1       1.039   2.062   1.026  0.00  0.00    -0.072 A 
ENDROOT
TORSDOF 0
ENDMDL
