MODEL 1
REMARK minimizedAffinity -3.9741447
REMARK minimizedRMSD -1
REMARK  0 active torsions:
REMARK  status: ('A' for Active; 'I' for Inactive)
ROOT
ATOM      1  C1  DEN d   1      -1.181   0.785  -0.787  0.00  0.00     0.130 A 
ATOM      2  C2  DEN d   1      -0.090   1.272   0.051  0.00  0.00    -0.031 A 
ATOM      3  C3  DEN d   1       0.804   0.133   0.344  0.00  0.00     0.027 A 
ATOM      4  C4  DEN d   1       0.606  -2.323  -0.419  0.00  0.00     0.027 A 
ATOM      5  C5  DEN d   1      -0.158  -3.218  -1.134  0.00  0.00    -0.003 A 
ATOM      6  C6  DEN d   1      -1.325  -2.852  -1.750  0.00  0.00     0.001 A 
ATOM      7  C7  DEN d   1      -1.739  -1.547  -1.701  0.00  0.00     0.017 A 
ATOM      8  C8  DEN d   1      -0.978  -0.640  -0.975  0.00  0.00    -0.094 A 
ATOM      9  C9  DEN d   1       0.206  -1.027  -0.370  0.00  0.00    -0.072 A 
ENDROOT
TORSDOF 0
ENDMDL
