MODEL 1
REMARK minimizedAffinity -2.35545039
REMARK minimizedRMSD -1
REMARK  0 active torsions:
REMARK  status: ('A' for Active; 'I' for Inactive)
ROOT
ATOM      1  C1  DEN d   1       0.467  -3.075  -0.894  0.00  0.00     0.130 A 
ATOM      2  C2  DEN d   1      -0.410  -3.465  -1.994  0.00  0.00    -0.031 A 
ATOM      3  C3  DEN d   1      -1.376  -2.370  -2.219  0.00  0.00     0.027 A 
ATOM      4  C4  DEN d   1      -1.593  -0.119  -0.979  0.00  0.00     0.027 A 
ATOM      5  C5  DEN d   1      -1.079   0.657   0.036  0.00  0.00    -0.003 A 
ATOM      6  C6  DEN d   1      -0.045   0.234   0.828  0.00  0.00     0.001 A 
ATOM      7  C7  DEN d   1       0.539  -0.982   0.588  0.00  0.00     0.017 A 
ATOM      8  C8  DEN d   1       0.022  -1.774  -0.429  0.00  0.00    -0.094 A 
ATOM      9  C9  DEN d   1      -1.016  -1.322  -1.226  0.00  0.00    -0.072 A 
ENDROOT
TORSDOF 0
ENDMDL
