MODEL 1
REMARK minimizedAffinity -2.96655369
REMARK minimizedRMSD -1
REMARK  0 active torsions:
REMARK  status: ('A' for Active; 'I' for Inactive)
ROOT
ATOM      1  C1  DEN d   1      -1.734   1.154   0.285  0.00  0.00     0.130 A 
ATOM      2  C2  DEN d   1      -1.294   2.489   0.680  0.00  0.00    -0.031 A 
ATOM      3  C3  DEN d   1       0.175   2.460   0.830  0.00  0.00     0.027 A 
ATOM      4  C4  DEN d   1       1.802   0.489   0.487  0.00  0.00     0.027 A 
ATOM      5  C5  DEN d   1       1.896  -0.846   0.161  0.00  0.00    -0.003 A 
ATOM      6  C6  DEN d   1       0.792  -1.610  -0.112  0.00  0.00     0.001 A 
ATOM      7  C7  DEN d   1      -0.451  -1.033  -0.107  0.00  0.00     0.017 A 
ATOM      8  C8  DEN d   1      -0.553   0.310   0.228  0.00  0.00    -0.094 A 
ATOM      9  C9  DEN d   1       0.575   1.069   0.489  0.00  0.00    -0.072 A 
ENDROOT
TORSDOF 0
ENDMDL
