MODEL 1
REMARK minimizedAffinity -3.44867206
REMARK minimizedRMSD -1
REMARK  0 active torsions:
REMARK  status: ('A' for Active; 'I' for Inactive)
ROOT
ATOM      1  C1  DEN d   1       1.339  -0.313  -0.008  0.00  0.00     0.130 A 
ATOM      2  C2  DEN d   1       0.561  -1.548  -0.023  0.00  0.00    -0.031 A 
ATOM      3  C3  DEN d   1      -0.859  -1.196   0.183  0.00  0.00     0.027 A 
ATOM      4  C4  DEN d   1      -1.921   1.131   0.516  0.00  0.00     0.027 A 
ATOM      5  C5  DEN d   1      -1.661   2.480   0.615  0.00  0.00    -0.003 A 
ATOM      6  C6  DEN d   1      -0.389   2.985   0.549  0.00  0.00     0.001 A 
ATOM      7  C7  DEN d   1       0.667   2.139   0.332  0.00  0.00     0.017 A 
ATOM      8  C8  DEN d   1       0.413   0.777   0.238  0.00  0.00    -0.094 A 
ATOM      9  C9  DEN d   1      -0.881   0.287   0.296  0.00  0.00    -0.072 A 
ENDROOT
TORSDOF 0
ENDMDL
