MODEL 1
REMARK minimizedAffinity -1.28766549
REMARK minimizedRMSD -1
REMARK  0 active torsions:
REMARK  status: ('A' for Active; 'I' for Inactive)
ROOT
ATOM      1  C1  DEN d   1      -0.487  -0.002   0.116  0.00  0.00     0.130 A 
ATOM      2  C2  DEN d   1       0.501  -1.069  -0.012  0.00  0.00    -0.031 A 
ATOM      3  C3  DEN d   1       1.816  -0.522   0.378  0.00  0.00     0.027 A 
ATOM      4  C4  DEN d   1       2.415   1.859   1.167  0.00  0.00     0.027 A 
ATOM      5  C5  DEN d   1       1.913   3.115   1.425  0.00  0.00    -0.003 A 
ATOM      6  C6  DEN d   1       0.593   3.428   1.233  0.00  0.00     0.001 A 
ATOM      7  C7  DEN d   1      -0.280   2.459   0.814  0.00  0.00     0.017 A 
ATOM      8  C8  DEN d   1       0.220   1.192   0.545  0.00  0.00    -0.094 A 
ATOM      9  C9  DEN d   1       1.555   0.892   0.757  0.00  0.00    -0.072 A 
ENDROOT
TORSDOF 0
ENDMDL
