MODEL 1
REMARK minimizedAffinity -0.727706194
REMARK minimizedRMSD -1
REMARK  0 active torsions:
REMARK  status: ('A' for Active; 'I' for Inactive)
ROOT
ATOM      1  C1  DEN d   1       0.975  -0.848   0.377  0.00  0.00     0.130 A 
ATOM      2  C2  DEN d   1       0.066  -1.720  -0.362  0.00  0.00    -0.031 A 
ATOM      3  C3  DEN d   1      -1.222  -1.014  -0.512  0.00  0.00     0.027 A 
ATOM      4  C4  DEN d   1      -1.893   1.334   0.318  0.00  0.00     0.027 A 
ATOM      5  C5  DEN d   1      -1.462   2.447   1.005  0.00  0.00    -0.003 A 
ATOM      6  C6  DEN d   1      -0.210   2.526   1.555  0.00  0.00     0.001 A 
ATOM      7  C7  DEN d   1       0.671   1.491   1.389  0.00  0.00     0.017 A 
ATOM      8  C8  DEN d   1       0.241   0.361   0.705  0.00  0.00    -0.094 A 
ATOM      9  C9  DEN d   1      -1.024   0.306   0.145  0.00  0.00    -0.072 A 
ENDROOT
TORSDOF 0
ENDMDL
