MODEL 1
REMARK minimizedAffinity -3.18347645
REMARK minimizedRMSD -1
REMARK  0 active torsions:
REMARK  status: ('A' for Active; 'I' for Inactive)
ROOT
ATOM      1  C1  DEN d   1      -0.329  -1.310   0.615  0.00  0.00     0.130 A 
ATOM      2  C2  DEN d   1      -0.254   0.096   0.224  0.00  0.00    -0.031 A 
ATOM      3  C3  DEN d   1      -0.471   0.176  -1.235  0.00  0.00     0.027 A 
ATOM      4  C4  DEN d   1      -0.916  -1.728  -2.916  0.00  0.00     0.027 A 
ATOM      5  C5  DEN d   1      -1.057  -3.091  -3.057  0.00  0.00    -0.003 A 
ATOM      6  C6  DEN d   1      -0.932  -3.952  -1.999  0.00  0.00     0.001 A 
ATOM      7  C7  DEN d   1      -0.703  -3.454  -0.743  0.00  0.00     0.017 A 
ATOM      8  C8  DEN d   1      -0.553  -2.082  -0.594  0.00  0.00    -0.094 A 
ATOM      9  C9  DEN d   1      -0.694  -1.228  -1.675  0.00  0.00    -0.072 A 
ENDROOT
TORSDOF 0
ENDMDL
