MODEL 1
REMARK minimizedAffinity -4.16224432
REMARK minimizedRMSD -1
REMARK  0 active torsions:
REMARK  status: ('A' for Active; 'I' for Inactive)
ROOT
ATOM      1  C1  DEN d   1       2.769   1.065   0.585  0.00  0.00     0.130 A 
ATOM      2  C2  DEN d   1       3.325   2.236   1.259  0.00  0.00    -0.031 A 
ATOM      3  C3  DEN d   1       2.226   3.195   1.489  0.00  0.00     0.027 A 
ATOM      4  C4  DEN d   1      -0.270   2.980   0.876  0.00  0.00     0.027 A 
ATOM      5  C5  DEN d   1      -1.215   2.172   0.283  0.00  0.00    -0.003 A 
ATOM      6  C6  DEN d   1      -0.895   0.963  -0.276  0.00  0.00     0.001 A 
ATOM      7  C7  DEN d   1       0.396   0.507  -0.214  0.00  0.00     0.017 A 
ATOM      8  C8  DEN d   1       1.355   1.320   0.375  0.00  0.00    -0.094 A 
ATOM      9  C9  DEN d   1       1.009   2.533   0.946  0.00  0.00    -0.072 A 
ENDROOT
TORSDOF 0
ENDMDL
