MODEL 1
REMARK minimizedAffinity -4.51471138
REMARK minimizedRMSD -1
REMARK  0 active torsions:
REMARK  status: ('A' for Active; 'I' for Inactive)
ROOT
ATOM      1  C1  DEN d   1       0.003  -2.763  -0.821  0.00  0.00     0.130 A 
ATOM      2  C2  DEN d   1      -1.062  -3.346  -1.632  0.00  0.00    -0.031 A 
ATOM      3  C3  DEN d   1      -2.147  -2.350  -1.746  0.00  0.00     0.027 A 
ATOM      4  C4  DEN d   1      -2.277   0.027  -0.753  0.00  0.00     0.027 A 
ATOM      5  C5  DEN d   1      -1.619   0.959   0.018  0.00  0.00    -0.003 A 
ATOM      6  C6  DEN d   1      -0.399   0.705   0.588  0.00  0.00     0.001 A 
ATOM      7  C7  DEN d   1       0.221  -0.494   0.357  0.00  0.00     0.017 A 
ATOM      8  C8  DEN d   1      -0.440  -1.442  -0.414  0.00  0.00    -0.094 A 
ATOM      9  C9  DEN d   1      -1.667  -1.161  -0.991  0.00  0.00    -0.072 A 
ENDROOT
TORSDOF 0
ENDMDL
