MODEL 1
REMARK minimizedAffinity -1.4440738
REMARK minimizedRMSD -1
REMARK  0 active torsions:
REMARK  status: ('A' for Active; 'I' for Inactive)
ROOT
ATOM      1  C1  DEN d   1       0.446   2.623   0.752  0.00  0.00     0.130 A 
ATOM      2  C2  DEN d   1      -0.945   2.931   0.431  0.00  0.00    -0.031 A 
ATOM      3  C3  DEN d   1      -1.613   1.674   0.039  0.00  0.00     0.027 A 
ATOM      4  C4  DEN d   1      -0.635  -0.709  -0.097  0.00  0.00     0.027 A 
ATOM      5  C5  DEN d   1       0.503  -1.466   0.070  0.00  0.00    -0.003 A 
ATOM      6  C6  DEN d   1       1.701  -0.913   0.439  0.00  0.00     0.001 A 
ATOM      7  C7  DEN d   1       1.777   0.430   0.699  0.00  0.00     0.017 A 
ATOM      8  C8  DEN d   1       0.635   1.201   0.526  0.00  0.00    -0.094 A 
ATOM      9  C9  DEN d   1      -0.569   0.621   0.164  0.00  0.00    -0.072 A 
ENDROOT
TORSDOF 0
ENDMDL
