MODEL 1
REMARK minimizedAffinity -4.60220766
REMARK minimizedRMSD -1
REMARK  0 active torsions:
REMARK  status: ('A' for Active; 'I' for Inactive)
ROOT
ATOM      1  C1  DEN d   1       0.456  -2.467  -0.114  0.00  0.00     0.130 A 
ATOM      2  C2  DEN d   1      -0.321  -3.179  -1.125  0.00  0.00    -0.031 A 
ATOM      3  C3  DEN d   1      -1.150  -2.190  -1.843  0.00  0.00     0.027 A 
ATOM      4  C4  DEN d   1      -1.300   0.361  -1.494  0.00  0.00     0.027 A 
ATOM      5  C5  DEN d   1      -0.837   1.421  -0.746  0.00  0.00    -0.003 A 
ATOM      6  C6  DEN d   1       0.056   1.256   0.279  0.00  0.00     0.001 A 
ATOM      7  C7  DEN d   1       0.549   0.008   0.555  0.00  0.00     0.017 A 
ATOM      8  C8  DEN d   1       0.082  -1.066  -0.190  0.00  0.00    -0.094 A 
ATOM      9  C9  DEN d   1      -0.812  -0.877  -1.230  0.00  0.00    -0.072 A 
ENDROOT
TORSDOF 0
ENDMDL
