MODEL 1
REMARK minimizedAffinity -5.68457317
REMARK minimizedRMSD -1
REMARK  1 active torsions:
REMARK  status: ('A' for Active; 'I' for Inactive)
REMARK    1  A    between atoms: C1_2  and  C2_3 
ROOT
ATOM      1  C2  UNL d   1      -0.038   0.839   0.266  0.00  0.00    -0.076 A 
ATOM      2  C3  UNL d   1      -0.644   0.073   1.277  0.00  0.00     0.004 A 
ATOM      3  C4  UNL d   1      -1.586   0.635   2.136  0.00  0.00    -0.003 A 
ATOM      4  C5  UNL d   1      -1.940   1.973   1.997  0.00  0.00     0.000 A 
ATOM      5  C6  UNL d   1      -1.362   2.743   0.988  0.00  0.00     0.000 A 
ATOM      6  C7  UNL d   1      -0.422   2.187   0.103  0.00  0.00    -0.073 A 
ATOM      7  C8  UNL d   1       0.173   3.065  -0.963  0.00  0.00     0.078 C 
ENDROOT
BRANCH   1   8
ATOM      8  C1  UNL d   1       0.997   0.182  -0.619  0.00  0.00     0.053 C 
ATOM      9  C   UNL d   1       0.617  -1.239  -1.004  0.00  0.00     0.018 C 
ENDBRANCH   1   8
TORSDOF 1
ENDMDL
