MODEL 1
REMARK minimizedAffinity -4.84871101
REMARK minimizedRMSD -1
REMARK  1 active torsions:
REMARK  status: ('A' for Active; 'I' for Inactive)
REMARK    1  A    between atoms: C1_2  and  C2_3 
ROOT
ATOM      1  C2  UNL d   1      -0.151   0.531  -0.130  0.00  0.00    -0.076 A 
ATOM      2  C3  UNL d   1      -0.851   1.612  -0.695  0.00  0.00     0.004 A 
ATOM      3  C4  UNL d   1      -1.572   2.496   0.105  0.00  0.00    -0.003 A 
ATOM      4  C5  UNL d   1      -1.604   2.315   1.484  0.00  0.00     0.000 A 
ATOM      5  C6  UNL d   1      -0.900   1.260   2.063  0.00  0.00     0.000 A 
ATOM      6  C7  UNL d   1      -0.155   0.368   1.272  0.00  0.00    -0.073 A 
ATOM      7  C8  UNL d   1       0.580  -0.756   1.948  0.00  0.00     0.078 C 
ENDROOT
BRANCH   1   8
ATOM      8  C1  UNL d   1       0.592  -0.411  -1.051  0.00  0.00     0.053 C 
ATOM      9  C   UNL d   1       1.994   0.077  -1.377  0.00  0.00     0.018 C 
ENDBRANCH   1   8
TORSDOF 1
ENDMDL
