MODEL 1
REMARK minimizedAffinity -6.02660608
REMARK minimizedRMSD -1
REMARK  1 active torsions:
REMARK  status: ('A' for Active; 'I' for Inactive)
REMARK    1  A    between atoms: C1_2  and  C2_3 
ROOT
ATOM      1  C2  UNL d   1      -0.740   1.065   0.525  0.00  0.00    -0.076 A 
ATOM      2  C3  UNL d   1      -1.751   1.707   1.262  0.00  0.00     0.004 A 
ATOM      3  C4  UNL d   1      -2.002   3.068   1.100  0.00  0.00    -0.003 A 
ATOM      4  C5  UNL d   1      -1.248   3.810   0.198  0.00  0.00     0.000 A 
ATOM      5  C6  UNL d   1      -0.253   3.186  -0.554  0.00  0.00     0.000 A 
ATOM      6  C7  UNL d   1       0.003   1.811  -0.415  0.00  0.00    -0.073 A 
ATOM      7  C8  UNL d   1       1.092   1.191  -1.247  0.00  0.00     0.078 C 
ENDROOT
BRANCH   1   8
ATOM      8  C1  UNL d   1      -0.494  -0.407   0.763  0.00  0.00     0.053 C 
ATOM      9  C   UNL d   1       0.272  -0.670   2.051  0.00  0.00     0.018 C 
ENDBRANCH   1   8
TORSDOF 1
ENDMDL
