MODEL 1
REMARK minimizedAffinity -5.37609863
REMARK minimizedRMSD -1
REMARK  1 active torsions:
REMARK  status: ('A' for Active; 'I' for Inactive)
REMARK    1  A    between atoms: C1_2  and  C2_3 
ROOT
ATOM      1  C2  UNL d   1      -0.368   0.998   0.191  0.00  0.00    -0.076 A 
ATOM      2  C3  UNL d   1       0.024   1.411  -1.094  0.00  0.00     0.004 A 
ATOM      3  C4  UNL d   1      -0.054   2.751  -1.471  0.00  0.00    -0.003 A 
ATOM      4  C5  UNL d   1      -0.524   3.699  -0.569  0.00  0.00     0.000 A 
ATOM      5  C6  UNL d   1      -0.901   3.309   0.716  0.00  0.00     0.000 A 
ATOM      6  C7  UNL d   1      -0.813   1.965   1.117  0.00  0.00    -0.073 A 
ATOM      7  C8  UNL d   1      -1.239   1.599   2.513  0.00  0.00     0.078 C 
ENDROOT
BRANCH   1   8
ATOM      8  C1  UNL d   1      -0.288  -0.473   0.534  0.00  0.00     0.053 C 
ATOM      9  C   UNL d   1       0.415  -1.285  -0.542  0.00  0.00     0.018 C 
ENDBRANCH   1   8
TORSDOF 1
ENDMDL
