MODEL 1
REMARK minimizedAffinity -3.55698013
REMARK minimizedRMSD -1
REMARK  1 active torsions:
REMARK  status: ('A' for Active; 'I' for Inactive)
REMARK    1  A    between atoms: C1_2  and  C2_3 
ROOT
ATOM      1  C2  UNL d   1       0.243  -0.418  -0.123  0.00  0.00    -0.076 A 
ATOM      2  C3  UNL d   1      -0.376  -1.110   0.932  0.00  0.00     0.004 A 
ATOM      3  C4  UNL d   1      -0.927  -0.425   2.013  0.00  0.00    -0.003 A 
ATOM      4  C5  UNL d   1      -0.870   0.964   2.056  0.00  0.00     0.000 A 
ATOM      5  C6  UNL d   1      -0.276   1.668   1.009  0.00  0.00     0.000 A 
ATOM      6  C7  UNL d   1       0.271   0.993  -0.096  0.00  0.00    -0.073 A 
ATOM      7  C8  UNL d   1       0.905   1.802  -1.194  0.00  0.00     0.078 C 
ENDROOT
BRANCH   1   8
ATOM      8  C1  UNL d   1       0.848  -1.215  -1.256  0.00  0.00     0.053 C 
ATOM      9  C   UNL d   1       0.537  -2.701  -1.154  0.00  0.00     0.018 C 
ENDBRANCH   1   8
TORSDOF 1
ENDMDL
