MODEL 1
REMARK minimizedAffinity -4.13642645
REMARK minimizedRMSD -1
REMARK  1 active torsions:
REMARK  status: ('A' for Active; 'I' for Inactive)
REMARK    1  A    between atoms: C1_2  and  C2_3 
ROOT
ATOM      1  C2  UNL d   1       0.508   1.050  -0.090  0.00  0.00    -0.076 A 
ATOM      2  C3  UNL d   1       1.126   1.443  -1.290  0.00  0.00     0.004 A 
ATOM      3  C4  UNL d   1       1.046   2.759  -1.741  0.00  0.00    -0.003 A 
ATOM      4  C5  UNL d   1       0.346   3.704  -1.000  0.00  0.00     0.000 A 
ATOM      5  C6  UNL d   1      -0.259   3.337   0.202  0.00  0.00     0.000 A 
ATOM      6  C7  UNL d   1      -0.173   2.018   0.680  0.00  0.00    -0.073 A 
ATOM      7  C8  UNL d   1      -0.849   1.675   1.979  0.00  0.00     0.078 C 
ENDROOT
BRANCH   1   8
ATOM      8  C1  UNL d   1       0.607  -0.397   0.336  0.00  0.00     0.053 C 
ATOM      9  C   UNL d   1       0.727  -1.346  -0.847  0.00  0.00     0.018 C 
ENDBRANCH   1   8
TORSDOF 1
ENDMDL
