MODEL 1
REMARK minimizedAffinity -6.77600002
REMARK minimizedRMSD -1
REMARK  1 active torsions:
REMARK  status: ('A' for Active; 'I' for Inactive)
REMARK    1  A    between atoms: C1_2  and  C2_3 
ROOT
ATOM      1  C2  UNL d   1       0.139   1.266  -0.346  0.00  0.00    -0.076 A 
ATOM      2  C3  UNL d   1      -0.435   2.404  -0.939  0.00  0.00     0.004 A 
ATOM      3  C4  UNL d   1      -1.463   3.102  -0.306  0.00  0.00    -0.003 A 
ATOM      4  C5  UNL d   1      -1.933   2.673   0.930  0.00  0.00     0.000 A 
ATOM      5  C6  UNL d   1      -1.363   1.556   1.541  0.00  0.00     0.000 A 
ATOM      6  C7  UNL d   1      -0.316   0.851   0.924  0.00  0.00    -0.073 A 
ATOM      7  C8  UNL d   1       0.257  -0.350   1.625  0.00  0.00     0.078 C 
ENDROOT
BRANCH   1   8
ATOM      8  C1  UNL d   1       1.232   0.534  -1.092  0.00  0.00     0.053 C 
ATOM      9  C   UNL d   1       0.686  -0.550  -2.008  0.00  0.00     0.018 C 
ENDBRANCH   1   8
TORSDOF 1
ENDMDL
