MODEL 1
REMARK minimizedAffinity -3.91512585
REMARK minimizedRMSD -1
REMARK  1 active torsions:
REMARK  status: ('A' for Active; 'I' for Inactive)
REMARK    1  A    between atoms: C1_2  and  C2_3 
ROOT
ATOM      1  C2  UNL d   1       0.155   0.958  -0.028  0.00  0.00    -0.076 A 
ATOM      2  C3  UNL d   1      -0.251   0.198   1.083  0.00  0.00     0.004 A 
ATOM      3  C4  UNL d   1      -1.151   0.713   2.014  0.00  0.00    -0.003 A 
ATOM      4  C5  UNL d   1      -1.660   1.996   1.849  0.00  0.00     0.000 A 
ATOM      5  C6  UNL d   1      -1.282   2.758   0.744  0.00  0.00     0.000 A 
ATOM      6  C7  UNL d   1      -0.388   2.247  -0.213  0.00  0.00    -0.073 A 
ATOM      7  C8  UNL d   1      -0.010   3.114  -1.382  0.00  0.00     0.078 C 
ENDROOT
BRANCH   1   8
ATOM      8  C1  UNL d   1       1.155   0.357  -0.990  0.00  0.00     0.053 C 
ATOM      9  C   UNL d   1       0.996  -1.149  -1.130  0.00  0.00     0.018 C 
ENDBRANCH   1   8
TORSDOF 1
ENDMDL
