MODEL 1
REMARK minimizedAffinity -5.62587786
REMARK minimizedRMSD -1
REMARK  1 active torsions:
REMARK  status: ('A' for Active; 'I' for Inactive)
REMARK    1  A    between atoms: C1_2  and  C2_3 
ROOT
ATOM      1  C2  UNL d   1       0.136   0.222  -0.020  0.00  0.00    -0.076 A 
ATOM      2  C3  UNL d   1      -0.587  -0.294   1.069  0.00  0.00     0.004 A 
ATOM      3  C4  UNL d   1      -1.489   0.502   1.773  0.00  0.00    -0.003 A 
ATOM      4  C5  UNL d   1      -1.684   1.827   1.398  0.00  0.00     0.000 A 
ATOM      5  C6  UNL d   1      -0.988   2.351   0.309  0.00  0.00     0.000 A 
ATOM      6  C7  UNL d   1      -0.086   1.557  -0.421  0.00  0.00    -0.073 A 
ATOM      7  C8  UNL d   1       0.642   2.175  -1.584  0.00  0.00     0.078 C 
ENDROOT
BRANCH   1   8
ATOM      8  C1  UNL d   1       1.122  -0.680  -0.728  0.00  0.00     0.053 C 
ATOM      9  C   UNL d   1       0.438  -1.811  -1.482  0.00  0.00     0.018 C 
ENDBRANCH   1   8
TORSDOF 1
ENDMDL
