MODEL 1
REMARK minimizedAffinity -5.19649124
REMARK minimizedRMSD -1
REMARK  1 active torsions:
REMARK  status: ('A' for Active; 'I' for Inactive)
REMARK    1  A    between atoms: C1_2  and  C2_3 
ROOT
ATOM      1  C2  UNL d   1      -0.397   0.774   0.037  0.00  0.00    -0.076 A 
ATOM      2  C3  UNL d   1      -1.240   0.439   1.111  0.00  0.00     0.004 A 
ATOM      3  C4  UNL d   1      -1.860   1.430   1.871  0.00  0.00    -0.003 A 
ATOM      4  C5  UNL d   1      -1.648   2.770   1.569  0.00  0.00     0.000 A 
ATOM      5  C6  UNL d   1      -0.828   3.120   0.497  0.00  0.00     0.000 A 
ATOM      6  C7  UNL d   1      -0.208   2.133  -0.290  0.00  0.00    -0.073 A 
ATOM      7  C8  UNL d   1       0.670   2.567  -1.431  0.00  0.00     0.078 C 
ENDROOT
BRANCH   1   8
ATOM      8  C1  UNL d   1       0.270  -0.343  -0.734  0.00  0.00     0.053 C 
ATOM      9  C   UNL d   1       1.735  -0.512  -0.364  0.00  0.00     0.018 C 
ENDBRANCH   1   8
TORSDOF 1
ENDMDL
