MODEL 1
REMARK minimizedAffinity -3.68661118
REMARK minimizedRMSD -1
REMARK  1 active torsions:
REMARK  status: ('A' for Active; 'I' for Inactive)
REMARK    1  A    between atoms: C1_2  and  C2_3 
ROOT
ATOM      1  C2  UNL d   1      -0.180   0.294   0.209  0.00  0.00    -0.076 A 
ATOM      2  C3  UNL d   1      -0.917   1.289  -0.457  0.00  0.00     0.004 A 
ATOM      3  C4  UNL d   1      -1.764   2.145   0.244  0.00  0.00    -0.003 A 
ATOM      4  C5  UNL d   1      -1.889   2.020   1.623  0.00  0.00     0.000 A 
ATOM      5  C6  UNL d   1      -1.153   1.050   2.303  0.00  0.00     0.000 A 
ATOM      6  C7  UNL d   1      -0.281   0.190   1.613  0.00  0.00    -0.073 A 
ATOM      7  C8  UNL d   1       0.484  -0.842   2.396  0.00  0.00     0.078 C 
ENDROOT
BRANCH   1   8
ATOM      8  C1  UNL d   1       0.702  -0.623  -0.607  0.00  0.00     0.053 C 
ATOM      9  C   UNL d   1      -0.071  -1.780  -1.222  0.00  0.00     0.018 C 
ENDBRANCH   1   8
TORSDOF 1
ENDMDL
