MODEL 1
REMARK minimizedAffinity -3.47665834
REMARK minimizedRMSD -1
REMARK  1 active torsions:
REMARK  status: ('A' for Active; 'I' for Inactive)
REMARK    1  A    between atoms: C1_2  and  C2_3 
ROOT
ATOM      1  C2  UNL d   1       0.100   0.536   0.113  0.00  0.00    -0.076 A 
ATOM      2  C3  UNL d   1      -0.742   1.485  -0.493  0.00  0.00     0.004 A 
ATOM      3  C4  UNL d   1      -1.786   2.075   0.217  0.00  0.00    -0.003 A 
ATOM      4  C5  UNL d   1      -2.005   1.726   1.545  0.00  0.00     0.000 A 
ATOM      5  C6  UNL d   1      -1.169   0.800   2.168  0.00  0.00     0.000 A 
ATOM      6  C7  UNL d   1      -0.102   0.208   1.471  0.00  0.00    -0.073 A 
ATOM      7  C8  UNL d   1       0.765  -0.789   2.190  0.00  0.00     0.078 C 
ENDROOT
BRANCH   1   8
ATOM      8  C1  UNL d   1       1.199  -0.090  -0.715  0.00  0.00     0.053 C 
ATOM      9  C   UNL d   1       0.745  -1.357  -1.423  0.00  0.00     0.018 C 
ENDBRANCH   1   8
TORSDOF 1
ENDMDL
