MODEL 1
REMARK minimizedAffinity -2.76854014
REMARK minimizedRMSD -1
REMARK  1 active torsions:
REMARK  status: ('A' for Active; 'I' for Inactive)
REMARK    1  A    between atoms: C1_2  and  C2_3 
ROOT
ATOM      1  C2  UNL d   1      -0.010   0.938  -0.156  0.00  0.00    -0.076 A 
ATOM      2  C3  UNL d   1       0.529  -0.164  -0.842  0.00  0.00     0.004 A 
ATOM      3  C4  UNL d   1       0.651  -1.406  -0.222  0.00  0.00    -0.003 A 
ATOM      4  C5  UNL d   1       0.235  -1.567   1.095  0.00  0.00     0.000 A 
ATOM      5  C6  UNL d   1      -0.319  -0.489   1.786  0.00  0.00     0.000 A 
ATOM      6  C7  UNL d   1      -0.463   0.766   1.169  0.00  0.00    -0.073 A 
ATOM      7  C8  UNL d   1      -1.061   1.895   1.963  0.00  0.00     0.078 C 
ENDROOT
BRANCH   1   8
ATOM      8  C1  UNL d   1      -0.092   2.267  -0.871  0.00  0.00     0.053 C 
ATOM      9  C   UNL d   1       1.089   2.503  -1.800  0.00  0.00     0.018 C 
ENDBRANCH   1   8
TORSDOF 1
ENDMDL
