MODEL 1
REMARK minimizedAffinity -5.22413301
REMARK minimizedRMSD -1
REMARK  1 active torsions:
REMARK  status: ('A' for Active; 'I' for Inactive)
REMARK    1  A    between atoms: C1_2  and  C2_3 
ROOT
ATOM      1  C2  UNL d   1      -0.667   1.295   0.584  0.00  0.00    -0.076 A 
ATOM      2  C3  UNL d   1      -0.377   2.166  -0.480  0.00  0.00     0.004 A 
ATOM      3  C4  UNL d   1       0.708   1.932  -1.323  0.00  0.00    -0.003 A 
ATOM      4  C5  UNL d   1       1.520   0.822  -1.116  0.00  0.00     0.000 A 
ATOM      5  C6  UNL d   1       1.237  -0.062  -0.075  0.00  0.00     0.000 A 
ATOM      6  C7  UNL d   1       0.137   0.150   0.774  0.00  0.00    -0.073 A 
ATOM      7  C8  UNL d   1      -0.119  -0.832   1.883  0.00  0.00     0.078 C 
ENDROOT
BRANCH   1   8
ATOM      8  C1  UNL d   1      -1.841   1.614   1.482  0.00  0.00     0.053 C 
ATOM      9  C   UNL d   1      -2.159   3.101   1.519  0.00  0.00     0.018 C 
ENDBRANCH   1   8
TORSDOF 1
ENDMDL
