MODEL 1
REMARK minimizedAffinity -5.34033012
REMARK minimizedRMSD -1
REMARK  1 active torsions:
REMARK  status: ('A' for Active; 'I' for Inactive)
REMARK    1  A    between atoms: C1_2  and  C2_3 
ROOT
ATOM      1  C2  UNL d   1       0.160   0.507   0.432  0.00  0.00    -0.076 A 
ATOM      2  C3  UNL d   1      -0.541   1.515  -0.251  0.00  0.00     0.004 A 
ATOM      3  C4  UNL d   1      -1.534   2.257   0.387  0.00  0.00    -0.003 A 
ATOM      4  C5  UNL d   1      -1.841   2.003   1.719  0.00  0.00     0.000 A 
ATOM      5  C6  UNL d   1      -1.143   1.019   2.417  0.00  0.00     0.000 A 
ATOM      6  C7  UNL d   1      -0.128   0.273   1.794  0.00  0.00    -0.073 A 
ATOM      7  C8  UNL d   1       0.588  -0.781   2.593  0.00  0.00     0.078 C 
ENDROOT
BRANCH   1   8
ATOM      8  C1  UNL d   1       1.207  -0.284  -0.320  0.00  0.00     0.053 C 
ATOM      9  C   UNL d   1       0.600  -1.363  -1.203  0.00  0.00     0.018 C 
ENDBRANCH   1   8
TORSDOF 1
ENDMDL
