MODEL 1
REMARK minimizedAffinity -5.60120964
REMARK minimizedRMSD -1
REMARK  1 active torsions:
REMARK  status: ('A' for Active; 'I' for Inactive)
REMARK    1  A    between atoms: C1_2  and  C2_3 
ROOT
ATOM      1  C2  UNL d   1      -1.079   0.283  -0.451  0.00  0.00    -0.081 A 
ATOM      2  C3  UNL d   1      -0.238   1.397  -0.345  0.00  0.00     0.006 A 
ATOM      3  C4  UNL d   1       1.073   1.254   0.116  0.00  0.00     0.002 A 
ATOM      4  C5  UNL d   1       1.566  -0.007   0.470  0.00  0.00    -0.080 A 
ATOM      5  C6  UNL d   1       2.981  -0.179   0.937  0.00  0.00     0.076 C 
ATOM      6  C7  UNL d   1       0.721  -1.117   0.380  0.00  0.00     0.002 A 
ATOM      7  C8  UNL d   1      -0.590  -0.974  -0.080  0.00  0.00     0.006 A 
ENDROOT
BRANCH   1   8
ATOM      8  C1  UNL d   1      -2.472   0.425  -1.009  0.00  0.00     0.054 C 
ATOM      9  C   UNL d   1      -2.616  -0.311  -2.334  0.00  0.00     0.018 C 
ENDBRANCH   1   8
TORSDOF 1
ENDMDL
