MODEL 1
REMARK minimizedAffinity -2.64776063
REMARK minimizedRMSD -1
REMARK  1 active torsions:
REMARK  status: ('A' for Active; 'I' for Inactive)
REMARK    1  A    between atoms: C1_2  and  C2_3 
ROOT
ATOM      1  C2  UNL d   1       1.501  -0.238   1.335  0.00  0.00    -0.081 A 
ATOM      2  C3  UNL d   1       1.336   0.949   0.610  0.00  0.00     0.006 A 
ATOM      3  C4  UNL d   1       0.137   1.209  -0.058  0.00  0.00     0.002 A 
ATOM      4  C5  UNL d   1      -0.918   0.292  -0.006  0.00  0.00    -0.080 A 
ATOM      5  C6  UNL d   1      -2.221   0.574  -0.693  0.00  0.00     0.076 C 
ATOM      6  C7  UNL d   1      -0.747  -0.901   0.704  0.00  0.00     0.002 A 
ATOM      7  C8  UNL d   1       0.452  -1.162   1.371  0.00  0.00     0.006 A 
ENDROOT
BRANCH   1   8
ATOM      8  C1  UNL d   1       2.769  -0.493   2.109  0.00  0.00     0.054 C 
ATOM      9  C   UNL d   1       2.510  -1.377   3.320  0.00  0.00     0.018 C 
ENDBRANCH   1   8
TORSDOF 1
ENDMDL
