MODEL 1
REMARK minimizedAffinity -3.42537808
REMARK minimizedRMSD -1
REMARK  1 active torsions:
REMARK  status: ('A' for Active; 'I' for Inactive)
REMARK    1  A    between atoms: C1_2  and  C2_3 
ROOT
ATOM      1  C2  UNL d   1      -1.382   0.609  -1.262  0.00  0.00    -0.081 A 
ATOM      2  C3  UNL d   1      -0.643   1.793  -1.377  0.00  0.00     0.006 A 
ATOM      3  C4  UNL d   1       0.512   1.985  -0.615  0.00  0.00     0.002 A 
ATOM      4  C5  UNL d   1       0.951   0.993   0.269  0.00  0.00    -0.080 A 
ATOM      5  C6  UNL d   1       2.206   1.173   1.071  0.00  0.00     0.076 C 
ATOM      6  C7  UNL d   1       0.204  -0.182   0.397  0.00  0.00     0.002 A 
ATOM      7  C8  UNL d   1      -0.952  -0.374  -0.364  0.00  0.00     0.006 A 
ENDROOT
BRANCH   1   8
ATOM      8  C1  UNL d   1      -2.592   0.373  -2.130  0.00  0.00     0.054 C 
ATOM      9  C   UNL d   1      -2.558  -1.012  -2.760  0.00  0.00     0.018 C 
ENDBRANCH   1   8
TORSDOF 1
ENDMDL
