MODEL 1
REMARK minimizedAffinity -4.7863555
REMARK minimizedRMSD -1
REMARK  1 active torsions:
REMARK  status: ('A' for Active; 'I' for Inactive)
REMARK    1  A    between atoms: C1_2  and  C2_3 
ROOT
ATOM      1  C2  UNL d   1       1.098  -0.970   1.452  0.00  0.00    -0.081 A 
ATOM      2  C3  UNL d   1      -0.035  -1.792   1.462  0.00  0.00     0.006 A 
ATOM      3  C4  UNL d   1      -1.135  -1.493   0.654  0.00  0.00     0.002 A 
ATOM      4  C5  UNL d   1      -1.116  -0.372  -0.182  0.00  0.00    -0.080 A 
ATOM      5  C6  UNL d   1      -2.278  -0.056  -1.077  0.00  0.00     0.076 C 
ATOM      6  C7  UNL d   1       0.009   0.460  -0.179  0.00  0.00     0.002 A 
ATOM      7  C8  UNL d   1       1.108   0.162   0.629  0.00  0.00     0.006 A 
ENDROOT
BRANCH   1   8
ATOM      8  C1  UNL d   1       2.311  -1.325   2.274  0.00  0.00     0.054 C 
ATOM      9  C   UNL d   1       3.554  -0.609   1.765  0.00  0.00     0.018 C 
ENDBRANCH   1   8
TORSDOF 1
ENDMDL
