MODEL 1
REMARK minimizedAffinity 0.285603076
REMARK minimizedRMSD -1
REMARK  0 active torsions:
REMARK  status: ('A' for Active; 'I' for Inactive)
ROOT
ATOM      1  C   UNL d   1       0.324   2.630  -3.738  0.00  0.00     0.124 A 
ATOM      2  C1  UNL d   1      -0.432   3.233  -2.742  0.00  0.00     0.062 A 
ATOM      3  C2  UNL d   1      -0.791   2.516  -1.605  0.00  0.00     0.162 A 
ATOM      4  C3  UNL d   1      -0.394   1.187  -1.456  0.00  0.00    -0.034 A 
ATOM      5  C4  UNL d   1       0.365   0.587  -2.462  0.00  0.00     0.162 A 
ATOM      6  C5  UNL d   1       0.722   1.308  -3.597  0.00  0.00     0.062 A 
ATOM      7  F   UNL d   1       1.452   0.724  -4.558  0.00  0.00    -0.097 F 
ATOM      8  F1  UNL d   1       0.764  -0.689  -2.351  0.00  0.00    -0.096 F 
ATOM      9  I   UNL d   1      -0.930   0.112   0.244  0.00  0.00    -0.060 I 
ATOM     10  F2  UNL d   1      -1.522   3.124  -0.659  0.00  0.00    -0.096 F 
ATOM     11  F3  UNL d   1      -0.818   4.510  -2.876  0.00  0.00    -0.097 F 
ATOM     12  F4  UNL d   1       0.667   3.322  -4.832  0.00  0.00    -0.092 F 
ENDROOT
TORSDOF 0
ENDMDL
