MODEL 1
REMARK minimizedAffinity 2.92960358
REMARK minimizedRMSD -1
REMARK  0 active torsions:
REMARK  status: ('A' for Active; 'I' for Inactive)
ROOT
ATOM      1  C   UNL d   1      -0.220   0.551   0.031  0.00  0.00     0.124 A 
ATOM      2  C1  UNL d   1       0.726   0.326   1.022  0.00  0.00     0.062 A 
ATOM      3  C2  UNL d   1       0.552  -0.713   1.932  0.00  0.00     0.162 A 
ATOM      4  C3  UNL d   1      -0.572  -1.535   1.856  0.00  0.00    -0.034 A 
ATOM      5  C4  UNL d   1      -1.520  -1.301   0.858  0.00  0.00     0.162 A 
ATOM      6  C5  UNL d   1      -1.342  -0.262  -0.050  0.00  0.00     0.062 A 
ATOM      7  F   UNL d   1      -2.257  -0.045  -1.006  0.00  0.00    -0.097 F 
ATOM      8  F1  UNL d   1      -2.612  -2.072   0.756  0.00  0.00    -0.096 F 
ATOM      9  I   UNL d   1      -0.835  -3.089   3.215  0.00  0.00    -0.060 I 
ATOM     10  F2  UNL d   1       1.483  -0.908   2.878  0.00  0.00    -0.096 F 
ATOM     11  F3  UNL d   1       1.810   1.111   1.103  0.00  0.00    -0.097 F 
ATOM     12  F4  UNL d   1      -0.051   1.552  -0.842  0.00  0.00    -0.092 F 
ENDROOT
TORSDOF 0
ENDMDL
