MODEL 1
REMARK minimizedAffinity -0.968040705
REMARK minimizedRMSD -1
REMARK  0 active torsions:
REMARK  status: ('A' for Active; 'I' for Inactive)
ROOT
ATOM      1  C   UNL d   1       0.354  -1.533   1.274  0.00  0.00     0.124 A 
ATOM      2  C1  UNL d   1       0.987  -1.601   0.041  0.00  0.00     0.062 A 
ATOM      3  C2  UNL d   1       0.702  -0.662  -0.945  0.00  0.00     0.162 A 
ATOM      4  C3  UNL d   1      -0.220   0.356  -0.703  0.00  0.00    -0.034 A 
ATOM      5  C4  UNL d   1      -0.854   0.418   0.540  0.00  0.00     0.162 A 
ATOM      6  C5  UNL d   1      -0.566  -0.523   1.522  0.00  0.00     0.062 A 
ATOM      7  F   UNL d   1      -1.179  -0.455   2.713  0.00  0.00    -0.097 F 
ATOM      8  F1  UNL d   1      -1.746   1.383   0.806  0.00  0.00    -0.096 F 
ATOM      9  I   UNL d   1      -0.649   1.762  -2.176  0.00  0.00    -0.060 I 
ATOM     10  F2  UNL d   1       1.329  -0.753  -2.128  0.00  0.00    -0.096 F 
ATOM     11  F3  UNL d   1       1.876  -2.576  -0.201  0.00  0.00    -0.097 F 
ATOM     12  F4  UNL d   1       0.629  -2.438   2.222  0.00  0.00    -0.092 F 
ENDROOT
TORSDOF 0
ENDMDL
