MODEL 1
REMARK minimizedAffinity -2.0520947
REMARK minimizedRMSD -1
REMARK  0 active torsions:
REMARK  status: ('A' for Active; 'I' for Inactive)
ROOT
ATOM      1  C   UNL d   1      -0.970  -0.008  -0.908  0.00  0.00     0.124 A 
ATOM      2  C1  UNL d   1      -1.611   0.023   0.322  0.00  0.00     0.062 A 
ATOM      3  C2  UNL d   1      -0.888  -0.184   1.493  0.00  0.00     0.162 A 
ATOM      4  C3  UNL d   1       0.485  -0.424   1.440  0.00  0.00    -0.034 A 
ATOM      5  C4  UNL d   1       1.123  -0.455   0.199  0.00  0.00     0.162 A 
ATOM      6  C5  UNL d   1       0.396  -0.247  -0.969  0.00  0.00     0.062 A 
ATOM      7  F   UNL d   1       1.017  -0.278  -2.157  0.00  0.00    -0.097 F 
ATOM      8  F1  UNL d   1       2.442  -0.683   0.111  0.00  0.00    -0.096 F 
ATOM      9  I   UNL d   1       1.570  -0.734   3.189  0.00  0.00    -0.060 I 
ATOM     10  F2  UNL d   1      -1.533  -0.148   2.669  0.00  0.00    -0.096 F 
ATOM     11  F3  UNL d   1      -2.930   0.253   0.383  0.00  0.00    -0.097 F 
ATOM     12  F4  UNL d   1      -1.668   0.190  -2.034  0.00  0.00    -0.092 F 
ENDROOT
TORSDOF 0
ENDMDL
