MODEL 1
REMARK minimizedAffinity 5.17313719
REMARK minimizedRMSD -1
REMARK  0 active torsions:
REMARK  status: ('A' for Active; 'I' for Inactive)
ROOT
ATOM      1  C   UNL d   1      -1.008   2.225  -2.717  0.00  0.00     0.124 A 
ATOM      2  C1  UNL d   1      -1.740   1.093  -2.388  0.00  0.00     0.062 A 
ATOM      3  C2  UNL d   1      -1.286   0.230  -1.395  0.00  0.00     0.162 A 
ATOM      4  C3  UNL d   1      -0.093   0.495  -0.723  0.00  0.00    -0.034 A 
ATOM      5  C4  UNL d   1       0.639   1.635  -1.061  0.00  0.00     0.162 A 
ATOM      6  C5  UNL d   1       0.181   2.495  -2.053  0.00  0.00     0.062 A 
ATOM      7  F   UNL d   1       0.890   3.588  -2.370  0.00  0.00    -0.097 F 
ATOM      8  F1  UNL d   1       1.791   1.920  -0.435  0.00  0.00    -0.096 F 
ATOM      9  I   UNL d   1       0.590  -0.794   0.761  0.00  0.00    -0.060 I 
ATOM     10  F2  UNL d   1      -2.015  -0.857  -1.097  0.00  0.00    -0.096 F 
ATOM     11  F3  UNL d   1      -2.889   0.830  -3.028  0.00  0.00    -0.097 F 
ATOM     12  F4  UNL d   1      -1.446   3.054  -3.673  0.00  0.00    -0.092 F 
ENDROOT
TORSDOF 0
ENDMDL
