MODEL 1
REMARK minimizedAffinity 1.07056403
REMARK minimizedRMSD -1
REMARK  0 active torsions:
REMARK  status: ('A' for Active; 'I' for Inactive)
ROOT
ATOM      1  C   UNL d   1      -0.340  -0.594   1.717  0.00  0.00     0.124 A 
ATOM      2  C1  UNL d   1      -1.197  -0.716   0.632  0.00  0.00     0.062 A 
ATOM      3  C2  UNL d   1      -1.062   0.131  -0.465  0.00  0.00     0.162 A 
ATOM      4  C3  UNL d   1      -0.065   1.107  -0.482  0.00  0.00    -0.034 A 
ATOM      5  C4  UNL d   1       0.792   1.224   0.614  0.00  0.00     0.162 A 
ATOM      6  C5  UNL d   1       0.653   0.375   1.707  0.00  0.00     0.062 A 
ATOM      7  F   UNL d   1       1.481   0.494   2.755  0.00  0.00    -0.097 F 
ATOM      8  F1  UNL d   1       1.761   2.151   0.630  0.00  0.00    -0.096 F 
ATOM      9  I   UNL d   1       0.140   2.374  -2.120  0.00  0.00    -0.060 I 
ATOM     10  F2  UNL d   1      -1.903  -0.009  -1.500  0.00  0.00    -0.096 F 
ATOM     11  F3  UNL d   1      -2.158  -1.651   0.640  0.00  0.00    -0.097 F 
ATOM     12  F4  UNL d   1      -0.473  -1.409   2.772  0.00  0.00    -0.092 F 
ENDROOT
TORSDOF 0
ENDMDL
