MODEL 1
REMARK minimizedAffinity 6.82325602
REMARK minimizedRMSD -1
REMARK  0 active torsions:
REMARK  status: ('A' for Active; 'I' for Inactive)
ROOT
ATOM      1  C   UNL d   1      -0.391   2.011  -2.420  0.00  0.00     0.124 A 
ATOM      2  C1  UNL d   1      -0.569   0.649  -2.219  0.00  0.00     0.062 A 
ATOM      3  C2  UNL d   1      -1.775   0.043  -2.558  0.00  0.00     0.162 A 
ATOM      4  C3  UNL d   1      -2.813   0.799  -3.104  0.00  0.00    -0.034 A 
ATOM      5  C4  UNL d   1      -2.627   2.168  -3.302  0.00  0.00     0.162 A 
ATOM      6  C5  UNL d   1      -1.420   2.769  -2.961  0.00  0.00     0.062 A 
ATOM      7  F   UNL d   1      -1.249   4.085  -3.156  0.00  0.00    -0.097 F 
ATOM      8  F1  UNL d   1      -3.604   2.924  -3.824  0.00  0.00    -0.096 F 
ATOM      9  I   UNL d   1      -4.618  -0.103  -3.613  0.00  0.00    -0.060 I 
ATOM     10  F2  UNL d   1      -1.919  -1.274  -2.353  0.00  0.00    -0.096 F 
ATOM     11  F3  UNL d   1       0.423  -0.085  -1.695  0.00  0.00    -0.097 F 
ATOM     12  F4  UNL d   1       0.770   2.592  -2.091  0.00  0.00    -0.092 F 
ENDROOT
TORSDOF 0
ENDMDL
