MODEL 1
REMARK minimizedAffinity 0.432264268
REMARK minimizedRMSD -1
REMARK  0 active torsions:
REMARK  status: ('A' for Active; 'I' for Inactive)
ROOT
ATOM      1  C   UNL d   1      -0.618  -0.350   2.543  0.00  0.00     0.124 A 
ATOM      2  C1  UNL d   1       0.640  -0.644   2.037  0.00  0.00     0.062 A 
ATOM      3  C2  UNL d   1       0.965  -0.303   0.727  0.00  0.00     0.162 A 
ATOM      4  C3  UNL d   1       0.030   0.338  -0.085  0.00  0.00    -0.034 A 
ATOM      5  C4  UNL d   1      -1.234   0.630   0.431  0.00  0.00     0.162 A 
ATOM      6  C5  UNL d   1      -1.554   0.286   1.740  0.00  0.00     0.062 A 
ATOM      7  F   UNL d   1      -2.770   0.571   2.228  0.00  0.00    -0.097 F 
ATOM      8  F1  UNL d   1      -2.157   1.245  -0.323  0.00  0.00    -0.096 F 
ATOM      9  I   UNL d   1       0.512   0.850  -2.044  0.00  0.00    -0.060 I 
ATOM     10  F2  UNL d   1       2.189  -0.599   0.264  0.00  0.00    -0.096 F 
ATOM     11  F3  UNL d   1       1.546  -1.260   2.811  0.00  0.00    -0.097 F 
ATOM     12  F4  UNL d   1      -0.928  -0.680   3.804  0.00  0.00    -0.092 F 
ENDROOT
TORSDOF 0
ENDMDL
