MODEL 1
REMARK minimizedAffinity -3.36604452
REMARK minimizedRMSD -1
REMARK  0 active torsions:
REMARK  status: ('A' for Active; 'I' for Inactive)
ROOT
ATOM      1  C   UNL d   1       1.149  -0.823   2.373  0.00  0.00     0.124 A 
ATOM      2  C1  UNL d   1       1.917  -0.825   1.217  0.00  0.00     0.062 A 
ATOM      3  C2  UNL d   1       1.359  -0.430   0.005  0.00  0.00     0.162 A 
ATOM      4  C3  UNL d   1       0.024  -0.028  -0.058  0.00  0.00    -0.034 A 
ATOM      5  C4  UNL d   1      -0.742  -0.030   1.109  0.00  0.00     0.162 A 
ATOM      6  C5  UNL d   1      -0.180  -0.426   2.318  0.00  0.00     0.062 A 
ATOM      7  F   UNL d   1      -0.923  -0.424   3.434  0.00  0.00    -0.097 F 
ATOM      8  F1  UNL d   1      -2.028   0.350   1.085  0.00  0.00    -0.096 F 
ATOM      9  I   UNL d   1      -0.815   0.563  -1.868  0.00  0.00    -0.060 I 
ATOM     10  F2  UNL d   1       2.124  -0.442  -1.097  0.00  0.00    -0.096 F 
ATOM     11  F3  UNL d   1       3.201  -1.210   1.267  0.00  0.00    -0.097 F 
ATOM     12  F4  UNL d   1       1.688  -1.205   3.538  0.00  0.00    -0.092 F 
ENDROOT
TORSDOF 0
ENDMDL
