MODEL 1
REMARK minimizedAffinity 1.24573815
REMARK minimizedRMSD -1
REMARK  0 active torsions:
REMARK  status: ('A' for Active; 'I' for Inactive)
ROOT
ATOM      1  C   UNL d   1       0.598  -0.498   1.116  0.00  0.00     0.124 A 
ATOM      2  C1  UNL d   1       0.918  -0.475  -0.234  0.00  0.00     0.062 A 
ATOM      3  C2  UNL d   1       0.413   0.527  -1.057  0.00  0.00     0.162 A 
ATOM      4  C3  UNL d   1      -0.419   1.516  -0.531  0.00  0.00    -0.034 A 
ATOM      5  C4  UNL d   1      -0.738   1.486   0.827  0.00  0.00     0.162 A 
ATOM      6  C5  UNL d   1      -0.230   0.482   1.645  0.00  0.00     0.062 A 
ATOM      7  F   UNL d   1      -0.541   0.462   2.950  0.00  0.00    -0.097 F 
ATOM      8  F1  UNL d   1      -1.534   2.421   1.366  0.00  0.00    -0.096 F 
ATOM      9  I   UNL d   1      -1.177   3.017  -1.758  0.00  0.00    -0.060 I 
ATOM     10  F2  UNL d   1       0.739   0.525  -2.358  0.00  0.00    -0.096 F 
ATOM     11  F3  UNL d   1       1.717  -1.421  -0.748  0.00  0.00    -0.097 F 
ATOM     12  F4  UNL d   1       1.085  -1.464   1.905  0.00  0.00    -0.092 F 
ENDROOT
TORSDOF 0
ENDMDL
