MODEL 1
REMARK minimizedAffinity -0.14669545
REMARK minimizedRMSD -1
REMARK  0 active torsions:
REMARK  status: ('A' for Active; 'I' for Inactive)
ROOT
ATOM      1  C   UNL d   1      -0.246   0.963  -1.776  0.00  0.00     0.124 A 
ATOM      2  C1  UNL d   1       0.268  -0.303  -1.535  0.00  0.00     0.062 A 
ATOM      3  C2  UNL d   1       0.535  -0.714  -0.232  0.00  0.00     0.162 A 
ATOM      4  C3  UNL d   1       0.287   0.142   0.841  0.00  0.00    -0.034 A 
ATOM      5  C4  UNL d   1      -0.229   1.414   0.591  0.00  0.00     0.162 A 
ATOM      6  C5  UNL d   1      -0.494   1.821  -0.713  0.00  0.00     0.062 A 
ATOM      7  F   UNL d   1      -0.991   3.045  -0.944  0.00  0.00    -0.097 F 
ATOM      8  F1  UNL d   1      -0.480   2.263   1.599  0.00  0.00    -0.096 F 
ATOM      9  I   UNL d   1       0.684  -0.470   2.790  0.00  0.00    -0.060 I 
ATOM     10  F2  UNL d   1       1.032  -1.944  -0.029  0.00  0.00    -0.096 F 
ATOM     11  F3  UNL d   1       0.510  -1.133  -2.560  0.00  0.00    -0.097 F 
ATOM     12  F4  UNL d   1      -0.500   1.357  -3.030  0.00  0.00    -0.092 F 
ENDROOT
TORSDOF 0
ENDMDL
