MODEL 1
REMARK minimizedAffinity 1.03441358
REMARK minimizedRMSD -1
REMARK  0 active torsions:
REMARK  status: ('A' for Active; 'I' for Inactive)
ROOT
ATOM      1  C   UNL d   1      -5.993  -1.399   4.776  0.00  0.00     0.078 C 
ATOM      2  C1  UNL d   1      -5.411  -0.890   3.491  0.00  0.00    -0.077 A 
ATOM      3  C2  UNL d   1      -6.000   0.181   2.807  0.00  0.00    -0.001 A 
ATOM      4  C3  UNL d   1      -5.453   0.638   1.607  0.00  0.00     0.003 A 
ATOM      5  C4  UNL d   1      -4.315   0.030   1.080  0.00  0.00    -0.005 A 
ATOM      6  C5  UNL d   1      -3.724  -1.038   1.752  0.00  0.00     0.003 A 
ATOM      7  C6  UNL d   1      -4.270  -1.497   2.952  0.00  0.00    -0.001 A 
ENDROOT
TORSDOF 0
ENDMDL
