MODEL 1
REMARK minimizedAffinity 1.16406083
REMARK minimizedRMSD -1
REMARK  0 active torsions:
REMARK  status: ('A' for Active; 'I' for Inactive)
ROOT
ATOM      1  C   UNL d   1      -4.432   0.008   0.816  0.00  0.00     0.078 C 
ATOM      2  C1  UNL d   1      -4.762  -0.681   2.106  0.00  0.00    -0.077 A 
ATOM      3  C2  UNL d   1      -4.180  -1.911   2.436  0.00  0.00    -0.001 A 
ATOM      4  C3  UNL d   1      -4.504  -2.546   3.636  0.00  0.00     0.003 A 
ATOM      5  C4  UNL d   1      -5.413  -1.960   4.514  0.00  0.00    -0.005 A 
ATOM      6  C5  UNL d   1      -6.000  -0.738   4.193  0.00  0.00     0.003 A 
ATOM      7  C6  UNL d   1      -5.677  -0.101   2.994  0.00  0.00    -0.001 A 
ENDROOT
TORSDOF 0
ENDMDL
