MODEL 1
REMARK minimizedAffinity 8.28286076
REMARK minimizedRMSD -1
REMARK  0 active torsions:
REMARK  status: ('A' for Active; 'I' for Inactive)
ROOT
ATOM      1  C   UNL d   1      -4.875   0.141  -0.342  0.00  0.00     0.078 C 
ATOM      2  C1  UNL d   1      -5.257  -0.098   1.088  0.00  0.00    -0.077 A 
ATOM      3  C2  UNL d   1      -5.259  -1.390   1.627  0.00  0.00    -0.001 A 
ATOM      4  C3  UNL d   1      -5.627  -1.599   2.957  0.00  0.00     0.003 A 
ATOM      5  C4  UNL d   1      -5.996  -0.521   3.759  0.00  0.00    -0.005 A 
ATOM      6  C5  UNL d   1      -5.999   0.768   3.231  0.00  0.00     0.003 A 
ATOM      7  C6  UNL d   1      -5.632   0.979   1.901  0.00  0.00    -0.001 A 
ENDROOT
TORSDOF 0
ENDMDL
