MODEL 1
REMARK minimizedAffinity 3.7805016
REMARK minimizedRMSD -1
REMARK  0 active torsions:
REMARK  status: ('A' for Active; 'I' for Inactive)
ROOT
ATOM      1  C   UNL d   1      -4.153   0.770   2.003  0.00  0.00     0.078 C 
ATOM      2  C1  UNL d   1      -4.533  -0.344   2.933  0.00  0.00    -0.077 A 
ATOM      3  C2  UNL d   1      -3.815  -1.546   2.950  0.00  0.00    -0.001 A 
ATOM      4  C3  UNL d   1      -4.186  -2.577   3.814  0.00  0.00     0.003 A 
ATOM      5  C4  UNL d   1      -5.277  -2.418   4.666  0.00  0.00    -0.005 A 
ATOM      6  C5  UNL d   1      -5.999  -1.227   4.654  0.00  0.00     0.003 A 
ATOM      7  C6  UNL d   1      -5.630  -0.194   3.791  0.00  0.00    -0.001 A 
ENDROOT
TORSDOF 0
ENDMDL
