MODEL 1
REMARK minimizedAffinity 4.59694815
REMARK minimizedRMSD -1
REMARK  0 active torsions:
REMARK  status: ('A' for Active; 'I' for Inactive)
ROOT
ATOM      1  C   UNL d   1      -0.114   3.127  -0.618  0.00  0.00     0.078 C 
ATOM      2  C1  UNL d   1      -0.273   2.424   0.697  0.00  0.00    -0.077 A 
ATOM      3  C2  UNL d   1      -1.526   2.322   1.313  0.00  0.00    -0.001 A 
ATOM      4  C3  UNL d   1      -1.657   1.673   2.542  0.00  0.00     0.003 A 
ATOM      5  C4  UNL d   1      -0.539   1.124   3.167  0.00  0.00    -0.005 A 
ATOM      6  C5  UNL d   1       0.713   1.223   2.562  0.00  0.00     0.003 A 
ATOM      7  C6  UNL d   1       0.846   1.871   1.333  0.00  0.00    -0.001 A 
ENDROOT
TORSDOF 0
ENDMDL
