MODEL 1
REMARK minimizedAffinity 1.28595555
REMARK minimizedRMSD -1
REMARK  0 active torsions:
REMARK  status: ('A' for Active; 'I' for Inactive)
ROOT
ATOM      1  C   UNL d   1      -0.299   5.990  -5.172  0.00  0.00     0.078 C 
ATOM      2  C1  UNL d   1      -1.716   5.582  -4.900  0.00  0.00    -0.077 A 
ATOM      3  C2  UNL d   1      -2.361   5.961  -3.716  0.00  0.00    -0.001 A 
ATOM      4  C3  UNL d   1      -3.677   5.565  -3.472  0.00  0.00     0.003 A 
ATOM      5  C4  UNL d   1      -4.359   4.788  -4.406  0.00  0.00    -0.005 A 
ATOM      6  C5  UNL d   1      -3.724   4.404  -5.586  0.00  0.00     0.003 A 
ATOM      7  C6  UNL d   1      -2.408   4.799  -5.832  0.00  0.00    -0.001 A 
ENDROOT
TORSDOF 0
ENDMDL
