MODEL 1
REMARK minimizedAffinity 1.41136038
REMARK minimizedRMSD -1
REMARK  0 active torsions:
REMARK  status: ('A' for Active; 'I' for Inactive)
ROOT
ATOM      1  C   UNL d   1      -1.687  -5.048  -5.222  0.00  0.00     0.078 C 
ATOM      2  C1  UNL d   1      -3.187  -5.056  -5.219  0.00  0.00    -0.077 A 
ATOM      3  C2  UNL d   1      -3.902  -5.998  -4.470  0.00  0.00    -0.001 A 
ATOM      4  C3  UNL d   1      -5.298  -6.000  -4.484  0.00  0.00     0.003 A 
ATOM      5  C4  UNL d   1      -5.990  -5.062  -5.247  0.00  0.00    -0.005 A 
ATOM      6  C5  UNL d   1      -5.288  -4.122  -5.998  0.00  0.00     0.003 A 
ATOM      7  C6  UNL d   1      -3.892  -4.119  -5.985  0.00  0.00    -0.001 A 
ENDROOT
TORSDOF 0
ENDMDL
