MODEL 1
REMARK minimizedAffinity -3.55995154
REMARK minimizedRMSD -1
REMARK  0 active torsions:
REMARK  status: ('A' for Active; 'I' for Inactive)
ROOT
ATOM      1  C   UNL d   1      -1.852   1.582   1.736  0.00  0.00     0.023 A 
ATOM      2  C1  UNL d   1      -1.304   1.958   0.510  0.00  0.00     0.003 A 
ATOM      3  C2  UNL d   1      -0.609   1.024  -0.262  0.00  0.00     0.048 A 
ATOM      4  C3  UNL d   1      -0.468  -0.285   0.198  0.00  0.00     0.023 A 
ATOM      5  C4  UNL d   1      -1.016  -0.666   1.424  0.00  0.00     0.048 A 
ATOM      6  C5  UNL d   1      -1.709   0.272   2.192  0.00  0.00     0.003 A 
ATOM      7  I   UNL d   1       0.564  -1.677  -0.949  0.00  0.00    -0.146 I 
ENDROOT
TORSDOF 0
ENDMDL
