MODEL 1
REMARK minimizedAffinity -2.68283153
REMARK minimizedRMSD -1
REMARK  0 active torsions:
REMARK  status: ('A' for Active; 'I' for Inactive)
ROOT
ATOM      1  C   UNL d   1      -1.148   3.010   1.722  0.00  0.00     0.023 A 
ATOM      2  C1  UNL d   1      -0.455   3.264   0.538  0.00  0.00     0.003 A 
ATOM      3  C2  UNL d   1       0.053   2.204  -0.216  0.00  0.00     0.048 A 
ATOM      4  C3  UNL d   1      -0.136   0.893   0.219  0.00  0.00     0.023 A 
ATOM      5  C4  UNL d   1      -0.829   0.634   1.402  0.00  0.00     0.048 A 
ATOM      6  C5  UNL d   1      -1.334   1.696   2.154  0.00  0.00     0.003 A 
ATOM      7  I   UNL d   1       0.619  -0.686  -0.902  0.00  0.00    -0.146 I 
ENDROOT
TORSDOF 0
ENDMDL
