MODEL 1
REMARK minimizedAffinity -4.10962868
REMARK minimizedRMSD -1
REMARK  0 active torsions:
REMARK  status: ('A' for Active; 'I' for Inactive)
ROOT
ATOM      1  C   UNL d   1      -1.410   1.257   1.768  0.00  0.00     0.023 A 
ATOM      2  C1  UNL d   1      -0.978   0.005   2.208  0.00  0.00     0.003 A 
ATOM      3  C2  UNL d   1      -0.250  -0.824   1.352  0.00  0.00     0.048 A 
ATOM      4  C3  UNL d   1       0.045  -0.395   0.059  0.00  0.00     0.023 A 
ATOM      5  C4  UNL d   1      -0.384   0.857  -0.386  0.00  0.00     0.048 A 
ATOM      6  C5  UNL d   1      -1.113   1.682   0.473  0.00  0.00     0.003 A 
ATOM      7  I   UNL d   1       1.129  -1.627  -1.217  0.00  0.00    -0.146 I 
ENDROOT
TORSDOF 0
ENDMDL
