MODEL 1
REMARK minimizedAffinity -4.27511263
REMARK minimizedRMSD -1
REMARK  0 active torsions:
REMARK  status: ('A' for Active; 'I' for Inactive)
ROOT
ATOM      1  C   UNL d   1      -1.328   2.034   1.621  0.00  0.00     0.023 A 
ATOM      2  C1  UNL d   1      -0.758   0.908   2.216  0.00  0.00     0.003 A 
ATOM      3  C2  UNL d   1      -0.304  -0.148   1.424  0.00  0.00     0.048 A 
ATOM      4  C3  UNL d   1      -0.421  -0.072   0.036  0.00  0.00     0.023 A 
ATOM      5  C4  UNL d   1      -0.990   1.053  -0.564  0.00  0.00     0.048 A 
ATOM      6  C5  UNL d   1      -1.444   2.106   0.232  0.00  0.00     0.003 A 
ATOM      7  I   UNL d   1       0.254  -1.642  -1.145  0.00  0.00    -0.146 I 
ENDROOT
TORSDOF 0
ENDMDL
