MODEL 1
REMARK minimizedAffinity -3.12888432
REMARK minimizedRMSD -1
REMARK  0 active torsions:
REMARK  status: ('A' for Active; 'I' for Inactive)
ROOT
ATOM      1  C   UNL d   1      -2.218   2.896   1.539  0.00  0.00     0.023 A 
ATOM      2  C1  UNL d   1      -2.279   1.623   2.105  0.00  0.00     0.003 A 
ATOM      3  C2  UNL d   1      -1.487   0.592   1.596  0.00  0.00     0.048 A 
ATOM      4  C3  UNL d   1      -0.636   0.841   0.520  0.00  0.00     0.023 A 
ATOM      5  C4  UNL d   1      -0.571   2.114  -0.050  0.00  0.00     0.048 A 
ATOM      6  C5  UNL d   1      -1.365   3.141   0.463  0.00  0.00     0.003 A 
ATOM      7  I   UNL d   1       0.544  -0.692  -0.241  0.00  0.00    -0.146 I 
ENDROOT
TORSDOF 0
ENDMDL
