MODEL 1
REMARK minimizedAffinity -2.97305942
REMARK minimizedRMSD -1
REMARK  0 active torsions:
REMARK  status: ('A' for Active; 'I' for Inactive)
ROOT
ATOM      1  C   UNL d   1       0.823  -3.995  -2.566  0.00  0.00     0.023 A 
ATOM      2  C1  UNL d   1       1.791  -3.018  -2.330  0.00  0.00     0.003 A 
ATOM      3  C2  UNL d   1       1.485  -1.906  -1.543  0.00  0.00     0.048 A 
ATOM      4  C3  UNL d   1       0.209  -1.776  -0.996  0.00  0.00     0.023 A 
ATOM      5  C4  UNL d   1      -0.762  -2.751  -1.229  0.00  0.00     0.048 A 
ATOM      6  C5  UNL d   1      -0.452  -3.861  -2.017  0.00  0.00     0.003 A 
ATOM      7  I   UNL d   1      -0.249  -0.121   0.175  0.00  0.00    -0.146 I 
ENDROOT
TORSDOF 0
ENDMDL
