MODEL 1
REMARK minimizedAffinity -4.01076698
REMARK minimizedRMSD -1
REMARK  0 active torsions:
REMARK  status: ('A' for Active; 'I' for Inactive)
ROOT
ATOM      1  C   UNL d   1      -1.548   3.625   0.896  0.00  0.00     0.023 A 
ATOM      2  C1  UNL d   1      -0.628   3.767  -0.144  0.00  0.00     0.003 A 
ATOM      3  C2  UNL d   1       0.046   2.648  -0.638  0.00  0.00     0.048 A 
ATOM      4  C3  UNL d   1      -0.204   1.391  -0.089  0.00  0.00     0.023 A 
ATOM      5  C4  UNL d   1      -1.124   1.245   0.951  0.00  0.00     0.048 A 
ATOM      6  C5  UNL d   1      -1.795   2.366   1.442  0.00  0.00     0.003 A 
ATOM      7  I   UNL d   1       0.799  -0.275  -0.823  0.00  0.00    -0.146 I 
ENDROOT
TORSDOF 0
ENDMDL
