MODEL 1
REMARK minimizedAffinity -3.75173569
REMARK minimizedRMSD -1
REMARK  0 active torsions:
REMARK  status: ('A' for Active; 'I' for Inactive)
ROOT
ATOM      1  C   UNL d   1      -1.155  -0.458   1.641  0.00  0.00     0.023 A 
ATOM      2  C1  UNL d   1      -0.083  -0.363   0.752  0.00  0.00     0.003 A 
ATOM      3  C2  UNL d   1       0.151   0.829   0.064  0.00  0.00     0.048 A 
ATOM      4  C3  UNL d   1      -0.688   1.923   0.270  0.00  0.00     0.023 A 
ATOM      5  C4  UNL d   1      -1.761   1.833   1.159  0.00  0.00     0.048 A 
ATOM      6  C5  UNL d   1      -1.992   0.639   1.844  0.00  0.00     0.003 A 
ATOM      7  I   UNL d   1      -0.340   3.698  -0.753  0.00  0.00    -0.146 I 
ENDROOT
TORSDOF 0
ENDMDL
