MODEL 1
REMARK minimizedAffinity -4.41717911
REMARK minimizedRMSD -1
REMARK  0 active torsions:
REMARK  status: ('A' for Active; 'I' for Inactive)
ROOT
ATOM      1  C   UNL d   1      -1.706   3.218   1.058  0.00  0.00     0.023 A 
ATOM      2  C1  UNL d   1      -1.883   1.975   1.666  0.00  0.00     0.003 A 
ATOM      3  C2  UNL d   1      -1.177   0.863   1.203  0.00  0.00     0.048 A 
ATOM      4  C3  UNL d   1      -0.294   1.002   0.133  0.00  0.00     0.023 A 
ATOM      5  C4  UNL d   1      -0.113   2.243  -0.479  0.00  0.00     0.048 A 
ATOM      6  C5  UNL d   1      -0.823   3.352  -0.013  0.00  0.00     0.003 A 
ATOM      7  I   UNL d   1       0.759  -0.652  -0.558  0.00  0.00    -0.146 I 
ENDROOT
TORSDOF 0
ENDMDL
