MODEL 1
REMARK minimizedAffinity -1.19523036
REMARK minimizedRMSD -1
REMARK  0 active torsions:
REMARK  status: ('A' for Active; 'I' for Inactive)
ROOT
ATOM      1  C   UNL d   1       1.141  -1.179  -0.386  0.00  0.00     0.023 A 
ATOM      2  C1  UNL d   1       0.776  -0.014  -1.062  0.00  0.00     0.003 A 
ATOM      3  C2  UNL d   1       0.031   0.969  -0.408  0.00  0.00     0.048 A 
ATOM      4  C3  UNL d   1      -0.345   0.782   0.922  0.00  0.00     0.023 A 
ATOM      5  C4  UNL d   1       0.019  -0.381   1.602  0.00  0.00     0.048 A 
ATOM      6  C5  UNL d   1       0.763  -1.362   0.944  0.00  0.00     0.003 A 
ATOM      7  I   UNL d   1      -1.453   2.245   1.898  0.00  0.00    -0.146 I 
ENDROOT
TORSDOF 0
ENDMDL
