MODEL 1
REMARK minimizedAffinity -4.16970682
REMARK minimizedRMSD -1
REMARK  0 active torsions:
REMARK  status: ('A' for Active; 'I' for Inactive)
ROOT
ATOM      1  C   UNL d   1      -1.523   2.422   1.782  0.00  0.00     0.023 A 
ATOM      2  C1  UNL d   1      -0.960   1.339   2.456  0.00  0.00     0.003 A 
ATOM      3  C2  UNL d   1      -0.385   0.289   1.737  0.00  0.00     0.048 A 
ATOM      4  C3  UNL d   1      -0.376   0.330   0.343  0.00  0.00     0.023 A 
ATOM      5  C4  UNL d   1      -0.937   1.413  -0.336  0.00  0.00     0.048 A 
ATOM      6  C5  UNL d   1      -1.511   2.460   0.388  0.00  0.00     0.003 A 
ATOM      7  I   UNL d   1       0.480  -1.230  -0.731  0.00  0.00    -0.146 I 
ENDROOT
TORSDOF 0
ENDMDL
