MODEL 1
REMARK minimizedAffinity -4.59813976
REMARK minimizedRMSD -1
REMARK  0 active torsions:
REMARK  status: ('A' for Active; 'I' for Inactive)
ROOT
ATOM      1  C   UNL d   1      -1.510   3.744   0.724  0.00  0.00     0.023 A 
ATOM      2  C1  UNL d   1      -0.486   3.696  -0.222  0.00  0.00     0.003 A 
ATOM      3  C2  UNL d   1       0.141   2.482  -0.514  0.00  0.00     0.048 A 
ATOM      4  C3  UNL d   1      -0.262   1.321   0.144  0.00  0.00     0.023 A 
ATOM      5  C4  UNL d   1      -1.287   1.364   1.090  0.00  0.00     0.048 A 
ATOM      6  C5  UNL d   1      -1.910   2.579   1.379  0.00  0.00     0.003 A 
ATOM      7  I   UNL d   1       0.669  -0.487  -0.289  0.00  0.00    -0.146 I 
ENDROOT
TORSDOF 0
ENDMDL
