MODEL 1
REMARK minimizedAffinity -4.94075298
REMARK minimizedRMSD -1
REMARK  0 active torsions:
REMARK  status: ('A' for Active; 'I' for Inactive)
ROOT
ATOM      1  C   UNL d   1      -1.917   2.980   1.130  0.00  0.00     0.023 A 
ATOM      2  C1  UNL d   1      -1.086   3.114   0.017  0.00  0.00     0.003 A 
ATOM      3  C2  UNL d   1      -0.400   2.005  -0.481  0.00  0.00     0.048 A 
ATOM      4  C3  UNL d   1      -0.551   0.764   0.136  0.00  0.00     0.023 A 
ATOM      5  C4  UNL d   1      -1.382   0.624   1.249  0.00  0.00     0.048 A 
ATOM      6  C5  UNL d   1      -2.065   1.736   1.744  0.00  0.00     0.003 A 
ATOM      7  I   UNL d   1       0.468  -0.889  -0.605  0.00  0.00    -0.146 I 
ENDROOT
TORSDOF 0
ENDMDL
