MODEL 1
REMARK minimizedAffinity -4.99366808
REMARK minimizedRMSD -1
REMARK  0 active torsions:
REMARK  status: ('A' for Active; 'I' for Inactive)
ROOT
ATOM      1  C   UNL d   1      -0.981   3.816   0.156  0.00  0.00     0.023 A 
ATOM      2  C1  UNL d   1      -1.564   3.326   1.325  0.00  0.00     0.003 A 
ATOM      3  C2  UNL d   1      -1.408   1.983   1.674  0.00  0.00     0.048 A 
ATOM      4  C3  UNL d   1      -0.668   1.135   0.851  0.00  0.00     0.023 A 
ATOM      5  C4  UNL d   1      -0.082   1.622  -0.319  0.00  0.00     0.048 A 
ATOM      6  C5  UNL d   1      -0.241   2.965  -0.665  0.00  0.00     0.003 A 
ATOM      7  I   UNL d   1      -0.434  -0.864   1.369  0.00  0.00    -0.146 I 
ENDROOT
TORSDOF 0
ENDMDL
