MODEL 1
REMARK minimizedAffinity -1.2234875
REMARK minimizedRMSD -1
REMARK  0 active torsions:
REMARK  status: ('A' for Active; 'I' for Inactive)
ROOT
ATOM      1  C   UNL d   1       0.067  -5.619  -5.200  0.00  0.00     0.023 A 
ATOM      2  C1  UNL d   1      -1.231  -5.890  -5.633  0.00  0.00     0.003 A 
ATOM      3  C2  UNL d   1      -2.269  -6.000  -4.705  0.00  0.00     0.048 A 
ATOM      4  C3  UNL d   1      -2.002  -5.836  -3.346  0.00  0.00     0.023 A 
ATOM      5  C4  UNL d   1      -0.705  -5.563  -2.909  0.00  0.00     0.048 A 
ATOM      6  C5  UNL d   1       0.330  -5.455  -3.840  0.00  0.00     0.003 A 
ATOM      7  I   UNL d   1      -3.545  -5.999  -1.963  0.00  0.00    -0.146 I 
ENDROOT
TORSDOF 0
ENDMDL
