MODEL 1
REMARK minimizedAffinity 2.19999385
REMARK minimizedRMSD -1
REMARK  0 active torsions:
REMARK  status: ('A' for Active; 'I' for Inactive)
ROOT
ATOM      1  C   UNL d   1       1.089  -5.986  -5.369  0.00  0.00     0.023 A 
ATOM      2  C1  UNL d   1       1.166  -5.986  -3.976  0.00  0.00     0.003 A 
ATOM      3  C2  UNL d   1      -0.002  -5.987  -3.211  0.00  0.00     0.048 A 
ATOM      4  C3  UNL d   1      -1.244  -5.990  -3.846  0.00  0.00     0.023 A 
ATOM      5  C4  UNL d   1      -1.326  -5.991  -5.239  0.00  0.00     0.048 A 
ATOM      6  C5  UNL d   1      -0.155  -5.989  -6.000  0.00  0.00     0.003 A 
ATOM      7  I   UNL d   1      -2.984  -5.991  -2.710  0.00  0.00    -0.146 I 
ENDROOT
TORSDOF 0
ENDMDL
