MODEL 1
REMARK minimizedAffinity -1.89594245
REMARK minimizedRMSD -1
REMARK  0 active torsions:
REMARK  status: ('A' for Active; 'I' for Inactive)
ROOT
ATOM      1  C   UNL d   1      -1.878  -5.717  -4.027  0.00  0.00     0.023 A 
ATOM      2  C1  UNL d   1      -0.896  -5.596  -3.043  0.00  0.00     0.003 A 
ATOM      3  C2  UNL d   1       0.454  -5.677  -3.389  0.00  0.00     0.048 A 
ATOM      4  C3  UNL d   1       0.816  -5.879  -4.721  0.00  0.00     0.023 A 
ATOM      5  C4  UNL d   1      -0.163  -6.000  -5.709  0.00  0.00     0.048 A 
ATOM      6  C5  UNL d   1      -1.512  -5.919  -5.358  0.00  0.00     0.003 A 
ATOM      7  I   UNL d   1       2.825  -6.000  -5.239  0.00  0.00    -0.146 I 
ENDROOT
TORSDOF 0
ENDMDL
