MODEL 1
REMARK minimizedAffinity -1.24820614
REMARK minimizedRMSD -1
REMARK  0 active torsions:
REMARK  status: ('A' for Active; 'I' for Inactive)
ROOT
ATOM      1  C   UNL d   1       1.167  -5.831  -5.117  0.00  0.00     0.023 A 
ATOM      2  C1  UNL d   1       0.084  -5.782  -5.995  0.00  0.00     0.003 A 
ATOM      3  C2  UNL d   1      -1.221  -5.830  -5.500  0.00  0.00     0.048 A 
ATOM      4  C3  UNL d   1      -1.435  -5.927  -4.125  0.00  0.00     0.023 A 
ATOM      5  C4  UNL d   1      -0.355  -5.976  -3.243  0.00  0.00     0.048 A 
ATOM      6  C5  UNL d   1       0.948  -5.928  -3.743  0.00  0.00     0.003 A 
ATOM      7  I   UNL d   1      -3.376  -5.999  -3.386  0.00  0.00    -0.146 I 
ENDROOT
TORSDOF 0
ENDMDL
