MODEL 1
REMARK minimizedAffinity 2.95338917
REMARK minimizedRMSD -1
REMARK  0 active torsions:
REMARK  status: ('A' for Active; 'I' for Inactive)
ROOT
ATOM      1  C   UNL d   1       1.666  -5.959  -5.561  0.00  0.00     0.023 A 
ATOM      2  C1  UNL d   1       1.958  -5.981  -4.197  0.00  0.00     0.003 A 
ATOM      3  C2  UNL d   1       0.922  -5.992  -3.260  0.00  0.00     0.048 A 
ATOM      4  C3  UNL d   1      -0.403  -5.982  -3.695  0.00  0.00     0.023 A 
ATOM      5  C4  UNL d   1      -0.700  -5.961  -5.059  0.00  0.00     0.048 A 
ATOM      6  C5  UNL d   1       0.339  -5.949  -5.991  0.00  0.00     0.003 A 
ATOM      7  I   UNL d   1      -1.946  -6.000  -2.303  0.00  0.00    -0.146 I 
ENDROOT
TORSDOF 0
ENDMDL
