MODEL 1
REMARK minimizedAffinity 2.68528461
REMARK minimizedRMSD -1
REMARK  0 active torsions:
REMARK  status: ('A' for Active; 'I' for Inactive)
ROOT
ATOM      1  C   UNL d   1       0.805  -5.894  -5.079  0.00  0.00     0.023 A 
ATOM      2  C1  UNL d   1       0.987  -5.960  -3.697  0.00  0.00     0.003 A 
ATOM      3  C2  UNL d   1      -0.120  -5.990  -2.846  0.00  0.00     0.048 A 
ATOM      4  C3  UNL d   1      -1.406  -5.954  -3.384  0.00  0.00     0.023 A 
ATOM      5  C4  UNL d   1      -1.593  -5.889  -4.765  0.00  0.00     0.048 A 
ATOM      6  C5  UNL d   1      -0.483  -5.859  -5.612  0.00  0.00     0.003 A 
ATOM      7  I   UNL d   1      -3.055  -5.999  -2.119  0.00  0.00    -0.146 I 
ENDROOT
TORSDOF 0
ENDMDL
