MODEL 1
REMARK minimizedAffinity -0.736412525
REMARK minimizedRMSD -1
REMARK  0 active torsions:
REMARK  status: ('A' for Active; 'I' for Inactive)
ROOT
ATOM      1  C   UNL d   1      -3.054  -5.627  -2.801  0.00  0.00     0.023 A 
ATOM      2  C1  UNL d   1      -3.043  -5.995  -4.146  0.00  0.00     0.003 A 
ATOM      3  C2  UNL d   1      -1.842  -6.000  -4.860  0.00  0.00     0.048 A 
ATOM      4  C3  UNL d   1      -0.657  -5.637  -4.222  0.00  0.00     0.023 A 
ATOM      5  C4  UNL d   1      -0.663  -5.269  -2.875  0.00  0.00     0.048 A 
ATOM      6  C5  UNL d   1      -1.866  -5.265  -2.166  0.00  0.00     0.003 A 
ATOM      7  I   UNL d   1       1.131  -5.643  -5.281  0.00  0.00    -0.146 I 
ENDROOT
TORSDOF 0
ENDMDL
