MODEL 1
REMARK minimizedAffinity 2.33410001
REMARK minimizedRMSD -1
REMARK  0 active torsions:
REMARK  status: ('A' for Active; 'I' for Inactive)
ROOT
ATOM      1  C   UNL d   1       1.183  -5.988  -5.187  0.00  0.00     0.023 A 
ATOM      2  C1  UNL d   1       1.048  -5.992  -3.799  0.00  0.00     0.003 A 
ATOM      3  C2  UNL d   1      -0.222  -5.995  -3.219  0.00  0.00     0.048 A 
ATOM      4  C3  UNL d   1      -1.354  -5.995  -4.034  0.00  0.00     0.023 A 
ATOM      5  C4  UNL d   1      -1.224  -5.992  -5.424  0.00  0.00     0.048 A 
ATOM      6  C5  UNL d   1       0.048  -5.988  -5.999  0.00  0.00     0.003 A 
ATOM      7  I   UNL d   1      -3.246  -5.999  -3.174  0.00  0.00    -0.146 I 
ENDROOT
TORSDOF 0
ENDMDL
