MODEL 1
REMARK minimizedAffinity -2.80812001
REMARK minimizedRMSD -1
REMARK  0 active torsions:
REMARK  status: ('A' for Active; 'I' for Inactive)
ROOT
ATOM      1  C   UNL d   1       0.350  -5.672  -5.334  0.00  0.00     0.023 A 
ATOM      2  C1  UNL d   1      -0.869  -5.533  -5.996  0.00  0.00     0.003 A 
ATOM      3  C2  UNL d   1      -2.067  -5.627  -5.284  0.00  0.00     0.048 A 
ATOM      4  C3  UNL d   1      -2.037  -5.859  -3.909  0.00  0.00     0.023 A 
ATOM      5  C4  UNL d   1      -0.819  -5.998  -3.242  0.00  0.00     0.048 A 
ATOM      6  C5  UNL d   1       0.376  -5.904  -3.959  0.00  0.00     0.003 A 
ATOM      7  I   UNL d   1      -3.818  -5.999  -2.847  0.00  0.00    -0.146 I 
ENDROOT
TORSDOF 0
ENDMDL
