MODEL 1
REMARK minimizedAffinity 7.70364332
REMARK minimizedRMSD -1
REMARK  0 active torsions:
REMARK  status: ('A' for Active; 'I' for Inactive)
ROOT
ATOM      1  C   UNL d   1       1.511  -5.821  -4.956  0.00  0.00     0.023 A 
ATOM      2  C1  UNL d   1       1.217  -5.819  -3.592  0.00  0.00     0.003 A 
ATOM      3  C2  UNL d   1      -0.110  -5.869  -3.163  0.00  0.00     0.048 A 
ATOM      4  C3  UNL d   1      -1.139  -5.924  -4.102  0.00  0.00     0.023 A 
ATOM      5  C4  UNL d   1      -0.850  -5.928  -5.467  0.00  0.00     0.048 A 
ATOM      6  C5  UNL d   1       0.479  -5.876  -5.892  0.00  0.00     0.003 A 
ATOM      7  I   UNL d   1      -3.116  -6.000  -3.465  0.00  0.00    -0.146 I 
ENDROOT
TORSDOF 0
ENDMDL
