MODEL 1
REMARK minimizedAffinity -1.70589757
REMARK minimizedRMSD -1
REMARK  0 active torsions:
REMARK  status: ('A' for Active; 'I' for Inactive)
ROOT
ATOM      1  C   UNL d   1       1.010  -5.999  -5.493  0.00  0.00     0.023 A 
ATOM      2  C1  UNL d   1      -0.293  -5.999  -5.992  0.00  0.00     0.003 A 
ATOM      3  C2  UNL d   1      -1.378  -5.996  -5.113  0.00  0.00     0.048 A 
ATOM      4  C3  UNL d   1      -1.153  -5.991  -3.736  0.00  0.00     0.023 A 
ATOM      5  C4  UNL d   1       0.149  -5.990  -3.233  0.00  0.00     0.048 A 
ATOM      6  C5  UNL d   1       1.231  -5.995  -4.116  0.00  0.00     0.003 A 
ATOM      7  I   UNL d   1      -2.766  -5.986  -2.426  0.00  0.00    -0.146 I 
ENDROOT
TORSDOF 0
ENDMDL
