MODEL 1
REMARK minimizedAffinity 9.56614113
REMARK minimizedRMSD -1
REMARK  0 active torsions:
REMARK  status: ('A' for Active; 'I' for Inactive)
ROOT
ATOM      1  C   UNL d   1       0.439  -1.559  -0.094  0.00  0.00     0.023 A 
ATOM      2  C1  UNL d   1      -0.117  -0.745  -1.082  0.00  0.00     0.003 A 
ATOM      3  C2  UNL d   1       0.060   0.639  -1.030  0.00  0.00     0.048 A 
ATOM      4  C3  UNL d   1       0.796   1.203   0.011  0.00  0.00     0.023 A 
ATOM      5  C4  UNL d   1       1.355   0.393   1.001  0.00  0.00     0.048 A 
ATOM      6  C5  UNL d   1       1.175  -0.990   0.946  0.00  0.00     0.003 A 
ATOM      7  I   UNL d   1       1.062   3.263   0.090  0.00  0.00    -0.146 I 
ENDROOT
TORSDOF 0
ENDMDL
