MODEL 1
REMARK minimizedAffinity 0.713297844
REMARK minimizedRMSD -1
REMARK  0 active torsions:
REMARK  status: ('A' for Active; 'I' for Inactive)
ROOT
ATOM      1  C   UNL d   1       1.685  -5.984  -5.360  0.00  0.00     0.023 A 
ATOM      2  C1  UNL d   1       0.438  -5.997  -5.985  0.00  0.00     0.003 A 
ATOM      3  C2  UNL d   1      -0.728  -6.000  -5.217  0.00  0.00     0.048 A 
ATOM      4  C3  UNL d   1      -0.640  -5.989  -3.826  0.00  0.00     0.023 A 
ATOM      5  C4  UNL d   1       0.605  -5.976  -3.196  0.00  0.00     0.048 A 
ATOM      6  C5  UNL d   1       1.769  -5.974  -3.968  0.00  0.00     0.003 A 
ATOM      7  I   UNL d   1      -2.375  -5.993  -2.681  0.00  0.00    -0.146 I 
ENDROOT
TORSDOF 0
ENDMDL
