MODEL 1
REMARK minimizedAffinity 2.58082867
REMARK minimizedRMSD -1
REMARK  0 active torsions:
REMARK  status: ('A' for Active; 'I' for Inactive)
ROOT
ATOM      1  C   UNL d   1      -2.596  -5.992  -4.880  0.00  0.00     0.023 A 
ATOM      2  C1  UNL d   1      -2.277  -5.996  -3.522  0.00  0.00     0.003 A 
ATOM      3  C2  UNL d   1      -0.941  -5.998  -3.117  0.00  0.00     0.048 A 
ATOM      4  C3  UNL d   1       0.072  -5.996  -4.076  0.00  0.00     0.023 A 
ATOM      5  C4  UNL d   1      -0.242  -5.992  -5.436  0.00  0.00     0.048 A 
ATOM      6  C5  UNL d   1      -1.579  -5.990  -5.836  0.00  0.00     0.003 A 
ATOM      7  I   UNL d   1       2.062  -5.999  -3.475  0.00  0.00    -0.146 I 
ENDROOT
TORSDOF 0
ENDMDL
