MODEL 1
REMARK minimizedAffinity 6.97831821
REMARK minimizedRMSD -1
REMARK  0 active torsions:
REMARK  status: ('A' for Active; 'I' for Inactive)
ROOT
ATOM      1  C   UNL d   1      -4.888  -5.999  -2.220  0.00  0.00     0.023 A 
ATOM      2  C1  UNL d   1      -3.629  -5.593  -1.777  0.00  0.00     0.003 A 
ATOM      3  C2  UNL d   1      -3.452  -5.183  -0.454  0.00  0.00     0.048 A 
ATOM      4  C3  UNL d   1      -4.538  -5.183   0.421  0.00  0.00     0.023 A 
ATOM      5  C4  UNL d   1      -5.799  -5.589  -0.018  0.00  0.00     0.048 A 
ATOM      6  C5  UNL d   1      -5.971  -5.997  -1.342  0.00  0.00     0.003 A 
ATOM      7  I   UNL d   1      -4.277  -4.574   2.391  0.00  0.00    -0.146 I 
ENDROOT
TORSDOF 0
ENDMDL
