MODEL 1
REMARK minimizedAffinity -5.42954111
REMARK minimizedRMSD -1
REMARK  2 active torsions:
REMARK  status: ('A' for Active; 'I' for Inactive)
REMARK    1  A    between atoms: C2'_3  and  C1'_4 
REMARK    2  A    between atoms: C1'_4  and  C1_5 
ROOT
ATOM      1  C1  I4B d   1      -0.972   1.512  -1.118  0.00  0.00    -0.075 A 
ATOM      2  C2  I4B d   1      -0.945   2.846  -1.442  0.00  0.00     0.003 A 
ATOM      3  C3  I4B d   1      -1.555   3.302  -2.635  0.00  0.00     0.002 A 
ATOM      4  C4  I4B d   1      -2.132   2.390  -3.495  0.00  0.00    -0.004 A 
ATOM      5  C5  I4B d   1      -2.179   1.041  -3.154  0.00  0.00     0.002 A 
ATOM      6  C6  I4B d   1      -1.606   0.601  -1.952  0.00  0.00     0.003 A 
ENDROOT
BRANCH   1   7
ATOM      7  C1' I4B d   1      -0.289   1.061   0.134  0.00  0.00     0.060 C 
BRANCH   7   8
ATOM      8  C2' I4B d   1       0.400  -0.256  -0.159  0.00  0.00    -0.013 C 
ATOM      9  C4' I4B d   1       1.815  -0.039  -0.625  0.00  0.00     0.013 C 
ATOM     10  C3' I4B d   1       0.362  -1.087   1.089  0.00  0.00     0.013 C 
ENDBRANCH   7   8
ENDBRANCH   1   7
TORSDOF 2
ENDMDL
