MODEL 1
REMARK minimizedAffinity -2.40830851
REMARK minimizedRMSD -1
REMARK  2 active torsions:
REMARK  status: ('A' for Active; 'I' for Inactive)
REMARK    1  A    between atoms: C2'_3  and  C1'_4 
REMARK    2  A    between atoms: C1'_4  and  C1_5 
ROOT
ATOM      1  C1  I4B d   1       1.000  -0.872   1.063  0.00  0.00    -0.075 A 
ATOM      2  C2  I4B d   1       0.022   0.035   0.741  0.00  0.00     0.003 A 
ATOM      3  C3  I4B d   1       0.267   1.031  -0.235  0.00  0.00     0.002 A 
ATOM      4  C4  I4B d   1       1.512   1.113  -0.825  0.00  0.00    -0.004 A 
ATOM      5  C5  I4B d   1       2.495   0.177  -0.514  0.00  0.00     0.002 A 
ATOM      6  C6  I4B d   1       2.234  -0.829   0.427  0.00  0.00     0.003 A 
ENDROOT
BRANCH   1   7
ATOM      7  C1' I4B d   1       0.718  -1.890   2.123  0.00  0.00     0.060 C 
BRANCH   7   8
ATOM      8  C2' I4B d   1      -0.152  -1.237   3.178  0.00  0.00    -0.013 C 
ATOM      9  C4' I4B d   1      -1.499  -1.905   3.264  0.00  0.00     0.013 C 
ATOM     10  C3' I4B d   1       0.574  -1.311   4.488  0.00  0.00     0.013 C 
ENDBRANCH   7   8
ENDBRANCH   1   7
TORSDOF 2
ENDMDL
