MODEL 1
REMARK minimizedAffinity -0.386650354
REMARK minimizedRMSD -1
REMARK  2 active torsions:
REMARK  status: ('A' for Active; 'I' for Inactive)
REMARK    1  A    between atoms: C2'_3  and  C1'_4 
REMARK    2  A    between atoms: C1'_4  and  C1_5 
ROOT
ATOM      1  C1  I4B d   1       0.125  -0.749   1.175  0.00  0.00    -0.075 A 
ATOM      2  C2  I4B d   1       1.188  -1.391   0.590  0.00  0.00     0.003 A 
ATOM      3  C3  I4B d   1       1.741  -2.547   1.192  0.00  0.00     0.002 A 
ATOM      4  C4  I4B d   1       1.236  -2.994   2.396  0.00  0.00    -0.004 A 
ATOM      5  C5  I4B d   1       0.144  -2.355   2.976  0.00  0.00     0.002 A 
ATOM      6  C6  I4B d   1      -0.424  -1.233   2.355  0.00  0.00     0.003 A 
ENDROOT
BRANCH   1   7
ATOM      7  C1' I4B d   1      -0.414   0.489   0.529  0.00  0.00     0.060 C 
BRANCH   7   8
ATOM      8  C2' I4B d   1       0.096   0.530  -0.897  0.00  0.00    -0.013 C 
ATOM      9  C4' I4B d   1      -0.532   1.662  -1.667  0.00  0.00     0.013 C 
ATOM     10  C3' I4B d   1       1.588   0.668  -0.852  0.00  0.00     0.013 C 
ENDBRANCH   7   8
ENDBRANCH   1   7
TORSDOF 2
ENDMDL
