MODEL 1
REMARK minimizedAffinity -6.29926538
REMARK minimizedRMSD -1
REMARK  2 active torsions:
REMARK  status: ('A' for Active; 'I' for Inactive)
REMARK    1  A    between atoms: C2'_3  and  C1'_4 
REMARK    2  A    between atoms: C1'_4  and  C1_5 
ROOT
ATOM      1  C1  I4B d   1      -0.324   0.185   0.120  0.00  0.00    -0.075 A 
ATOM      2  C2  I4B d   1       0.951   0.426  -0.328  0.00  0.00     0.003 A 
ATOM      3  C3  I4B d   1       1.983  -0.511  -0.077  0.00  0.00     0.002 A 
ATOM      4  C4  I4B d   1       1.708  -1.642   0.664  0.00  0.00    -0.004 A 
ATOM      5  C5  I4B d   1       0.410  -1.895   1.098  0.00  0.00     0.002 A 
ATOM      6  C6  I4B d   1      -0.616  -0.982   0.814  0.00  0.00     0.003 A 
ENDROOT
BRANCH   1   7
ATOM      7  C1' I4B d   1      -1.383   1.212  -0.134  0.00  0.00     0.060 C 
BRANCH   7   8
ATOM      8  C2' I4B d   1      -1.380   1.528  -1.616  0.00  0.00    -0.013 C 
ATOM      9  C4' I4B d   1      -2.681   1.129  -2.261  0.00  0.00     0.013 C 
ATOM     10  C3' I4B d   1      -1.124   2.997  -1.775  0.00  0.00     0.013 C 
ENDBRANCH   7   8
ENDBRANCH   1   7
TORSDOF 2
ENDMDL
