MODEL 1
REMARK minimizedAffinity -2.65255761
REMARK minimizedRMSD -1
REMARK  2 active torsions:
REMARK  status: ('A' for Active; 'I' for Inactive)
REMARK    1  A    between atoms: C2'_3  and  C1'_4 
REMARK    2  A    between atoms: C1'_4  and  C1_5 
ROOT
ATOM      1  C1  I4B d   1      -0.038   0.155   0.086  0.00  0.00    -0.075 A 
ATOM      2  C2  I4B d   1       0.921  -0.198  -0.831  0.00  0.00     0.003 A 
ATOM      3  C3  I4B d   1       1.908  -1.157  -0.497  0.00  0.00     0.002 A 
ATOM      4  C4  I4B d   1       1.930  -1.696   0.774  0.00  0.00    -0.004 A 
ATOM      5  C5  I4B d   1       0.944  -1.353   1.694  0.00  0.00     0.002 A 
ATOM      6  C6  I4B d   1      -0.054  -0.431   1.345  0.00  0.00     0.003 A 
ENDROOT
BRANCH   1   7
ATOM      7  C1' I4B d   1      -1.045   1.195  -0.289  0.00  0.00     0.060 C 
BRANCH   7   8
ATOM      8  C2' I4B d   1      -1.105   1.263  -1.801  0.00  0.00    -0.013 C 
ATOM      9  C4' I4B d   1      -2.399   0.696  -2.322  0.00  0.00     0.013 C 
ATOM     10  C3' I4B d   1      -0.941   2.698  -2.207  0.00  0.00     0.013 C 
ENDBRANCH   7   8
ENDBRANCH   1   7
TORSDOF 2
ENDMDL
