MODEL 1
REMARK minimizedAffinity -1.76386392
REMARK minimizedRMSD -1
REMARK  2 active torsions:
REMARK  status: ('A' for Active; 'I' for Inactive)
REMARK    1  A    between atoms: C2'_3  and  C1'_4 
REMARK    2  A    between atoms: C1'_4  and  C1_5 
ROOT
ATOM      1  C1  I4B d   1      -1.100   1.465  -1.183  0.00  0.00    -0.075 A 
ATOM      2  C2  I4B d   1      -0.782   2.586  -1.909  0.00  0.00     0.003 A 
ATOM      3  C3  I4B d   1      -1.445   2.856  -3.130  0.00  0.00     0.002 A 
ATOM      4  C4  I4B d   1      -2.378   1.959  -3.610  0.00  0.00    -0.004 A 
ATOM      5  C5  I4B d   1      -2.715   0.835  -2.862  0.00  0.00     0.002 A 
ATOM      6  C6  I4B d   1      -2.081   0.592  -1.634  0.00  0.00     0.003 A 
ENDROOT
BRANCH   1   7
ATOM      7  C1' I4B d   1      -0.356   1.193   0.086  0.00  0.00     0.060 C 
BRANCH   7   8
ATOM      8  C2' I4B d   1       0.140  -0.237   0.039  0.00  0.00    -0.013 C 
ATOM      9  C4' I4B d   1       1.382  -0.356  -0.804  0.00  0.00     0.013 C 
ATOM     10  C3' I4B d   1       0.397  -0.685   1.447  0.00  0.00     0.013 C 
ENDBRANCH   7   8
ENDBRANCH   1   7
TORSDOF 2
ENDMDL
