MODEL 1
REMARK minimizedAffinity -1.63240945
REMARK minimizedRMSD -1
REMARK  2 active torsions:
REMARK  status: ('A' for Active; 'I' for Inactive)
REMARK    1  A    between atoms: C2'_3  and  C1'_4 
REMARK    2  A    between atoms: C1'_4  and  C1_5 
ROOT
ATOM      1  C1  I4B d   1       0.027   0.270   0.168  0.00  0.00    -0.075 A 
ATOM      2  C2  I4B d   1       1.261  -0.080  -0.320  0.00  0.00     0.003 A 
ATOM      3  C3  I4B d   1       1.930  -1.221   0.186  0.00  0.00     0.002 A 
ATOM      4  C4  I4B d   1       1.356  -1.948   1.209  0.00  0.00    -0.004 A 
ATOM      5  C5  I4B d   1       0.095  -1.604   1.687  0.00  0.00     0.002 A 
ATOM      6  C6  I4B d   1      -0.580  -0.495   1.155  0.00  0.00     0.003 A 
ENDROOT
BRANCH   1   7
ATOM      7  C1' I4B d   1      -0.636   1.500  -0.366  0.00  0.00     0.060 C 
BRANCH   7   8
ATOM      8  C2' I4B d   1      -1.106   1.202  -1.775  0.00  0.00    -0.013 C 
ATOM      9  C4' I4B d   1      -2.512   0.660  -1.778  0.00  0.00     0.013 C 
ATOM     10  C3' I4B d   1      -1.012   2.468  -2.572  0.00  0.00     0.013 C 
ENDBRANCH   7   8
ENDBRANCH   1   7
TORSDOF 2
ENDMDL
