MODEL 1
REMARK minimizedAffinity -5.18883991
REMARK minimizedRMSD -1
REMARK  2 active torsions:
REMARK  status: ('A' for Active; 'I' for Inactive)
REMARK    1  A    between atoms: C2'_3  and  C1'_4 
REMARK    2  A    between atoms: C1'_4  and  C1_5 
ROOT
ATOM      1  C1  I4B d   1      -1.168   0.802  -0.680  0.00  0.00    -0.075 A 
ATOM      2  C2  I4B d   1      -0.761   2.104  -0.837  0.00  0.00     0.003 A 
ATOM      3  C3  I4B d   1      -1.363   2.924  -1.822  0.00  0.00     0.002 A 
ATOM      4  C4  I4B d   1      -2.325   2.391  -2.656  0.00  0.00    -0.004 A 
ATOM      5  C5  I4B d   1      -2.752   1.078  -2.480  0.00  0.00     0.002 A 
ATOM      6  C6  I4B d   1      -2.179   0.282  -1.478  0.00  0.00     0.003 A 
ENDROOT
BRANCH   1   7
ATOM      7  C1' I4B d   1      -0.488  -0.046   0.348  0.00  0.00     0.060 C 
BRANCH   7   8
ATOM      8  C2' I4B d   1       0.889  -0.400  -0.176  0.00  0.00    -0.013 C 
ATOM      9  C4' I4B d   1       1.641  -1.259   0.807  0.00  0.00     0.013 C 
ATOM     10  C3' I4B d   1       0.718  -1.103  -1.489  0.00  0.00     0.013 C 
ENDBRANCH   7   8
ENDBRANCH   1   7
TORSDOF 2
ENDMDL
