MODEL 1
REMARK minimizedAffinity -3.66633105
REMARK minimizedRMSD -1
REMARK  2 active torsions:
REMARK  status: ('A' for Active; 'I' for Inactive)
REMARK    1  A    between atoms: C2'_3  and  C1'_4 
REMARK    2  A    between atoms: C1'_4  and  C1_5 
ROOT
ATOM      1  C1  I4B d   1      -0.067   0.703   0.049  0.00  0.00    -0.075 A 
ATOM      2  C2  I4B d   1       1.183   0.760  -0.515  0.00  0.00     0.003 A 
ATOM      3  C3  I4B d   1       2.159  -0.212  -0.186  0.00  0.00     0.002 A 
ATOM      4  C4  I4B d   1       1.860  -1.186   0.744  0.00  0.00    -0.004 A 
ATOM      5  C5  I4B d   1       0.585  -1.256   1.298  0.00  0.00     0.002 A 
ATOM      6  C6  I4B d   1      -0.389  -0.313   0.939  0.00  0.00     0.003 A 
ENDROOT
BRANCH   1   7
ATOM      7  C1' I4B d   1      -1.063   1.765  -0.297  0.00  0.00     0.060 C 
BRANCH   7   8
ATOM      8  C2' I4B d   1      -1.248   1.759  -1.801  0.00  0.00    -0.013 C 
ATOM      9  C4' I4B d   1      -2.679   1.472  -2.172  0.00  0.00     0.013 C 
ATOM     10  C3' I4B d   1      -0.809   3.094  -2.326  0.00  0.00     0.013 C 
ENDBRANCH   7   8
ENDBRANCH   1   7
TORSDOF 2
ENDMDL
