MODEL 1
REMARK minimizedAffinity -4.75305033
REMARK minimizedRMSD -1
REMARK  0 active torsions:
REMARK  status: ('A' for Active; 'I' for Inactive)
ROOT
ATOM      1  O1  BZF d   1      -0.924  -0.165  -0.690  0.00  0.00    -0.204 OA
ATOM      2  C2  BZF d   1      -0.026  -0.359  -1.722  0.00  0.00     0.174 A 
ATOM      3  C3  BZF d   1       1.195  -0.671  -1.242  0.00  0.00    -0.012 A 
ATOM      4  C3A BZF d   1       1.029  -0.763   0.176  0.00  0.00    -0.107 A 
ATOM      5  C4  BZF d   1       1.879  -1.059   1.203  0.00  0.00     0.055 A 
ATOM      6  C5  BZF d   1       1.420  -0.992   2.481  0.00  0.00    -0.016 A 
ATOM      7  C6  BZF d   1       0.120  -0.629   2.767  0.00  0.00     0.022 A 
ATOM      8  C7  BZF d   1      -0.761  -0.331   1.781  0.00  0.00     0.029 A 
ATOM      9  C7A BZF d   1      -0.309  -0.430   0.488  0.00  0.00     0.058 A 
ENDROOT
TORSDOF 0
ENDMDL
