MODEL 1
REMARK minimizedAffinity -4.0263505
REMARK minimizedRMSD -1
REMARK  0 active torsions:
REMARK  status: ('A' for Active; 'I' for Inactive)
ROOT
ATOM      1  O1  BZF d   1       1.486  -1.229  -1.096  0.00  0.00    -0.204 OA
ATOM      2  C2  BZF d   1       0.383  -0.728  -1.761  0.00  0.00     0.174 A 
ATOM      3  C3  BZF d   1      -0.516  -0.231  -0.888  0.00  0.00    -0.012 A 
ATOM      4  C3A BZF d   1       0.101  -0.349   0.397  0.00  0.00    -0.107 A 
ATOM      5  C4  BZF d   1      -0.290  -0.011   1.661  0.00  0.00     0.055 A 
ATOM      6  C5  BZF d   1       0.516  -0.327   2.709  0.00  0.00    -0.016 A 
ATOM      7  C6  BZF d   1       1.716  -0.984   2.529  0.00  0.00     0.022 A 
ATOM      8  C7  BZF d   1       2.148  -1.335   1.294  0.00  0.00     0.029 A 
ATOM      9  C7A BZF d   1       1.352  -0.988   0.230  0.00  0.00     0.058 A 
ENDROOT
TORSDOF 0
ENDMDL
