MODEL 1
REMARK minimizedAffinity -4.39737177
REMARK minimizedRMSD -1
REMARK  0 active torsions:
REMARK  status: ('A' for Active; 'I' for Inactive)
ROOT
ATOM      1  O1  BZF d   1      -0.263   1.639  -2.538  0.00  0.00    -0.204 OA
ATOM      2  C2  BZF d   1      -0.013   2.997  -2.487  0.00  0.00     0.174 A 
ATOM      3  C3  BZF d   1      -0.116   3.454  -1.222  0.00  0.00    -0.012 A 
ATOM      4  C3A BZF d   1      -0.360   2.295  -0.421  0.00  0.00    -0.107 A 
ATOM      5  C4  BZF d   1      -0.538   2.100   0.919  0.00  0.00     0.055 A 
ATOM      6  C5  BZF d   1      -0.831   0.852   1.372  0.00  0.00    -0.016 A 
ATOM      7  C6  BZF d   1      -0.958  -0.220   0.514  0.00  0.00     0.022 A 
ATOM      8  C7  BZF d   1      -0.785  -0.077  -0.823  0.00  0.00     0.029 A 
ATOM      9  C7A BZF d   1      -0.457   1.176  -1.280  0.00  0.00     0.058 A 
ENDROOT
TORSDOF 0
ENDMDL
