MODEL 1
REMARK minimizedAffinity -4.71346855
REMARK minimizedRMSD -1
REMARK  0 active torsions:
REMARK  status: ('A' for Active; 'I' for Inactive)
ROOT
ATOM      1  O1  BZF d   1       0.322   0.792  -1.572  0.00  0.00    -0.204 OA
ATOM      2  C2  BZF d   1      -0.855   1.042  -2.250  0.00  0.00     0.174 A 
ATOM      3  C3  BZF d   1      -1.922   0.750  -1.479  0.00  0.00    -0.012 A 
ATOM      4  C3A BZF d   1      -1.378   0.376  -0.209  0.00  0.00    -0.107 A 
ATOM      5  C4  BZF d   1      -1.938  -0.007   0.976  0.00  0.00     0.055 A 
ATOM      6  C5  BZF d   1      -1.126  -0.375   2.001  0.00  0.00    -0.016 A 
ATOM      7  C6  BZF d   1       0.248  -0.377   1.875  0.00  0.00     0.022 A 
ATOM      8  C7  BZF d   1       0.849  -0.000   0.720  0.00  0.00     0.029 A 
ATOM      9  C7A BZF d   1       0.032   0.404  -0.307  0.00  0.00     0.058 A 
ENDROOT
TORSDOF 0
ENDMDL
