MODEL 1
REMARK minimizedAffinity -4.86165905
REMARK minimizedRMSD -1
REMARK  0 active torsions:
REMARK  status: ('A' for Active; 'I' for Inactive)
ROOT
ATOM      1  O1  BZF d   1       0.397   0.049  -0.975  0.00  0.00    -0.204 OA
ATOM      2  C2  BZF d   1      -0.813   0.673  -0.741  0.00  0.00     0.174 A 
ATOM      3  C3  BZF d   1      -1.186   0.525   0.546  0.00  0.00    -0.012 A 
ATOM      4  C3A BZF d   1      -0.101  -0.160   1.177  0.00  0.00    -0.107 A 
ATOM      5  C4  BZF d   1       0.128  -0.580   2.456  0.00  0.00     0.055 A 
ATOM      6  C5  BZF d   1       1.257  -1.286   2.728  0.00  0.00    -0.016 A 
ATOM      7  C6  BZF d   1       2.175  -1.594   1.745  0.00  0.00     0.022 A 
ATOM      8  C7  BZF d   1       1.994  -1.194   0.463  0.00  0.00     0.029 A 
ATOM      9  C7A BZF d   1       0.870  -0.452   0.192  0.00  0.00     0.058 A 
ENDROOT
TORSDOF 0
ENDMDL
