MODEL 1
REMARK minimizedAffinity -5.25727129
REMARK minimizedRMSD -1
REMARK  0 active torsions:
REMARK  status: ('A' for Active; 'I' for Inactive)
ROOT
ATOM      1  O1  BZF d   1      -0.049   1.004  -0.450  0.00  0.00    -0.204 OA
ATOM      2  C2  BZF d   1      -1.373   0.632  -0.578  0.00  0.00     0.174 A 
ATOM      3  C3  BZF d   1      -1.708  -0.274   0.363  0.00  0.00    -0.012 A 
ATOM      4  C3A BZF d   1      -0.544  -0.413   1.183  0.00  0.00    -0.107 A 
ATOM      5  C4  BZF d   1      -0.261  -1.158   2.292  0.00  0.00     0.055 A 
ATOM      6  C5  BZF d   1       0.995  -1.120   2.810  0.00  0.00    -0.016 A 
ATOM      7  C6  BZF d   1       1.992  -0.354   2.242  0.00  0.00     0.022 A 
ATOM      8  C7  BZF d   1       1.757   0.406   1.144  0.00  0.00     0.029 A 
ATOM      9  C7A BZF d   1       0.480   0.395   0.638  0.00  0.00     0.058 A 
ENDROOT
TORSDOF 0
ENDMDL
