MODEL 1
REMARK minimizedAffinity -2.3502748
REMARK minimizedRMSD -1
REMARK  0 active torsions:
REMARK  status: ('A' for Active; 'I' for Inactive)
ROOT
ATOM      1  O1  BZF d   1       0.168   1.443  -0.211  0.00  0.00    -0.204 OA
ATOM      2  C2  BZF d   1      -0.568   0.640  -1.061  0.00  0.00     0.174 A 
ATOM      3  C3  BZF d   1      -0.794  -0.567  -0.503  0.00  0.00    -0.012 A 
ATOM      4  C3A BZF d   1      -0.239  -0.483   0.813  0.00  0.00    -0.107 A 
ATOM      5  C4  BZF d   1      -0.165  -1.358   1.858  0.00  0.00     0.055 A 
ATOM      6  C5  BZF d   1       0.508  -0.992   2.980  0.00  0.00    -0.016 A 
ATOM      7  C6  BZF d   1       1.122   0.238   3.089  0.00  0.00     0.022 A 
ATOM      8  C7  BZF d   1       1.072   1.142   2.081  0.00  0.00     0.029 A 
ATOM      9  C7A BZF d   1       0.365   0.788   0.958  0.00  0.00     0.058 A 
ENDROOT
TORSDOF 0
ENDMDL
