MODEL 1
REMARK minimizedAffinity -0.890960991
REMARK minimizedRMSD -1
REMARK  0 active torsions:
REMARK  status: ('A' for Active; 'I' for Inactive)
ROOT
ATOM      1  O1  BZF d   1      -0.404  -0.071  -0.997  0.00  0.00    -0.204 OA
ATOM      2  C2  BZF d   1      -0.350   1.233  -1.448  0.00  0.00     0.174 A 
ATOM      3  C3  BZF d   1      -0.247   2.093  -0.414  0.00  0.00    -0.012 A 
ATOM      4  C3A BZF d   1      -0.143   1.269   0.751  0.00  0.00    -0.107 A 
ATOM      5  C4  BZF d   1      -0.002   1.539   2.083  0.00  0.00     0.055 A 
ATOM      6  C5  BZF d   1      -0.006   0.509   2.969  0.00  0.00    -0.016 A 
ATOM      7  C6  BZF d   1      -0.154  -0.800   2.561  0.00  0.00     0.022 A 
ATOM      8  C7  BZF d   1      -0.293  -1.118   1.251  0.00  0.00     0.029 A 
ATOM      9  C7A BZF d   1      -0.256  -0.082   0.349  0.00  0.00     0.058 A 
ENDROOT
TORSDOF 0
ENDMDL
