MODEL 1
REMARK minimizedAffinity 0.445094645
REMARK minimizedRMSD -1
REMARK  0 active torsions:
REMARK  status: ('A' for Active; 'I' for Inactive)
ROOT
ATOM      1  O1  BZF d   1      -0.954  -0.823   0.620  0.00  0.00    -0.204 OA
ATOM      2  C2  BZF d   1      -1.845  -0.579   1.648  0.00  0.00     0.174 A 
ATOM      3  C3  BZF d   1      -1.195  -0.446   2.822  0.00  0.00    -0.012 A 
ATOM      4  C3A BZF d   1       0.196  -0.527   2.494  0.00  0.00    -0.107 A 
ATOM      5  C4  BZF d   1       1.341  -0.448   3.234  0.00  0.00     0.055 A 
ATOM      6  C5  BZF d   1       2.538  -0.640   2.620  0.00  0.00    -0.016 A 
ATOM      7  C6  BZF d   1       2.626  -0.917   1.271  0.00  0.00     0.022 A 
ATOM      8  C7  BZF d   1       1.518  -1.000   0.495  0.00  0.00     0.029 A 
ATOM      9  C7A BZF d   1       0.309  -0.773   1.106  0.00  0.00     0.058 A 
ENDROOT
TORSDOF 0
ENDMDL
