MODEL 1
REMARK minimizedAffinity 4.01634932
REMARK minimizedRMSD -1
REMARK  0 active torsions:
REMARK  status: ('A' for Active; 'I' for Inactive)
ROOT
ATOM      1  O1  BZF d   1      -0.185  -0.307   3.700  0.00  0.00    -0.204 OA
ATOM      2  C2  BZF d   1       0.700  -1.192   3.115  0.00  0.00     0.174 A 
ATOM      3  C3  BZF d   1       0.249  -1.592   1.909  0.00  0.00    -0.012 A 
ATOM      4  C3A BZF d   1      -0.951  -0.844   1.688  0.00  0.00    -0.107 A 
ATOM      5  C4  BZF d   1      -1.847  -0.789   0.659  0.00  0.00     0.055 A 
ATOM      6  C5  BZF d   1      -2.952  -0.008   0.787  0.00  0.00    -0.016 A 
ATOM      7  C6  BZF d   1      -3.195   0.725   1.930  0.00  0.00     0.022 A 
ATOM      8  C7  BZF d   1      -2.332   0.706   2.975  0.00  0.00     0.029 A 
ATOM      9  C7A BZF d   1      -1.198  -0.056   2.836  0.00  0.00     0.058 A 
ENDROOT
TORSDOF 0
ENDMDL
