MODEL 1
REMARK minimizedAffinity -2.43916297
REMARK minimizedRMSD -1
REMARK  0 active torsions:
REMARK  status: ('A' for Active; 'I' for Inactive)
ROOT
ATOM      1  O1  BZF d   1      -1.786  -0.791   0.972  0.00  0.00    -0.204 OA
ATOM      2  C2  BZF d   1      -2.685   0.100   1.525  0.00  0.00     0.174 A 
ATOM      3  C3  BZF d   1      -2.181   0.652   2.648  0.00  0.00    -0.012 A 
ATOM      4  C3A BZF d   1      -0.850   0.139   2.756  0.00  0.00    -0.107 A 
ATOM      5  C4  BZF d   1       0.161   0.331   3.654  0.00  0.00     0.055 A 
ATOM      6  C5  BZF d   1       1.312  -0.377   3.513  0.00  0.00    -0.016 A 
ATOM      7  C6  BZF d   1       1.485  -1.288   2.492  0.00  0.00     0.022 A 
ATOM      8  C7  BZF d   1       0.512  -1.509   1.574  0.00  0.00     0.029 A 
ATOM      9  C7A BZF d   1      -0.640  -0.771   1.694  0.00  0.00     0.058 A 
ENDROOT
TORSDOF 0
ENDMDL
