MODEL 1
REMARK minimizedAffinity 6.64347172
REMARK minimizedRMSD -1
REMARK  0 active torsions:
REMARK  status: ('A' for Active; 'I' for Inactive)
ROOT
ATOM      1  O1  BZF d   1      -0.101  -3.931   2.304  0.00  0.00    -0.204 OA
ATOM      2  C2  BZF d   1      -0.992  -3.876   3.359  0.00  0.00     0.174 A 
ATOM      3  C3  BZF d   1      -0.985  -2.654   3.928  0.00  0.00    -0.012 A 
ATOM      4  C3A BZF d   1      -0.098  -1.869   3.125  0.00  0.00    -0.107 A 
ATOM      5  C4  BZF d   1       0.311  -0.567   3.175  0.00  0.00     0.055 A 
ATOM      6  C5  BZF d   1       1.242  -0.132   2.286  0.00  0.00    -0.016 A 
ATOM      7  C6  BZF d   1       1.789  -0.973   1.338  0.00  0.00     0.022 A 
ATOM      8  C7  BZF d   1       1.411  -2.271   1.246  0.00  0.00     0.029 A 
ATOM      9  C7A BZF d   1       0.446  -2.705   2.122  0.00  0.00     0.058 A 
ENDROOT
TORSDOF 0
ENDMDL
