MODEL 1
REMARK minimizedAffinity -2.40282154
REMARK minimizedRMSD -1
REMARK  1 active torsions:
REMARK  status: ('A' for Active; 'I' for Inactive)
REMARK    1  A    between atoms: C1_2  and  C2_3 
ROOT
ATOM      1  C2  UNL d   1       0.197  -0.912  -1.147  0.00  0.00    -0.081 A 
ATOM      2  C3  UNL d   1      -1.181  -0.760  -0.948  0.00  0.00     0.006 A 
ATOM      3  C4  UNL d   1      -1.681  -0.408   0.308  0.00  0.00     0.002 A 
ATOM      4  C5  UNL d   1      -0.812  -0.194   1.383  0.00  0.00    -0.080 A 
ATOM      5  C6  UNL d   1      -1.333   0.214   2.729  0.00  0.00     0.076 C 
ATOM      6  C7  UNL d   1       0.563  -0.364   1.189  0.00  0.00     0.002 A 
ATOM      7  C8  UNL d   1       1.064  -0.716  -0.066  0.00  0.00     0.006 A 
ENDROOT
BRANCH   1   8
ATOM      8  C1  UNL d   1       0.744  -1.229  -2.515  0.00  0.00     0.054 C 
ATOM      9  C   UNL d   1       1.098   0.041  -3.277  0.00  0.00     0.018 C 
ENDBRANCH   1   8
TORSDOF 1
ENDMDL
