MODEL 1
REMARK minimizedAffinity -5.09423113
REMARK minimizedRMSD -1
REMARK  1 active torsions:
REMARK  status: ('A' for Active; 'I' for Inactive)
REMARK    1  A    between atoms: C1_2  and  C2_3 
ROOT
ATOM      1  C2  UNL d   1      -1.309   0.040   2.050  0.00  0.00    -0.081 A 
ATOM      2  C3  UNL d   1      -0.721   1.242   2.462  0.00  0.00     0.006 A 
ATOM      3  C4  UNL d   1       0.228   1.251   3.487  0.00  0.00     0.002 A 
ATOM      4  C5  UNL d   1       0.611   0.059   4.111  0.00  0.00    -0.080 A 
ATOM      5  C6  UNL d   1       1.651   0.051   5.191  0.00  0.00     0.076 C 
ATOM      6  C7  UNL d   1       0.010  -1.140   3.710  0.00  0.00     0.002 A 
ATOM      7  C8  UNL d   1      -0.939  -1.149   2.686  0.00  0.00     0.006 A 
ENDROOT
BRANCH   1   8
ATOM      8  C1  UNL d   1      -2.285   0.019   0.901  0.00  0.00     0.054 C 
ATOM      9  C   UNL d   1      -1.564   0.062  -0.438  0.00  0.00     0.018 C 
ENDBRANCH   1   8
TORSDOF 1
ENDMDL
