MODEL 1
REMARK minimizedAffinity 10.4162302
REMARK minimizedRMSD -1
REMARK  1 active torsions:
REMARK  status: ('A' for Active; 'I' for Inactive)
REMARK    1  A    between atoms: C1_2  and  C2_3 
ROOT
ATOM      1  C2  UNL d   1       1.038   0.217   1.286  0.00  0.00    -0.081 A 
ATOM      2  C3  UNL d   1       0.738  -0.973   0.614  0.00  0.00     0.006 A 
ATOM      3  C4  UNL d   1      -0.559  -1.223   0.160  0.00  0.00     0.002 A 
ATOM      4  C5  UNL d   1      -1.576  -0.283   0.365  0.00  0.00    -0.080 A 
ATOM      5  C6  UNL d   1      -2.966  -0.525  -0.143  0.00  0.00     0.076 C 
ATOM      6  C7  UNL d   1      -1.280   0.899   1.052  0.00  0.00     0.002 A 
ATOM      7  C8  UNL d   1       0.017   1.148   1.506  0.00  0.00     0.006 A 
ENDROOT
BRANCH   1   8
ATOM      8  C1  UNL d   1       2.451   0.518   1.719  0.00  0.00     0.054 C 
ATOM      9  C   UNL d   1       3.189   1.338   0.670  0.00  0.00     0.018 C 
ENDBRANCH   1   8
TORSDOF 1
ENDMDL
