MODEL 1
REMARK minimizedAffinity 1.97397125
REMARK minimizedRMSD -1
REMARK  1 active torsions:
REMARK  status: ('A' for Active; 'I' for Inactive)
REMARK    1  A    between atoms: C1_2  and  C2_3 
ROOT
ATOM      1  C2  UNL d   1       1.514   0.842   0.675  0.00  0.00    -0.081 A 
ATOM      2  C3  UNL d   1       1.197  -0.403   0.119  0.00  0.00     0.006 A 
ATOM      3  C4  UNL d   1      -0.115  -0.881   0.154  0.00  0.00     0.002 A 
ATOM      4  C5  UNL d   1      -1.133  -0.120   0.738  0.00  0.00    -0.080 A 
ATOM      5  C6  UNL d   1      -2.551  -0.608   0.756  0.00  0.00     0.076 C 
ATOM      6  C7  UNL d   1      -0.813   1.116   1.310  0.00  0.00     0.002 A 
ATOM      7  C8  UNL d   1       0.499   1.595   1.275  0.00  0.00     0.006 A 
ENDROOT
BRANCH   1   8
ATOM      8  C1  UNL d   1       2.915   1.389   0.581  0.00  0.00     0.054 C 
ATOM      9  C   UNL d   1       3.393   1.441  -0.863  0.00  0.00     0.018 C 
ENDBRANCH   1   8
TORSDOF 1
ENDMDL
