MODEL 1
REMARK minimizedAffinity -3.67444658
REMARK minimizedRMSD -1
REMARK  0 active torsions:
REMARK  status: ('A' for Active; 'I' for Inactive)
ROOT
ATOM      1  C   UNL d   1       0.327  -0.476  -1.100  0.00  0.00     0.078 C 
ATOM      2  C1  UNL d   1      -0.126  -0.151   0.292  0.00  0.00    -0.077 A 
ATOM      3  C2  UNL d   1      -1.437   0.272   0.543  0.00  0.00    -0.001 A 
ATOM      4  C3  UNL d   1      -1.842   0.581   1.843  0.00  0.00     0.003 A 
ATOM      5  C4  UNL d   1      -0.943   0.470   2.901  0.00  0.00    -0.005 A 
ATOM      6  C5  UNL d   1       0.364   0.052   2.661  0.00  0.00     0.003 A 
ATOM      7  C6  UNL d   1       0.772  -0.257   1.362  0.00  0.00    -0.001 A 
ENDROOT
TORSDOF 0
ENDMDL
