MODEL 1
REMARK minimizedAffinity -1.61550391
REMARK minimizedRMSD -1
REMARK  0 active torsions:
REMARK  status: ('A' for Active; 'I' for Inactive)
ROOT
ATOM      1  C   UNL d   1       0.870   0.051  -0.281  0.00  0.00     0.078 C 
ATOM      2  C1  UNL d   1       0.587  -0.009   1.191  0.00  0.00    -0.077 A 
ATOM      3  C2  UNL d   1       1.540  -0.507   2.088  0.00  0.00    -0.001 A 
ATOM      4  C3  UNL d   1       1.260  -0.566   3.454  0.00  0.00     0.003 A 
ATOM      5  C4  UNL d   1       0.027  -0.130   3.935  0.00  0.00    -0.005 A 
ATOM      6  C5  UNL d   1      -0.928   0.366   3.050  0.00  0.00     0.003 A 
ATOM      7  C6  UNL d   1      -0.650   0.425   1.683  0.00  0.00    -0.001 A 
ENDROOT
TORSDOF 0
ENDMDL
