MODEL 1
REMARK minimizedAffinity -2.25490355
REMARK minimizedRMSD -1
REMARK  0 active torsions:
REMARK  status: ('A' for Active; 'I' for Inactive)
ROOT
ATOM      1  C   UNL d   1       1.116   0.178  -3.235  0.00  0.00     0.078 C 
ATOM      2  C1  UNL d   1       0.349   0.084  -1.950  0.00  0.00    -0.077 A 
ATOM      3  C2  UNL d   1      -0.320  -1.093  -1.595  0.00  0.00    -0.001 A 
ATOM      4  C3  UNL d   1      -1.039  -1.164  -0.400  0.00  0.00     0.003 A 
ATOM      5  C4  UNL d   1      -1.095  -0.060   0.449  0.00  0.00    -0.005 A 
ATOM      6  C5  UNL d   1      -0.433   1.117   0.103  0.00  0.00     0.003 A 
ATOM      7  C6  UNL d   1       0.286   1.189  -1.092  0.00  0.00    -0.001 A 
ENDROOT
TORSDOF 0
ENDMDL
