MODEL 1
REMARK minimizedAffinity -3.62260938
REMARK minimizedRMSD -1
REMARK  0 active torsions:
REMARK  status: ('A' for Active; 'I' for Inactive)
ROOT
ATOM      1  C   UNL d   1       0.321   0.159  -0.868  0.00  0.00     0.078 C 
ATOM      2  C1  UNL d   1       0.327  -0.006   0.622  0.00  0.00    -0.077 A 
ATOM      3  C2  UNL d   1      -0.827   0.232   1.379  0.00  0.00    -0.001 A 
ATOM      4  C3  UNL d   1      -0.805   0.083   2.766  0.00  0.00     0.003 A 
ATOM      5  C4  UNL d   1       0.370  -0.302   3.410  0.00  0.00    -0.005 A 
ATOM      6  C5  UNL d   1       1.524  -0.539   2.666  0.00  0.00     0.003 A 
ATOM      7  C6  UNL d   1       1.503  -0.391   1.278  0.00  0.00    -0.001 A 
ENDROOT
TORSDOF 0
ENDMDL
