MODEL 1
REMARK minimizedAffinity -4.28951693
REMARK minimizedRMSD -1
REMARK  0 active torsions:
REMARK  status: ('A' for Active; 'I' for Inactive)
ROOT
ATOM      1  C   UNL d   1       0.429   0.034  -1.730  0.00  0.00     0.078 C 
ATOM      2  C1  UNL d   1      -0.303   0.259  -0.441  0.00  0.00    -0.077 A 
ATOM      3  C2  UNL d   1       0.213  -0.211   0.773  0.00  0.00    -0.001 A 
ATOM      4  C3  UNL d   1      -0.485  -0.003   1.964  0.00  0.00     0.003 A 
ATOM      5  C4  UNL d   1      -1.703   0.674   1.953  0.00  0.00    -0.005 A 
ATOM      6  C5  UNL d   1      -2.225   1.143   0.749  0.00  0.00     0.003 A 
ATOM      7  C6  UNL d   1      -1.529   0.936  -0.443  0.00  0.00    -0.001 A 
ENDROOT
TORSDOF 0
ENDMDL
