MODEL 1
REMARK minimizedAffinity -2.92631793
REMARK minimizedRMSD -1
REMARK  0 active torsions:
REMARK  status: ('A' for Active; 'I' for Inactive)
ROOT
ATOM      1  C   UNL d   1       0.335  -0.334  -1.307  0.00  0.00     0.078 C 
ATOM      2  C1  UNL d   1      -0.047   0.002   0.103  0.00  0.00    -0.077 A 
ATOM      3  C2  UNL d   1       0.864  -0.160   1.155  0.00  0.00    -0.001 A 
ATOM      4  C3  UNL d   1       0.491   0.147   2.464  0.00  0.00     0.003 A 
ATOM      5  C4  UNL d   1      -0.792   0.617   2.735  0.00  0.00    -0.005 A 
ATOM      6  C5  UNL d   1      -1.706   0.779   1.695  0.00  0.00     0.003 A 
ATOM      7  C6  UNL d   1      -1.335   0.473   0.385  0.00  0.00    -0.001 A 
ENDROOT
TORSDOF 0
ENDMDL
