MODEL 1
REMARK minimizedAffinity -2.75925684
REMARK minimizedRMSD -1
REMARK  0 active torsions:
REMARK  status: ('A' for Active; 'I' for Inactive)
ROOT
ATOM      1  C   UNL d   1       1.622   0.670  -3.626  0.00  0.00     0.078 C 
ATOM      2  C1  UNL d   1       0.814   0.324  -2.411  0.00  0.00    -0.077 A 
ATOM      3  C2  UNL d   1       0.922  -0.935  -1.807  0.00  0.00    -0.001 A 
ATOM      4  C3  UNL d   1       0.157  -1.246  -0.682  0.00  0.00     0.003 A 
ATOM      5  C4  UNL d   1      -0.722  -0.304  -0.151  0.00  0.00    -0.005 A 
ATOM      6  C5  UNL d   1      -0.837   0.951  -0.745  0.00  0.00     0.003 A 
ATOM      7  C6  UNL d   1      -0.073   1.264  -1.871  0.00  0.00    -0.001 A 
ENDROOT
TORSDOF 0
ENDMDL
