MODEL 1
REMARK minimizedAffinity 13.2286673
REMARK minimizedRMSD -1
REMARK  1 active torsions:
REMARK  status: ('A' for Active; 'I' for Inactive)
REMARK    1  A    between atoms: C1_2  and  C2_3 
ROOT
ATOM      1  C2  UNL d   1       2.017   0.371  -0.169  0.00  0.00    -0.081 A 
ATOM      2  C3  UNL d   1       1.798   1.750  -0.055  0.00  0.00     0.006 A 
ATOM      3  C4  UNL d   1       1.590   2.332   1.197  0.00  0.00     0.002 A 
ATOM      4  C5  UNL d   1       1.605   1.549   2.356  0.00  0.00    -0.080 A 
ATOM      5  C6  UNL d   1       1.413   2.166   3.709  0.00  0.00     0.076 C 
ATOM      6  C7  UNL d   1       1.807   0.169   2.240  0.00  0.00     0.002 A 
ATOM      7  C8  UNL d   1       2.015  -0.414   0.988  0.00  0.00     0.006 A 
ENDROOT
BRANCH   1   8
ATOM      8  C1  UNL d   1       2.307  -0.250  -1.512  0.00  0.00     0.054 C 
ATOM      9  C   UNL d   1       3.332   0.563  -2.289  0.00  0.00     0.018 C 
ENDBRANCH   1   8
TORSDOF 1
ENDMDL
