MODEL 1
REMARK minimizedAffinity 9.19516659
REMARK minimizedRMSD -1
REMARK  1 active torsions:
REMARK  status: ('A' for Active; 'I' for Inactive)
REMARK    1  A    between atoms: C1_2  and  C2_3 
ROOT
ATOM      1  C2  UNL d   1       2.235  -2.579  -0.518  0.00  0.00    -0.081 A 
ATOM      2  C3  UNL d   1       2.469  -1.494   0.335  0.00  0.00     0.006 A 
ATOM      3  C4  UNL d   1       3.437  -0.538   0.016  0.00  0.00     0.002 A 
ATOM      4  C5  UNL d   1       4.180  -0.647  -1.164  0.00  0.00    -0.080 A 
ATOM      5  C6  UNL d   1       5.201   0.388  -1.534  0.00  0.00     0.076 C 
ATOM      6  C7  UNL d   1       3.958  -1.741  -2.008  0.00  0.00     0.002 A 
ATOM      7  C8  UNL d   1       2.991  -2.697  -1.689  0.00  0.00     0.006 A 
ENDROOT
BRANCH   1   8
ATOM      8  C1  UNL d   1       1.147  -3.576  -0.209  0.00  0.00     0.054 C 
ATOM      9  C   UNL d   1      -0.121  -3.272  -0.993  0.00  0.00     0.018 C 
ENDBRANCH   1   8
TORSDOF 1
ENDMDL
