MODEL 1
REMARK minimizedAffinity 16.0421124
REMARK minimizedRMSD -1
REMARK  1 active torsions:
REMARK  status: ('A' for Active; 'I' for Inactive)
REMARK    1  A    between atoms: C1_2  and  C2_3 
ROOT
ATOM      1  C2  UNL d   1       3.147   3.329   1.906  0.00  0.00    -0.081 A 
ATOM      2  C3  UNL d   1       2.977   3.126   0.531  0.00  0.00     0.006 A 
ATOM      3  C4  UNL d   1       3.713   3.873  -0.391  0.00  0.00     0.002 A 
ATOM      4  C5  UNL d   1       4.637   4.829   0.045  0.00  0.00    -0.080 A 
ATOM      5  C6  UNL d   1       5.456   5.616  -0.934  0.00  0.00     0.076 C 
ATOM      6  C7  UNL d   1       4.795   5.043   1.418  0.00  0.00     0.002 A 
ATOM      7  C8  UNL d   1       4.058   4.297   2.341  0.00  0.00     0.006 A 
ENDROOT
BRANCH   1   8
ATOM      8  C1  UNL d   1       2.402   2.480   2.904  0.00  0.00     0.054 C 
ATOM      9  C   UNL d   1       2.728   2.890   4.333  0.00  0.00     0.018 C 
ENDBRANCH   1   8
TORSDOF 1
ENDMDL
