MODEL 1
REMARK minimizedAffinity 3.08340216
REMARK minimizedRMSD -1
REMARK  0 active torsions:
REMARK  status: ('A' for Active; 'I' for Inactive)
ROOT
ATOM      1  C1  DEN d   1       4.205   0.859  -0.885  0.00  0.00     0.130 A 
ATOM      2  C2  DEN d   1       3.406   1.711  -0.008  0.00  0.00    -0.031 A 
ATOM      3  C3  DEN d   1       2.255   0.920   0.472  0.00  0.00     0.027 A 
ATOM      4  C4  DEN d   1       1.639  -1.530  -0.051  0.00  0.00     0.027 A 
ATOM      5  C5  DEN d   1       2.009  -2.654  -0.755  0.00  0.00    -0.003 A 
ATOM      6  C6  DEN d   1       3.108  -2.676  -1.571  0.00  0.00     0.001 A 
ATOM      7  C7  DEN d   1       3.903  -1.565  -1.669  0.00  0.00     0.017 A 
ATOM      8  C8  DEN d   1       3.533  -0.425  -0.969  0.00  0.00    -0.094 A 
ATOM      9  C9  DEN d   1       2.424  -0.426  -0.139  0.00  0.00    -0.072 A 
ENDROOT
TORSDOF 0
ENDMDL
