MODEL 1
REMARK minimizedAffinity 14.2193737
REMARK minimizedRMSD -1
REMARK  0 active torsions:
REMARK  status: ('A' for Active; 'I' for Inactive)
ROOT
ATOM      1  C1  DEN d   1      -0.081   1.502   0.729  0.00  0.00     0.130 A 
ATOM      2  C2  DEN d   1      -0.423   0.961  -0.584  0.00  0.00    -0.031 A 
ATOM      3  C3  DEN d   1      -1.473   1.817  -1.172  0.00  0.00     0.027 A 
ATOM      4  C4  DEN d   1      -2.595   3.919  -0.183  0.00  0.00     0.027 A 
ATOM      5  C5  DEN d   1      -2.643   4.757   0.909  0.00  0.00    -0.003 A 
ATOM      6  C6  DEN d   1      -1.873   4.551   2.022  0.00  0.00     0.001 A 
ATOM      7  C7  DEN d   1      -0.986   3.507   2.050  0.00  0.00     0.017 A 
ATOM      8  C8  DEN d   1      -0.937   2.653   0.956  0.00  0.00    -0.094 A 
ATOM      9  C9  DEN d   1      -1.715   2.886  -0.165  0.00  0.00    -0.072 A 
ENDROOT
TORSDOF 0
ENDMDL
