MODEL 1
REMARK minimizedAffinity 9.18125057
REMARK minimizedRMSD -1
REMARK  0 active torsions:
REMARK  status: ('A' for Active; 'I' for Inactive)
ROOT
ATOM      1  C1  DEN d   1      -4.831   1.108  -0.463  0.00  0.00     0.130 A 
ATOM      2  C2  DEN d   1      -5.171   0.111  -1.475  0.00  0.00    -0.031 A 
ATOM      3  C3  DEN d   1      -3.969  -0.133  -2.297  0.00  0.00     0.027 A 
ATOM      4  C4  DEN d   1      -1.626   0.927  -2.101  0.00  0.00     0.027 A 
ATOM      5  C5  DEN d   1      -0.859   1.834  -1.403  0.00  0.00    -0.003 A 
ATOM      6  C6  DEN d   1      -1.367   2.581  -0.374  0.00  0.00     0.001 A 
ATOM      7  C7  DEN d   1      -2.668   2.402   0.017  0.00  0.00     0.017 A 
ATOM      8  C8  DEN d   1      -3.449   1.495  -0.686  0.00  0.00    -0.094 A 
ATOM      9  C9  DEN d   1      -2.913   0.740  -1.716  0.00  0.00    -0.072 A 
ENDROOT
TORSDOF 0
ENDMDL
