MODEL 1
REMARK minimizedAffinity 12.265213
REMARK minimizedRMSD -1
REMARK  0 active torsions:
REMARK  status: ('A' for Active; 'I' for Inactive)
ROOT
ATOM      1  C1  DEN d   1       2.424   0.362   0.870  0.00  0.00     0.130 A 
ATOM      2  C2  DEN d   1       3.236   1.159  -0.046  0.00  0.00    -0.031 A 
ATOM      3  C3  DEN d   1       3.495   0.346  -1.251  0.00  0.00     0.027 A 
ATOM      4  C4  DEN d   1       2.719  -2.055  -1.787  0.00  0.00     0.027 A 
ATOM      5  C5  DEN d   1       2.018  -3.141  -1.311  0.00  0.00    -0.003 A 
ATOM      6  C6  DEN d   1       1.437  -3.148  -0.071  0.00  0.00     0.001 A 
ATOM      7  C7  DEN d   1       1.507  -2.030   0.718  0.00  0.00     0.017 A 
ATOM      8  C8  DEN d   1       2.219  -0.934   0.248  0.00  0.00    -0.094 A 
ATOM      9  C9  DEN d   1       2.789  -0.942  -1.014  0.00  0.00    -0.072 A 
ENDROOT
TORSDOF 0
ENDMDL
