MODEL 1
REMARK minimizedAffinity 3.19492507
REMARK minimizedRMSD -1
REMARK  0 active torsions:
REMARK  status: ('A' for Active; 'I' for Inactive)
ROOT
ATOM      1  C1  DEN d   1      -0.060   1.187   3.490  0.00  0.00     0.130 A 
ATOM      2  C2  DEN d   1       0.903   0.109   3.280  0.00  0.00    -0.031 A 
ATOM      3  C3  DEN d   1       0.948  -0.187   1.835  0.00  0.00     0.027 A 
ATOM      4  C4  DEN d   1      -0.368   0.916  -0.090  0.00  0.00     0.027 A 
ATOM      5  C5  DEN d   1      -1.312   1.868  -0.403  0.00  0.00    -0.003 A 
ATOM      6  C6  DEN d   1      -1.925   2.631   0.556  0.00  0.00     0.001 A 
ATOM      7  C7  DEN d   1      -1.568   2.485   1.870  0.00  0.00     0.017 A 
ATOM      8  C8  DEN d   1      -0.622   1.522   2.194  0.00  0.00    -0.094 A 
ATOM      9  C9  DEN d   1      -0.005   0.769   1.209  0.00  0.00    -0.072 A 
ENDROOT
TORSDOF 0
ENDMDL
