MODEL 1
REMARK minimizedAffinity 8.30564022
REMARK minimizedRMSD -1
REMARK  0 active torsions:
REMARK  status: ('A' for Active; 'I' for Inactive)
ROOT
ATOM      1  C1  DEN d   1      -0.865   0.837   3.705  0.00  0.00     0.130 A 
ATOM      2  C2  DEN d   1       0.428   0.361   4.189  0.00  0.00    -0.031 A 
ATOM      3  C3  DEN d   1       1.376   0.384   3.056  0.00  0.00     0.027 A 
ATOM      4  C4  DEN d   1       0.971   1.113   0.616  0.00  0.00     0.027 A 
ATOM      5  C5  DEN d   1       0.030   1.583  -0.274  0.00  0.00    -0.003 A 
ATOM      6  C6  DEN d   1      -1.272   1.803   0.089  0.00  0.00     0.001 A 
ATOM      7  C7  DEN d   1      -1.660   1.596   1.386  0.00  0.00     0.017 A 
ATOM      8  C8  DEN d   1      -0.719   1.115   2.287  0.00  0.00    -0.094 A 
ATOM      9  C9  DEN d   1       0.596   0.911   1.904  0.00  0.00    -0.072 A 
ENDROOT
TORSDOF 0
ENDMDL
