MODEL 1
REMARK minimizedAffinity 7.93742657
REMARK minimizedRMSD -1
REMARK  0 active torsions:
REMARK  status: ('A' for Active; 'I' for Inactive)
ROOT
ATOM      1  C1  DEN d   1      -3.929   0.409  -3.220  0.00  0.00     0.130 A 
ATOM      2  C2  DEN d   1      -3.237   0.509  -4.503  0.00  0.00    -0.031 A 
ATOM      3  C3  DEN d   1      -3.513   1.846  -5.067  0.00  0.00     0.027 A 
ATOM      4  C4  DEN d   1      -4.932   3.761  -4.082  0.00  0.00     0.027 A 
ATOM      5  C5  DEN d   1      -5.724   4.140  -3.021  0.00  0.00    -0.003 A 
ATOM      6  C6  DEN d   1      -5.999   3.297  -1.977  0.00  0.00     0.001 A 
ATOM      7  C7  DEN d   1      -5.440   2.047  -1.949  0.00  0.00     0.017 A 
ATOM      8  C8  DEN d   1      -4.646   1.655  -3.019  0.00  0.00    -0.094 A 
ATOM      9  C9  DEN d   1      -4.370   2.526  -4.059  0.00  0.00    -0.072 A 
ENDROOT
TORSDOF 0
ENDMDL
