MODEL 1
REMARK minimizedAffinity 3.41907048
REMARK minimizedRMSD -1
REMARK  0 active torsions:
REMARK  status: ('A' for Active; 'I' for Inactive)
ROOT
ATOM      1  C1  DEN d   1      -2.286   1.281   0.881  0.00  0.00     0.130 A 
ATOM      2  C2  DEN d   1      -1.956   1.350  -0.540  0.00  0.00    -0.031 A 
ATOM      3  C3  DEN d   1      -0.485   1.399  -0.665  0.00  0.00     0.027 A 
ATOM      4  C4  DEN d   1       1.303   1.371   1.194  0.00  0.00     0.027 A 
ATOM      5  C5  DEN d   1       1.506   1.331   2.555  0.00  0.00    -0.003 A 
ATOM      6  C6  DEN d   1       0.468   1.306   3.448  0.00  0.00     0.001 A 
ATOM      7  C7  DEN d   1      -0.822   1.275   2.988  0.00  0.00     0.017 A 
ATOM      8  C8  DEN d   1      -1.035   1.323   1.617  0.00  0.00    -0.094 A 
ATOM      9  C9  DEN d   1       0.028   1.335   0.730  0.00  0.00    -0.072 A 
ENDROOT
TORSDOF 0
ENDMDL
