MODEL 1
REMARK minimizedAffinity -1.84262526
REMARK minimizedRMSD -1
REMARK  0 active torsions:
REMARK  status: ('A' for Active; 'I' for Inactive)
ROOT
ATOM      1  C1  DEN d   1       1.300   0.846   1.839  0.00  0.00     0.130 A 
ATOM      2  C2  DEN d   1       0.661  -0.200   2.632  0.00  0.00    -0.031 A 
ATOM      3  C3  DEN d   1       1.166  -1.505   2.159  0.00  0.00     0.027 A 
ATOM      4  C4  DEN d   1       2.871  -2.003   0.289  0.00  0.00     0.027 A 
ATOM      5  C5  DEN d   1       3.678  -1.438  -0.674  0.00  0.00    -0.003 A 
ATOM      6  C6  DEN d   1       3.723  -0.086  -0.888  0.00  0.00     0.001 A 
ATOM      7  C7  DEN d   1       2.980   0.751  -0.098  0.00  0.00     0.017 A 
ATOM      8  C8  DEN d   1       2.159   0.189   0.870  0.00  0.00    -0.094 A 
ATOM      9  C9  DEN d   1       2.137  -1.180   1.079  0.00  0.00    -0.072 A 
ENDROOT
TORSDOF 0
ENDMDL
