MODEL 1
REMARK minimizedAffinity 7.29453421
REMARK minimizedRMSD -1
REMARK  0 active torsions:
REMARK  status: ('A' for Active; 'I' for Inactive)
ROOT
ATOM      1  C1  DEN d   1       1.867   0.798  -0.312  0.00  0.00     0.130 A 
ATOM      2  C2  DEN d   1       2.729   0.543   0.839  0.00  0.00    -0.031 A 
ATOM      3  C3  DEN d   1       1.909   0.675   2.060  0.00  0.00     0.027 A 
ATOM      4  C4  DEN d   1      -0.598   1.241   2.279  0.00  0.00     0.027 A 
ATOM      5  C5  DEN d   1      -1.744   1.551   1.581  0.00  0.00    -0.003 A 
ATOM      6  C6  DEN d   1      -1.759   1.664   0.216  0.00  0.00     0.001 A 
ATOM      7  C7  DEN d   1      -0.615   1.421  -0.498  0.00  0.00     0.017 A 
ATOM      8  C8  DEN d   1       0.546   1.116   0.200  0.00  0.00    -0.094 A 
ATOM      9  C9  DEN d   1       0.538   0.994   1.579  0.00  0.00    -0.072 A 
ENDROOT
TORSDOF 0
ENDMDL
