MODEL 1
REMARK minimizedAffinity 5.09090185
REMARK minimizedRMSD -1
REMARK  0 active torsions:
REMARK  status: ('A' for Active; 'I' for Inactive)
ROOT
ATOM      1  C1  DEN d   1       2.100  -0.103  -0.414  0.00  0.00     0.130 A 
ATOM      2  C2  DEN d   1       2.962  -0.994   0.358  0.00  0.00    -0.031 A 
ATOM      3  C3  DEN d   1       2.355  -1.173   1.692  0.00  0.00     0.027 A 
ATOM      4  C4  DEN d   1       0.175  -0.167   2.632  0.00  0.00     0.027 A 
ATOM      5  C5  DEN d   1      -0.891   0.660   2.354  0.00  0.00    -0.003 A 
ATOM      6  C6  DEN d   1      -1.017   1.311   1.155  0.00  0.00     0.001 A 
ATOM      7  C7  DEN d   1      -0.082   1.112   0.173  0.00  0.00     0.017 A 
ATOM      8  C8  DEN d   1       0.999   0.286   0.450  0.00  0.00    -0.094 A 
ATOM      9  C9  DEN d   1       1.102  -0.373   1.663  0.00  0.00    -0.072 A 
ENDROOT
TORSDOF 0
ENDMDL
