MODEL 1
REMARK minimizedAffinity -1.51158547
REMARK minimizedRMSD -1
REMARK  0 active torsions:
REMARK  status: ('A' for Active; 'I' for Inactive)
ROOT
ATOM      1  C1  BNZ d   1       5.444   5.459  -5.997  0.00  0.00     0.000 A 
ATOM      2  C2  BNZ d   1       4.185   5.999  -5.970  0.00  0.00     0.000 A 
ATOM      3  C3  BNZ d   1       3.279   5.612  -5.023  0.00  0.00     0.000 A 
ATOM      4  C4  BNZ d   1       3.617   4.659  -4.131  0.00  0.00     0.000 A 
ATOM      5  C5  BNZ d   1       4.879   4.098  -4.152  0.00  0.00     0.000 A 
ATOM      6  C6  BNZ d   1       5.802   4.518  -5.082  0.00  0.00     0.000 A 
ENDROOT
TORSDOF 0
ENDMDL
