MODEL 1
REMARK minimizedAffinity 1.45848393
REMARK minimizedRMSD -1
REMARK  0 active torsions:
REMARK  status: ('A' for Active; 'I' for Inactive)
ROOT
ATOM      1  C1  BNZ d   1       3.004   3.937  -4.874  0.00  0.00     0.000 A 
ATOM      2  C2  BNZ d   1       4.327   3.949  -4.522  0.00  0.00     0.000 A 
ATOM      3  C3  BNZ d   1       5.137   4.991  -4.876  0.00  0.00     0.000 A 
ATOM      4  C4  BNZ d   1       4.634   6.000  -5.617  0.00  0.00     0.000 A 
ATOM      5  C5  BNZ d   1       3.304   5.998  -5.988  0.00  0.00     0.000 A 
ATOM      6  C6  BNZ d   1       2.482   4.966  -5.596  0.00  0.00     0.000 A 
ENDROOT
TORSDOF 0
ENDMDL
