MODEL 1
REMARK minimizedAffinity -3.85491943
REMARK minimizedRMSD -1
REMARK  0 active torsions:
REMARK  status: ('A' for Active; 'I' for Inactive)
ROOT
ATOM      1  C1  BNZ d   1      -2.053   1.784   2.811  0.00  0.00     0.000 A 
ATOM      2  C2  BNZ d   1      -0.802   2.107   2.357  0.00  0.00     0.000 A 
ATOM      3  C3  BNZ d   1      -0.054   1.198   1.661  0.00  0.00     0.000 A 
ATOM      4  C4  BNZ d   1      -0.541  -0.043   1.456  0.00  0.00     0.000 A 
ATOM      5  C5  BNZ d   1      -1.796  -0.386   1.916  0.00  0.00     0.000 A 
ATOM      6  C6  BNZ d   1      -2.562   0.543   2.582  0.00  0.00     0.000 A 
ENDROOT
TORSDOF 0
ENDMDL
