MODEL 1
REMARK minimizedAffinity 0.782293558
REMARK minimizedRMSD -1
REMARK  0 active torsions:
REMARK  status: ('A' for Active; 'I' for Inactive)
ROOT
ATOM      1  C1  BNZ d   1      -3.722   1.283   3.695  0.00  0.00     0.000 A 
ATOM      2  C2  BNZ d   1      -2.887   2.313   3.355  0.00  0.00     0.000 A 
ATOM      3  C3  BNZ d   1      -1.712   2.074   2.699  0.00  0.00     0.000 A 
ATOM      4  C4  BNZ d   1      -1.354   0.804   2.421  0.00  0.00     0.000 A 
ATOM      5  C5  BNZ d   1      -2.181  -0.247   2.765  0.00  0.00     0.000 A 
ATOM      6  C6  BNZ d   1      -3.382   0.001   3.390  0.00  0.00     0.000 A 
ENDROOT
TORSDOF 0
ENDMDL
