MODEL 1
REMARK minimizedAffinity 0.428319782
REMARK minimizedRMSD -1
REMARK  0 active torsions:
REMARK  status: ('A' for Active; 'I' for Inactive)
ROOT
ATOM      1  C1  BNZ d   1      -1.615   2.063   2.672  0.00  0.00     0.000 A 
ATOM      2  C2  BNZ d   1      -2.835   2.270   3.259  0.00  0.00     0.000 A 
ATOM      3  C3  BNZ d   1      -3.607   1.214   3.658  0.00  0.00     0.000 A 
ATOM      4  C4  BNZ d   1      -3.178  -0.044   3.432  0.00  0.00     0.000 A 
ATOM      5  C5  BNZ d   1      -1.955  -0.268   2.832  0.00  0.00     0.000 A 
ATOM      6  C6  BNZ d   1      -1.162   0.796   2.468  0.00  0.00     0.000 A 
ENDROOT
TORSDOF 0
ENDMDL
