MODEL 1
REMARK minimizedAffinity 3.7389977
REMARK minimizedRMSD -1
REMARK  0 active torsions:
REMARK  status: ('A' for Active; 'I' for Inactive)
ROOT
ATOM      1  C1  BNZ d   1      -3.716  -1.537  -1.000  0.00  0.00     0.000 A 
ATOM      2  C2  BNZ d   1      -3.565  -2.751  -0.384  0.00  0.00     0.000 A 
ATOM      3  C3  BNZ d   1      -2.964  -3.794  -1.032  0.00  0.00     0.000 A 
ATOM      4  C4  BNZ d   1      -2.552  -3.634  -2.307  0.00  0.00     0.000 A 
ATOM      5  C5  BNZ d   1      -2.706  -2.419  -2.944  0.00  0.00     0.000 A 
ATOM      6  C6  BNZ d   1      -3.276  -1.360  -2.275  0.00  0.00     0.000 A 
ENDROOT
TORSDOF 0
ENDMDL
