MODEL 1
REMARK minimizedAffinity 1.71702075
REMARK minimizedRMSD -1
REMARK  0 active torsions:
REMARK  status: ('A' for Active; 'I' for Inactive)
ROOT
ATOM      1  C1  BNZ d   1      -3.376  -2.229   3.964  0.00  0.00     0.000 A 
ATOM      2  C2  BNZ d   1      -3.313  -1.546   2.779  0.00  0.00     0.000 A 
ATOM      3  C3  BNZ d   1      -2.118  -1.357   2.143  0.00  0.00     0.000 A 
ATOM      4  C4  BNZ d   1      -0.984  -1.814   2.712  0.00  0.00     0.000 A 
ATOM      5  C5  BNZ d   1      -1.030  -2.496   3.912  0.00  0.00     0.000 A 
ATOM      6  C6  BNZ d   1      -2.239  -2.719   4.530  0.00  0.00     0.000 A 
ENDROOT
TORSDOF 0
ENDMDL
