MODEL 1
REMARK minimizedAffinity 1.48133326
REMARK minimizedRMSD -1
REMARK  0 active torsions:
REMARK  status: ('A' for Active; 'I' for Inactive)
ROOT
ATOM      1  C1  BNZ d   1      -0.696   2.505   2.090  0.00  0.00     0.000 A 
ATOM      2  C2  BNZ d   1      -1.377   1.810   3.054  0.00  0.00     0.000 A 
ATOM      3  C3  BNZ d   1      -2.711   2.025   3.261  0.00  0.00     0.000 A 
ATOM      4  C4  BNZ d   1      -3.352   2.961   2.533  0.00  0.00     0.000 A 
ATOM      5  C5  BNZ d   1      -2.678   3.677   1.563  0.00  0.00     0.000 A 
ATOM      6  C6  BNZ d   1      -1.344   3.430   1.331  0.00  0.00     0.000 A 
ENDROOT
TORSDOF 0
ENDMDL
