MODEL 1
REMARK minimizedAffinity 2.61339951
REMARK minimizedRMSD -1
REMARK  0 active torsions:
REMARK  status: ('A' for Active; 'I' for Inactive)
ROOT
ATOM      1  C1  BNZ d   1       5.395  -1.086   0.012  0.00  0.00     0.000 A 
ATOM      2  C2  BNZ d   1       5.440  -0.721   1.331  0.00  0.00     0.000 A 
ATOM      3  C3  BNZ d   1       4.291  -0.570   2.056  0.00  0.00     0.000 A 
ATOM      4  C4  BNZ d   1       3.098  -0.746   1.451  0.00  0.00     0.000 A 
ATOM      5  C5  BNZ d   1       3.035  -1.106   0.120  0.00  0.00     0.000 A 
ATOM      6  C6  BNZ d   1       4.195  -1.294  -0.596  0.00  0.00     0.000 A 
ENDROOT
TORSDOF 0
ENDMDL
