MODEL 1
REMARK minimizedAffinity 2.30974126
REMARK minimizedRMSD -1
REMARK  0 active torsions:
REMARK  status: ('A' for Active; 'I' for Inactive)
ROOT
ATOM      1  C1  BNZ d   1      -1.769   2.814   2.428  0.00  0.00     0.000 A 
ATOM      2  C2  BNZ d   1      -2.846   3.276   3.136  0.00  0.00     0.000 A 
ATOM      3  C3  BNZ d   1      -3.722   2.407   3.725  0.00  0.00     0.000 A 
ATOM      4  C4  BNZ d   1      -3.542   1.079   3.571  0.00  0.00     0.000 A 
ATOM      5  C5  BNZ d   1      -2.467   0.598   2.851  0.00  0.00     0.000 A 
ATOM      6  C6  BNZ d   1      -1.566   1.475   2.293  0.00  0.00     0.000 A 
ENDROOT
TORSDOF 0
ENDMDL
