MODEL 1
REMARK minimizedAffinity -1.2549547
REMARK minimizedRMSD -1
REMARK  0 active torsions:
REMARK  status: ('A' for Active; 'I' for Inactive)
ROOT
ATOM      1  C1  BNZ d   1       2.643   1.128  -0.183  0.00  0.00     0.000 A 
ATOM      2  C2  BNZ d   1       3.448   0.663   0.822  0.00  0.00     0.000 A 
ATOM      3  C3  BNZ d   1       4.310  -0.376   0.605  0.00  0.00     0.000 A 
ATOM      4  C4  BNZ d   1       4.336  -0.974  -0.603  0.00  0.00     0.000 A 
ATOM      5  C5  BNZ d   1       3.523  -0.523  -1.624  0.00  0.00     0.000 A 
ATOM      6  C6  BNZ d   1       2.685   0.548  -1.413  0.00  0.00     0.000 A 
ENDROOT
TORSDOF 0
ENDMDL
