MODEL 1
REMARK minimizedAffinity -1.955212
REMARK minimizedRMSD -1
REMARK  0 active torsions:
REMARK  status: ('A' for Active; 'I' for Inactive)
ROOT
ATOM      1  C   UNL d   1      -2.153  -0.370   1.853  0.00  0.00     0.020 A 
ATOM      2  C1  UNL d   1      -1.710  -1.633   2.246  0.00  0.00     0.020 A 
ATOM      3  C2  UNL d   1      -0.593  -2.203   1.631  0.00  0.00     0.034 A 
ATOM      4  C3  UNL d   1       0.084  -1.511   0.620  0.00  0.00     0.017 A 
ATOM      5  C4  UNL d   1      -0.361  -0.244   0.227  0.00  0.00     0.017 A 
ATOM      6  C5  UNL d   1      -1.480   0.322   0.846  0.00  0.00     0.034 A 
ATOM      7 Cl   UNL d   1       0.422   0.670  -1.013  0.00  0.00    -0.070 Cl
ATOM      8 Cl1  UNL d   1       1.458  -2.276  -0.096  0.00  0.00    -0.070 Cl
ENDROOT
TORSDOF 0
ENDMDL
