MODEL 1
REMARK minimizedAffinity -4.56956053
REMARK minimizedRMSD -1
REMARK  0 active torsions:
REMARK  status: ('A' for Active; 'I' for Inactive)
ROOT
ATOM      1  C   UNL d   1       0.490  -0.313  -0.056  0.00  0.00     0.020 A 
ATOM      2  C1  UNL d   1       0.676  -1.693   0.017  0.00  0.00     0.020 A 
ATOM      3  C2  UNL d   1      -0.271  -2.492   0.659  0.00  0.00     0.034 A 
ATOM      4  C3  UNL d   1      -1.410  -1.913   1.231  0.00  0.00     0.017 A 
ATOM      5  C4  UNL d   1      -1.596  -0.528   1.157  0.00  0.00     0.017 A 
ATOM      6  C5  UNL d   1      -0.644   0.268   0.513  0.00  0.00     0.034 A 
ATOM      7 Cl   UNL d   1      -2.976   0.260   1.839  0.00  0.00    -0.070 Cl
ATOM      8 Cl1  UNL d   1      -2.541  -2.962   2.009  0.00  0.00    -0.070 Cl
ENDROOT
TORSDOF 0
ENDMDL
