MODEL 1
REMARK minimizedAffinity -5.22813702
REMARK minimizedRMSD -1
REMARK  0 active torsions:
REMARK  status: ('A' for Active; 'I' for Inactive)
ROOT
ATOM      1  C   UNL d   1      -2.613  -2.191   0.320  0.00  0.00     0.020 A 
ATOM      2  C1  UNL d   1      -1.901  -2.447   1.491  0.00  0.00     0.020 A 
ATOM      3  C2  UNL d   1      -0.597  -1.967   1.633  0.00  0.00     0.034 A 
ATOM      4  C3  UNL d   1      -0.002  -1.230   0.604  0.00  0.00     0.017 A 
ATOM      5  C4  UNL d   1      -0.718  -0.973  -0.571  0.00  0.00     0.017 A 
ATOM      6  C5  UNL d   1      -2.023  -1.456  -0.709  0.00  0.00     0.034 A 
ATOM      7 Cl   UNL d   1      -0.051  -0.070  -1.885  0.00  0.00    -0.070 Cl
ATOM      8 Cl1  UNL d   1       1.614  -0.667   0.848  0.00  0.00    -0.070 Cl
ENDROOT
TORSDOF 0
ENDMDL
