MODEL 1
REMARK minimizedAffinity -3.90730786
REMARK minimizedRMSD -1
REMARK  0 active torsions:
REMARK  status: ('A' for Active; 'I' for Inactive)
ROOT
ATOM      1  C   UNL d   1      -1.203  -2.334   0.333  0.00  0.00     0.020 A 
ATOM      2  C1  UNL d   1      -1.928  -1.178   0.048  0.00  0.00     0.020 A 
ATOM      3  C2  UNL d   1      -1.268   0.046  -0.081  0.00  0.00     0.034 A 
ATOM      4  C3  UNL d   1       0.121   0.116   0.074  0.00  0.00     0.017 A 
ATOM      5  C4  UNL d   1       0.848  -1.046   0.360  0.00  0.00     0.017 A 
ATOM      6  C5  UNL d   1       0.182  -2.268   0.488  0.00  0.00     0.034 A 
ATOM      7 Cl   UNL d   1       2.564  -1.038   0.565  0.00  0.00    -0.070 Cl
ATOM      8 Cl1  UNL d   1       0.872   1.662  -0.100  0.00  0.00    -0.070 Cl
ENDROOT
TORSDOF 0
ENDMDL
