MODEL 1
REMARK minimizedAffinity -4.27446651
REMARK minimizedRMSD -1
REMARK  0 active torsions:
REMARK  status: ('A' for Active; 'I' for Inactive)
ROOT
ATOM      1  C   UNL d   1       1.338  -1.259   0.432  0.00  0.00     0.020 A 
ATOM      2  C1  UNL d   1       1.033   0.089   0.255  0.00  0.00     0.020 A 
ATOM      3  C2  UNL d   1      -0.273   0.543   0.458  0.00  0.00     0.034 A 
ATOM      4  C3  UNL d   1      -1.278  -0.354   0.839  0.00  0.00     0.017 A 
ATOM      5  C4  UNL d   1      -0.971  -1.707   1.017  0.00  0.00     0.017 A 
ATOM      6  C5  UNL d   1       0.338  -2.156   0.813  0.00  0.00     0.034 A 
ATOM      7 Cl   UNL d   1      -2.157  -2.873   1.486  0.00  0.00    -0.070 Cl
ATOM      8 Cl1  UNL d   1      -2.870   0.276   1.073  0.00  0.00    -0.070 Cl
ENDROOT
TORSDOF 0
ENDMDL
