MODEL 1
REMARK minimizedAffinity -2.89121199
REMARK minimizedRMSD -1
REMARK  0 active torsions:
REMARK  status: ('A' for Active; 'I' for Inactive)
ROOT
ATOM      1  C   UNL d   1       1.450  -0.311  -0.571  0.00  0.00     0.020 A 
ATOM      2  C1  UNL d   1       0.974   1.000  -0.573  0.00  0.00     0.020 A 
ATOM      3  C2  UNL d   1      -0.291   1.285  -0.056  0.00  0.00     0.034 A 
ATOM      4  C3  UNL d   1      -1.086   0.257   0.465  0.00  0.00     0.017 A 
ATOM      5  C4  UNL d   1      -0.608  -1.058   0.467  0.00  0.00     0.017 A 
ATOM      6  C5  UNL d   1       0.660  -1.338  -0.052  0.00  0.00     0.034 A 
ATOM      7 Cl   UNL d   1      -1.530  -2.379   1.093  0.00  0.00    -0.070 Cl
ATOM      8 Cl1  UNL d   1      -2.641   0.681   1.088  0.00  0.00    -0.070 Cl
ENDROOT
TORSDOF 0
ENDMDL
