MODEL 1
REMARK minimizedAffinity -1.39949691
REMARK minimizedRMSD -1
REMARK  0 active torsions:
REMARK  status: ('A' for Active; 'I' for Inactive)
ROOT
ATOM      1  C   UNL d   1       3.351   1.896  -2.875  0.00  0.00     0.020 A 
ATOM      2  C1  UNL d   1       2.806   2.110  -4.141  0.00  0.00     0.020 A 
ATOM      3  C2  UNL d   1       1.425   2.252  -4.292  0.00  0.00     0.034 A 
ATOM      4  C3  UNL d   1       0.584   2.179  -3.175  0.00  0.00     0.017 A 
ATOM      5  C4  UNL d   1       1.131   1.963  -1.906  0.00  0.00     0.017 A 
ATOM      6  C5  UNL d   1       2.515   1.822  -1.760  0.00  0.00     0.034 A 
ATOM      7 Cl   UNL d   1       0.158   1.862  -0.481  0.00  0.00    -0.070 Cl
ATOM      8 Cl1  UNL d   1      -1.114   2.363  -3.436  0.00  0.00    -0.070 Cl
ENDROOT
TORSDOF 0
ENDMDL
