MODEL 1
REMARK minimizedAffinity -2.20911384
REMARK minimizedRMSD -1
REMARK  0 active torsions:
REMARK  status: ('A' for Active; 'I' for Inactive)
ROOT
ATOM      1  C   UNL d   1       3.953   2.939  -3.385  0.00  0.00     0.020 A 
ATOM      2  C1  UNL d   1       3.299   3.430  -4.515  0.00  0.00     0.020 A 
ATOM      3  C2  UNL d   1       1.922   3.249  -4.659  0.00  0.00     0.034 A 
ATOM      4  C3  UNL d   1       1.194   2.574  -3.672  0.00  0.00     0.017 A 
ATOM      5  C4  UNL d   1       1.851   2.081  -2.539  0.00  0.00     0.017 A 
ATOM      6  C5  UNL d   1       3.230   2.266  -2.400  0.00  0.00     0.034 A 
ATOM      7 Cl   UNL d   1       1.020   1.239  -1.279  0.00  0.00    -0.070 Cl
ATOM      8 Cl1  UNL d   1      -0.506   2.386  -3.916  0.00  0.00    -0.070 Cl
ENDROOT
TORSDOF 0
ENDMDL
