MODEL 1
REMARK minimizedAffinity -4.37639904
REMARK minimizedRMSD -1
REMARK  0 active torsions:
REMARK  status: ('A' for Active; 'I' for Inactive)
ROOT
ATOM      1  C   UNL d   1      -2.250  -1.219   0.994  0.00  0.00     0.020 A 
ATOM      2  C1  UNL d   1      -1.579  -2.385   1.357  0.00  0.00     0.020 A 
ATOM      3  C2  UNL d   1      -0.213  -2.515   1.094  0.00  0.00     0.034 A 
ATOM      4  C3  UNL d   1       0.485  -1.477   0.466  0.00  0.00     0.017 A 
ATOM      5  C4  UNL d   1      -0.191  -0.306   0.103  0.00  0.00     0.017 A 
ATOM      6  C5  UNL d   1      -1.558  -0.182   0.368  0.00  0.00     0.034 A 
ATOM      7 Cl   UNL d   1       0.603   1.018  -0.675  0.00  0.00    -0.070 Cl
ATOM      8 Cl1  UNL d   1       2.172  -1.706   0.172  0.00  0.00    -0.070 Cl
ENDROOT
TORSDOF 0
ENDMDL
