MODEL 1
REMARK minimizedAffinity -4.13301468
REMARK minimizedRMSD -1
REMARK  0 active torsions:
REMARK  status: ('A' for Active; 'I' for Inactive)
ROOT
ATOM      1  C   UNL d   1       0.883   0.585   0.052  0.00  0.00     0.020 A 
ATOM      2  C1  UNL d   1       1.260  -0.747   0.220  0.00  0.00     0.020 A 
ATOM      3  C2  UNL d   1       0.333  -1.681   0.688  0.00  0.00     0.034 A 
ATOM      4  C3  UNL d   1      -0.975  -1.285   0.990  0.00  0.00     0.017 A 
ATOM      5  C4  UNL d   1      -1.352   0.053   0.821  0.00  0.00     0.017 A 
ATOM      6  C5  UNL d   1      -0.420   0.984   0.352  0.00  0.00     0.034 A 
ATOM      7 Cl   UNL d   1      -2.947   0.617   1.173  0.00  0.00    -0.070 Cl
ATOM      8 Cl1  UNL d   1      -2.068  -2.493   1.564  0.00  0.00    -0.070 Cl
ENDROOT
TORSDOF 0
ENDMDL
