MODEL 1
REMARK minimizedAffinity -2.42865729
REMARK minimizedRMSD -1
REMARK  0 active torsions:
REMARK  status: ('A' for Active; 'I' for Inactive)
ROOT
ATOM      1  C   UNL d   1      -0.496  -2.223   1.487  0.00  0.00     0.020 A 
ATOM      2  C1  UNL d   1       0.570  -2.332   0.595  0.00  0.00     0.020 A 
ATOM      3  C2  UNL d   1       1.057  -1.194  -0.052  0.00  0.00     0.034 A 
ATOM      4  C3  UNL d   1       0.479   0.057   0.192  0.00  0.00     0.017 A 
ATOM      5  C4  UNL d   1      -0.591   0.165   1.087  0.00  0.00     0.017 A 
ATOM      6  C5  UNL d   1      -1.075  -0.977   1.733  0.00  0.00     0.034 A 
ATOM      7 Cl   UNL d   1      -1.357   1.674   1.439  0.00  0.00    -0.070 Cl
ATOM      8 Cl1  UNL d   1       1.132   1.421  -0.644  0.00  0.00    -0.070 Cl
ENDROOT
TORSDOF 0
ENDMDL
