MODEL 1
REMARK minimizedAffinity -3.03819084
REMARK minimizedRMSD -1
REMARK  0 active torsions:
REMARK  status: ('A' for Active; 'I' for Inactive)
ROOT
ATOM      1  C   UNL d   1       0.419  -2.177   0.547  0.00  0.00     0.020 A 
ATOM      2  C1  UNL d   1       0.828  -0.984  -0.048  0.00  0.00     0.020 A 
ATOM      3  C2  UNL d   1       0.171   0.210   0.256  0.00  0.00     0.034 A 
ATOM      4  C3  UNL d   1      -0.901   0.213   1.157  0.00  0.00     0.017 A 
ATOM      5  C4  UNL d   1      -1.311  -0.984   1.754  0.00  0.00     0.017 A 
ATOM      6  C5  UNL d   1      -0.649  -2.177   1.446  0.00  0.00     0.034 A 
ATOM      7 Cl   UNL d   1      -2.624  -1.059   2.875  0.00  0.00    -0.070 Cl
ATOM      8 Cl1  UNL d   1      -1.668   1.726   1.487  0.00  0.00    -0.070 Cl
ENDROOT
TORSDOF 0
ENDMDL
