MODEL 1
REMARK minimizedAffinity -5.27065229
REMARK minimizedRMSD -1
REMARK  0 active torsions:
REMARK  status: ('A' for Active; 'I' for Inactive)
ROOT
ATOM      1  C   UNL d   1      -1.998  -2.433   1.839  0.00  0.00     0.020 A 
ATOM      2  C1  UNL d   1      -2.699  -1.228   1.861  0.00  0.00     0.020 A 
ATOM      3  C2  UNL d   1      -2.117  -0.072   1.338  0.00  0.00     0.034 A 
ATOM      4  C3  UNL d   1      -0.829  -0.118   0.791  0.00  0.00     0.017 A 
ATOM      5  C4  UNL d   1      -0.126  -1.328   0.769  0.00  0.00     0.017 A 
ATOM      6  C5  UNL d   1      -0.714  -2.483   1.294  0.00  0.00     0.034 A 
ATOM      7 Cl   UNL d   1       1.466  -1.463   0.111  0.00  0.00    -0.070 Cl
ATOM      8 Cl1  UNL d   1      -0.171   1.350   0.161  0.00  0.00    -0.070 Cl
ENDROOT
TORSDOF 0
ENDMDL
