MODEL 1
REMARK minimizedAffinity -4.45561361
REMARK minimizedRMSD -1
REMARK  0 active torsions:
REMARK  status: ('A' for Active; 'I' for Inactive)
ROOT
ATOM      1  C   UNL d   1      -2.214  -2.458   1.711  0.00  0.00     0.020 A 
ATOM      2  C1  UNL d   1      -3.063  -1.364   1.866  0.00  0.00     0.020 A 
ATOM      3  C2  UNL d   1      -2.629  -0.086   1.506  0.00  0.00     0.034 A 
ATOM      4  C3  UNL d   1      -1.341   0.100   0.989  0.00  0.00     0.017 A 
ATOM      5  C4  UNL d   1      -0.489  -1.000   0.834  0.00  0.00     0.017 A 
ATOM      6  C5  UNL d   1      -0.929  -2.277   1.196  0.00  0.00     0.034 A 
ATOM      7 Cl   UNL d   1       1.113  -0.849   0.203  0.00  0.00    -0.070 Cl
ATOM      8 Cl1  UNL d   1      -0.870   1.707   0.565  0.00  0.00    -0.070 Cl
ENDROOT
TORSDOF 0
ENDMDL
