MODEL 1
REMARK minimizedAffinity -4.62276888
REMARK minimizedRMSD -1
REMARK  0 active torsions:
REMARK  status: ('A' for Active; 'I' for Inactive)
ROOT
ATOM      1  C   UNL d   1      -2.365  -1.272   1.114  0.00  0.00     0.020 A 
ATOM      2  C1  UNL d   1      -1.741  -2.518   1.151  0.00  0.00     0.020 A 
ATOM      3  C2  UNL d   1      -0.410  -2.645   0.745  0.00  0.00     0.034 A 
ATOM      4  C3  UNL d   1       0.300  -1.524   0.300  0.00  0.00     0.017 A 
ATOM      5  C4  UNL d   1      -0.328  -0.273   0.263  0.00  0.00     0.017 A 
ATOM      6  C5  UNL d   1      -1.660  -0.152   0.671  0.00  0.00     0.034 A 
ATOM      7 Cl   UNL d   1       0.484   1.155  -0.273  0.00  0.00    -0.070 Cl
ATOM      8 Cl1  UNL d   1       1.942  -1.754  -0.186  0.00  0.00    -0.070 Cl
ENDROOT
TORSDOF 0
ENDMDL
