MODEL 1
REMARK minimizedAffinity -2.26437402
REMARK minimizedRMSD -1
REMARK  0 active torsions:
REMARK  status: ('A' for Active; 'I' for Inactive)
ROOT
ATOM      1  C   UNL d   1       0.298   2.253  -2.328  0.00  0.00     0.020 A 
ATOM      2  C1  UNL d   1       1.566   2.606  -1.870  0.00  0.00     0.020 A 
ATOM      3  C2  UNL d   1       2.154   1.893  -0.823  0.00  0.00     0.034 A 
ATOM      4  C3  UNL d   1       1.474   0.823  -0.230  0.00  0.00     0.017 A 
ATOM      5  C4  UNL d   1       0.200   0.469  -0.691  0.00  0.00     0.017 A 
ATOM      6  C5  UNL d   1      -0.384   1.186  -1.739  0.00  0.00     0.034 A 
ATOM      7 Cl   UNL d   1      -0.701  -0.839  -0.010  0.00  0.00    -0.070 Cl
ATOM      8 Cl1  UNL d   1       2.261  -0.014   1.060  0.00  0.00    -0.070 Cl
ENDROOT
TORSDOF 0
ENDMDL
