MODEL 1
REMARK minimizedAffinity -3.0662303
REMARK minimizedRMSD -1
REMARK  0 active torsions:
REMARK  status: ('A' for Active; 'I' for Inactive)
ROOT
ATOM      1  C   UNL d   1      -1.885  -2.331   0.862  0.00  0.00     0.020 A 
ATOM      2  C1  UNL d   1      -2.517  -1.147   0.486  0.00  0.00     0.020 A 
ATOM      3  C2  UNL d   1      -1.765  -0.080  -0.010  0.00  0.00     0.034 A 
ATOM      4  C3  UNL d   1      -0.375  -0.196  -0.131  0.00  0.00     0.017 A 
ATOM      5  C4  UNL d   1       0.259  -1.385   0.246  0.00  0.00     0.017 A 
ATOM      6  C5  UNL d   1      -0.500  -2.450   0.742  0.00  0.00     0.034 A 
ATOM      7 Cl   UNL d   1       1.969  -1.603   0.125  0.00  0.00    -0.070 Cl
ATOM      8 Cl1  UNL d   1       0.493   1.162  -0.753  0.00  0.00    -0.070 Cl
ENDROOT
TORSDOF 0
ENDMDL
