MODEL 1
REMARK minimizedAffinity -3.75100374
REMARK minimizedRMSD -1
REMARK  2 active torsions:
REMARK  status: ('A' for Active; 'I' for Inactive)
REMARK    1  A    between atoms: C1_2  and  C2_3 
REMARK    2  A    between atoms: C2_3  and  C3_4 
ROOT
ATOM      1  C3  UNL d   1      -4.929  -3.707  -4.244  0.00  0.00    -0.075 A 
ATOM      2  C4  UNL d   1      -5.233  -4.480  -5.374  0.00  0.00     0.002 A 
ATOM      3  C5  UNL d   1      -4.246  -5.245  -5.995  0.00  0.00     0.002 A 
ATOM      4  C6  UNL d   1      -2.943  -5.240  -5.502  0.00  0.00    -0.004 A 
ATOM      5  C7  UNL d   1      -2.626  -4.464  -4.390  0.00  0.00     0.002 A 
ATOM      6  C8  UNL d   1      -3.612  -3.700  -3.764  0.00  0.00     0.002 A 
ENDROOT
BRANCH   1   7
ATOM      7  C2  UNL d   1      -5.999  -2.900  -3.549  0.00  0.00     0.056 C 
BRANCH   7   8
ATOM      8  C1  UNL d   1      -5.643  -1.421  -3.363  0.00  0.00     0.007 C 
ATOM      9  C   UNL d   1      -5.999  -0.561  -4.568  0.00  0.00     0.009 C 
ENDBRANCH   7   8
ENDBRANCH   1   7
TORSDOF 2
ENDMDL
