MODEL 1
REMARK minimizedAffinity -3.56610417
REMARK minimizedRMSD -1
REMARK  2 active torsions:
REMARK  status: ('A' for Active; 'I' for Inactive)
REMARK    1  A    between atoms: C1_2  and  C2_3 
REMARK    2  A    between atoms: C2_3  and  C3_4 
ROOT
ATOM      1  C3  UNL d   1      -3.677  -4.979  -5.430  0.00  0.00    -0.075 A 
ATOM      2  C4  UNL d   1      -3.529  -3.719  -4.831  0.00  0.00     0.002 A 
ATOM      3  C5  UNL d   1      -4.605  -2.833  -4.769  0.00  0.00     0.002 A 
ATOM      4  C6  UNL d   1      -5.837  -3.190  -5.314  0.00  0.00    -0.004 A 
ATOM      5  C7  UNL d   1      -5.990  -4.431  -5.927  0.00  0.00     0.002 A 
ATOM      6  C8  UNL d   1      -4.917  -5.322  -5.986  0.00  0.00     0.002 A 
ENDROOT
BRANCH   1   7
ATOM      7  C2  UNL d   1      -2.525  -5.954  -5.473  0.00  0.00     0.056 C 
BRANCH   7   8
ATOM      8  C1  UNL d   1      -1.150  -5.289  -5.598  0.00  0.00     0.007 C 
ATOM      9  C   UNL d   1      -0.066  -5.997  -4.797  0.00  0.00     0.009 C 
ENDBRANCH   7   8
ENDBRANCH   1   7
TORSDOF 2
ENDMDL
