MODEL 1
REMARK minimizedAffinity -3.93319297
REMARK minimizedRMSD -1
REMARK  2 active torsions:
REMARK  status: ('A' for Active; 'I' for Inactive)
REMARK    1  A    between atoms: C1_2  and  C2_3 
REMARK    2  A    between atoms: C2_3  and  C3_4 
ROOT
ATOM      1  C3  UNL d   1      -4.014  -4.587  -4.830  0.00  0.00    -0.075 A 
ATOM      2  C4  UNL d   1      -3.566  -5.361  -3.749  0.00  0.00     0.002 A 
ATOM      3  C5  UNL d   1      -2.277  -5.895  -3.747  0.00  0.00     0.002 A 
ATOM      4  C6  UNL d   1      -1.425  -5.672  -4.826  0.00  0.00    -0.004 A 
ATOM      5  C7  UNL d   1      -1.865  -4.919  -5.912  0.00  0.00     0.002 A 
ATOM      6  C8  UNL d   1      -3.153  -4.379  -5.916  0.00  0.00     0.002 A 
ENDROOT
BRANCH   1   7
ATOM      7  C2  UNL d   1      -5.397  -3.982  -4.825  0.00  0.00     0.056 C 
BRANCH   7   8
ATOM      8  C1  UNL d   1      -5.592  -2.865  -5.856  0.00  0.00     0.007 C 
ATOM      9  C   UNL d   1      -5.999  -1.537  -5.233  0.00  0.00     0.009 C 
ENDBRANCH   7   8
ENDBRANCH   1   7
TORSDOF 2
ENDMDL
