MODEL 1
REMARK minimizedAffinity 1.8339771
REMARK minimizedRMSD -1
REMARK  2 active torsions:
REMARK  status: ('A' for Active; 'I' for Inactive)
REMARK    1  A    between atoms: C1_2  and  C2_3 
REMARK    2  A    between atoms: C2_3  and  C3_4 
ROOT
ATOM      1  C3  UNL d   1      -4.045  -4.853  -5.011  0.00  0.00    -0.075 A 
ATOM      2  C4  UNL d   1      -4.917  -4.288  -5.952  0.00  0.00     0.002 A 
ATOM      3  C5  UNL d   1      -5.883  -3.362  -5.556  0.00  0.00     0.002 A 
ATOM      4  C6  UNL d   1      -5.995  -2.998  -4.216  0.00  0.00    -0.004 A 
ATOM      5  C7  UNL d   1      -5.145  -3.566  -3.270  0.00  0.00     0.002 A 
ATOM      6  C8  UNL d   1      -4.175  -4.490  -3.664  0.00  0.00     0.002 A 
ENDROOT
BRANCH   1   7
ATOM      7  C2  UNL d   1      -2.978  -5.834  -5.437  0.00  0.00     0.056 C 
BRANCH   7   8
ATOM      8  C1  UNL d   1      -1.714  -5.175  -5.997  0.00  0.00     0.007 C 
ATOM      9  C   UNL d   1      -0.754  -4.700  -4.915  0.00  0.00     0.009 C 
ENDBRANCH   7   8
ENDBRANCH   1   7
TORSDOF 2
ENDMDL
