MODEL 1
REMARK minimizedAffinity 2.49336791
REMARK minimizedRMSD -1
REMARK  2 active torsions:
REMARK  status: ('A' for Active; 'I' for Inactive)
REMARK    1  A    between atoms: C1_2  and  C2_3 
REMARK    2  A    between atoms: C2_3  and  C3_4 
ROOT
ATOM      1  C3  UNL d   1      -3.201  -3.588  -4.816  0.00  0.00    -0.075 A 
ATOM      2  C4  UNL d   1      -3.915  -3.257  -3.655  0.00  0.00     0.002 A 
ATOM      3  C5  UNL d   1      -4.856  -2.227  -3.672  0.00  0.00     0.002 A 
ATOM      4  C6  UNL d   1      -5.088  -1.511  -4.844  0.00  0.00    -0.004 A 
ATOM      5  C7  UNL d   1      -4.372  -1.820  -5.999  0.00  0.00     0.002 A 
ATOM      6  C8  UNL d   1      -3.433  -2.853  -5.986  0.00  0.00     0.002 A 
ENDROOT
BRANCH   1   7
ATOM      7  C2  UNL d   1      -2.202  -4.721  -4.812  0.00  0.00     0.056 C 
BRANCH   7   8
ATOM      8  C1  UNL d   1      -2.704  -5.998  -5.494  0.00  0.00     0.007 C 
ATOM      9  C   UNL d   1      -4.180  -5.940  -5.864  0.00  0.00     0.009 C 
ENDBRANCH   7   8
ENDBRANCH   1   7
TORSDOF 2
ENDMDL
