MODEL 1
REMARK minimizedAffinity -2.30142641
REMARK minimizedRMSD -1
REMARK  2 active torsions:
REMARK  status: ('A' for Active; 'I' for Inactive)
REMARK    1  A    between atoms: C1_2  and  C2_3 
REMARK    2  A    between atoms: C2_3  and  C3_4 
ROOT
ATOM      1  C3  UNL d   1      -3.264  -3.777  -5.158  0.00  0.00    -0.075 A 
ATOM      2  C4  UNL d   1      -2.416  -3.791  -4.042  0.00  0.00     0.002 A 
ATOM      3  C5  UNL d   1      -1.598  -4.893  -3.787  0.00  0.00     0.002 A 
ATOM      4  C6  UNL d   1      -1.625  -5.996  -4.638  0.00  0.00    -0.004 A 
ATOM      5  C7  UNL d   1      -2.477  -6.000  -5.740  0.00  0.00     0.002 A 
ATOM      6  C8  UNL d   1      -3.293  -4.897  -6.000  0.00  0.00     0.002 A 
ENDROOT
BRANCH   1   7
ATOM      7  C2  UNL d   1      -4.130  -2.577  -5.456  0.00  0.00     0.056 C 
BRANCH   7   8
ATOM      8  C1  UNL d   1      -4.525  -1.770  -4.214  0.00  0.00     0.007 C 
ATOM      9  C   UNL d   1      -5.999  -1.388  -4.190  0.00  0.00     0.009 C 
ENDBRANCH   7   8
ENDBRANCH   1   7
TORSDOF 2
ENDMDL
