MODEL 1
REMARK minimizedAffinity -3.30395913
REMARK minimizedRMSD -1
REMARK  2 active torsions:
REMARK  status: ('A' for Active; 'I' for Inactive)
REMARK    1  A    between atoms: C1_2  and  C2_3 
REMARK    2  A    between atoms: C2_3  and  C3_4 
ROOT
ATOM      1  C3  UNL d   1      -3.318  -3.557  -4.637  0.00  0.00    -0.075 A 
ATOM      2  C4  UNL d   1      -3.560  -4.691  -3.849  0.00  0.00     0.002 A 
ATOM      3  C5  UNL d   1      -2.874  -5.882  -4.091  0.00  0.00     0.002 A 
ATOM      4  C6  UNL d   1      -1.948  -5.957  -5.129  0.00  0.00    -0.004 A 
ATOM      5  C7  UNL d   1      -1.712  -4.842  -5.930  0.00  0.00     0.002 A 
ATOM      6  C8  UNL d   1      -2.393  -3.648  -5.686  0.00  0.00     0.002 A 
ENDROOT
BRANCH   1   7
ATOM      7  C2  UNL d   1      -4.034  -2.257  -4.361  0.00  0.00     0.056 C 
BRANCH   7   8
ATOM      8  C1  UNL d   1      -5.555  -2.334  -4.536  0.00  0.00     0.007 C 
ATOM      9  C   UNL d   1      -5.991  -2.362  -5.994  0.00  0.00     0.009 C 
ENDBRANCH   7   8
ENDBRANCH   1   7
TORSDOF 2
ENDMDL
