MODEL 1
REMARK minimizedAffinity -3.79662514
REMARK minimizedRMSD -1
REMARK  2 active torsions:
REMARK  status: ('A' for Active; 'I' for Inactive)
REMARK    1  A    between atoms: C1_2  and  C2_3 
REMARK    2  A    between atoms: C2_3  and  C3_4 
ROOT
ATOM      1  C3  UNL d   1      -3.904  -5.020  -5.070  0.00  0.00    -0.075 A 
ATOM      2  C4  UNL d   1      -4.961  -5.027  -5.991  0.00  0.00     0.002 A 
ATOM      3  C5  UNL d   1      -6.000  -4.102  -5.884  0.00  0.00     0.002 A 
ATOM      4  C6  UNL d   1      -6.000  -3.166  -4.852  0.00  0.00    -0.004 A 
ATOM      5  C7  UNL d   1      -4.963  -3.161  -3.921  0.00  0.00     0.002 A 
ATOM      6  C8  UNL d   1      -3.920  -4.082  -4.029  0.00  0.00     0.002 A 
ENDROOT
BRANCH   1   7
ATOM      7  C2  UNL d   1      -2.761  -5.999  -5.197  0.00  0.00     0.056 C 
BRANCH   7   8
ATOM      8  C1  UNL d   1      -1.516  -5.420  -5.876  0.00  0.00     0.007 C 
ATOM      9  C   UNL d   1      -0.213  -5.949  -5.291  0.00  0.00     0.009 C 
ENDBRANCH   7   8
ENDBRANCH   1   7
TORSDOF 2
ENDMDL
