MODEL 1
REMARK minimizedAffinity -0.321069628
REMARK minimizedRMSD -1
REMARK  2 active torsions:
REMARK  status: ('A' for Active; 'I' for Inactive)
REMARK    1  A    between atoms: C1_2  and  C2_3 
REMARK    2  A    between atoms: C2_3  and  C3_4 
ROOT
ATOM      1  C3  UNL d   1      -3.312  -3.608  -3.843  0.00  0.00    -0.075 A 
ATOM      2  C4  UNL d   1      -3.093  -4.357  -5.008  0.00  0.00     0.002 A 
ATOM      3  C5  UNL d   1      -4.072  -4.428  -6.000  0.00  0.00     0.002 A 
ATOM      4  C6  UNL d   1      -5.284  -3.759  -5.835  0.00  0.00    -0.004 A 
ATOM      5  C7  UNL d   1      -5.518  -3.025  -4.674  0.00  0.00     0.002 A 
ATOM      6  C8  UNL d   1      -4.538  -2.950  -3.683  0.00  0.00     0.002 A 
ENDROOT
BRANCH   1   7
ATOM      7  C2  UNL d   1      -2.244  -3.503  -2.780  0.00  0.00     0.056 C 
BRANCH   7   8
ATOM      8  C1  UNL d   1      -2.312  -4.606  -1.719  0.00  0.00     0.007 C 
ATOM      9  C   UNL d   1      -2.548  -5.991  -2.306  0.00  0.00     0.009 C 
ENDBRANCH   7   8
ENDBRANCH   1   7
TORSDOF 2
ENDMDL
