MODEL 1
REMARK minimizedAffinity -3.18421173
REMARK minimizedRMSD -1
REMARK  2 active torsions:
REMARK  status: ('A' for Active; 'I' for Inactive)
REMARK    1  A    between atoms: C1_2  and  C2_3 
REMARK    2  A    between atoms: C2_3  and  C3_4 
ROOT
ATOM      1  C3  UNL d   1      -4.743  -4.294  -4.932  0.00  0.00    -0.075 A 
ATOM      2  C4  UNL d   1      -4.439  -5.194  -5.964  0.00  0.00     0.002 A 
ATOM      3  C5  UNL d   1      -3.297  -5.992  -5.895  0.00  0.00     0.002 A 
ATOM      4  C6  UNL d   1      -2.440  -5.893  -4.801  0.00  0.00    -0.004 A 
ATOM      5  C7  UNL d   1      -2.723  -4.991  -3.778  0.00  0.00     0.002 A 
ATOM      6  C8  UNL d   1      -3.868  -4.195  -3.843  0.00  0.00     0.002 A 
ENDROOT
BRANCH   1   7
ATOM      7  C2  UNL d   1      -5.993  -3.450  -4.987  0.00  0.00     0.056 C 
BRANCH   7   8
ATOM      8  C1  UNL d   1      -6.000  -2.280  -3.997  0.00  0.00     0.007 C 
ATOM      9  C   UNL d   1      -5.977  -0.918  -4.677  0.00  0.00     0.009 C 
ENDBRANCH   7   8
ENDBRANCH   1   7
TORSDOF 2
ENDMDL
