MODEL 1
REMARK minimizedAffinity -0.94519043
REMARK minimizedRMSD -1
REMARK  2 active torsions:
REMARK  status: ('A' for Active; 'I' for Inactive)
REMARK    1  A    between atoms: C1_2  and  C2_3 
REMARK    2  A    between atoms: C2_3  and  C3_4 
ROOT
ATOM      1  C3  UNL d   1      -4.874  -3.928  -5.144  0.00  0.00    -0.075 A 
ATOM      2  C4  UNL d   1      -3.709  -3.731  -4.388  0.00  0.00     0.002 A 
ATOM      3  C5  UNL d   1      -2.661  -4.650  -4.449  0.00  0.00     0.002 A 
ATOM      4  C6  UNL d   1      -2.768  -5.780  -5.257  0.00  0.00    -0.004 A 
ATOM      5  C7  UNL d   1      -3.928  -5.995  -5.999  0.00  0.00     0.002 A 
ATOM      6  C8  UNL d   1      -4.976  -5.075  -5.943  0.00  0.00     0.002 A 
ENDROOT
BRANCH   1   7
ATOM      7  C2  UNL d   1      -6.000  -2.922  -5.104  0.00  0.00     0.056 C 
BRANCH   7   8
ATOM      8  C1  UNL d   1      -5.721  -1.709  -4.211  0.00  0.00     0.007 C 
ATOM      9  C   UNL d   1      -5.999  -0.380  -4.900  0.00  0.00     0.009 C 
ENDBRANCH   7   8
ENDBRANCH   1   7
TORSDOF 2
ENDMDL
