MODEL 1
REMARK minimizedAffinity -2.72771549
REMARK minimizedRMSD -1
REMARK  2 active torsions:
REMARK  status: ('A' for Active; 'I' for Inactive)
REMARK    1  A    between atoms: C1_2  and  C2_3 
REMARK    2  A    between atoms: C2_3  and  C3_4 
ROOT
ATOM      1  C3  UNL d   1      -4.069  -4.487  -5.244  0.00  0.00    -0.075 A 
ATOM      2  C4  UNL d   1      -2.988  -4.011  -5.999  0.00  0.00     0.002 A 
ATOM      3  C5  UNL d   1      -1.708  -4.534  -5.813  0.00  0.00     0.002 A 
ATOM      4  C6  UNL d   1      -1.491  -5.530  -4.864  0.00  0.00    -0.004 A 
ATOM      5  C7  UNL d   1      -2.555  -6.000  -4.096  0.00  0.00     0.002 A 
ATOM      6  C8  UNL d   1      -3.837  -5.481  -4.284  0.00  0.00     0.002 A 
ENDROOT
BRANCH   1   7
ATOM      7  C2  UNL d   1      -5.462  -3.946  -5.462  0.00  0.00     0.056 C 
BRANCH   7   8
ATOM      8  C1  UNL d   1      -5.950  -3.014  -4.348  0.00  0.00     0.007 C 
ATOM      9  C   UNL d   1      -6.000  -1.551  -4.768  0.00  0.00     0.009 C 
ENDBRANCH   7   8
ENDBRANCH   1   7
TORSDOF 2
ENDMDL
