MODEL 1
REMARK minimizedAffinity 6.08149672
REMARK minimizedRMSD -1
REMARK  2 active torsions:
REMARK  status: ('A' for Active; 'I' for Inactive)
REMARK    1  A    between atoms: C1_2  and  C2_3 
REMARK    2  A    between atoms: C2_3  and  C3_4 
ROOT
ATOM      1  C3  UNL d   1      -4.661  -4.236  -4.729  0.00  0.00    -0.075 A 
ATOM      2  C4  UNL d   1      -5.244  -3.740  -5.903  0.00  0.00     0.002 A 
ATOM      3  C5  UNL d   1      -5.818  -2.468  -5.927  0.00  0.00     0.002 A 
ATOM      4  C6  UNL d   1      -5.825  -1.683  -4.776  0.00  0.00    -0.004 A 
ATOM      5  C7  UNL d   1      -5.263  -2.172  -3.599  0.00  0.00     0.002 A 
ATOM      6  C8  UNL d   1      -4.684  -3.442  -3.574  0.00  0.00     0.002 A 
ENDROOT
BRANCH   1   7
ATOM      7  C2  UNL d   1      -4.012  -5.600  -4.705  0.00  0.00     0.056 C 
BRANCH   7   8
ATOM      8  C1  UNL d   1      -3.073  -5.864  -5.886  0.00  0.00     0.007 C 
ATOM      9  C   UNL d   1      -1.934  -4.859  -5.985  0.00  0.00     0.009 C 
ENDBRANCH   7   8
ENDBRANCH   1   7
TORSDOF 2
ENDMDL
