MODEL 1
REMARK minimizedAffinity -0.446599752
REMARK minimizedRMSD -1
REMARK  2 active torsions:
REMARK  status: ('A' for Active; 'I' for Inactive)
REMARK    1  A    between atoms: C1_2  and  C2_3 
REMARK    2  A    between atoms: C2_3  and  C3_4 
ROOT
ATOM      1  C3  UNL d   1      -3.863  -4.024  -5.255  0.00  0.00    -0.075 A 
ATOM      2  C4  UNL d   1      -3.768  -4.034  -3.855  0.00  0.00     0.002 A 
ATOM      3  C5  UNL d   1      -2.861  -4.877  -3.213  0.00  0.00     0.002 A 
ATOM      4  C6  UNL d   1      -2.047  -5.727  -3.959  0.00  0.00    -0.004 A 
ATOM      5  C7  UNL d   1      -2.145  -5.737  -5.348  0.00  0.00     0.002 A 
ATOM      6  C8  UNL d   1      -3.048  -4.891  -5.994  0.00  0.00     0.002 A 
ENDROOT
BRANCH   1   7
ATOM      7  C2  UNL d   1      -4.822  -3.093  -5.957  0.00  0.00     0.056 C 
BRANCH   7   8
ATOM      8  C1  UNL d   1      -6.000  -2.639  -5.089  0.00  0.00     0.007 C 
ATOM      9  C   UNL d   1      -5.809  -1.248  -4.497  0.00  0.00     0.009 C 
ENDBRANCH   7   8
ENDBRANCH   1   7
TORSDOF 2
ENDMDL
