MODEL 1
REMARK minimizedAffinity 4.25551462
REMARK minimizedRMSD -1
REMARK  2 active torsions:
REMARK  status: ('A' for Active; 'I' for Inactive)
REMARK    1  A    between atoms: C1_2  and  C2_3 
REMARK    2  A    between atoms: C2_3  and  C3_4 
ROOT
ATOM      1  C3  UNL d   1       0.125  -0.339   0.901  0.00  0.00    -0.075 A 
ATOM      2  C4  UNL d   1      -1.134  -0.570   0.328  0.00  0.00     0.002 A 
ATOM      3  C5  UNL d   1      -1.815  -1.763   0.573  0.00  0.00     0.002 A 
ATOM      4  C6  UNL d   1      -1.244  -2.742   1.383  0.00  0.00    -0.004 A 
ATOM      5  C7  UNL d   1       0.014  -2.530   1.944  0.00  0.00     0.002 A 
ATOM      6  C8  UNL d   1       0.696  -1.335   1.704  0.00  0.00     0.002 A 
ENDROOT
BRANCH   1   7
ATOM      7  C2  UNL d   1       0.855   0.962   0.664  0.00  0.00     0.056 C 
BRANCH   7   8
ATOM      8  C1  UNL d   1       2.370   0.874   0.873  0.00  0.00     0.007 C 
ATOM      9  C   UNL d   1       2.954   2.100   1.563  0.00  0.00     0.009 C 
ENDBRANCH   7   8
ENDBRANCH   1   7
TORSDOF 2
ENDMDL
