MODEL 1
REMARK minimizedAffinity 21.3279743
REMARK minimizedRMSD -1
REMARK  1 active torsions:
REMARK  status: ('A' for Active; 'I' for Inactive)
REMARK    1  A    between atoms: C1_2  and  C2_3 
ROOT
ATOM      1  C2  UNL d   1      -3.622   4.947   0.825  0.00  0.00    -0.081 A 
ATOM      2  C3  UNL d   1      -3.881   3.616   1.174  0.00  0.00     0.006 A 
ATOM      3  C4  UNL d   1      -2.862   2.661   1.131  0.00  0.00     0.002 A 
ATOM      4  C5  UNL d   1      -1.567   3.022   0.745  0.00  0.00    -0.080 A 
ATOM      5  C6  UNL d   1      -0.457   2.014   0.723  0.00  0.00     0.076 C 
ATOM      6  C7  UNL d   1      -1.312   4.349   0.379  0.00  0.00     0.002 A 
ATOM      7  C8  UNL d   1      -2.331   5.303   0.422  0.00  0.00     0.006 A 
ENDROOT
BRANCH   1   8
ATOM      8  C1  UNL d   1      -4.704   5.991   0.933  0.00  0.00     0.054 C 
ATOM      9  C   UNL d   1      -5.598   5.991  -0.298  0.00  0.00     0.018 C 
ENDBRANCH   1   8
TORSDOF 1
ENDMDL
