MODEL 1
REMARK minimizedAffinity 17.7338905
REMARK minimizedRMSD -1
REMARK  1 active torsions:
REMARK  status: ('A' for Active; 'I' for Inactive)
REMARK    1  A    between atoms: C1_2  and  C2_3 
ROOT
ATOM      1  C2  UNL d   1      -3.682   3.793   0.838  0.00  0.00    -0.081 A 
ATOM      2  C3  UNL d   1      -2.830   2.959   0.104  0.00  0.00     0.006 A 
ATOM      3  C4  UNL d   1      -3.026   1.576   0.096  0.00  0.00     0.002 A 
ATOM      4  C5  UNL d   1      -4.081   1.005   0.816  0.00  0.00    -0.080 A 
ATOM      5  C6  UNL d   1      -4.321  -0.476   0.792  0.00  0.00     0.076 C 
ATOM      6  C7  UNL d   1      -4.922   1.836   1.564  0.00  0.00     0.002 A 
ATOM      7  C8  UNL d   1      -4.725   3.219   1.573  0.00  0.00     0.006 A 
ENDROOT
BRANCH   1   8
ATOM      8  C1  UNL d   1      -3.512   5.290   0.797  0.00  0.00     0.054 C 
ATOM      9  C   UNL d   1      -4.858   5.998   0.737  0.00  0.00     0.018 C 
ENDBRANCH   1   8
TORSDOF 1
ENDMDL
