MODEL 1
REMARK minimizedAffinity 14.8196239
REMARK minimizedRMSD -1
REMARK  1 active torsions:
REMARK  status: ('A' for Active; 'I' for Inactive)
REMARK    1  A    between atoms: C1_2  and  C2_3 
ROOT
ATOM      1  C2  UNL d   1      -1.804  -3.717   4.978  0.00  0.00    -0.081 A 
ATOM      2  C3  UNL d   1      -2.181  -2.595   5.726  0.00  0.00     0.006 A 
ATOM      3  C4  UNL d   1      -3.528  -2.345   5.997  0.00  0.00     0.002 A 
ATOM      4  C5  UNL d   1      -4.520  -3.215   5.531  0.00  0.00    -0.080 A 
ATOM      5  C6  UNL d   1      -5.967  -2.974   5.841  0.00  0.00     0.076 C 
ATOM      6  C7  UNL d   1      -4.144  -4.326   4.769  0.00  0.00     0.002 A 
ATOM      7  C8  UNL d   1      -2.798  -4.577   4.497  0.00  0.00     0.006 A 
ENDROOT
BRANCH   1   8
ATOM      8  C1  UNL d   1      -0.348  -4.025   4.739  0.00  0.00     0.054 C 
ATOM      9  C   UNL d   1       0.417  -2.783   4.304  0.00  0.00     0.018 C 
ENDBRANCH   1   8
TORSDOF 1
ENDMDL
