MODEL 1
REMARK minimizedAffinity 11.4996653
REMARK minimizedRMSD -1
REMARK  1 active torsions:
REMARK  status: ('A' for Active; 'I' for Inactive)
REMARK    1  A    between atoms: C1_2  and  C2_3 
ROOT
ATOM      1  C2  UNL d   1      -3.789   2.462  -4.472  0.00  0.00    -0.081 A 
ATOM      2  C3  UNL d   1      -4.109   3.457  -5.403  0.00  0.00     0.006 A 
ATOM      3  C4  UNL d   1      -3.326   4.609  -5.506  0.00  0.00     0.002 A 
ATOM      4  C5  UNL d   1      -2.205   4.781  -4.686  0.00  0.00    -0.080 A 
ATOM      5  C6  UNL d   1      -1.339   5.999  -4.807  0.00  0.00     0.076 C 
ATOM      6  C7  UNL d   1      -1.895   3.795  -3.744  0.00  0.00     0.002 A 
ATOM      7  C8  UNL d   1      -2.678   2.643  -3.640  0.00  0.00     0.006 A 
ENDROOT
BRANCH   1   8
ATOM      8  C1  UNL d   1      -4.593   1.189  -4.403  0.00  0.00     0.054 C 
ATOM      9  C   UNL d   1      -6.000   1.394  -4.947  0.00  0.00     0.018 C 
ENDBRANCH   1   8
TORSDOF 1
ENDMDL
