MODEL 1
REMARK minimizedAffinity 7.89554548
REMARK minimizedRMSD -1
REMARK  1 active torsions:
REMARK  status: ('A' for Active; 'I' for Inactive)
REMARK    1  A    between atoms: C1_2  and  C2_3 
ROOT
ATOM      1  C2  UNL d   1      -4.509  -3.617   5.064  0.00  0.00    -0.081 A 
ATOM      2  C3  UNL d   1      -3.600  -4.111   4.121  0.00  0.00     0.006 A 
ATOM      3  C4  UNL d   1      -2.272  -3.675   4.122  0.00  0.00     0.002 A 
ATOM      4  C5  UNL d   1      -1.831  -2.745   5.069  0.00  0.00    -0.080 A 
ATOM      5  C6  UNL d   1      -0.402  -2.291   5.100  0.00  0.00     0.076 C 
ATOM      6  C7  UNL d   1      -2.744  -2.238   6.000  0.00  0.00     0.002 A 
ATOM      7  C8  UNL d   1      -4.072  -2.673   5.999  0.00  0.00     0.006 A 
ENDROOT
BRANCH   1   8
ATOM      8  C1  UNL d   1      -5.925  -4.133   5.107  0.00  0.00     0.054 C 
ATOM      9  C   UNL d   1      -5.998  -5.585   4.656  0.00  0.00     0.018 C 
ENDBRANCH   1   8
TORSDOF 1
ENDMDL
