MODEL 1
REMARK minimizedAffinity -0.918909073
REMARK minimizedRMSD -1
REMARK  1 active torsions:
REMARK  status: ('A' for Active; 'I' for Inactive)
REMARK    1  A    between atoms: C1_2  and  C2_3 
ROOT
ATOM      1  C2  UNL d   1      -2.969   4.170  -4.564  0.00  0.00    -0.081 A 
ATOM      2  C3  UNL d   1      -3.110   3.017  -3.782  0.00  0.00     0.006 A 
ATOM      3  C4  UNL d   1      -4.068   2.054  -4.107  0.00  0.00     0.002 A 
ATOM      4  C5  UNL d   1      -4.894   2.223  -5.223  0.00  0.00    -0.080 A 
ATOM      5  C6  UNL d   1      -5.905   1.182  -5.601  0.00  0.00     0.076 C 
ATOM      6  C7  UNL d   1      -4.765   3.383  -5.995  0.00  0.00     0.002 A 
ATOM      7  C8  UNL d   1      -3.808   4.347  -5.670  0.00  0.00     0.006 A 
ENDROOT
BRANCH   1   8
ATOM      8  C1  UNL d   1      -1.894   5.180  -4.254  0.00  0.00     0.054 C 
ATOM      9  C   UNL d   1      -1.518   5.985  -5.489  0.00  0.00     0.018 C 
ENDBRANCH   1   8
TORSDOF 1
ENDMDL
