MODEL 1
REMARK minimizedAffinity 16.141161
REMARK minimizedRMSD -1
REMARK  1 active torsions:
REMARK  status: ('A' for Active; 'I' for Inactive)
REMARK    1  A    between atoms: C1_2  and  C2_3 
ROOT
ATOM      1  C2  UNL d   1      -2.999   2.635  -4.089  0.00  0.00    -0.081 A 
ATOM      2  C3  UNL d   1      -3.343   3.930  -3.681  0.00  0.00     0.006 A 
ATOM      3  C4  UNL d   1      -2.544   5.020  -4.034  0.00  0.00     0.002 A 
ATOM      4  C5  UNL d   1      -1.392   4.835  -4.807  0.00  0.00    -0.080 A 
ATOM      5  C6  UNL d   1      -0.542   6.000  -5.219  0.00  0.00     0.076 C 
ATOM      6  C7  UNL d   1      -1.039   3.540  -5.200  0.00  0.00     0.002 A 
ATOM      7  C8  UNL d   1      -1.837   2.449  -4.847  0.00  0.00     0.006 A 
ENDROOT
BRANCH   1   8
ATOM      8  C1  UNL d   1      -3.893   1.466  -3.765  0.00  0.00     0.054 C 
ATOM      9  C   UNL d   1      -4.869   1.185  -4.898  0.00  0.00     0.018 C 
ENDBRANCH   1   8
TORSDOF 1
ENDMDL
