MODEL 1
REMARK minimizedAffinity 1.52627051
REMARK minimizedRMSD -1
REMARK  1 active torsions:
REMARK  status: ('A' for Active; 'I' for Inactive)
REMARK    1  A    between atoms: C1_2  and  C2_3 
ROOT
ATOM      1  C2  UNL d   1      -4.033   2.664  -4.882  0.00  0.00    -0.081 A 
ATOM      2  C3  UNL d   1      -4.233   3.627  -5.878  0.00  0.00     0.006 A 
ATOM      3  C4  UNL d   1      -3.364   4.715  -5.996  0.00  0.00     0.002 A 
ATOM      4  C5  UNL d   1      -2.278   4.853  -5.125  0.00  0.00    -0.080 A 
ATOM      5  C6  UNL d   1      -1.321   6.000  -5.260  0.00  0.00     0.076 C 
ATOM      6  C7  UNL d   1      -2.089   3.900  -4.119  0.00  0.00     0.002 A 
ATOM      7  C8  UNL d   1      -2.957   2.813  -4.000  0.00  0.00     0.006 A 
ENDROOT
BRANCH   1   8
ATOM      8  C1  UNL d   1      -4.930   1.455  -4.794  0.00  0.00     0.054 C 
ATOM      9  C   UNL d   1      -5.869   1.374  -5.989  0.00  0.00     0.018 C 
ENDBRANCH   1   8
TORSDOF 1
ENDMDL
