MODEL 1
REMARK minimizedAffinity 0.511690438
REMARK minimizedRMSD -1
REMARK  1 active torsions:
REMARK  status: ('A' for Active; 'I' for Inactive)
REMARK    1  A    between atoms: C1_2  and  C2_3 
ROOT
ATOM      1  C2  UNL d   1      -1.355   2.403  -2.031  0.00  0.00    -0.081 A 
ATOM      2  C3  UNL d   1      -0.774   1.712  -0.960  0.00  0.00     0.006 A 
ATOM      3  C4  UNL d   1      -0.018   2.393  -0.004  0.00  0.00     0.002 A 
ATOM      4  C5  UNL d   1       0.164   3.777  -0.097  0.00  0.00    -0.080 A 
ATOM      5  C6  UNL d   1       0.948   4.525   0.940  0.00  0.00     0.076 C 
ATOM      6  C7  UNL d   1      -0.402   4.466  -1.176  0.00  0.00     0.002 A 
ATOM      7  C8  UNL d   1      -1.158   3.785  -2.133  0.00  0.00     0.006 A 
ENDROOT
BRANCH   1   8
ATOM      8  C1  UNL d   1      -2.225   1.682  -3.028  0.00  0.00     0.054 C 
ATOM      9  C   UNL d   1      -2.961   0.518  -2.380  0.00  0.00     0.018 C 
ENDBRANCH   1   8
TORSDOF 1
ENDMDL
