MODEL 1
REMARK minimizedAffinity 17.4278316
REMARK minimizedRMSD -1
REMARK  1 active torsions:
REMARK  status: ('A' for Active; 'I' for Inactive)
REMARK    1  A    between atoms: C1_2  and  C2_3 
ROOT
ATOM      1  C2  UNL d   1       0.777   3.189   2.280  0.00  0.00    -0.081 A 
ATOM      2  C3  UNL d   1      -0.351   2.993   1.474  0.00  0.00     0.006 A 
ATOM      3  C4  UNL d   1      -1.386   2.156   1.897  0.00  0.00     0.002 A 
ATOM      4  C5  UNL d   1      -1.315   1.509   3.135  0.00  0.00    -0.080 A 
ATOM      5  C6  UNL d   1      -2.434   0.632   3.615  0.00  0.00     0.076 C 
ATOM      6  C7  UNL d   1      -0.181   1.692   3.933  0.00  0.00     0.002 A 
ATOM      7  C8  UNL d   1       0.856   2.527   3.511  0.00  0.00     0.006 A 
ENDROOT
BRANCH   1   8
ATOM      8  C1  UNL d   1       1.866   4.142   1.856  0.00  0.00     0.054 C 
ATOM      9  C   UNL d   1       1.336   5.194   0.892  0.00  0.00     0.018 C 
ENDBRANCH   1   8
TORSDOF 1
ENDMDL
