MODEL 1
REMARK minimizedAffinity 22.0760078
REMARK minimizedRMSD -1
REMARK  1 active torsions:
REMARK  status: ('A' for Active; 'I' for Inactive)
REMARK    1  A    between atoms: C1_2  and  C2_3 
ROOT
ATOM      1  C2  UNL d   1      -4.630   5.233  -1.445  0.00  0.00    -0.081 A 
ATOM      2  C3  UNL d   1      -5.847   5.686  -0.921  0.00  0.00     0.006 A 
ATOM      3  C4  UNL d   1      -5.986   5.916   0.450  0.00  0.00     0.002 A 
ATOM      4  C5  UNL d   1      -4.909   5.707   1.318  0.00  0.00    -0.080 A 
ATOM      5  C6  UNL d   1      -5.036   5.980   2.787  0.00  0.00     0.076 C 
ATOM      6  C7  UNL d   1      -3.698   5.238   0.797  0.00  0.00     0.002 A 
ATOM      7  C8  UNL d   1      -3.559   5.006  -0.573  0.00  0.00     0.006 A 
ENDROOT
BRANCH   1   8
ATOM      8  C1  UNL d   1      -4.457   5.045  -2.930  0.00  0.00     0.054 C 
ATOM      9  C   UNL d   1      -3.274   4.140  -3.240  0.00  0.00     0.018 C 
ENDBRANCH   1   8
TORSDOF 1
ENDMDL
