MODEL 1
REMARK minimizedAffinity 12.6729231
REMARK minimizedRMSD -1
REMARK  1 active torsions:
REMARK  status: ('A' for Active; 'I' for Inactive)
REMARK    1  A    between atoms: C1_2  and  C2_3 
ROOT
ATOM      1  C2  UNL d   1      -0.555   0.722   2.217  0.00  0.00    -0.081 A 
ATOM      2  C3  UNL d   1      -1.464   0.230   3.161  0.00  0.00     0.006 A 
ATOM      3  C4  UNL d   1      -2.838   0.395   2.974  0.00  0.00     0.002 A 
ATOM      4  C5  UNL d   1      -3.327   1.047   1.837  0.00  0.00    -0.080 A 
ATOM      5  C6  UNL d   1      -4.801   1.203   1.609  0.00  0.00     0.076 C 
ATOM      6  C7  UNL d   1      -2.419   1.554   0.902  0.00  0.00     0.002 A 
ATOM      7  C8  UNL d   1      -1.044   1.390   1.089  0.00  0.00     0.006 A 
ENDROOT
BRANCH   1   8
ATOM      8  C1  UNL d   1       0.925   0.490   2.383  0.00  0.00     0.054 C 
ATOM      9  C   UNL d   1       1.318  -0.911   1.937  0.00  0.00     0.018 C 
ENDBRANCH   1   8
TORSDOF 1
ENDMDL
