MODEL 1
REMARK minimizedAffinity 20.7314339
REMARK minimizedRMSD -1
REMARK  1 active torsions:
REMARK  status: ('A' for Active; 'I' for Inactive)
REMARK    1  A    between atoms: C1_2  and  C2_3 
ROOT
ATOM      1  C2  UNL d   1      -0.750   3.644  -1.634  0.00  0.00    -0.081 A 
ATOM      2  C3  UNL d   1       0.548   3.175  -1.403  0.00  0.00     0.006 A 
ATOM      3  C4  UNL d   1       0.850   2.474  -0.233  0.00  0.00     0.002 A 
ATOM      4  C5  UNL d   1      -0.142   2.225   0.721  0.00  0.00    -0.080 A 
ATOM      5  C6  UNL d   1       0.162   1.448   1.968  0.00  0.00     0.076 C 
ATOM      6  C7  UNL d   1      -1.435   2.709   0.498  0.00  0.00     0.002 A 
ATOM      7  C8  UNL d   1      -1.738   3.410  -0.671  0.00  0.00     0.006 A 
ENDROOT
BRANCH   1   8
ATOM      8  C1  UNL d   1      -1.094   4.343  -2.925  0.00  0.00     0.054 C 
ATOM      9  C   UNL d   1      -1.401   3.344  -4.031  0.00  0.00     0.018 C 
ENDBRANCH   1   8
TORSDOF 1
ENDMDL
