MODEL 1
REMARK minimizedAffinity 7.47634649
REMARK minimizedRMSD -1
REMARK  2 active torsions:
REMARK  status: ('A' for Active; 'I' for Inactive)
REMARK    1  A    between atoms: C1_2  and  C2_3 
REMARK    2  A    between atoms: C2_3  and  C3_4 
ROOT
ATOM      1  C3  UNL d   1      -3.527  -1.860   0.868  0.00  0.00    -0.075 A 
ATOM      2  C4  UNL d   1      -3.836  -0.850   1.790  0.00  0.00     0.002 A 
ATOM      3  C5  UNL d   1      -4.929  -0.009   1.579  0.00  0.00     0.002 A 
ATOM      4  C6  UNL d   1      -5.720  -0.161   0.442  0.00  0.00    -0.004 A 
ATOM      5  C7  UNL d   1      -5.413  -1.151  -0.488  0.00  0.00     0.002 A 
ATOM      6  C8  UNL d   1      -4.322  -1.996  -0.278  0.00  0.00     0.002 A 
ENDROOT
BRANCH   1   7
ATOM      7  C2  UNL d   1      -2.363  -2.792   1.105  0.00  0.00     0.056 C 
BRANCH   7   8
ATOM      8  C1  UNL d   1      -2.624  -4.239   0.671  0.00  0.00     0.007 C 
ATOM      9  C   UNL d   1      -1.445  -4.868  -0.061  0.00  0.00     0.009 C 
ENDBRANCH   7   8
ENDBRANCH   1   7
TORSDOF 2
ENDMDL
