MODEL 1
REMARK minimizedAffinity 7.7424202
REMARK minimizedRMSD -1
REMARK  2 active torsions:
REMARK  status: ('A' for Active; 'I' for Inactive)
REMARK    1  A    between atoms: C1_2  and  C2_3 
REMARK    2  A    between atoms: C2_3  and  C3_4 
ROOT
ATOM      1  C3  UNL d   1      -3.925  -0.214  -0.019  0.00  0.00    -0.075 A 
ATOM      2  C4  UNL d   1      -3.263  -0.385  -1.244  0.00  0.00     0.002 A 
ATOM      3  C5  UNL d   1      -3.966  -0.798  -2.376  0.00  0.00     0.002 A 
ATOM      4  C6  UNL d   1      -5.333  -1.055  -2.297  0.00  0.00    -0.004 A 
ATOM      5  C7  UNL d   1      -5.997  -0.904  -1.081  0.00  0.00     0.002 A 
ATOM      6  C8  UNL d   1      -5.297  -0.487   0.053  0.00  0.00     0.002 A 
ENDROOT
BRANCH   1   7
ATOM      7  C2  UNL d   1      -3.176   0.261   1.204  0.00  0.00     0.056 C 
BRANCH   7   8
ATOM      8  C1  UNL d   1      -3.057  -0.792   2.311  0.00  0.00     0.007 C 
ATOM      9  C   UNL d   1      -2.585  -2.147   1.802  0.00  0.00     0.009 C 
ENDBRANCH   7   8
ENDBRANCH   1   7
TORSDOF 2
ENDMDL
