MODEL 1
REMARK minimizedAffinity 6.31435919
REMARK minimizedRMSD -1
REMARK  2 active torsions:
REMARK  status: ('A' for Active; 'I' for Inactive)
REMARK    1  A    between atoms: C1_2  and  C2_3 
REMARK    2  A    between atoms: C2_3  and  C3_4 
ROOT
ATOM      1  C3  UNL d   1      -2.939  -1.190   2.510  0.00  0.00    -0.075 A 
ATOM      2  C4  UNL d   1      -3.966  -2.066   2.129  0.00  0.00     0.002 A 
ATOM      3  C5  UNL d   1      -4.864  -1.709   1.123  0.00  0.00     0.002 A 
ATOM      4  C6  UNL d   1      -4.753  -0.471   0.493  0.00  0.00    -0.004 A 
ATOM      5  C7  UNL d   1      -3.747   0.413   0.875  0.00  0.00     0.002 A 
ATOM      6  C8  UNL d   1      -2.844   0.057   1.879  0.00  0.00     0.002 A 
ENDROOT
BRANCH   1   7
ATOM      7  C2  UNL d   1      -1.946  -1.582   3.578  0.00  0.00     0.056 C 
BRANCH   7   8
ATOM      8  C1  UNL d   1      -1.773  -0.535   4.684  0.00  0.00     0.007 C 
ATOM      9  C   UNL d   1      -1.199  -1.111   5.972  0.00  0.00     0.009 C 
ENDBRANCH   7   8
ENDBRANCH   1   7
TORSDOF 2
ENDMDL
