MODEL 1
REMARK minimizedAffinity -1.12640858
REMARK minimizedRMSD -1
REMARK  2 active torsions:
REMARK  status: ('A' for Active; 'I' for Inactive)
REMARK    1  A    between atoms: C1_2  and  C2_3 
REMARK    2  A    between atoms: C2_3  and  C3_4 
ROOT
ATOM      1  C3  UNL d   1      -3.080  -0.446   2.210  0.00  0.00    -0.075 A 
ATOM      2  C4  UNL d   1      -4.473  -0.612   2.237  0.00  0.00     0.002 A 
ATOM      3  C5  UNL d   1      -5.159  -1.022   1.093  0.00  0.00     0.002 A 
ATOM      4  C6  UNL d   1      -4.465  -1.261  -0.091  0.00  0.00    -0.004 A 
ATOM      5  C7  UNL d   1      -3.084  -1.083  -0.133  0.00  0.00     0.002 A 
ATOM      6  C8  UNL d   1      -2.394  -0.677   1.010  0.00  0.00     0.002 A 
ENDROOT
BRANCH   1   7
ATOM      7  C2  UNL d   1      -2.328  -0.031   3.452  0.00  0.00     0.056 C 
BRANCH   7   8
ATOM      8  C1  UNL d   1      -3.029  -0.408   4.761  0.00  0.00     0.007 C 
ATOM      9  C   UNL d   1      -2.199  -0.093   5.999  0.00  0.00     0.009 C 
ENDBRANCH   7   8
ENDBRANCH   1   7
TORSDOF 2
ENDMDL
