MODEL 1
REMARK minimizedAffinity 12.6517344
REMARK minimizedRMSD -1
REMARK  0 active torsions:
REMARK  status: ('A' for Active; 'I' for Inactive)
ROOT
ATOM      1  C   UNL d   1       5.994  -3.840   5.998  0.00  0.00     0.023 A 
ATOM      2  C1  UNL d   1       5.915  -2.454   5.860  0.00  0.00     0.003 A 
ATOM      3  C2  UNL d   1       4.714  -1.856   5.473  0.00  0.00     0.048 A 
ATOM      4  C3  UNL d   1       3.594  -2.650   5.227  0.00  0.00     0.023 A 
ATOM      5  C4  UNL d   1       3.668  -4.037   5.365  0.00  0.00     0.048 A 
ATOM      6  C5  UNL d   1       4.871  -4.630   5.751  0.00  0.00     0.003 A 
ATOM      7  I   UNL d   1       1.805  -1.762   4.652  0.00  0.00    -0.146 I 
ENDROOT
TORSDOF 0
ENDMDL
