MODEL 1
REMARK minimizedAffinity 15.7227955
REMARK minimizedRMSD -1
REMARK  0 active torsions:
REMARK  status: ('A' for Active; 'I' for Inactive)
ROOT
ATOM      1  C   UNL d   1       5.999   5.665   4.281  0.00  0.00     0.023 A 
ATOM      2  C1  UNL d   1       5.489   6.000   3.026  0.00  0.00     0.003 A 
ATOM      3  C2  UNL d   1       4.794   5.048   2.278  0.00  0.00     0.048 A 
ATOM      4  C3  UNL d   1       4.611   3.764   2.790  0.00  0.00     0.023 A 
ATOM      5  C4  UNL d   1       5.120   3.425   4.045  0.00  0.00     0.048 A 
ATOM      6  C5  UNL d   1       5.815   4.380   4.789  0.00  0.00     0.003 A 
ATOM      7  I   UNL d   1       3.577   2.346   1.677  0.00  0.00    -0.146 I 
ENDROOT
TORSDOF 0
ENDMDL
