MODEL 1
REMARK minimizedAffinity 8.43989372
REMARK minimizedRMSD -1
REMARK  0 active torsions:
REMARK  status: ('A' for Active; 'I' for Inactive)
ROOT
ATOM      1  C   UNL d   1       0.108  -2.269  -5.979  0.00  0.00     0.023 A 
ATOM      2  C1  UNL d   1       1.292  -3.008  -5.983  0.00  0.00     0.003 A 
ATOM      3  C2  UNL d   1       2.525  -2.353  -5.987  0.00  0.00     0.048 A 
ATOM      4  C3  UNL d   1       2.568  -0.959  -5.985  0.00  0.00     0.023 A 
ATOM      5  C4  UNL d   1       1.386  -0.216  -5.980  0.00  0.00     0.048 A 
ATOM      6  C5  UNL d   1       0.155  -0.875  -5.977  0.00  0.00     0.003 A 
ATOM      7  I   UNL d   1       4.402   0.018  -5.989  0.00  0.00    -0.146 I 
ENDROOT
TORSDOF 0
ENDMDL
