MODEL 1
REMARK minimizedAffinity 13.1523581
REMARK minimizedRMSD -1
REMARK  0 active torsions:
REMARK  status: ('A' for Active; 'I' for Inactive)
ROOT
ATOM      1  C   UNL d   1       1.557  -0.953   3.374  0.00  0.00     0.023 A 
ATOM      2  C1  UNL d   1       1.120   0.013   2.467  0.00  0.00     0.003 A 
ATOM      3  C2  UNL d   1      -0.236   0.113   2.151  0.00  0.00     0.048 A 
ATOM      4  C3  UNL d   1      -1.151  -0.755   2.746  0.00  0.00     0.023 A 
ATOM      5  C4  UNL d   1      -0.719  -1.722   3.655  0.00  0.00     0.048 A 
ATOM      6  C5  UNL d   1       0.639  -1.819   3.968  0.00  0.00     0.003 A 
ATOM      7  I   UNL d   1      -3.170  -0.608   2.278  0.00  0.00    -0.146 I 
ENDROOT
TORSDOF 0
ENDMDL
