MODEL 1
REMARK minimizedAffinity 9.30041885
REMARK minimizedRMSD -1
REMARK  0 active torsions:
REMARK  status: ('A' for Active; 'I' for Inactive)
ROOT
ATOM      1  C   UNL d   1       0.899  -0.580   2.453  0.00  0.00     0.023 A 
ATOM      2  C1  UNL d   1      -0.370  -0.010   2.560  0.00  0.00     0.003 A 
ATOM      3  C2  UNL d   1      -0.641   0.907   3.578  0.00  0.00     0.048 A 
ATOM      4  C3  UNL d   1       0.361   1.250   4.485  0.00  0.00     0.023 A 
ATOM      5  C4  UNL d   1       1.632   0.683   4.381  0.00  0.00     0.048 A 
ATOM      6  C5  UNL d   1       1.899  -0.234   3.362  0.00  0.00     0.003 A 
ATOM      7  I   UNL d   1      -0.040   2.615   6.000  0.00  0.00    -0.146 I 
ENDROOT
TORSDOF 0
ENDMDL
