MODEL 1
REMARK minimizedAffinity 9.97937584
REMARK minimizedRMSD -1
REMARK  0 active torsions:
REMARK  status: ('A' for Active; 'I' for Inactive)
ROOT
ATOM      1  C   UNL d   1       1.043  -1.946  -5.253  0.00  0.00     0.023 A 
ATOM      2  C1  UNL d   1       0.789  -0.602  -5.529  0.00  0.00     0.003 A 
ATOM      3  C2  UNL d   1       1.850   0.286  -5.719  0.00  0.00     0.048 A 
ATOM      4  C3  UNL d   1       3.163  -0.178  -5.634  0.00  0.00     0.023 A 
ATOM      5  C4  UNL d   1       3.422  -1.521  -5.360  0.00  0.00     0.048 A 
ATOM      6  C5  UNL d   1       2.357  -2.405  -5.169  0.00  0.00     0.003 A 
ATOM      7  I   UNL d   1       4.744   1.141  -5.918  0.00  0.00    -0.146 I 
ENDROOT
TORSDOF 0
ENDMDL
