MODEL 1
REMARK minimizedAffinity 6.42979717
REMARK minimizedRMSD -1
REMARK  0 active torsions:
REMARK  status: ('A' for Active; 'I' for Inactive)
ROOT
ATOM      1  C   UNL d   1       2.660  -0.378  -5.205  0.00  0.00     0.023 A 
ATOM      2  C1  UNL d   1       3.007  -1.606  -5.767  0.00  0.00     0.003 A 
ATOM      3  C2  UNL d   1       2.026  -2.574  -5.995  0.00  0.00     0.048 A 
ATOM      4  C3  UNL d   1       0.700  -2.305  -5.661  0.00  0.00     0.023 A 
ATOM      5  C4  UNL d   1       0.347  -1.076  -5.099  0.00  0.00     0.048 A 
ATOM      6  C5  UNL d   1       1.332  -0.113  -4.872  0.00  0.00     0.003 A 
ATOM      7  I   UNL d   1      -0.763  -3.743  -6.000  0.00  0.00    -0.146 I 
ENDROOT
TORSDOF 0
ENDMDL
