MODEL 1
REMARK minimizedAffinity 2.77221632
REMARK minimizedRMSD -1
REMARK  0 active torsions:
REMARK  status: ('A' for Active; 'I' for Inactive)
ROOT
ATOM      1  C   UNL d   1      -0.121  -0.812   3.262  0.00  0.00     0.023 A 
ATOM      2  C1  UNL d   1      -0.291   0.481   2.767  0.00  0.00     0.003 A 
ATOM      3  C2  UNL d   1       0.779   1.377   2.771  0.00  0.00     0.048 A 
ATOM      4  C3  UNL d   1       2.017   0.974   3.269  0.00  0.00     0.023 A 
ATOM      5  C4  UNL d   1       2.192  -0.319   3.765  0.00  0.00     0.048 A 
ATOM      6  C5  UNL d   1       1.119  -1.212   3.761  0.00  0.00     0.003 A 
ATOM      7  I   UNL d   1       3.612   2.307   3.275  0.00  0.00    -0.146 I 
ENDROOT
TORSDOF 0
ENDMDL
