MODEL 1
REMARK minimizedAffinity 7.99454308
REMARK minimizedRMSD -1
REMARK  1 active torsions:
REMARK  status: ('A' for Active; 'I' for Inactive)
REMARK    1  A    between atoms: C1_2  and  C2_3 
ROOT
ATOM      1  C2  UNL d   1       0.840  -0.113   1.094  0.00  0.00    -0.073 A 
ATOM      2  C3  UNL d   1       0.229  -0.990   0.191  0.00  0.00    -0.002 A 
ATOM      3  C4  UNL d   1      -0.715  -1.916   0.636  0.00  0.00     0.004 A 
ATOM      4  C5  UNL d   1      -1.063  -1.970   1.986  0.00  0.00    -0.004 A 
ATOM      5  C6  UNL d   1      -0.472  -1.094   2.902  0.00  0.00    -0.075 A 
ATOM      6  C7  UNL d   1      -0.833  -1.140   4.358  0.00  0.00     0.076 C 
ATOM      7  C8  UNL d   1       0.477  -0.168   2.447  0.00  0.00     0.001 A 
ENDROOT
BRANCH   1   8
ATOM      8  C1  UNL d   1       1.855   0.893   0.616  0.00  0.00     0.053 C 
ATOM      9  C   UNL d   1       1.744   1.150  -0.878  0.00  0.00     0.018 C 
ENDBRANCH   1   8
TORSDOF 1
ENDMDL
