MODEL 1
REMARK minimizedAffinity 9.16507053
REMARK minimizedRMSD -1
REMARK  1 active torsions:
REMARK  status: ('A' for Active; 'I' for Inactive)
REMARK    1  A    between atoms: C1_2  and  C2_3 
ROOT
ATOM      1  C2  UNL d   1      -1.862   3.019  -4.065  0.00  0.00    -0.073 A 
ATOM      2  C3  UNL d   1      -0.628   2.502  -4.477  0.00  0.00    -0.002 A 
ATOM      3  C4  UNL d   1       0.561   3.118  -4.084  0.00  0.00     0.004 A 
ATOM      4  C5  UNL d   1       0.529   4.251  -3.271  0.00  0.00    -0.004 A 
ATOM      5  C6  UNL d   1      -0.693   4.776  -2.839  0.00  0.00    -0.075 A 
ATOM      6  C7  UNL d   1      -0.745   5.995  -1.967  0.00  0.00     0.076 C 
ATOM      7  C8  UNL d   1      -1.883   4.153  -3.240  0.00  0.00     0.001 A 
ENDROOT
BRANCH   1   8
ATOM      8  C1  UNL d   1      -3.148   2.353  -4.481  0.00  0.00     0.053 C 
ATOM      9  C   UNL d   1      -4.250   3.364  -4.755  0.00  0.00     0.018 C 
ENDBRANCH   1   8
TORSDOF 1
ENDMDL
