MODEL 1
REMARK minimizedAffinity 7.73664236
REMARK minimizedRMSD -1
REMARK  1 active torsions:
REMARK  status: ('A' for Active; 'I' for Inactive)
REMARK    1  A    between atoms: C1_2  and  C2_3 
ROOT
ATOM      1  C2  UNL d   1       4.334   0.374  -1.940  0.00  0.00    -0.073 A 
ATOM      2  C3  UNL d   1       3.734  -0.838  -1.581  0.00  0.00    -0.002 A 
ATOM      3  C4  UNL d   1       2.558  -0.848  -0.831  0.00  0.00     0.004 A 
ATOM      4  C5  UNL d   1       1.966   0.353  -0.438  0.00  0.00    -0.004 A 
ATOM      5  C6  UNL d   1       2.544   1.575  -0.797  0.00  0.00    -0.075 A 
ATOM      6  C7  UNL d   1       1.921   2.875  -0.380  0.00  0.00     0.076 C 
ATOM      7  C8  UNL d   1       3.727   1.576  -1.549  0.00  0.00     0.001 A 
ENDROOT
BRANCH   1   8
ATOM      8  C1  UNL d   1       5.600   0.389  -2.756  0.00  0.00     0.053 C 
ATOM      9  C   UNL d   1       6.000  -1.004  -3.215  0.00  0.00     0.018 C 
ENDBRANCH   1   8
TORSDOF 1
ENDMDL
