MODEL 1
REMARK minimizedAffinity 14.7763557
REMARK minimizedRMSD -1
REMARK  1 active torsions:
REMARK  status: ('A' for Active; 'I' for Inactive)
REMARK    1  A    between atoms: C1_2  and  C2_3 
ROOT
ATOM      1  C2  UNL d   1      -0.696  -1.337   3.898  0.00  0.00    -0.073 A 
ATOM      2  C3  UNL d   1      -1.800  -1.801   3.174  0.00  0.00    -0.002 A 
ATOM      3  C4  UNL d   1      -1.861  -1.627   1.791  0.00  0.00     0.004 A 
ATOM      4  C5  UNL d   1      -0.817  -0.993   1.117  0.00  0.00    -0.004 A 
ATOM      5  C6  UNL d   1       0.300  -0.533   1.821  0.00  0.00    -0.075 A 
ATOM      6  C7  UNL d   1       1.431   0.153   1.111  0.00  0.00     0.076 C 
ATOM      7  C8  UNL d   1       0.353  -0.709   3.210  0.00  0.00     0.001 A 
ENDROOT
BRANCH   1   8
ATOM      8  C1  UNL d   1      -0.623  -1.529   5.390  0.00  0.00     0.053 C 
ATOM      9  C   UNL d   1      -1.227  -2.855   5.825  0.00  0.00     0.018 C 
ENDBRANCH   1   8
TORSDOF 1
ENDMDL
