MODEL 1
REMARK minimizedAffinity 1.62012362
REMARK minimizedRMSD -1
REMARK  1 active torsions:
REMARK  status: ('A' for Active; 'I' for Inactive)
REMARK    1  A    between atoms: C1_2  and  C2_3 
ROOT
ATOM      1  C2  UNL d   1      -2.786   3.049  -3.302  0.00  0.00    -0.073 A 
ATOM      2  C3  UNL d   1      -1.731   2.372  -3.924  0.00  0.00    -0.002 A 
ATOM      3  C4  UNL d   1      -0.430   2.870  -3.844  0.00  0.00     0.004 A 
ATOM      4  C5  UNL d   1      -0.170   4.044  -3.138  0.00  0.00    -0.004 A 
ATOM      5  C6  UNL d   1      -1.209   4.729  -2.500  0.00  0.00    -0.075 A 
ATOM      6  C7  UNL d   1      -0.946   5.994  -1.738  0.00  0.00     0.076 C 
ATOM      7  C8  UNL d   1      -2.514   4.224  -2.587  0.00  0.00     0.001 A 
ENDROOT
BRANCH   1   8
ATOM      8  C1  UNL d   1      -4.192   2.512  -3.380  0.00  0.00     0.053 C 
ATOM      9  C   UNL d   1      -4.884   2.912  -4.674  0.00  0.00     0.018 C 
ENDBRANCH   1   8
TORSDOF 1
ENDMDL
