MODEL 1
REMARK minimizedAffinity 14.6613045
REMARK minimizedRMSD -1
REMARK  1 active torsions:
REMARK  status: ('A' for Active; 'I' for Inactive)
REMARK    1  A    between atoms: C1_2  and  C2_3 
ROOT
ATOM      1  C2  UNL d   1      -1.489  -4.870  -2.919  0.00  0.00    -0.073 A 
ATOM      2  C3  UNL d   1      -2.339  -5.977  -2.832  0.00  0.00    -0.002 A 
ATOM      3  C4  UNL d   1      -3.375  -5.999  -1.897  0.00  0.00     0.004 A 
ATOM      4  C5  UNL d   1      -3.576  -4.912  -1.046  0.00  0.00    -0.004 A 
ATOM      5  C6  UNL d   1      -2.744  -3.791  -1.126  0.00  0.00    -0.075 A 
ATOM      6  C7  UNL d   1      -2.944  -2.614  -0.217  0.00  0.00     0.076 C 
ATOM      7  C8  UNL d   1      -1.704  -3.778  -2.066  0.00  0.00     0.001 A 
ENDROOT
BRANCH   1   8
ATOM      8  C1  UNL d   1      -0.373  -4.839  -3.931  0.00  0.00     0.053 C 
ATOM      9  C   UNL d   1      -0.459  -6.000  -4.910  0.00  0.00     0.018 C 
ENDBRANCH   1   8
TORSDOF 1
ENDMDL
