MODEL 1
REMARK minimizedAffinity 3.4815619
REMARK minimizedRMSD -1
REMARK  1 active torsions:
REMARK  status: ('A' for Active; 'I' for Inactive)
REMARK    1  A    between atoms: C1_2  and  C2_3 
ROOT
ATOM      1  C2  UNL d   1       1.468  -0.393   2.504  0.00  0.00    -0.073 A 
ATOM      2  C3  UNL d   1       0.673  -0.335   1.354  0.00  0.00    -0.002 A 
ATOM      3  C4  UNL d   1      -0.629  -0.838   1.371  0.00  0.00     0.004 A 
ATOM      4  C5  UNL d   1      -1.150  -1.396   2.538  0.00  0.00    -0.004 A 
ATOM      5  C6  UNL d   1      -0.375  -1.452   3.701  0.00  0.00    -0.075 A 
ATOM      6  C7  UNL d   1      -0.921  -2.051   4.964  0.00  0.00     0.076 C 
ATOM      7  C8  UNL d   1       0.932  -0.947   3.675  0.00  0.00     0.001 A 
ENDROOT
BRANCH   1   8
ATOM      8  C1  UNL d   1       2.872   0.155   2.492  0.00  0.00     0.053 C 
ATOM      9  C   UNL d   1       3.883  -0.877   2.019  0.00  0.00     0.018 C 
ENDBRANCH   1   8
TORSDOF 1
ENDMDL
