MODEL 1
REMARK minimizedAffinity 10.4026833
REMARK minimizedRMSD -1
REMARK  1 active torsions:
REMARK  status: ('A' for Active; 'I' for Inactive)
REMARK    1  A    between atoms: C1_2  and  C2_3 
ROOT
ATOM      1  C2  UNL d   1      -0.575  -0.895   2.484  0.00  0.00    -0.073 A 
ATOM      2  C3  UNL d   1      -0.862  -2.034   1.723  0.00  0.00    -0.002 A 
ATOM      3  C4  UNL d   1      -0.112  -2.326   0.583  0.00  0.00     0.004 A 
ATOM      4  C5  UNL d   1       0.934  -1.489   0.196  0.00  0.00    -0.004 A 
ATOM      5  C6  UNL d   1       1.243  -0.352   0.951  0.00  0.00    -0.075 A 
ATOM      6  C7  UNL d   1       2.364   0.560   0.547  0.00  0.00     0.076 C 
ATOM      7  C8  UNL d   1       0.484  -0.064   2.093  0.00  0.00     0.001 A 
ENDROOT
BRANCH   1   8
ATOM      8  C1  UNL d   1      -1.378  -0.579   3.720  0.00  0.00     0.053 C 
ATOM      9  C   UNL d   1      -1.082  -1.546   4.855  0.00  0.00     0.018 C 
ENDBRANCH   1   8
TORSDOF 1
ENDMDL
