MODEL 1
REMARK minimizedAffinity 9.36238956
REMARK minimizedRMSD -1
REMARK  1 active torsions:
REMARK  status: ('A' for Active; 'I' for Inactive)
REMARK    1  A    between atoms: C1_2  and  C2_3 
ROOT
ATOM      1  C2  UNL d   1      -0.515  -0.903   2.500  0.00  0.00    -0.073 A 
ATOM      2  C3  UNL d   1      -1.176  -1.918   1.799  0.00  0.00    -0.002 A 
ATOM      3  C4  UNL d   1      -0.731  -2.306   0.535  0.00  0.00     0.004 A 
ATOM      4  C5  UNL d   1       0.382  -1.689  -0.038  0.00  0.00    -0.004 A 
ATOM      5  C6  UNL d   1       1.062  -0.681   0.652  0.00  0.00    -0.075 A 
ATOM      6  C7  UNL d   1       2.259  -0.007   0.049  0.00  0.00     0.076 C 
ATOM      7  C8  UNL d   1       0.608  -0.295   1.920  0.00  0.00     0.001 A 
ENDROOT
BRANCH   1   8
ATOM      8  C1  UNL d   1      -0.988  -0.485   3.869  0.00  0.00     0.053 C 
ATOM      9  C   UNL d   1      -1.262  -1.680   4.767  0.00  0.00     0.018 C 
ENDBRANCH   1   8
TORSDOF 1
ENDMDL
