MODEL 1
REMARK minimizedAffinity 6.1221385
REMARK minimizedRMSD -1
REMARK  1 active torsions:
REMARK  status: ('A' for Active; 'I' for Inactive)
REMARK    1  A    between atoms: C1_2  and  C2_3 
ROOT
ATOM      1  C2  UNL d   1       1.693  -0.704   1.734  0.00  0.00    -0.073 A 
ATOM      2  C3  UNL d   1       1.353  -0.539   3.082  0.00  0.00    -0.002 A 
ATOM      3  C4  UNL d   1       0.081  -0.891   3.536  0.00  0.00     0.004 A 
ATOM      4  C5  UNL d   1      -0.860  -1.416   2.651  0.00  0.00    -0.004 A 
ATOM      5  C6  UNL d   1      -0.536  -1.599   1.303  0.00  0.00    -0.075 A 
ATOM      6  C7  UNL d   1      -1.538  -2.161   0.338  0.00  0.00     0.076 C 
ATOM      7  C8  UNL d   1       0.743  -1.241   0.854  0.00  0.00     0.001 A 
ENDROOT
BRANCH   1   8
ATOM      8  C1  UNL d   1       3.067  -0.332   1.240  0.00  0.00     0.053 C 
ATOM      9  C   UNL d   1       4.125  -0.497   2.320  0.00  0.00     0.018 C 
ENDBRANCH   1   8
TORSDOF 1
ENDMDL
