MODEL 1
REMARK minimizedAffinity 1.56229556
REMARK minimizedRMSD -1
REMARK  0 active torsions:
REMARK  status: ('A' for Active; 'I' for Inactive)
ROOT
ATOM      1  C   UNL d   1       5.994   0.571  -6.000  0.00  0.00     0.020 A 
ATOM      2  C1  UNL d   1       5.941  -0.236  -4.864  0.00  0.00     0.020 A 
ATOM      3  C2  UNL d   1       5.421   0.271  -3.671  0.00  0.00     0.034 A 
ATOM      4  C3  UNL d   1       4.952   1.588  -3.611  0.00  0.00     0.017 A 
ATOM      5  C4  UNL d   1       5.005   2.397  -4.752  0.00  0.00     0.017 A 
ATOM      6  C5  UNL d   1       5.527   1.885  -5.944  0.00  0.00     0.034 A 
ATOM      7 Cl   UNL d   1       4.446   4.033  -4.756  0.00  0.00    -0.070 Cl
ATOM      8 Cl1  UNL d   1       4.321   2.149  -2.104  0.00  0.00    -0.070 Cl
ENDROOT
TORSDOF 0
ENDMDL
