MODEL 1
REMARK minimizedAffinity 1.27872837
REMARK minimizedRMSD -1
REMARK  0 active torsions:
REMARK  status: ('A' for Active; 'I' for Inactive)
ROOT
ATOM      1  C   UNL d   1       4.732   4.527  -5.683  0.00  0.00     0.020 A 
ATOM      2  C1  UNL d   1       5.855   4.150  -4.948  0.00  0.00     0.020 A 
ATOM      3  C2  UNL d   1       6.000   2.827  -4.524  0.00  0.00     0.034 A 
ATOM      4  C3  UNL d   1       5.020   1.877  -4.836  0.00  0.00     0.017 A 
ATOM      5  C4  UNL d   1       3.894   2.257  -5.574  0.00  0.00     0.017 A 
ATOM      6  C5  UNL d   1       3.754   3.583  -5.996  0.00  0.00     0.034 A 
ATOM      7 Cl   UNL d   1       2.643   1.141  -5.997  0.00  0.00    -0.070 Cl
ATOM      8 Cl1  UNL d   1       5.264   0.259  -4.280  0.00  0.00    -0.070 Cl
ENDROOT
TORSDOF 0
ENDMDL
