MODEL 1
REMARK minimizedAffinity 3.13461876
REMARK minimizedRMSD -1
REMARK  0 active torsions:
REMARK  status: ('A' for Active; 'I' for Inactive)
ROOT
ATOM      1  C   UNL d   1       5.999   1.083  -5.044  0.00  0.00     0.020 A 
ATOM      2  C1  UNL d   1       4.894   0.543  -5.701  0.00  0.00     0.020 A 
ATOM      3  C2  UNL d   1       3.789   1.349  -5.985  0.00  0.00     0.034 A 
ATOM      4  C3  UNL d   1       3.786   2.698  -5.612  0.00  0.00     0.017 A 
ATOM      5  C4  UNL d   1       4.896   3.238  -4.951  0.00  0.00     0.017 A 
ATOM      6  C5  UNL d   1       6.000   2.427  -4.670  0.00  0.00     0.034 A 
ATOM      7 Cl   UNL d   1       4.966   4.893  -4.459  0.00  0.00    -0.070 Cl
ATOM      8 Cl1  UNL d   1       2.386   3.635  -5.995  0.00  0.00    -0.070 Cl
ENDROOT
TORSDOF 0
ENDMDL
