MODEL 1
REMARK minimizedAffinity 6.97445154
REMARK minimizedRMSD -1
REMARK  0 active torsions:
REMARK  status: ('A' for Active; 'I' for Inactive)
ROOT
ATOM      1  C   UNL d   1       3.645   4.004   0.224  0.00  0.00     0.020 A 
ATOM      2  C1  UNL d   1       4.599   4.426   1.149  0.00  0.00     0.020 A 
ATOM      3  C2  UNL d   1       4.714   3.774   2.379  0.00  0.00     0.034 A 
ATOM      4  C3  UNL d   1       3.874   2.698   2.687  0.00  0.00     0.017 A 
ATOM      5  C4  UNL d   1       2.917   2.275   1.757  0.00  0.00     0.017 A 
ATOM      6  C5  UNL d   1       2.806   2.931   0.527  0.00  0.00     0.034 A 
ATOM      7 Cl   UNL d   1       1.845   0.955   2.066  0.00  0.00    -0.070 Cl
ATOM      8 Cl1  UNL d   1       4.073   1.939   4.226  0.00  0.00    -0.070 Cl
ENDROOT
TORSDOF 0
ENDMDL
