MODEL 1
REMARK minimizedAffinity -0.733017445
REMARK minimizedRMSD -1
REMARK  0 active torsions:
REMARK  status: ('A' for Active; 'I' for Inactive)
ROOT
ATOM      1  C   UNL d   1       2.093   2.705   0.458  0.00  0.00     0.020 A 
ATOM      2  C1  UNL d   1       2.276   1.653   1.354  0.00  0.00     0.020 A 
ATOM      3  C2  UNL d   1       3.205   1.772   2.390  0.00  0.00     0.034 A 
ATOM      4  C3  UNL d   1       3.955   2.945   2.532  0.00  0.00     0.017 A 
ATOM      5  C4  UNL d   1       3.771   4.000   1.631  0.00  0.00     0.017 A 
ATOM      6  C5  UNL d   1       2.839   3.876   0.596  0.00  0.00     0.034 A 
ATOM      7 Cl   UNL d   1       4.659   5.479   1.742  0.00  0.00    -0.070 Cl
ATOM      8 Cl1  UNL d   1       5.085   3.023   3.836  0.00  0.00    -0.070 Cl
ENDROOT
TORSDOF 0
ENDMDL
