MODEL 1
REMARK minimizedAffinity 4.54144001
REMARK minimizedRMSD -1
REMARK  0 active torsions:
REMARK  status: ('A' for Active; 'I' for Inactive)
ROOT
ATOM      1  C   UNL d   1       1.905   1.597   1.006  0.00  0.00     0.020 A 
ATOM      2  C1  UNL d   1       2.441   2.570   0.163  0.00  0.00     0.020 A 
ATOM      3  C2  UNL d   1       3.483   3.385   0.611  0.00  0.00     0.034 A 
ATOM      4  C3  UNL d   1       3.992   3.228   1.905  0.00  0.00     0.017 A 
ATOM      5  C4  UNL d   1       3.454   2.251   2.750  0.00  0.00     0.017 A 
ATOM      6  C5  UNL d   1       2.411   1.437   2.296  0.00  0.00     0.034 A 
ATOM      7 Cl   UNL d   1       4.030   1.997   4.360  0.00  0.00    -0.070 Cl
ATOM      8 Cl1  UNL d   1       5.281   4.270   2.393  0.00  0.00    -0.070 Cl
ENDROOT
TORSDOF 0
ENDMDL
