MODEL 1
REMARK minimizedAffinity 1.31818593
REMARK minimizedRMSD -1
REMARK  0 active torsions:
REMARK  status: ('A' for Active; 'I' for Inactive)
ROOT
ATOM      1  C   UNL d   1       3.486   2.115   3.729  0.00  0.00     0.020 A 
ATOM      2  C1  UNL d   1       4.489   3.054   3.491  0.00  0.00     0.020 A 
ATOM      3  C2  UNL d   1       4.529   3.740   2.276  0.00  0.00     0.034 A 
ATOM      4  C3  UNL d   1       3.563   3.489   1.294  0.00  0.00     0.017 A 
ATOM      5  C4  UNL d   1       2.557   2.547   1.534  0.00  0.00     0.017 A 
ATOM      6  C5  UNL d   1       2.522   1.862   2.753  0.00  0.00     0.034 A 
ATOM      7 Cl   UNL d   1       1.331   2.183   0.371  0.00  0.00    -0.070 Cl
ATOM      8 Cl1  UNL d   1       3.673   4.375  -0.186  0.00  0.00    -0.070 Cl
ENDROOT
TORSDOF 0
ENDMDL
