MODEL 1
REMARK minimizedAffinity 1.43715894
REMARK minimizedRMSD -1
REMARK  0 active torsions:
REMARK  status: ('A' for Active; 'I' for Inactive)
ROOT
ATOM      1  C   UNL d   1      -2.398  -3.467  -0.796  0.00  0.00     0.020 A 
ATOM      2  C1  UNL d   1      -1.353  -2.995  -1.589  0.00  0.00     0.020 A 
ATOM      3  C2  UNL d   1      -0.354  -2.199  -1.026  0.00  0.00     0.034 A 
ATOM      4  C3  UNL d   1      -0.397  -1.871   0.334  0.00  0.00     0.017 A 
ATOM      5  C4  UNL d   1      -1.447  -2.345   1.130  0.00  0.00     0.017 A 
ATOM      6  C5  UNL d   1      -2.444  -3.143   0.561  0.00  0.00     0.034 A 
ATOM      7 Cl   UNL d   1      -1.568  -1.984   2.815  0.00  0.00    -0.070 Cl
ATOM      8 Cl1  UNL d   1       0.872  -0.882   0.963  0.00  0.00    -0.070 Cl
ENDROOT
TORSDOF 0
ENDMDL
