MODEL 1
REMARK minimizedAffinity 2.29409623
REMARK minimizedRMSD -1
REMARK  0 active torsions:
REMARK  status: ('A' for Active; 'I' for Inactive)
ROOT
ATOM      1  C   UNL d   1       2.201   2.841  -0.035  0.00  0.00     0.020 A 
ATOM      2  C1  UNL d   1       1.916   1.736   0.765  0.00  0.00     0.020 A 
ATOM      3  C2  UNL d   1       2.648   1.513   1.934  0.00  0.00     0.034 A 
ATOM      4  C3  UNL d   1       3.668   2.396   2.305  0.00  0.00     0.017 A 
ATOM      5  C4  UNL d   1       3.954   3.505   1.501  0.00  0.00     0.017 A 
ATOM      6  C5  UNL d   1       3.218   3.724   0.332  0.00  0.00     0.034 A 
ATOM      7 Cl   UNL d   1       5.198   4.639   1.893  0.00  0.00    -0.070 Cl
ATOM      8 Cl1  UNL d   1       4.532   2.058   3.763  0.00  0.00    -0.070 Cl
ENDROOT
TORSDOF 0
ENDMDL
