MODEL 1
REMARK minimizedAffinity 0.323256493
REMARK minimizedRMSD -1
REMARK  0 active torsions:
REMARK  status: ('A' for Active; 'I' for Inactive)
ROOT
ATOM      1  C   UNL d   1       5.059   3.803   3.360  0.00  0.00     0.020 A 
ATOM      2  C1  UNL d   1       4.306   2.973   4.189  0.00  0.00     0.020 A 
ATOM      3  C2  UNL d   1       3.253   2.226   3.659  0.00  0.00     0.034 A 
ATOM      4  C3  UNL d   1       2.949   2.307   2.295  0.00  0.00     0.017 A 
ATOM      5  C4  UNL d   1       3.706   3.140   1.463  0.00  0.00     0.017 A 
ATOM      6  C5  UNL d   1       4.760   3.886   1.999  0.00  0.00     0.034 A 
ATOM      7 Cl   UNL d   1       3.391   3.292  -0.230  0.00  0.00    -0.070 Cl
ATOM      8 Cl1  UNL d   1       1.633   1.354   1.707  0.00  0.00    -0.070 Cl
ENDROOT
TORSDOF 0
ENDMDL
