MODEL 1
REMARK minimizedAffinity 4.48711586
REMARK minimizedRMSD -1
REMARK  0 active torsions:
REMARK  status: ('A' for Active; 'I' for Inactive)
ROOT
ATOM      1  C   UNL d   1      -1.454  -3.937  -1.204  0.00  0.00     0.020 A 
ATOM      2  C1  UNL d   1      -0.486  -3.127  -1.796  0.00  0.00     0.020 A 
ATOM      3  C2  UNL d   1       0.040  -2.040  -1.094  0.00  0.00     0.034 A 
ATOM      4  C3  UNL d   1      -0.403  -1.760   0.204  0.00  0.00     0.017 A 
ATOM      5  C4  UNL d   1      -1.375  -2.573   0.797  0.00  0.00     0.017 A 
ATOM      6  C5  UNL d   1      -1.898  -3.660   0.090  0.00  0.00     0.034 A 
ATOM      7 Cl   UNL d   1      -1.971  -2.290   2.395  0.00  0.00    -0.070 Cl
ATOM      8 Cl1  UNL d   1       0.291  -0.400   1.014  0.00  0.00    -0.070 Cl
ENDROOT
TORSDOF 0
ENDMDL
