MODEL 1
REMARK minimizedAffinity 5.10739088
REMARK minimizedRMSD -1
REMARK  0 active torsions:
REMARK  status: ('A' for Active; 'I' for Inactive)
ROOT
ATOM      1  C   UNL d   1       5.943   3.947  -5.988  0.00  0.00     0.020 A 
ATOM      2  C1  UNL d   1       4.721   4.619  -5.981  0.00  0.00     0.020 A 
ATOM      3  C2  UNL d   1       3.555   3.943  -5.614  0.00  0.00     0.034 A 
ATOM      4  C3  UNL d   1       3.609   2.592  -5.253  0.00  0.00     0.017 A 
ATOM      5  C4  UNL d   1       4.836   1.919  -5.260  0.00  0.00     0.017 A 
ATOM      6  C5  UNL d   1       6.000   2.600  -5.629  0.00  0.00     0.034 A 
ATOM      7 Cl   UNL d   1       4.981   0.252  -4.827  0.00  0.00    -0.070 Cl
ATOM      8 Cl1  UNL d   1       2.128   1.820  -4.810  0.00  0.00    -0.070 Cl
ENDROOT
TORSDOF 0
ENDMDL
