MODEL 1
REMARK minimizedAffinity 1.82590735
REMARK minimizedRMSD -1
REMARK  0 active torsions:
REMARK  status: ('A' for Active; 'I' for Inactive)
ROOT
ATOM      1  C   UNL d   1       4.949   4.455   1.225  0.00  0.00     0.020 A 
ATOM      2  C1  UNL d   1       4.079   3.944   0.262  0.00  0.00     0.020 A 
ATOM      3  C2  UNL d   1       3.200   2.911   0.593  0.00  0.00     0.034 A 
ATOM      4  C3  UNL d   1       3.189   2.385   1.890  0.00  0.00     0.017 A 
ATOM      5  C4  UNL d   1       4.062   2.898   2.856  0.00  0.00     0.017 A 
ATOM      6  C5  UNL d   1       4.940   3.933   2.519  0.00  0.00     0.034 A 
ATOM      7 Cl   UNL d   1       4.106   2.301   4.478  0.00  0.00    -0.070 Cl
ATOM      8 Cl1  UNL d   1       2.076   1.108   2.230  0.00  0.00    -0.070 Cl
ENDROOT
TORSDOF 0
ENDMDL
