MODEL 1
REMARK minimizedAffinity 1.52106798
REMARK minimizedRMSD -1
REMARK  0 active torsions:
REMARK  status: ('A' for Active; 'I' for Inactive)
ROOT
ATOM      1  C   UNL d   1      -1.489  -4.317   3.889  0.00  0.00     0.020 A 
ATOM      2  C1  UNL d   1      -1.867  -3.020   3.543  0.00  0.00     0.020 A 
ATOM      3  C2  UNL d   1      -1.861  -2.626   2.203  0.00  0.00     0.034 A 
ATOM      4  C3  UNL d   1      -1.476  -3.529   1.205  0.00  0.00     0.017 A 
ATOM      5  C4  UNL d   1      -1.097  -4.830   1.554  0.00  0.00     0.017 A 
ATOM      6  C5  UNL d   1      -1.105  -5.219   2.897  0.00  0.00     0.034 A 
ATOM      7 Cl   UNL d   1      -0.609  -6.000   0.379  0.00  0.00    -0.070 Cl
ATOM      8 Cl1  UNL d   1      -1.493  -2.973  -0.431  0.00  0.00    -0.070 Cl
ENDROOT
TORSDOF 0
ENDMDL
