MODEL 1
REMARK minimizedAffinity 3.42476082
REMARK minimizedRMSD -1
REMARK  0 active torsions:
REMARK  status: ('A' for Active; 'I' for Inactive)
ROOT
ATOM      1  C   UNL d   1       4.935   4.903   1.157  0.00  0.00     0.020 A 
ATOM      2  C1  UNL d   1       4.004   4.395   0.252  0.00  0.00     0.020 A 
ATOM      3  C2  UNL d   1       3.273   3.249   0.572  0.00  0.00     0.034 A 
ATOM      4  C3  UNL d   1       3.472   2.607   1.799  0.00  0.00     0.017 A 
ATOM      5  C4  UNL d   1       4.407   3.117   2.707  0.00  0.00     0.017 A 
ATOM      6  C5  UNL d   1       5.136   4.265   2.382  0.00  0.00     0.034 A 
ATOM      7 Cl   UNL d   1       4.707   2.380   4.242  0.00  0.00    -0.070 Cl
ATOM      8 Cl1  UNL d   1       2.533   1.194   2.129  0.00  0.00    -0.070 Cl
ENDROOT
TORSDOF 0
ENDMDL
