MODEL 1
REMARK minimizedAffinity 0.703307986
REMARK minimizedRMSD -1
REMARK  0 active torsions:
REMARK  status: ('A' for Active; 'I' for Inactive)
ROOT
ATOM      1  C   UNL d   1       4.030   3.273   1.044  0.00  0.00     0.020 A 
ATOM      2  C1  UNL d   1       3.922   2.316   2.052  0.00  0.00     0.020 A 
ATOM      3  C2  UNL d   1       2.678   1.755   2.351  0.00  0.00     0.034 A 
ATOM      4  C3  UNL d   1       1.538   2.151   1.642  0.00  0.00     0.017 A 
ATOM      5  C4  UNL d   1       1.649   3.112   0.630  0.00  0.00     0.017 A 
ATOM      6  C5  UNL d   1       2.896   3.670   0.335  0.00  0.00     0.034 A 
ATOM      7 Cl   UNL d   1       0.287   3.651  -0.288  0.00  0.00    -0.070 Cl
ATOM      8 Cl1  UNL d   1       0.033   1.416   2.065  0.00  0.00    -0.070 Cl
ENDROOT
TORSDOF 0
ENDMDL
