MODEL 1
REMARK minimizedAffinity 1.08209527
REMARK minimizedRMSD -1
REMARK  0 active torsions:
REMARK  status: ('A' for Active; 'I' for Inactive)
ROOT
ATOM      1  C   UNL d   1       5.235   4.021   2.128  0.00  0.00     0.020 A 
ATOM      2  C1  UNL d   1       5.086   3.058   3.126  0.00  0.00     0.020 A 
ATOM      3  C2  UNL d   1       4.032   2.144   3.063  0.00  0.00     0.034 A 
ATOM      4  C3  UNL d   1       3.122   2.192   1.999  0.00  0.00     0.017 A 
ATOM      5  C4  UNL d   1       3.273   3.158   0.999  0.00  0.00     0.017 A 
ATOM      6  C5  UNL d   1       4.331   4.070   1.067  0.00  0.00     0.034 A 
ATOM      7 Cl   UNL d   1       2.192   3.279  -0.344  0.00  0.00    -0.070 Cl
ATOM      8 Cl1  UNL d   1       1.843   1.031   1.985  0.00  0.00    -0.070 Cl
ENDROOT
TORSDOF 0
ENDMDL
