MODEL 1
REMARK minimizedAffinity -0.719418824
REMARK minimizedRMSD -1
REMARK  0 active torsions:
REMARK  status: ('A' for Active; 'I' for Inactive)
ROOT
ATOM      1  C   UNL d   1      -1.490   3.803   4.126  0.00  0.00     0.020 A 
ATOM      2  C1  UNL d   1      -0.160   4.209   4.025  0.00  0.00     0.020 A 
ATOM      3  C2  UNL d   1       0.654   3.688   3.017  0.00  0.00     0.034 A 
ATOM      4  C3  UNL d   1       0.139   2.758   2.106  0.00  0.00     0.017 A 
ATOM      5  C4  UNL d   1      -1.196   2.352   2.208  0.00  0.00     0.017 A 
ATOM      6  C5  UNL d   1      -2.007   2.876   3.219  0.00  0.00     0.034 A 
ATOM      7 Cl   UNL d   1      -1.902   1.208   1.121  0.00  0.00    -0.070 Cl
ATOM      8 Cl1  UNL d   1       1.203   2.156   0.885  0.00  0.00    -0.070 Cl
ENDROOT
TORSDOF 0
ENDMDL
