MODEL 1
REMARK minimizedAffinity -3.49056268
REMARK minimizedRMSD -1
REMARK  0 active torsions:
REMARK  status: ('A' for Active; 'I' for Inactive)
ROOT
ATOM      1  C   UNL d   1       2.098  -0.693  -0.740  0.00  0.00     0.020 A 
ATOM      2  C1  UNL d   1       2.763   0.481  -0.390  0.00  0.00     0.020 A 
ATOM      3  C2  UNL d   1       2.044   1.567   0.114  0.00  0.00     0.034 A 
ATOM      4  C3  UNL d   1       0.656   1.481   0.269  0.00  0.00     0.017 A 
ATOM      5  C4  UNL d   1      -0.011   0.302  -0.083  0.00  0.00     0.017 A 
ATOM      6  C5  UNL d   1       0.714  -0.782  -0.587  0.00  0.00     0.034 A 
ATOM      7 Cl   UNL d   1      -1.722   0.121   0.080  0.00  0.00    -0.070 Cl
ATOM      8 Cl1  UNL d   1      -0.169   2.863   0.899  0.00  0.00    -0.070 Cl
ENDROOT
TORSDOF 0
ENDMDL
