MODEL 1
REMARK minimizedAffinity -4.89495993
REMARK minimizedRMSD -1
REMARK  0 active torsions:
REMARK  status: ('A' for Active; 'I' for Inactive)
ROOT
ATOM      1  C   UNL d   1       2.062  -2.391   0.751  0.00  0.00     0.020 A 
ATOM      2  C1  UNL d   1       2.410  -1.421  -0.188  0.00  0.00     0.020 A 
ATOM      3  C2  UNL d   1       1.526  -0.380  -0.477  0.00  0.00     0.034 A 
ATOM      4  C3  UNL d   1       0.289  -0.306   0.174  0.00  0.00     0.017 A 
ATOM      5  C4  UNL d   1      -0.060  -1.280   1.117  0.00  0.00     0.017 A 
ATOM      6  C5  UNL d   1       0.830  -2.320   1.402  0.00  0.00     0.034 A 
ATOM      7 Cl   UNL d   1      -1.567  -1.255   1.961  0.00  0.00    -0.070 Cl
ATOM      8 Cl1  UNL d   1      -0.755   1.010  -0.231  0.00  0.00    -0.070 Cl
ENDROOT
TORSDOF 0
ENDMDL
