MODEL 1
REMARK minimizedAffinity -2.02835035
REMARK minimizedRMSD -1
REMARK  0 active torsions:
REMARK  status: ('A' for Active; 'I' for Inactive)
ROOT
ATOM      1  C   UNL d   1       2.810  -1.094   0.313  0.00  0.00     0.020 A 
ATOM      2  C1  UNL d   1       2.330  -2.208   1.001  0.00  0.00     0.020 A 
ATOM      3  C2  UNL d   1       1.018  -2.221   1.481  0.00  0.00     0.034 A 
ATOM      4  C3  UNL d   1       0.183  -1.117   1.274  0.00  0.00     0.017 A 
ATOM      5  C4  UNL d   1       0.666   0.001   0.584  0.00  0.00     0.017 A 
ATOM      6  C5  UNL d   1       1.979   0.008   0.106  0.00  0.00     0.034 A 
ATOM      7 Cl   UNL d   1      -0.306   1.400   0.290  0.00  0.00    -0.070 Cl
ATOM      8 Cl1  UNL d   1      -1.428  -1.201   1.895  0.00  0.00    -0.070 Cl
ENDROOT
TORSDOF 0
ENDMDL
