MODEL 1
REMARK minimizedAffinity -4.28712845
REMARK minimizedRMSD -1
REMARK  0 active torsions:
REMARK  status: ('A' for Active; 'I' for Inactive)
ROOT
ATOM      1  C   UNL d   1       0.583  -2.545   0.545  0.00  0.00     0.020 A 
ATOM      2  C1  UNL d   1       1.974  -2.467   0.485  0.00  0.00     0.020 A 
ATOM      3  C2  UNL d   1       2.596  -1.233   0.282  0.00  0.00     0.034 A 
ATOM      4  C3  UNL d   1       1.826  -0.073   0.137  0.00  0.00     0.017 A 
ATOM      5  C4  UNL d   1       0.430  -0.153   0.198  0.00  0.00     0.017 A 
ATOM      6  C5  UNL d   1      -0.187  -1.391   0.402  0.00  0.00     0.034 A 
ATOM      7 Cl   UNL d   1      -0.586   1.235   0.028  0.00  0.00    -0.070 Cl
ATOM      8 Cl1  UNL d   1       2.662   1.419  -0.111  0.00  0.00    -0.070 Cl
ENDROOT
TORSDOF 0
ENDMDL
