MODEL 1
REMARK minimizedAffinity -2.9214108
REMARK minimizedRMSD -1
REMARK  0 active torsions:
REMARK  status: ('A' for Active; 'I' for Inactive)
ROOT
ATOM      1  C   UNL d   1      -0.489   0.150   0.287  0.00  0.00     0.020 A 
ATOM      2  C1  UNL d   1       0.535   1.054   0.010  0.00  0.00     0.020 A 
ATOM      3  C2  UNL d   1       1.868   0.640   0.073  0.00  0.00     0.034 A 
ATOM      4  C3  UNL d   1       2.179  -0.681   0.414  0.00  0.00     0.017 A 
ATOM      5  C4  UNL d   1       1.150  -1.588   0.692  0.00  0.00     0.017 A 
ATOM      6  C5  UNL d   1      -0.182  -1.169   0.627  0.00  0.00     0.034 A 
ATOM      7 Cl   UNL d   1       1.456  -3.235   1.119  0.00  0.00    -0.070 Cl
ATOM      8 Cl1  UNL d   1       3.848  -1.123   0.472  0.00  0.00    -0.070 Cl
ENDROOT
TORSDOF 0
ENDMDL
