MODEL 1
REMARK minimizedAffinity -0.948166013
REMARK minimizedRMSD -1
REMARK  0 active torsions:
REMARK  status: ('A' for Active; 'I' for Inactive)
ROOT
ATOM      1  C   UNL d   1      -3.243   1.418  -3.443  0.00  0.00     0.020 A 
ATOM      2  C1  UNL d   1      -3.624   1.314  -2.105  0.00  0.00     0.020 A 
ATOM      3  C2  UNL d   1      -2.669   1.023  -1.128  0.00  0.00     0.034 A 
ATOM      4  C3  UNL d   1      -1.330   0.835  -1.487  0.00  0.00     0.017 A 
ATOM      5  C4  UNL d   1      -0.948   0.940  -2.830  0.00  0.00     0.017 A 
ATOM      6  C5  UNL d   1      -1.908   1.232  -3.804  0.00  0.00     0.034 A 
ATOM      7 Cl   UNL d   1       0.685   0.721  -3.349  0.00  0.00    -0.070 Cl
ATOM      8 Cl1  UNL d   1      -0.203   0.477  -0.227  0.00  0.00    -0.070 Cl
ENDROOT
TORSDOF 0
ENDMDL
