MODEL 1
REMARK minimizedAffinity -1.39289618
REMARK minimizedRMSD -1
REMARK  0 active torsions:
REMARK  status: ('A' for Active; 'I' for Inactive)
ROOT
ATOM      1  C   UNL d   1       3.080  -1.092   0.631  0.00  0.00     0.020 A 
ATOM      2  C1  UNL d   1       3.089  -0.972  -0.758  0.00  0.00     0.020 A 
ATOM      3  C2  UNL d   1       1.929  -0.585  -1.432  0.00  0.00     0.034 A 
ATOM      4  C3  UNL d   1       0.756  -0.317  -0.718  0.00  0.00     0.017 A 
ATOM      5  C4  UNL d   1       0.748  -0.437   0.676  0.00  0.00     0.017 A 
ATOM      6  C5  UNL d   1       1.912  -0.825   1.347  0.00  0.00     0.034 A 
ATOM      7 Cl   UNL d   1      -0.662  -0.122   1.626  0.00  0.00    -0.070 Cl
ATOM      8 Cl1  UNL d   1      -0.642   0.158  -1.618  0.00  0.00    -0.070 Cl
ENDROOT
TORSDOF 0
ENDMDL
