MODEL 1
REMARK minimizedAffinity -3.96124172
REMARK minimizedRMSD -1
REMARK  0 active torsions:
REMARK  status: ('A' for Active; 'I' for Inactive)
ROOT
ATOM      1  C   UNL d   1       1.229   0.849  -0.658  0.00  0.00     0.020 A 
ATOM      2  C1  UNL d   1       0.066   1.410  -0.131  0.00  0.00     0.020 A 
ATOM      3  C2  UNL d   1      -0.737   0.666   0.736  0.00  0.00     0.034 A 
ATOM      4  C3  UNL d   1      -0.378  -0.643   1.079  0.00  0.00     0.017 A 
ATOM      5  C4  UNL d   1       0.789  -1.205   0.550  0.00  0.00     0.017 A 
ATOM      6  C5  UNL d   1       1.590  -0.455  -0.318  0.00  0.00     0.034 A 
ATOM      7 Cl   UNL d   1       1.297  -2.813   0.926  0.00  0.00    -0.070 Cl
ATOM      8 Cl1  UNL d   1      -1.418  -1.505   2.157  0.00  0.00    -0.070 Cl
ENDROOT
TORSDOF 0
ENDMDL
