MODEL 1
REMARK minimizedAffinity -3.36885953
REMARK minimizedRMSD -1
REMARK  0 active torsions:
REMARK  status: ('A' for Active; 'I' for Inactive)
ROOT
ATOM      1  C   UNL d   1       2.262  -2.255   1.110  0.00  0.00     0.020 A 
ATOM      2  C1  UNL d   1       0.873  -2.352   1.189  0.00  0.00     0.020 A 
ATOM      3  C2  UNL d   1       0.070  -1.435   0.508  0.00  0.00     0.034 A 
ATOM      4  C3  UNL d   1       0.654  -0.417  -0.255  0.00  0.00     0.017 A 
ATOM      5  C4  UNL d   1       2.049  -0.321  -0.333  0.00  0.00     0.017 A 
ATOM      6  C5  UNL d   1       2.848  -1.242   0.351  0.00  0.00     0.034 A 
ATOM      7 Cl   UNL d   1       2.843   0.908  -1.254  0.00  0.00    -0.070 Cl
ATOM      8 Cl1  UNL d   1      -0.400   0.682  -1.071  0.00  0.00    -0.070 Cl
ENDROOT
TORSDOF 0
ENDMDL
