MODEL 1
REMARK minimizedAffinity -0.904138446
REMARK minimizedRMSD -1
REMARK  0 active torsions:
REMARK  status: ('A' for Active; 'I' for Inactive)
ROOT
ATOM      1  C   UNL d   1       2.577  -1.297  -0.151  0.00  0.00     0.020 A 
ATOM      2  C1  UNL d   1       2.312  -1.900   1.078  0.00  0.00     0.020 A 
ATOM      3  C2  UNL d   1       1.158  -1.563   1.787  0.00  0.00     0.034 A 
ATOM      4  C3  UNL d   1       0.263  -0.620   1.268  0.00  0.00     0.017 A 
ATOM      5  C4  UNL d   1       0.529  -0.015   0.035  0.00  0.00     0.017 A 
ATOM      6  C5  UNL d   1       1.687  -0.357  -0.672  0.00  0.00     0.034 A 
ATOM      7 Cl   UNL d   1      -0.527   1.158  -0.670  0.00  0.00    -0.070 Cl
ATOM      8 Cl1  UNL d   1      -1.145  -0.251   2.199  0.00  0.00    -0.070 Cl
ENDROOT
TORSDOF 0
ENDMDL
