MODEL 1
REMARK minimizedAffinity -3.76669693
REMARK minimizedRMSD -1
REMARK  0 active torsions:
REMARK  status: ('A' for Active; 'I' for Inactive)
ROOT
ATOM      1  C   UNL d   1       2.545  -1.074  -0.291  0.00  0.00     0.020 A 
ATOM      2  C1  UNL d   1       2.212  -2.207   0.451  0.00  0.00     0.020 A 
ATOM      3  C2  UNL d   1       0.976  -2.281   1.096  0.00  0.00     0.034 A 
ATOM      4  C3  UNL d   1       0.067  -1.222   0.999  0.00  0.00     0.017 A 
ATOM      5  C4  UNL d   1       0.401  -0.085   0.253  0.00  0.00     0.017 A 
ATOM      6  C5  UNL d   1       1.641  -0.016  -0.390  0.00  0.00     0.034 A 
ATOM      7 Cl   UNL d   1      -0.668   1.262   0.088  0.00  0.00    -0.070 Cl
ATOM      8 Cl1  UNL d   1      -1.445  -1.382   1.821  0.00  0.00    -0.070 Cl
ENDROOT
TORSDOF 0
ENDMDL
