MODEL 1
REMARK minimizedAffinity -5.53928089
REMARK minimizedRMSD -1
REMARK  0 active torsions:
REMARK  status: ('A' for Active; 'I' for Inactive)
ROOT
ATOM      1  C   UNL d   1       0.031  -2.056   2.155  0.00  0.00     0.020 A 
ATOM      2  C1  UNL d   1       1.205  -2.799   2.274  0.00  0.00     0.020 A 
ATOM      3  C2  UNL d   1       2.336  -2.442   1.536  0.00  0.00     0.034 A 
ATOM      4  C3  UNL d   1       2.295  -1.338   0.677  0.00  0.00     0.017 A 
ATOM      5  C4  UNL d   1       1.116  -0.592   0.558  0.00  0.00     0.017 A 
ATOM      6  C5  UNL d   1      -0.013  -0.955   1.299  0.00  0.00     0.034 A 
ATOM      7 Cl   UNL d   1       0.990   0.783  -0.481  0.00  0.00    -0.070 Cl
ATOM      8 Cl1  UNL d   1       3.730  -0.952  -0.204  0.00  0.00    -0.070 Cl
ENDROOT
TORSDOF 0
ENDMDL
