MODEL 1
REMARK minimizedAffinity -2.36950898
REMARK minimizedRMSD -1
REMARK  0 active torsions:
REMARK  status: ('A' for Active; 'I' for Inactive)
ROOT
ATOM      1  C   UNL d   1      -0.519   1.241  -0.401  0.00  0.00     0.020 A 
ATOM      2  C1  UNL d   1      -0.566  -0.150  -0.480  0.00  0.00     0.020 A 
ATOM      3  C2  UNL d   1       0.570  -0.905  -0.183  0.00  0.00     0.034 A 
ATOM      4  C3  UNL d   1       1.758  -0.270   0.195  0.00  0.00     0.017 A 
ATOM      5  C4  UNL d   1       1.805   1.127   0.274  0.00  0.00     0.017 A 
ATOM      6  C5  UNL d   1       0.664   1.878  -0.025  0.00  0.00     0.034 A 
ATOM      7 Cl   UNL d   1       3.235   1.982   0.733  0.00  0.00    -0.070 Cl
ATOM      8 Cl1  UNL d   1       3.125  -1.266   0.549  0.00  0.00    -0.070 Cl
ENDROOT
TORSDOF 0
ENDMDL
