MODEL 1
REMARK minimizedAffinity -5.06141424
REMARK minimizedRMSD -1
REMARK  0 active torsions:
REMARK  status: ('A' for Active; 'I' for Inactive)
ROOT
ATOM      1  C   UNL d   1       1.941  -1.977   1.691  0.00  0.00     0.020 A 
ATOM      2  C1  UNL d   1       2.428  -1.562   0.452  0.00  0.00     0.020 A 
ATOM      3  C2  UNL d   1       1.714  -0.628  -0.301  0.00  0.00     0.034 A 
ATOM      4  C3  UNL d   1       0.509  -0.106   0.183  0.00  0.00     0.017 A 
ATOM      5  C4  UNL d   1       0.021  -0.524   1.426  0.00  0.00     0.017 A 
ATOM      6  C5  UNL d   1       0.739  -1.459   2.177  0.00  0.00     0.034 A 
ATOM      7 Cl   UNL d   1      -1.459   0.075   2.089  0.00  0.00    -0.070 Cl
ATOM      8 Cl1  UNL d   1      -0.321   1.046  -0.802  0.00  0.00    -0.070 Cl
ENDROOT
TORSDOF 0
ENDMDL
