MODEL 1
REMARK minimizedAffinity -4.20486975
REMARK minimizedRMSD -1
REMARK  0 active torsions:
REMARK  status: ('A' for Active; 'I' for Inactive)
ROOT
ATOM      1  C   UNL d   1       1.926  -2.314   0.496  0.00  0.00     0.020 A 
ATOM      2  C1  UNL d   1       2.225  -1.244  -0.346  0.00  0.00     0.020 A 
ATOM      3  C2  UNL d   1       1.337  -0.172  -0.455  0.00  0.00     0.034 A 
ATOM      4  C3  UNL d   1       0.146  -0.167   0.281  0.00  0.00     0.017 A 
ATOM      5  C4  UNL d   1      -0.153  -1.242   1.126  0.00  0.00     0.017 A 
ATOM      6  C5  UNL d   1       0.740  -2.313   1.231  0.00  0.00     0.034 A 
ATOM      7 Cl   UNL d   1      -1.603  -1.307   2.065  0.00  0.00    -0.070 Cl
ATOM      8 Cl1  UNL d   1      -0.906   1.192   0.098  0.00  0.00    -0.070 Cl
ENDROOT
TORSDOF 0
ENDMDL
