MODEL 1
REMARK minimizedAffinity 10.7973709
REMARK minimizedRMSD -1
REMARK  0 active torsions:
REMARK  status: ('A' for Active; 'I' for Inactive)
ROOT
ATOM      1  C1  DEN d   1       2.868   4.795  -4.724  0.00  0.00     0.130 A 
ATOM      2  C2  DEN d   1       3.364   6.000  -5.384  0.00  0.00    -0.031 A 
ATOM      3  C3  DEN d   1       4.667   5.679  -6.000  0.00  0.00     0.027 A 
ATOM      4  C4  DEN d   1       5.956   3.445  -6.000  0.00  0.00     0.027 A 
ATOM      5  C5  DEN d   1       5.940   2.140  -5.559  0.00  0.00    -0.003 A 
ATOM      6  C6  DEN d   1       4.924   1.642  -4.787  0.00  0.00     0.001 A 
ATOM      7  C7  DEN d   1       3.858   2.442  -4.470  0.00  0.00     0.017 A 
ATOM      8  C8  DEN d   1       3.871   3.761  -4.904  0.00  0.00    -0.094 A 
ATOM      9  C9  DEN d   1       4.901   4.242  -5.694  0.00  0.00    -0.072 A 
ENDROOT
TORSDOF 0
ENDMDL
