MODEL 1
REMARK minimizedAffinity 12.603159
REMARK minimizedRMSD -1
REMARK  0 active torsions:
REMARK  status: ('A' for Active; 'I' for Inactive)
ROOT
ATOM      1  C1  DEN d   1      -2.119   0.071  -1.456  0.00  0.00     0.130 A 
ATOM      2  C2  DEN d   1      -3.176  -0.877  -1.796  0.00  0.00    -0.031 A 
ATOM      3  C3  DEN d   1      -4.029  -0.258  -2.831  0.00  0.00     0.027 A 
ATOM      4  C4  DEN d   1      -3.813   2.063  -3.935  0.00  0.00     0.027 A 
ATOM      5  C5  DEN d   1      -3.081   3.229  -3.963  0.00  0.00    -0.003 A 
ATOM      6  C6  DEN d   1      -2.006   3.436  -3.140  0.00  0.00     0.001 A 
ATOM      7  C7  DEN d   1      -1.605   2.444  -2.285  0.00  0.00     0.017 A 
ATOM      8  C8  DEN d   1      -2.343   1.268  -2.246  0.00  0.00    -0.094 A 
ATOM      9  C9  DEN d   1      -3.419   1.073  -3.094  0.00  0.00    -0.072 A 
ENDROOT
TORSDOF 0
ENDMDL
