MODEL 1
REMARK minimizedAffinity 16.1300907
REMARK minimizedRMSD -1
REMARK  0 active torsions:
REMARK  status: ('A' for Active; 'I' for Inactive)
ROOT
ATOM      1  C1  DEN d   1       1.202   5.215  -5.558  0.00  0.00     0.130 A 
ATOM      2  C2  DEN d   1       0.635   3.904  -5.256  0.00  0.00    -0.031 A 
ATOM      3  C3  DEN d   1       1.746   2.936  -5.163  0.00  0.00     0.027 A 
ATOM      4  C4  DEN d   1       4.277   3.338  -5.452  0.00  0.00     0.027 A 
ATOM      5  C5  DEN d   1       5.239   4.285  -5.728  0.00  0.00    -0.003 A 
ATOM      6  C6  DEN d   1       4.922   5.590  -5.998  0.00  0.00     0.001 A 
ATOM      7  C7  DEN d   1       3.614   5.995  -5.954  0.00  0.00     0.017 A 
ATOM      8  C8  DEN d   1       2.638   5.044  -5.683  0.00  0.00    -0.094 A 
ATOM      9  C9  DEN d   1       2.980   3.733  -5.400  0.00  0.00    -0.072 A 
ENDROOT
TORSDOF 0
ENDMDL
