MODEL 1
REMARK minimizedAffinity 8.4600296
REMARK minimizedRMSD -1
REMARK  0 active torsions:
REMARK  status: ('A' for Active; 'I' for Inactive)
ROOT
ATOM      1  C1  DEN d   1       3.034   2.637  -5.891  0.00  0.00     0.130 A 
ATOM      2  C2  DEN d   1       4.308   3.351  -5.930  0.00  0.00    -0.031 A 
ATOM      3  C3  DEN d   1       4.021   4.799  -5.902  0.00  0.00     0.027 A 
ATOM      4  C4  DEN d   1       1.740   5.999  -5.797  0.00  0.00     0.027 A 
ATOM      5  C5  DEN d   1       0.375   5.816  -5.760  0.00  0.00    -0.003 A 
ATOM      6  C6  DEN d   1      -0.195   4.571  -5.797  0.00  0.00     0.001 A 
ATOM      7  C7  DEN d   1       0.604   3.459  -5.829  0.00  0.00     0.017 A 
ATOM      8  C8  DEN d   1       1.981   3.636  -5.875  0.00  0.00    -0.094 A 
ATOM      9  C9  DEN d   1       2.538   4.902  -5.824  0.00  0.00    -0.072 A 
ENDROOT
TORSDOF 0
ENDMDL
