MODEL 1
REMARK minimizedAffinity 12.8143721
REMARK minimizedRMSD -1
REMARK  0 active torsions:
REMARK  status: ('A' for Active; 'I' for Inactive)
ROOT
ATOM      1  C1  DEN d   1       2.597  -1.339  -0.007  0.00  0.00     0.130 A 
ATOM      2  C2  DEN d   1       1.310  -1.533   0.656  0.00  0.00    -0.031 A 
ATOM      3  C3  DEN d   1       1.037  -0.339   1.481  0.00  0.00     0.027 A 
ATOM      4  C4  DEN d   1       2.471   1.783   1.788  0.00  0.00     0.027 A 
ATOM      5  C5  DEN d   1       3.651   2.401   1.437  0.00  0.00    -0.003 A 
ATOM      6  C6  DEN d   1       4.570   1.806   0.614  0.00  0.00     0.001 A 
ATOM      7  C7  DEN d   1       4.304   0.574   0.077  0.00  0.00     0.017 A 
ATOM      8  C8  DEN d   1       3.120  -0.059   0.433  0.00  0.00    -0.094 A 
ATOM      9  C9  DEN d   1       2.198   0.564   1.257  0.00  0.00    -0.072 A 
ENDROOT
TORSDOF 0
ENDMDL
