MODEL 1
REMARK minimizedAffinity 3.72485852
REMARK minimizedRMSD -1
REMARK  0 active torsions:
REMARK  status: ('A' for Active; 'I' for Inactive)
ROOT
ATOM      1  C1  DEN d   1       2.260   4.513  -5.553  0.00  0.00     0.130 A 
ATOM      2  C2  DEN d   1       2.611   5.918  -5.742  0.00  0.00    -0.031 A 
ATOM      3  C3  DEN d   1       4.071   6.000  -5.945  0.00  0.00     0.027 A 
ATOM      4  C4  DEN d   1       5.812   4.097  -5.991  0.00  0.00     0.027 A 
ATOM      5  C5  DEN d   1       5.993   2.738  -5.867  0.00  0.00    -0.003 A 
ATOM      6  C6  DEN d   1       4.955   1.885  -5.598  0.00  0.00     0.001 A 
ATOM      7  C7  DEN d   1       3.682   2.378  -5.489  0.00  0.00     0.017 A 
ATOM      8  C8  DEN d   1       3.493   3.749  -5.605  0.00  0.00    -0.094 A 
ATOM      9  C9  DEN d   1       4.553   4.593  -5.890  0.00  0.00    -0.072 A 
ENDROOT
TORSDOF 0
ENDMDL
