MODEL 1
REMARK minimizedAffinity -4.27077675
REMARK minimizedRMSD -1
REMARK  0 active torsions:
REMARK  status: ('A' for Active; 'I' for Inactive)
ROOT
ATOM      1  C   UNL d   1      -1.621   0.967   2.606  0.00  0.00     0.077 C 
ATOM      2  C1  UNL d   1      -0.993   0.701   1.270  0.00  0.00    -0.074 A 
ATOM      3  C2  UNL d   1      -1.277   1.515   0.168  0.00  0.00    -0.005 A 
ATOM      4  C3  UNL d   1      -0.678   1.262  -1.066  0.00  0.00     0.006 A 
ATOM      5  C4  UNL d   1       0.209   0.194  -1.211  0.00  0.00    -0.005 A 
ATOM      6  C5  UNL d   1       0.505  -0.630  -0.120  0.00  0.00    -0.074 A 
ATOM      7  C6  UNL d   1       1.463  -1.776  -0.256  0.00  0.00     0.077 C 
ATOM      8  C7  UNL d   1      -0.095  -0.365   1.118  0.00  0.00    -0.001 A 
ENDROOT
TORSDOF 0
ENDMDL
