MODEL 1
REMARK minimizedAffinity -4.60736132
REMARK minimizedRMSD -1
REMARK  0 active torsions:
REMARK  status: ('A' for Active; 'I' for Inactive)
ROOT
ATOM      1  C   UNL d   1       1.049   1.974  -3.656  0.00  0.00     0.077 C 
ATOM      2  C1  UNL d   1       0.817   0.898  -2.638  0.00  0.00    -0.074 A 
ATOM      3  C2  UNL d   1       1.128  -0.437  -2.919  0.00  0.00    -0.005 A 
ATOM      4  C3  UNL d   1       0.917  -1.426  -1.959  0.00  0.00     0.006 A 
ATOM      5  C4  UNL d   1       0.393  -1.091  -0.710  0.00  0.00    -0.005 A 
ATOM      6  C5  UNL d   1       0.076   0.238  -0.410  0.00  0.00    -0.074 A 
ATOM      7  C6  UNL d   1      -0.478   0.616   0.931  0.00  0.00     0.077 C 
ATOM      8  C7  UNL d   1       0.299   1.227  -1.378  0.00  0.00    -0.001 A 
ENDROOT
TORSDOF 0
ENDMDL
