MODEL 1
REMARK minimizedAffinity -5.74027348
REMARK minimizedRMSD -1
REMARK  0 active torsions:
REMARK  status: ('A' for Active; 'I' for Inactive)
ROOT
ATOM      1  C   UNL d   1      -0.838   0.359  -1.238  0.00  0.00     0.077 C 
ATOM      2  C1  UNL d   1      -0.092   0.166   0.049  0.00  0.00    -0.074 A 
ATOM      3  C2  UNL d   1       1.070  -0.611   0.096  0.00  0.00    -0.005 A 
ATOM      4  C3  UNL d   1       1.759  -0.774   1.298  0.00  0.00     0.006 A 
ATOM      5  C4  UNL d   1       1.294  -0.163   2.463  0.00  0.00    -0.005 A 
ATOM      6  C5  UNL d   1       0.134   0.618   2.435  0.00  0.00    -0.074 A 
ATOM      7  C6  UNL d   1      -0.374   1.290   3.675  0.00  0.00     0.077 C 
ATOM      8  C7  UNL d   1      -0.549   0.783   1.222  0.00  0.00    -0.001 A 
ENDROOT
TORSDOF 0
ENDMDL
