MODEL 1
REMARK minimizedAffinity -2.8975389
REMARK minimizedRMSD -1
REMARK  0 active torsions:
REMARK  status: ('A' for Active; 'I' for Inactive)
ROOT
ATOM      1  C   UNL d   1      -2.322   0.061   2.340  0.00  0.00     0.077 C 
ATOM      2  C1  UNL d   1      -1.238   0.118   1.306  0.00  0.00    -0.074 A 
ATOM      3  C2  UNL d   1      -1.472   0.685   0.049  0.00  0.00    -0.005 A 
ATOM      4  C3  UNL d   1      -0.451   0.738  -0.900  0.00  0.00     0.006 A 
ATOM      5  C4  UNL d   1       0.812   0.227  -0.602  0.00  0.00    -0.005 A 
ATOM      6  C5  UNL d   1       1.065  -0.343   0.650  0.00  0.00    -0.074 A 
ATOM      7  C6  UNL d   1       2.421  -0.889   0.989  0.00  0.00     0.077 C 
ATOM      8  C7  UNL d   1       0.036  -0.387   1.600  0.00  0.00    -0.001 A 
ENDROOT
TORSDOF 0
ENDMDL
