MODEL 1
REMARK minimizedAffinity -5.02021408
REMARK minimizedRMSD -1
REMARK  0 active torsions:
REMARK  status: ('A' for Active; 'I' for Inactive)
ROOT
ATOM      1  C   UNL d   1      -0.365   1.948   3.667  0.00  0.00     0.077 C 
ATOM      2  C1  UNL d   1      -0.660   1.182   2.411  0.00  0.00    -0.074 A 
ATOM      3  C2  UNL d   1      -1.930   0.645   2.178  0.00  0.00    -0.005 A 
ATOM      4  C3  UNL d   1      -2.192  -0.057   1.001  0.00  0.00     0.006 A 
ATOM      5  C4  UNL d   1      -1.188  -0.229   0.048  0.00  0.00    -0.005 A 
ATOM      6  C5  UNL d   1       0.088   0.301   0.264  0.00  0.00    -0.074 A 
ATOM      7  C6  UNL d   1       1.176   0.133  -0.755  0.00  0.00     0.077 C 
ATOM      8  C7  UNL d   1       0.342   1.011   1.445  0.00  0.00    -0.001 A 
ENDROOT
TORSDOF 0
ENDMDL
