MODEL 1
REMARK minimizedAffinity -2.36735725
REMARK minimizedRMSD -1
REMARK  0 active torsions:
REMARK  status: ('A' for Active; 'I' for Inactive)
ROOT
ATOM      1  C   UNL d   1      -1.454   1.324   1.528  0.00  0.00     0.077 C 
ATOM      2  C1  UNL d   1      -0.817   0.674   0.336  0.00  0.00    -0.074 A 
ATOM      3  C2  UNL d   1      -0.429  -0.670   0.372  0.00  0.00    -0.005 A 
ATOM      4  C3  UNL d   1       0.154  -1.263  -0.747  0.00  0.00     0.006 A 
ATOM      5  C4  UNL d   1       0.355  -0.521  -1.912  0.00  0.00    -0.005 A 
ATOM      6  C5  UNL d   1      -0.028   0.823  -1.967  0.00  0.00    -0.074 A 
ATOM      7  C6  UNL d   1       0.171   1.632  -3.214  0.00  0.00     0.077 C 
ATOM      8  C7  UNL d   1      -0.619   1.410  -0.840  0.00  0.00    -0.001 A 
ENDROOT
TORSDOF 0
ENDMDL
