MODEL 1
REMARK minimizedAffinity -1.88646281
REMARK minimizedRMSD -1
REMARK  0 active torsions:
REMARK  status: ('A' for Active; 'I' for Inactive)
ROOT
ATOM      1  C   UNL d   1       2.198  -1.049   1.510  0.00  0.00     0.077 C 
ATOM      2  C1  UNL d   1       0.829  -0.655   1.041  0.00  0.00    -0.074 A 
ATOM      3  C2  UNL d   1       0.348  -1.074  -0.204  0.00  0.00    -0.005 A 
ATOM      4  C3  UNL d   1      -0.931  -0.707  -0.623  0.00  0.00     0.006 A 
ATOM      5  C4  UNL d   1      -1.740   0.081   0.196  0.00  0.00    -0.005 A 
ATOM      6  C5  UNL d   1      -1.276   0.509   1.444  0.00  0.00    -0.074 A 
ATOM      7  C6  UNL d   1      -2.136   1.349   2.341  0.00  0.00     0.077 C 
ATOM      8  C7  UNL d   1       0.008   0.131   1.861  0.00  0.00    -0.001 A 
ENDROOT
TORSDOF 0
ENDMDL
