MODEL 1
REMARK minimizedAffinity -3.69781518
REMARK minimizedRMSD -1
REMARK  0 active torsions:
REMARK  status: ('A' for Active; 'I' for Inactive)
ROOT
ATOM      1  C   UNL d   1       2.372  -0.484   2.615  0.00  0.00     0.077 C 
ATOM      2  C1  UNL d   1       1.094  -0.222   1.875  0.00  0.00    -0.074 A 
ATOM      3  C2  UNL d   1      -0.071   0.141   2.558  0.00  0.00    -0.005 A 
ATOM      4  C3  UNL d   1      -1.250   0.390   1.856  0.00  0.00     0.006 A 
ATOM      5  C4  UNL d   1      -1.276   0.280   0.465  0.00  0.00    -0.005 A 
ATOM      6  C5  UNL d   1      -0.121  -0.080  -0.236  0.00  0.00    -0.074 A 
ATOM      7  C6  UNL d   1      -0.129  -0.194  -1.731  0.00  0.00     0.077 C 
ATOM      8  C7  UNL d   1       1.062  -0.323   0.477  0.00  0.00    -0.001 A 
ENDROOT
TORSDOF 0
ENDMDL
