MODEL 1
REMARK minimizedAffinity -2.51309967
REMARK minimizedRMSD -1
REMARK  0 active torsions:
REMARK  status: ('A' for Active; 'I' for Inactive)
ROOT
ATOM      1  C   UNL d   1       0.580  -0.401  -2.508  0.00  0.00     0.077 C 
ATOM      2  C1  UNL d   1       0.486  -0.331  -1.013  0.00  0.00    -0.074 A 
ATOM      3  C2  UNL d   1       1.568  -0.700  -0.206  0.00  0.00    -0.005 A 
ATOM      4  C3  UNL d   1       1.469  -0.620   1.183  0.00  0.00     0.006 A 
ATOM      5  C4  UNL d   1       0.289  -0.172   1.779  0.00  0.00    -0.005 A 
ATOM      6  C5  UNL d   1      -0.802   0.202   0.989  0.00  0.00    -0.074 A 
ATOM      7  C6  UNL d   1      -2.074   0.695   1.613  0.00  0.00     0.077 C 
ATOM      8  C7  UNL d   1      -0.693   0.126  -0.407  0.00  0.00    -0.001 A 
ENDROOT
TORSDOF 0
ENDMDL
