MODEL 1
REMARK minimizedAffinity -1.10594904
REMARK minimizedRMSD -1
REMARK  0 active torsions:
REMARK  status: ('A' for Active; 'I' for Inactive)
ROOT
ATOM      1  C   UNL d   1       1.319   2.602  -2.814  0.00  0.00     0.077 C 
ATOM      2  C1  UNL d   1       0.960   1.321  -2.121  0.00  0.00    -0.074 A 
ATOM      3  C2  UNL d   1       1.122   0.088  -2.760  0.00  0.00    -0.005 A 
ATOM      4  C3  UNL d   1       0.794  -1.095  -2.099  0.00  0.00     0.006 A 
ATOM      5  C4  UNL d   1       0.301  -1.058  -0.794  0.00  0.00    -0.005 A 
ATOM      6  C5  UNL d   1       0.134   0.166  -0.138  0.00  0.00    -0.074 A 
ATOM      7  C6  UNL d   1      -0.385   0.223   1.268  0.00  0.00     0.077 C 
ATOM      8  C7  UNL d   1       0.473   1.350  -0.807  0.00  0.00    -0.001 A 
ENDROOT
TORSDOF 0
ENDMDL
