MODEL 1
REMARK minimizedAffinity 3.43928051
REMARK minimizedRMSD -1
REMARK  0 active torsions:
REMARK  status: ('A' for Active; 'I' for Inactive)
ROOT
ATOM      1  O1  BZF d   1       5.623   4.817  -5.159  0.00  0.00    -0.204 OA
ATOM      2  C2  BZF d   1       5.174   6.000  -5.714  0.00  0.00     0.174 A 
ATOM      3  C3  BZF d   1       3.832   5.985  -5.848  0.00  0.00    -0.012 A 
ATOM      4  C3A BZF d   1       3.408   4.752  -5.260  0.00  0.00    -0.107 A 
ATOM      5  C4  BZF d   1       2.186   4.171  -5.074  0.00  0.00     0.055 A 
ATOM      6  C5  BZF d   1       2.122   2.927  -4.532  0.00  0.00    -0.016 A 
ATOM      7  C6  BZF d   1       3.257   2.233  -4.170  0.00  0.00     0.022 A 
ATOM      8  C7  BZF d   1       4.492   2.769  -4.330  0.00  0.00     0.029 A 
ATOM      9  C7A BZF d   1       4.558   4.040  -4.847  0.00  0.00     0.058 A 
ENDROOT
TORSDOF 0
ENDMDL
