MODEL 1
REMARK minimizedAffinity 1.37238109
REMARK minimizedRMSD -1
REMARK  0 active torsions:
REMARK  status: ('A' for Active; 'I' for Inactive)
ROOT
ATOM      1  O1  BZF d   1       5.278   4.139  -4.724  0.00  0.00    -0.204 OA
ATOM      2  C2  BZF d   1       5.996   5.142  -5.345  0.00  0.00     0.174 A 
ATOM      3  C3  BZF d   1       5.170   5.996  -5.985  0.00  0.00    -0.012 A 
ATOM      4  C3A BZF d   1       3.848   5.546  -5.671  0.00  0.00    -0.107 A 
ATOM      5  C4  BZF d   1       2.601   5.996  -6.000  0.00  0.00     0.055 A 
ATOM      6  C5  BZF d   1       1.515   5.288  -5.592  0.00  0.00    -0.016 A 
ATOM      7  C6  BZF d   1       1.640   4.126  -4.859  0.00  0.00     0.022 A 
ATOM      8  C7  BZF d   1       2.856   3.644  -4.504  0.00  0.00     0.029 A 
ATOM      9  C7A BZF d   1       3.954   4.374  -4.887  0.00  0.00     0.058 A 
ENDROOT
TORSDOF 0
ENDMDL
