MODEL 1
REMARK minimizedAffinity 1.07937598
REMARK minimizedRMSD -1
REMARK  0 active torsions:
REMARK  status: ('A' for Active; 'I' for Inactive)
ROOT
ATOM      1  O1  BZF d   1       5.238   4.133  -4.708  0.00  0.00    -0.204 OA
ATOM      2  C2  BZF d   1       5.954   5.148  -5.312  0.00  0.00     0.174 A 
ATOM      3  C3  BZF d   1       5.128   6.000  -5.953  0.00  0.00    -0.012 A 
ATOM      4  C3A BZF d   1       3.807   5.536  -5.660  0.00  0.00    -0.107 A 
ATOM      5  C4  BZF d   1       2.560   5.977  -6.000  0.00  0.00     0.055 A 
ATOM      6  C5  BZF d   1       1.476   5.256  -5.611  0.00  0.00    -0.016 A 
ATOM      7  C6  BZF d   1       1.602   4.088  -4.888  0.00  0.00     0.022 A 
ATOM      8  C7  BZF d   1       2.818   3.614  -4.523  0.00  0.00     0.029 A 
ATOM      9  C7A BZF d   1       3.914   4.358  -4.886  0.00  0.00     0.058 A 
ENDROOT
TORSDOF 0
ENDMDL
