MODEL 1
REMARK minimizedAffinity 2.74127769
REMARK minimizedRMSD -1
REMARK  0 active torsions:
REMARK  status: ('A' for Active; 'I' for Inactive)
ROOT
ATOM      1  O1  BZF d   1       2.570   2.977  -3.937  0.00  0.00    -0.204 OA
ATOM      2  C2  BZF d   1       3.698   2.280  -3.547  0.00  0.00     0.174 A 
ATOM      3  C3  BZF d   1       4.811   2.855  -4.046  0.00  0.00    -0.012 A 
ATOM      4  C3A BZF d   1       4.357   4.034  -4.718  0.00  0.00    -0.107 A 
ATOM      5  C4  BZF d   1       4.996   5.030  -5.400  0.00  0.00     0.055 A 
ATOM      6  C5  BZF d   1       4.255   5.999  -6.000  0.00  0.00    -0.016 A 
ATOM      7  C6  BZF d   1       2.877   6.000  -5.942  0.00  0.00     0.022 A 
ATOM      8  C7  BZF d   1       2.199   5.035  -5.273  0.00  0.00     0.029 A 
ATOM      9  C7A BZF d   1       2.946   4.073  -4.638  0.00  0.00     0.058 A 
ENDROOT
TORSDOF 0
ENDMDL
