MODEL 1
REMARK minimizedAffinity 0.297962487
REMARK minimizedRMSD -1
REMARK  0 active torsions:
REMARK  status: ('A' for Active; 'I' for Inactive)
ROOT
ATOM      1  O1  BZF d   1       2.280   4.269  -4.226  0.00  0.00    -0.204 OA
ATOM      2  C2  BZF d   1       1.470   5.154  -4.911  0.00  0.00     0.174 A 
ATOM      3  C3  BZF d   1       2.209   6.000  -5.657  0.00  0.00    -0.012 A 
ATOM      4  C3A BZF d   1       3.561   5.561  -5.495  0.00  0.00    -0.107 A 
ATOM      5  C4  BZF d   1       4.755   5.992  -6.000  0.00  0.00     0.055 A 
ATOM      6  C5  BZF d   1       5.902   5.392  -5.587  0.00  0.00    -0.016 A 
ATOM      7  C6  BZF d   1       5.893   4.363  -4.668  0.00  0.00     0.022 A 
ATOM      8  C7  BZF d   1       4.733   3.897  -4.144  0.00  0.00     0.029 A 
ATOM      9  C7A BZF d   1       3.570   4.480  -4.584  0.00  0.00     0.058 A 
ENDROOT
TORSDOF 0
ENDMDL
