MODEL 1
REMARK minimizedAffinity 1.58682537
REMARK minimizedRMSD -1
REMARK  0 active torsions:
REMARK  status: ('A' for Active; 'I' for Inactive)
ROOT
ATOM      1  O1  BZF d   1      -1.118   2.659   2.810  0.00  0.00    -0.204 OA
ATOM      2  C2  BZF d   1      -0.024   1.947   2.356  0.00  0.00     0.174 A 
ATOM      3  C3  BZF d   1      -0.285   0.624   2.349  0.00  0.00    -0.012 A 
ATOM      4  C3A BZF d   1      -1.656   0.508   2.741  0.00  0.00    -0.107 A 
ATOM      5  C4  BZF d   1      -2.499  -0.554   2.905  0.00  0.00     0.055 A 
ATOM      6  C5  BZF d   1      -3.757  -0.332   3.369  0.00  0.00    -0.016 A 
ATOM      7  C6  BZF d   1      -4.203   0.935   3.683  0.00  0.00     0.022 A 
ATOM      8  C7  BZF d   1      -3.405   2.019   3.532  0.00  0.00     0.029 A 
ATOM      9  C7A BZF d   1      -2.144   1.803   3.033  0.00  0.00     0.058 A 
ENDROOT
TORSDOF 0
ENDMDL
