MODEL 1
REMARK minimizedAffinity 7.77023125
REMARK minimizedRMSD -1
REMARK  0 active torsions:
REMARK  status: ('A' for Active; 'I' for Inactive)
ROOT
ATOM      1  O1  BZF d   1      -3.041  -5.013  -0.607  0.00  0.00    -0.204 OA
ATOM      2  C2  BZF d   1      -3.099  -6.000  -1.571  0.00  0.00     0.174 A 
ATOM      3  C3  BZF d   1      -3.179  -5.460  -2.805  0.00  0.00    -0.012 A 
ATOM      4  C3A BZF d   1      -3.079  -4.047  -2.604  0.00  0.00    -0.107 A 
ATOM      5  C4  BZF d   1      -3.079  -2.976  -3.451  0.00  0.00     0.055 A 
ATOM      6  C5  BZF d   1      -3.039  -1.721  -2.930  0.00  0.00    -0.016 A 
ATOM      7  C6  BZF d   1      -3.003  -1.501  -1.569  0.00  0.00     0.022 A 
ATOM      8  C7  BZF d   1      -2.996  -2.532  -0.689  0.00  0.00     0.029 A 
ATOM      9  C7A BZF d   1      -3.004  -3.802  -1.213  0.00  0.00     0.058 A 
ENDROOT
TORSDOF 0
ENDMDL
