MODEL 1
REMARK minimizedAffinity -3.72088861
REMARK minimizedRMSD -1
REMARK  0 active torsions:
REMARK  status: ('A' for Active; 'I' for Inactive)
ROOT
ATOM      1  O1  BZF d   1      -0.216   2.374   2.049  0.00  0.00    -0.204 OA
ATOM      2  C2  BZF d   1       0.761   1.678   1.364  0.00  0.00     0.174 A 
ATOM      3  C3  BZF d   1       0.410   0.385   1.212  0.00  0.00    -0.012 A 
ATOM      4  C3A BZF d   1      -0.907   0.286   1.761  0.00  0.00    -0.107 A 
ATOM      5  C4  BZF d   1      -1.796  -0.743   1.889  0.00  0.00     0.055 A 
ATOM      6  C5  BZF d   1      -2.970  -0.526   2.538  0.00  0.00    -0.016 A 
ATOM      7  C6  BZF d   1      -3.284   0.705   3.076  0.00  0.00     0.022 A 
ATOM      8  C7  BZF d   1      -2.437   1.757   2.971  0.00  0.00     0.029 A 
ATOM      9  C7A BZF d   1      -1.264   1.549   2.286  0.00  0.00     0.058 A 
ENDROOT
TORSDOF 0
ENDMDL
