MODEL 1
REMARK minimizedAffinity 12.6258974
REMARK minimizedRMSD -1
REMARK  0 active torsions:
REMARK  status: ('A' for Active; 'I' for Inactive)
ROOT
ATOM      1  O1  BZF d   1       5.319   4.476  -5.876  0.00  0.00    -0.204 OA
ATOM      2  C2  BZF d   1       4.932   5.796  -5.996  0.00  0.00     0.174 A 
ATOM      3  C3  BZF d   1       3.737   6.000  -5.404  0.00  0.00    -0.012 A 
ATOM      4  C3A BZF d   1       3.397   4.747  -4.802  0.00  0.00    -0.107 A 
ATOM      5  C4  BZF d   1       2.334   4.321  -4.058  0.00  0.00     0.055 A 
ATOM      6  C5  BZF d   1       2.270   3.016  -3.685  0.00  0.00    -0.016 A 
ATOM      7  C6  BZF d   1       3.247   2.110  -4.043  0.00  0.00     0.022 A 
ATOM      8  C7  BZF d   1       4.322   2.487  -4.776  0.00  0.00     0.029 A 
ATOM      9  C7A BZF d   1       4.407   3.812  -5.127  0.00  0.00     0.058 A 
ENDROOT
TORSDOF 0
ENDMDL
