MODEL 1
REMARK minimizedAffinity 5.74414301
REMARK minimizedRMSD -1
REMARK  0 active torsions:
REMARK  status: ('A' for Active; 'I' for Inactive)
ROOT
ATOM      1  O1  BZF d   1      -4.038  -3.348  -1.132  0.00  0.00    -0.204 OA
ATOM      2  C2  BZF d   1      -3.812  -1.995  -0.967  0.00  0.00     0.174 A 
ATOM      3  C3  BZF d   1      -2.584  -1.774  -0.456  0.00  0.00    -0.012 A 
ATOM      4  C3A BZF d   1      -1.971  -3.065  -0.377  0.00  0.00    -0.107 A 
ATOM      5  C4  BZF d   1      -0.743  -3.498   0.035  0.00  0.00     0.055 A 
ATOM      6  C5  BZF d   1      -0.485  -4.832   0.054  0.00  0.00    -0.016 A 
ATOM      7  C6  BZF d   1      -1.432  -5.760  -0.327  0.00  0.00     0.022 A 
ATOM      8  C7  BZF d   1      -2.663  -5.378  -0.748  0.00  0.00     0.029 A 
ATOM      9  C7A BZF d   1      -2.915  -4.029  -0.800  0.00  0.00     0.058 A 
ENDROOT
TORSDOF 0
ENDMDL
