MODEL 1
REMARK minimizedAffinity 6.7754612
REMARK minimizedRMSD -1
REMARK  0 active torsions:
REMARK  status: ('A' for Active; 'I' for Inactive)
ROOT
ATOM      1  O1  BZF d   1      -5.059   1.007   5.271  0.00  0.00    -0.204 OA
ATOM      2  C2  BZF d   1      -5.221   2.205   5.940  0.00  0.00     0.174 A 
ATOM      3  C3  BZF d   1      -4.285   3.097   5.556  0.00  0.00    -0.012 A 
ATOM      4  C3A BZF d   1      -3.545   2.443   4.520  0.00  0.00    -0.107 A 
ATOM      5  C4  BZF d   1      -2.495   2.823   3.733  0.00  0.00     0.055 A 
ATOM      6  C5  BZF d   1      -1.959   1.923   2.868  0.00  0.00    -0.016 A 
ATOM      7  C6  BZF d   1      -2.443   0.635   2.767  0.00  0.00     0.022 A 
ATOM      8  C7  BZF d   1      -3.486   0.214   3.523  0.00  0.00     0.029 A 
ATOM      9  C7A BZF d   1      -4.051   1.131   4.375  0.00  0.00     0.058 A 
ENDROOT
TORSDOF 0
ENDMDL
