MODEL 1
REMARK minimizedAffinity 4.86762953
REMARK minimizedRMSD -1
REMARK  0 active torsions:
REMARK  status: ('A' for Active; 'I' for Inactive)
ROOT
ATOM      1  O1  BZF d   1      -1.606   3.073   2.498  0.00  0.00    -0.204 OA
ATOM      2  C2  BZF d   1      -0.370   2.747   1.973  0.00  0.00     0.174 A 
ATOM      3  C3  BZF d   1      -0.151   1.419   2.055  0.00  0.00    -0.012 A 
ATOM      4  C3A BZF d   1      -1.360   0.869   2.586  0.00  0.00    -0.107 A 
ATOM      5  C4  BZF d   1      -1.763  -0.401   2.882  0.00  0.00     0.055 A 
ATOM      6  C5  BZF d   1      -2.981  -0.591   3.456  0.00  0.00    -0.016 A 
ATOM      7  C6  BZF d   1      -3.817   0.465   3.751  0.00  0.00     0.022 A 
ATOM      8  C7  BZF d   1      -3.463   1.743   3.471  0.00  0.00     0.029 A 
ATOM      9  C7A BZF d   1      -2.247   1.936   2.861  0.00  0.00     0.058 A 
ENDROOT
TORSDOF 0
ENDMDL
