MODEL 1
REMARK minimizedAffinity 6.10685062
REMARK minimizedRMSD -1
REMARK  0 active torsions:
REMARK  status: ('A' for Active; 'I' for Inactive)
ROOT
ATOM      1  O1  BZF d   1      -3.194   1.580   3.166  0.00  0.00    -0.204 OA
ATOM      2  C2  BZF d   1      -2.224   2.449   2.704  0.00  0.00     0.174 A 
ATOM      3  C3  BZF d   1      -1.125   1.774   2.311  0.00  0.00    -0.012 A 
ATOM      4  C3A BZF d   1      -1.461   0.390   2.456  0.00  0.00    -0.107 A 
ATOM      5  C4  BZF d   1      -0.785  -0.771   2.210  0.00  0.00     0.055 A 
ATOM      6  C5  BZF d   1      -1.370  -1.955   2.527  0.00  0.00    -0.016 A 
ATOM      7  C6  BZF d   1      -2.626  -2.016   3.096  0.00  0.00     0.022 A 
ATOM      8  C7  BZF d   1      -3.337  -0.891   3.354  0.00  0.00     0.029 A 
ATOM      9  C7A BZF d   1      -2.762   0.306   3.004  0.00  0.00     0.058 A 
ENDROOT
TORSDOF 0
ENDMDL
