MODEL 1
REMARK minimizedAffinity 10.9900398
REMARK minimizedRMSD -1
REMARK  0 active torsions:
REMARK  status: ('A' for Active; 'I' for Inactive)
ROOT
ATOM      1  O1  BZF d   1       0.292   2.631   2.236  0.00  0.00    -0.204 OA
ATOM      2  C2  BZF d   1      -0.914   3.212   1.894  0.00  0.00     0.174 A 
ATOM      3  C3  BZF d   1      -1.932   2.349   2.088  0.00  0.00    -0.012 A 
ATOM      4  C3A BZF d   1      -1.334   1.186   2.669  0.00  0.00    -0.107 A 
ATOM      5  C4  BZF d   1      -1.833  -0.009   3.103  0.00  0.00     0.055 A 
ATOM      6  C5  BZF d   1      -0.973  -0.960   3.551  0.00  0.00    -0.016 A 
ATOM      7  C6  BZF d   1       0.391  -0.753   3.576  0.00  0.00     0.022 A 
ATOM      8  C7  BZF d   1       0.932   0.419   3.161  0.00  0.00     0.029 A 
ATOM      9  C7A BZF d   1       0.063   1.394   2.738  0.00  0.00     0.058 A 
ENDROOT
TORSDOF 0
ENDMDL
