MODEL 1
REMARK minimizedAffinity 3.32789969
REMARK minimizedRMSD -1
REMARK  0 active torsions:
REMARK  status: ('A' for Active; 'I' for Inactive)
ROOT
ATOM      1  O1  BZF d   1      -2.305  -0.294   3.268  0.00  0.00    -0.204 OA
ATOM      2  C2  BZF d   1      -3.465   0.454   3.198  0.00  0.00     0.174 A 
ATOM      3  C3  BZF d   1      -3.199   1.712   2.792  0.00  0.00    -0.012 A 
ATOM      4  C3A BZF d   1      -1.797   1.727   2.506  0.00  0.00    -0.107 A 
ATOM      5  C4  BZF d   1      -0.942   2.688   2.048  0.00  0.00     0.055 A 
ATOM      6  C5  BZF d   1       0.382   2.401   1.947  0.00  0.00    -0.016 A 
ATOM      7  C6  BZF d   1       0.886   1.166   2.299  0.00  0.00     0.022 A 
ATOM      8  C7  BZF d   1       0.077   0.178   2.753  0.00  0.00     0.029 A 
ATOM      9  C7A BZF d   1      -1.267   0.455   2.825  0.00  0.00     0.058 A 
ENDROOT
TORSDOF 0
ENDMDL
