MODEL 1
REMARK minimizedAffinity 5.33111715
REMARK minimizedRMSD -1
REMARK  0 active torsions:
REMARK  status: ('A' for Active; 'I' for Inactive)
ROOT
ATOM      1  O1  BZF d   1      -4.456   3.164   3.072  0.00  0.00    -0.204 OA
ATOM      2  C2  BZF d   1      -4.570   2.257   4.109  0.00  0.00     0.174 A 
ATOM      3  C3  BZF d   1      -3.437   1.538   4.242  0.00  0.00    -0.012 A 
ATOM      4  C3A BZF d   1      -2.526   2.089   3.286  0.00  0.00    -0.107 A 
ATOM      5  C4  BZF d   1      -1.233   1.808   2.951  0.00  0.00     0.055 A 
ATOM      6  C5  BZF d   1      -0.656   2.483   1.922  0.00  0.00    -0.016 A 
ATOM      7  C6  BZF d   1      -1.343   3.440   1.204  0.00  0.00     0.022 A 
ATOM      8  C7  BZF d   1      -2.627   3.756   1.503  0.00  0.00     0.029 A 
ATOM      9  C7A BZF d   1      -3.202   3.099   2.563  0.00  0.00     0.058 A 
ENDROOT
TORSDOF 0
ENDMDL
