MODEL 1
REMARK minimizedAffinity 6.40662575
REMARK minimizedRMSD -1
REMARK  0 active torsions:
REMARK  status: ('A' for Active; 'I' for Inactive)
ROOT
ATOM      1  O1  BZF d   1       4.490  -0.508   2.930  0.00  0.00    -0.204 OA
ATOM      2  C2  BZF d   1       3.118  -0.541   3.089  0.00  0.00     0.174 A 
ATOM      3  C3  BZF d   1       2.503  -0.733   1.904  0.00  0.00    -0.012 A 
ATOM      4  C3A BZF d   1       3.561  -0.918   0.958  0.00  0.00    -0.107 A 
ATOM      5  C4  BZF d   1       3.587  -1.166  -0.385  0.00  0.00     0.055 A 
ATOM      6  C5  BZF d   1       4.785  -1.220  -1.024  0.00  0.00    -0.016 A 
ATOM      7  C6  BZF d   1       5.975  -1.027  -0.353  0.00  0.00     0.022 A 
ATOM      8  C7  BZF d   1       6.000  -0.784   0.980  0.00  0.00     0.029 A 
ATOM      9  C7A BZF d   1       4.792  -0.761   1.634  0.00  0.00     0.058 A 
ENDROOT
TORSDOF 0
ENDMDL
