MODEL 1
REMARK minimizedAffinity 6.56226206
REMARK minimizedRMSD -1
REMARK  0 active torsions:
REMARK  status: ('A' for Active; 'I' for Inactive)
ROOT
ATOM      1  O1  BZF d   1      -4.450   0.737   4.143  0.00  0.00    -0.204 OA
ATOM      2  C2  BZF d   1      -5.079   1.813   4.738  0.00  0.00     0.174 A 
ATOM      3  C3  BZF d   1      -4.405   2.956   4.493  0.00  0.00    -0.012 A 
ATOM      4  C3A BZF d   1      -3.336   2.582   3.618  0.00  0.00    -0.107 A 
ATOM      5  C4  BZF d   1      -2.332   3.281   3.011  0.00  0.00     0.055 A 
ATOM      6  C5  BZF d   1      -1.409   2.606   2.277  0.00  0.00    -0.016 A 
ATOM      7  C6  BZF d   1      -1.455   1.235   2.134  0.00  0.00     0.022 A 
ATOM      8  C7  BZF d   1      -2.435   0.500   2.713  0.00  0.00     0.029 A 
ATOM      9  C7A BZF d   1      -3.389   1.182   3.428  0.00  0.00     0.058 A 
ENDROOT
TORSDOF 0
ENDMDL
