MODEL 1
REMARK minimizedAffinity 3.71402812
REMARK minimizedRMSD -1
REMARK  0 active torsions:
REMARK  status: ('A' for Active; 'I' for Inactive)
ROOT
ATOM      1  O1  BZF d   1       2.965  -0.802   0.654  0.00  0.00    -0.204 OA
ATOM      2  C2  BZF d   1       3.561   0.387   1.029  0.00  0.00     0.174 A 
ATOM      3  C3  BZF d   1       3.779   1.172  -0.046  0.00  0.00    -0.012 A 
ATOM      4  C3A BZF d   1       3.206   0.466  -1.150  0.00  0.00    -0.107 A 
ATOM      5  C4  BZF d   1       3.091   0.741  -2.483  0.00  0.00     0.055 A 
ATOM      6  C5  BZF d   1       2.541  -0.190  -3.305  0.00  0.00    -0.016 A 
ATOM      7  C6  BZF d   1       2.100  -1.408  -2.830  0.00  0.00     0.022 A 
ATOM      8  C7  BZF d   1       2.187  -1.724  -1.515  0.00  0.00     0.029 A 
ATOM      9  C7A BZF d   1       2.713  -0.772  -0.677  0.00  0.00     0.058 A 
ENDROOT
TORSDOF 0
ENDMDL
