MODEL 1
REMARK minimizedAffinity 15.8223677
REMARK minimizedRMSD -1
REMARK  0 active torsions:
REMARK  status: ('A' for Active; 'I' for Inactive)
ROOT
ATOM      1  C   UNL d   1       3.586   2.593   1.452  0.00  0.00     0.124 A 
ATOM      2  C1  UNL d   1       4.453   2.708   0.375  0.00  0.00     0.062 A 
ATOM      3  C2  UNL d   1       4.191   2.027  -0.810  0.00  0.00     0.162 A 
ATOM      4  C3  UNL d   1       3.056   1.224  -0.925  0.00  0.00    -0.034 A 
ATOM      5  C4  UNL d   1       2.189   1.112   0.164  0.00  0.00     0.162 A 
ATOM      6  C5  UNL d   1       2.455   1.795   1.346  0.00  0.00     0.062 A 
ATOM      7  F   UNL d   1       1.616   1.682   2.386  0.00  0.00    -0.097 F 
ATOM      8  F1  UNL d   1       1.089   0.348   0.088  0.00  0.00    -0.096 F 
ATOM      9  I   UNL d   1       2.662   0.203  -2.695  0.00  0.00    -0.060 I 
ATOM     10  F2  UNL d   1       5.047   2.157  -1.835  0.00  0.00    -0.096 F 
ATOM     11  F3  UNL d   1       5.546   3.477   0.476  0.00  0.00    -0.097 F 
ATOM     12  F4  UNL d   1       3.840   3.249   2.592  0.00  0.00    -0.092 F 
ENDROOT
TORSDOF 0
ENDMDL
