MODEL 1
REMARK minimizedAffinity 16.7097645
REMARK minimizedRMSD -1
REMARK  0 active torsions:
REMARK  status: ('A' for Active; 'I' for Inactive)
ROOT
ATOM      1  C   UNL d   1       1.969  -0.416  -0.000  0.00  0.00     0.124 A 
ATOM      2  C1  UNL d   1       2.572  -0.821  -1.183  0.00  0.00     0.062 A 
ATOM      3  C2  UNL d   1       2.332  -0.126  -2.365  0.00  0.00     0.162 A 
ATOM      4  C3  UNL d   1       1.485   0.982  -2.370  0.00  0.00    -0.034 A 
ATOM      5  C4  UNL d   1       0.882   1.383  -1.177  0.00  0.00     0.162 A 
ATOM      6  C5  UNL d   1       1.125   0.686   0.002  0.00  0.00     0.062 A 
ATOM      7  F   UNL d   1       0.542   1.079   1.143  0.00  0.00    -0.097 F 
ATOM      8  F1  UNL d   1       0.063   2.445  -1.146  0.00  0.00    -0.096 F 
ATOM      9  I   UNL d   1       1.124   2.024  -4.136  0.00  0.00    -0.060 I 
ATOM     10  F2  UNL d   1       2.928  -0.541  -3.493  0.00  0.00    -0.096 F 
ATOM     11  F3  UNL d   1       3.387  -1.885  -1.188  0.00  0.00    -0.097 F 
ATOM     12  F4  UNL d   1       2.201  -1.086   1.135  0.00  0.00    -0.092 F 
ENDROOT
TORSDOF 0
ENDMDL
