MODEL 1
REMARK minimizedAffinity 11.42307
REMARK minimizedRMSD -1
REMARK  0 active torsions:
REMARK  status: ('A' for Active; 'I' for Inactive)
ROOT
ATOM      1  C   UNL d   1       3.507   2.610   1.961  0.00  0.00     0.124 A 
ATOM      2  C1  UNL d   1       4.391   2.765   0.902  0.00  0.00     0.062 A 
ATOM      3  C2  UNL d   1       4.172   2.094  -0.297  0.00  0.00     0.162 A 
ATOM      4  C3  UNL d   1       3.062   1.262  -0.445  0.00  0.00    -0.034 A 
ATOM      5  C4  UNL d   1       2.178   1.110   0.624  0.00  0.00     0.162 A 
ATOM      6  C5  UNL d   1       2.402   1.783   1.821  0.00  0.00     0.062 A 
ATOM      7  F   UNL d   1       1.547   1.632   2.843  0.00  0.00    -0.097 F 
ATOM      8  F1  UNL d   1       1.101   0.318   0.516  0.00  0.00    -0.096 F 
ATOM      9  I   UNL d   1       2.730   0.257  -2.237  0.00  0.00    -0.060 I 
ATOM     10  F2  UNL d   1       5.043   2.263  -1.304  0.00  0.00    -0.096 F 
ATOM     11  F3  UNL d   1       5.461   3.563   1.035  0.00  0.00    -0.097 F 
ATOM     12  F4  UNL d   1       3.722   3.256   3.114  0.00  0.00    -0.092 F 
ENDROOT
TORSDOF 0
ENDMDL
