MODEL 1
REMARK minimizedAffinity 5.82903147
REMARK minimizedRMSD -1
REMARK  0 active torsions:
REMARK  status: ('A' for Active; 'I' for Inactive)
ROOT
ATOM      1  C   UNL d   1       3.209   3.199   2.586  0.00  0.00     0.124 A 
ATOM      2  C1  UNL d   1       4.074   3.116   1.503  0.00  0.00     0.062 A 
ATOM      3  C2  UNL d   1       3.771   2.284   0.428  0.00  0.00     0.162 A 
ATOM      4  C3  UNL d   1       2.598   1.530   0.430  0.00  0.00    -0.034 A 
ATOM      5  C4  UNL d   1       1.734   1.619   1.523  0.00  0.00     0.162 A 
ATOM      6  C5  UNL d   1       2.040   2.451   2.595  0.00  0.00     0.062 A 
ATOM      7  F   UNL d   1       1.204   2.531   3.640  0.00  0.00    -0.097 F 
ATOM      8  F1  UNL d   1       0.597   0.908   1.557  0.00  0.00    -0.096 F 
ATOM      9  I   UNL d   1       2.142   0.286  -1.175  0.00  0.00    -0.060 I 
ATOM     10  F2  UNL d   1       4.625   2.223  -0.604  0.00  0.00    -0.096 F 
ATOM     11  F3  UNL d   1       5.204   3.837   1.493  0.00  0.00    -0.097 F 
ATOM     12  F4  UNL d   1       3.503   3.999   3.619  0.00  0.00    -0.092 F 
ENDROOT
TORSDOF 0
ENDMDL
