MODEL 1
REMARK minimizedAffinity 19.6634388
REMARK minimizedRMSD -1
REMARK  0 active torsions:
REMARK  status: ('A' for Active; 'I' for Inactive)
ROOT
ATOM      1  C   UNL d   1       1.420   2.413   3.785  0.00  0.00     0.124 A 
ATOM      2  C1  UNL d   1       0.301   1.990   3.082  0.00  0.00     0.062 A 
ATOM      3  C2  UNL d   1       0.430   1.522   1.777  0.00  0.00     0.162 A 
ATOM      4  C3  UNL d   1       1.683   1.474   1.168  0.00  0.00    -0.034 A 
ATOM      5  C4  UNL d   1       2.804   1.902   1.881  0.00  0.00     0.162 A 
ATOM      6  C5  UNL d   1       2.670   2.369   3.185  0.00  0.00     0.062 A 
ATOM      7  F   UNL d   1       3.753   2.777   3.863  0.00  0.00    -0.097 F 
ATOM      8  F1  UNL d   1       4.025   1.869   1.325  0.00  0.00    -0.096 F 
ATOM      9  I   UNL d   1       1.880   0.775  -0.783  0.00  0.00    -0.060 I 
ATOM     10  F2  UNL d   1      -0.669   1.120   1.121  0.00  0.00    -0.096 F 
ATOM     11  F3  UNL d   1      -0.908   2.033   3.659  0.00  0.00    -0.097 F 
ATOM     12  F4  UNL d   1       1.293   2.864   5.040  0.00  0.00    -0.092 F 
ENDROOT
TORSDOF 0
ENDMDL
