MODEL 1
REMARK minimizedAffinity 14.0744648
REMARK minimizedRMSD -1
REMARK  0 active torsions:
REMARK  status: ('A' for Active; 'I' for Inactive)
ROOT
ATOM      1  C   UNL d   1       1.769   0.537   0.601  0.00  0.00     0.124 A 
ATOM      2  C1  UNL d   1       2.448   1.510   1.321  0.00  0.00     0.062 A 
ATOM      3  C2  UNL d   1       3.543   2.161   0.759  0.00  0.00     0.162 A 
ATOM      4  C3  UNL d   1       3.966   1.841  -0.531  0.00  0.00    -0.034 A 
ATOM      5  C4  UNL d   1       3.278   0.861  -1.249  0.00  0.00     0.162 A 
ATOM      6  C5  UNL d   1       2.185   0.214  -0.683  0.00  0.00     0.062 A 
ATOM      7  F   UNL d   1       1.530  -0.726  -1.381  0.00  0.00    -0.097 F 
ATOM      8  F1  UNL d   1       3.658   0.530  -2.492  0.00  0.00    -0.096 F 
ATOM      9  I   UNL d   1       5.602   2.812  -1.375  0.00  0.00    -0.060 I 
ATOM     10  F2  UNL d   1       4.180   3.097   1.478  0.00  0.00    -0.096 F 
ATOM     11  F3  UNL d   1       2.050   1.824   2.562  0.00  0.00    -0.097 F 
ATOM     12  F4  UNL d   1       0.717  -0.088   1.144  0.00  0.00    -0.092 F 
ENDROOT
TORSDOF 0
ENDMDL
