MODEL 1
REMARK minimizedAffinity 22.8621063
REMARK minimizedRMSD -1
REMARK  0 active torsions:
REMARK  status: ('A' for Active; 'I' for Inactive)
ROOT
ATOM      1  C   UNL d   1       3.251   2.927   2.180  0.00  0.00     0.124 A 
ATOM      2  C1  UNL d   1       4.061   3.000   1.055  0.00  0.00     0.062 A 
ATOM      3  C2  UNL d   1       3.681   2.364  -0.123  0.00  0.00     0.162 A 
ATOM      4  C3  UNL d   1       2.485   1.649  -0.182  0.00  0.00    -0.034 A 
ATOM      5  C4  UNL d   1       1.676   1.580   0.953  0.00  0.00     0.162 A 
ATOM      6  C5  UNL d   1       2.060   2.218   2.128  0.00  0.00     0.062 A 
ATOM      7  F   UNL d   1       1.277   2.146   3.214  0.00  0.00    -0.097 F 
ATOM      8  F1  UNL d   1       0.519   0.901   0.931  0.00  0.00    -0.096 F 
ATOM      9  I   UNL d   1       1.913   0.696  -1.942  0.00  0.00    -0.060 I 
ATOM     10  F2  UNL d   1       4.483   2.451  -1.194  0.00  0.00    -0.096 F 
ATOM     11  F3  UNL d   1       5.213   3.684   1.103  0.00  0.00    -0.097 F 
ATOM     12  F4  UNL d   1       3.620   3.540   3.313  0.00  0.00    -0.092 F 
ENDROOT
TORSDOF 0
ENDMDL
