MODEL 1
REMARK minimizedAffinity 17.2641716
REMARK minimizedRMSD -1
REMARK  0 active torsions:
REMARK  status: ('A' for Active; 'I' for Inactive)
ROOT
ATOM      1  C   UNL d   1       1.680   0.423   0.463  0.00  0.00     0.124 A 
ATOM      2  C1  UNL d   1       2.305   0.237  -0.762  0.00  0.00     0.062 A 
ATOM      3  C2  UNL d   1       3.454   0.955  -1.078  0.00  0.00     0.162 A 
ATOM      4  C3  UNL d   1       3.987   1.867  -0.166  0.00  0.00    -0.034 A 
ATOM      5  C4  UNL d   1       3.352   2.050   1.064  0.00  0.00     0.162 A 
ATOM      6  C5  UNL d   1       2.203   1.329   1.375  0.00  0.00     0.062 A 
ATOM      7  F   UNL d   1       1.601   1.511   2.559  0.00  0.00    -0.097 F 
ATOM      8  F1  UNL d   1       3.837   2.918   1.963  0.00  0.00    -0.096 F 
ATOM      9  I   UNL d   1       5.705   2.944  -0.635  0.00  0.00    -0.060 I 
ATOM     10  F2  UNL d   1       4.037   0.755  -2.269  0.00  0.00    -0.096 F 
ATOM     11  F3  UNL d   1       1.800  -0.637  -1.644  0.00  0.00    -0.097 F 
ATOM     12  F4  UNL d   1       0.573  -0.269   0.764  0.00  0.00    -0.092 F 
ENDROOT
TORSDOF 0
ENDMDL
