MODEL 1
REMARK minimizedAffinity 10.4727669
REMARK minimizedRMSD -1
REMARK  0 active torsions:
REMARK  status: ('A' for Active; 'I' for Inactive)
ROOT
ATOM      1  C   UNL d   1       2.070   0.307   0.405  0.00  0.00     0.124 A 
ATOM      2  C1  UNL d   1       2.606   0.280  -0.875  0.00  0.00     0.062 A 
ATOM      3  C2  UNL d   1       3.593   1.191  -1.240  0.00  0.00     0.162 A 
ATOM      4  C3  UNL d   1       4.053   2.136  -0.323  0.00  0.00    -0.034 A 
ATOM      5  C4  UNL d   1       3.509   2.157   0.962  0.00  0.00     0.162 A 
ATOM      6  C5  UNL d   1       2.522   1.245   1.322  0.00  0.00     0.062 A 
ATOM      7  F   UNL d   1       2.006   1.272   2.560  0.00  0.00    -0.097 F 
ATOM      8  F1  UNL d   1       3.928   3.053   1.869  0.00  0.00    -0.096 F 
ATOM      9  I   UNL d   1       5.529   3.499  -0.865  0.00  0.00    -0.060 I 
ATOM     10  F2  UNL d   1       4.092   1.142  -2.484  0.00  0.00    -0.096 F 
ATOM     11  F3  UNL d   1       2.170  -0.625  -1.764  0.00  0.00    -0.097 F 
ATOM     12  F4  UNL d   1       1.120  -0.570   0.753  0.00  0.00    -0.092 F 
ENDROOT
TORSDOF 0
ENDMDL
