MODEL 1
REMARK minimizedAffinity 17.0884266
REMARK minimizedRMSD -1
REMARK  0 active torsions:
REMARK  status: ('A' for Active; 'I' for Inactive)
ROOT
ATOM      1  C   UNL d   1      -2.550   0.692   1.600  0.00  0.00     0.124 A 
ATOM      2  C1  UNL d   1      -2.338   2.039   1.861  0.00  0.00     0.062 A 
ATOM      3  C2  UNL d   1      -3.322   2.974   1.554  0.00  0.00     0.162 A 
ATOM      4  C3  UNL d   1      -4.527   2.566   0.982  0.00  0.00    -0.034 A 
ATOM      5  C4  UNL d   1      -4.732   1.210   0.721  0.00  0.00     0.162 A 
ATOM      6  C5  UNL d   1      -3.746   0.279   1.031  0.00  0.00     0.062 A 
ATOM      7  F   UNL d   1      -3.952  -1.022   0.778  0.00  0.00    -0.097 F 
ATOM      8  F1  UNL d   1      -5.879   0.783   0.172  0.00  0.00    -0.096 F 
ATOM      9  I   UNL d   1      -6.000   3.962   0.520  0.00  0.00    -0.060 I 
ATOM     10  F2  UNL d   1      -3.090   4.269   1.817  0.00  0.00    -0.096 F 
ATOM     11  F3  UNL d   1      -1.183   2.440   2.411  0.00  0.00    -0.097 F 
ATOM     12  F4  UNL d   1      -1.601  -0.206   1.897  0.00  0.00    -0.092 F 
ENDROOT
TORSDOF 0
ENDMDL
