MODEL 1
REMARK minimizedAffinity 16.3264313
REMARK minimizedRMSD -1
REMARK  0 active torsions:
REMARK  status: ('A' for Active; 'I' for Inactive)
ROOT
ATOM      1  C   UNL d   1      -0.984   2.457   2.903  0.00  0.00     0.124 A 
ATOM      2  C1  UNL d   1      -1.292   2.423   1.550  0.00  0.00     0.062 A 
ATOM      3  C2  UNL d   1      -0.325   2.047   0.621  0.00  0.00     0.162 A 
ATOM      4  C3  UNL d   1       0.959   1.701   1.043  0.00  0.00    -0.034 A 
ATOM      5  C4  UNL d   1       1.261   1.739   2.405  0.00  0.00     0.162 A 
ATOM      6  C5  UNL d   1       0.292   2.116   3.329  0.00  0.00     0.062 A 
ATOM      7  F   UNL d   1       0.591   2.149   4.636  0.00  0.00    -0.097 F 
ATOM      8  F1  UNL d   1       2.486   1.413   2.845  0.00  0.00    -0.096 F 
ATOM      9  I   UNL d   1       2.407   1.138  -0.342  0.00  0.00    -0.060 I 
ATOM     10  F2  UNL d   1      -0.651   2.022  -0.680  0.00  0.00    -0.096 F 
ATOM     11  F3  UNL d   1      -2.523   2.753   1.135  0.00  0.00    -0.097 F 
ATOM     12  F4  UNL d   1      -1.916   2.821   3.793  0.00  0.00    -0.092 F 
ENDROOT
TORSDOF 0
ENDMDL
