MODEL 1
REMARK minimizedAffinity 18.2624512
REMARK minimizedRMSD -1
REMARK  0 active torsions:
REMARK  status: ('A' for Active; 'I' for Inactive)
ROOT
ATOM      1  C   UNL d   1       2.206  -0.363   0.310  0.00  0.00     0.124 A 
ATOM      2  C1  UNL d   1       2.654  -0.844  -0.912  0.00  0.00     0.062 A 
ATOM      3  C2  UNL d   1       2.276  -0.215  -2.094  0.00  0.00     0.162 A 
ATOM      4  C3  UNL d   1       1.444   0.905  -2.060  0.00  0.00    -0.034 A 
ATOM      5  C4  UNL d   1       0.996   1.382  -0.827  0.00  0.00     0.162 A 
ATOM      6  C5  UNL d   1       1.377   0.749   0.352  0.00  0.00     0.062 A 
ATOM      7  F   UNL d   1       0.942   1.216   1.531  0.00  0.00    -0.097 F 
ATOM      8  F1  UNL d   1       0.195   2.456  -0.758  0.00  0.00    -0.096 F 
ATOM      9  I   UNL d   1       0.876   1.849  -3.825  0.00  0.00    -0.060 I 
ATOM     10  F2  UNL d   1       2.725  -0.701  -3.260  0.00  0.00    -0.096 F 
ATOM     11  F3  UNL d   1       3.454  -1.919  -0.954  0.00  0.00    -0.097 F 
ATOM     12  F4  UNL d   1       2.571  -0.971   1.446  0.00  0.00    -0.092 F 
ENDROOT
TORSDOF 0
ENDMDL
