MODEL 1
REMARK minimizedAffinity 17.3607216
REMARK minimizedRMSD -1
REMARK  0 active torsions:
REMARK  status: ('A' for Active; 'I' for Inactive)
ROOT
ATOM      1  C   UNL d   1       2.310   0.076  -0.189  0.00  0.00     0.124 A 
ATOM      2  C1  UNL d   1       2.577  -0.182  -1.526  0.00  0.00     0.062 A 
ATOM      3  C2  UNL d   1       1.891   0.505  -2.523  0.00  0.00     0.162 A 
ATOM      4  C3  UNL d   1       0.932   1.460  -2.186  0.00  0.00    -0.034 A 
ATOM      5  C4  UNL d   1       0.668   1.714  -0.839  0.00  0.00     0.162 A 
ATOM      6  C5  UNL d   1       1.356   1.024   0.154  0.00  0.00     0.062 A 
ATOM      7  F   UNL d   1       1.097   1.275   1.445  0.00  0.00    -0.097 F 
ATOM      8  F1  UNL d   1      -0.249   2.625  -0.480  0.00  0.00    -0.096 F 
ATOM      9  I   UNL d   1      -0.097   2.491  -3.673  0.00  0.00    -0.060 I 
ATOM     10  F2  UNL d   1       2.170   0.235  -3.807  0.00  0.00    -0.096 F 
ATOM     11  F3  UNL d   1       3.498  -1.098  -1.859  0.00  0.00    -0.097 F 
ATOM     12  F4  UNL d   1       2.971  -0.588   0.768  0.00  0.00    -0.092 F 
ENDROOT
TORSDOF 0
ENDMDL
