MODEL 1
REMARK minimizedAffinity -4.83605289
REMARK minimizedRMSD -1
REMARK  2 active torsions:
REMARK  status: ('A' for Active; 'I' for Inactive)
REMARK    1  A    between atoms: C1_2  and  C2_3 
REMARK    2  A    between atoms: C2_3  and  C3_4 
ROOT
ATOM      1  C3  UNL d   1       1.244   0.758  -0.890  0.00  0.00    -0.075 A 
ATOM      2  C4  UNL d   1       2.543   0.362  -1.239  0.00  0.00     0.002 A 
ATOM      3  C5  UNL d   1       3.420  -0.124  -0.270  0.00  0.00     0.002 A 
ATOM      4  C6  UNL d   1       3.015  -0.211   1.060  0.00  0.00    -0.004 A 
ATOM      5  C7  UNL d   1       1.732   0.195   1.422  0.00  0.00     0.002 A 
ATOM      6  C8  UNL d   1       0.850   0.678   0.453  0.00  0.00     0.002 A 
ENDROOT
BRANCH   1   7
ATOM      7  C2  UNL d   1       0.279   1.257  -1.939  0.00  0.00     0.056 C 
BRANCH   7   8
ATOM      8  C1  UNL d   1      -1.157   0.757  -1.754  0.00  0.00     0.007 C 
ATOM      9  C   UNL d   1      -1.873   0.485  -3.071  0.00  0.00     0.009 C 
ENDBRANCH   7   8
ENDBRANCH   1   7
TORSDOF 2
ENDMDL
