MODEL 1
REMARK minimizedAffinity -4.15966225
REMARK minimizedRMSD -1
REMARK  2 active torsions:
REMARK  status: ('A' for Active; 'I' for Inactive)
REMARK    1  A    between atoms: C1_2  and  C2_3 
REMARK    2  A    between atoms: C2_3  and  C3_4 
ROOT
ATOM      1  C3  UNL d   1       0.871   0.353   0.512  0.00  0.00    -0.075 A 
ATOM      2  C4  UNL d   1       2.021   0.753   1.208  0.00  0.00     0.002 A 
ATOM      3  C5  UNL d   1       2.875  -0.195   1.772  0.00  0.00     0.002 A 
ATOM      4  C6  UNL d   1       2.585  -1.553   1.656  0.00  0.00    -0.004 A 
ATOM      5  C7  UNL d   1       1.437  -1.962   0.981  0.00  0.00     0.002 A 
ATOM      6  C8  UNL d   1       0.583  -1.015   0.413  0.00  0.00     0.002 A 
ENDROOT
BRANCH   1   7
ATOM      7  C2  UNL d   1      -0.041   1.373  -0.126  0.00  0.00     0.056 C 
BRANCH   7   8
ATOM      8  C1  UNL d   1      -0.377   1.079  -1.591  0.00  0.00     0.007 C 
ATOM      9  C   UNL d   1      -1.848   0.754  -1.816  0.00  0.00     0.009 C 
ENDBRANCH   7   8
ENDBRANCH   1   7
TORSDOF 2
ENDMDL
