MODEL 1
REMARK minimizedAffinity -5.44261646
REMARK minimizedRMSD -1
REMARK  2 active torsions:
REMARK  status: ('A' for Active; 'I' for Inactive)
REMARK    1  A    between atoms: C1_2  and  C2_3 
REMARK    2  A    between atoms: C2_3  and  C3_4 
ROOT
ATOM      1  C3  UNL d   1      -0.696   0.258  -0.970  0.00  0.00    -0.075 A 
ATOM      2  C4  UNL d   1      -2.026   0.139  -0.540  0.00  0.00     0.002 A 
ATOM      3  C5  UNL d   1      -3.051  -0.082  -1.461  0.00  0.00     0.002 A 
ATOM      4  C6  UNL d   1      -2.761  -0.175  -2.821  0.00  0.00    -0.004 A 
ATOM      5  C7  UNL d   1      -1.446  -0.041  -3.260  0.00  0.00     0.002 A 
ATOM      6  C8  UNL d   1      -0.418   0.175  -2.341  0.00  0.00     0.002 A 
ENDROOT
BRANCH   1   7
ATOM      7  C2  UNL d   1       0.421   0.467   0.025  0.00  0.00     0.056 C 
BRANCH   7   8
ATOM      8  C1  UNL d   1       1.089  -0.830   0.494  0.00  0.00     0.007 C 
ATOM      9  C   UNL d   1       2.363  -0.593   1.294  0.00  0.00     0.009 C 
ENDBRANCH   7   8
ENDBRANCH   1   7
TORSDOF 2
ENDMDL
