MODEL 1
REMARK minimizedAffinity -4.90992069
REMARK minimizedRMSD -1
REMARK  2 active torsions:
REMARK  status: ('A' for Active; 'I' for Inactive)
REMARK    1  A    between atoms: C1_2  and  C2_3 
REMARK    2  A    between atoms: C2_3  and  C3_4 
ROOT
ATOM      1  C3  UNL d   1      -0.673   0.155  -1.019  0.00  0.00    -0.075 A 
ATOM      2  C4  UNL d   1      -1.959  -0.013  -0.486  0.00  0.00     0.002 A 
ATOM      3  C5  UNL d   1      -3.075  -0.048  -1.323  0.00  0.00     0.002 A 
ATOM      4  C6  UNL d   1      -2.920   0.096  -2.701  0.00  0.00    -0.004 A 
ATOM      5  C7  UNL d   1      -1.649   0.280  -3.240  0.00  0.00     0.002 A 
ATOM      6  C8  UNL d   1      -0.531   0.311  -2.405  0.00  0.00     0.002 A 
ENDROOT
BRANCH   1   7
ATOM      7  C2  UNL d   1       0.540   0.164  -0.121  0.00  0.00     0.056 C 
BRANCH   7   8
ATOM      8  C1  UNL d   1       1.308  -1.162  -0.097  0.00  0.00     0.007 C 
ATOM      9  C   UNL d   1       0.708  -2.186   0.857  0.00  0.00     0.009 C 
ENDBRANCH   7   8
ENDBRANCH   1   7
TORSDOF 2
ENDMDL
