MODEL 1
REMARK minimizedAffinity -3.29610276
REMARK minimizedRMSD -1
REMARK  0 active torsions:
REMARK  status: ('A' for Active; 'I' for Inactive)
ROOT
ATOM      1  C2' OXE d   1      -1.305  -1.503   1.845  0.00  0.00     0.078 C 
ATOM      2  C1' OXE d   1      -0.527   0.574   0.124  0.00  0.00     0.078 C 
ATOM      3  C1  OXE d   1       0.517  -0.440   0.520  0.00  0.00    -0.078 A 
ATOM      4  C2  OXE d   1       0.139  -1.426   1.399  0.00  0.00    -0.078 A 
ATOM      5  C3  OXE d   1       1.048  -2.419   1.755  0.00  0.00     0.003 A 
ATOM      6  C4  OXE d   1       2.385  -2.335   1.347  0.00  0.00    -0.002 A 
ATOM      7  C5  OXE d   1       2.801  -1.316   0.482  0.00  0.00    -0.002 A 
ATOM      8  C6  OXE d   1       1.871  -0.388   0.027  0.00  0.00     0.003 A 
ENDROOT
TORSDOF 0
ENDMDL
