MODEL 1
REMARK minimizedAffinity -1.18766046
REMARK minimizedRMSD -1
REMARK  0 active torsions:
REMARK  status: ('A' for Active; 'I' for Inactive)
ROOT
ATOM      1  C2' OXE d   1      -1.639  -1.426   2.035  0.00  0.00     0.078 C 
ATOM      2  C1' OXE d   1       0.785  -2.733   1.489  0.00  0.00     0.078 C 
ATOM      3  C1  OXE d   1       0.582  -1.356   0.908  0.00  0.00    -0.078 A 
ATOM      4  C2  OXE d   1      -0.626  -0.743   1.141  0.00  0.00    -0.078 A 
ATOM      5  C3  OXE d   1      -0.844   0.550   0.674  0.00  0.00     0.003 A 
ATOM      6  C4  OXE d   1       0.094   1.170  -0.160  0.00  0.00    -0.002 A 
ATOM      7  C5  OXE d   1       1.314   0.547  -0.443  0.00  0.00    -0.002 A 
ATOM      8  C6  OXE d   1       1.591  -0.695   0.117  0.00  0.00     0.003 A 
ENDROOT
TORSDOF 0
ENDMDL
