MODEL 1
REMARK minimizedAffinity -5.09608936
REMARK minimizedRMSD -1
REMARK  0 active torsions:
REMARK  status: ('A' for Active; 'I' for Inactive)
ROOT
ATOM      1  C2' OXE d   1       2.181  -2.268   1.265  0.00  0.00     0.078 C 
ATOM      2  C1' OXE d   1       3.115  -0.147  -0.319  0.00  0.00     0.078 C 
ATOM      3  C1  OXE d   1       1.711  -0.054   0.225  0.00  0.00    -0.078 A 
ATOM      4  C2  OXE d   1       1.247  -1.118   0.960  0.00  0.00    -0.078 A 
ATOM      5  C3  OXE d   1      -0.021  -1.059   1.531  0.00  0.00     0.003 A 
ATOM      6  C4  OXE d   1      -0.883   0.004   1.236  0.00  0.00    -0.002 A 
ATOM      7  C5  OXE d   1      -0.444   1.079   0.457  0.00  0.00    -0.002 A 
ATOM      8  C6  OXE d   1       0.862   1.085  -0.020  0.00  0.00     0.003 A 
ENDROOT
TORSDOF 0
ENDMDL
