MODEL 1
REMARK minimizedAffinity -4.17146921
REMARK minimizedRMSD -1
REMARK  0 active torsions:
REMARK  status: ('A' for Active; 'I' for Inactive)
ROOT
ATOM      1  C2' OXE d   1       2.930   0.363  -0.604  0.00  0.00     0.078 C 
ATOM      2  C1' OXE d   1       2.135  -1.741   1.077  0.00  0.00     0.078 C 
ATOM      3  C1  OXE d   1       1.126  -0.662   0.775  0.00  0.00    -0.078 A 
ATOM      4  C2  OXE d   1       1.538   0.388  -0.010  0.00  0.00    -0.078 A 
ATOM      5  C3  OXE d   1       0.630   1.382  -0.363  0.00  0.00     0.003 A 
ATOM      6  C4  OXE d   1      -0.652   1.403   0.198  0.00  0.00    -0.002 A 
ATOM      7  C5  OXE d   1      -1.079   0.364   1.032  0.00  0.00    -0.002 A 
ATOM      8  C6  OXE d   1      -0.219  -0.695   1.296  0.00  0.00     0.003 A 
ENDROOT
TORSDOF 0
ENDMDL
