MODEL 1
REMARK minimizedAffinity -3.21113157
REMARK minimizedRMSD -1
REMARK  0 active torsions:
REMARK  status: ('A' for Active; 'I' for Inactive)
ROOT
ATOM      1  C2' OXE d   1      -3.044   2.990  -3.778  0.00  0.00     0.078 C 
ATOM      2  C1' OXE d   1      -0.476   3.922  -3.130  0.00  0.00     0.078 C 
ATOM      3  C1  OXE d   1      -0.947   2.647  -2.477  0.00  0.00    -0.078 A 
ATOM      4  C2  OXE d   1      -2.223   2.223  -2.764  0.00  0.00    -0.078 A 
ATOM      5  C3  OXE d   1      -2.687   1.024  -2.230  0.00  0.00     0.003 A 
ATOM      6  C4  OXE d   1      -1.925   0.327  -1.285  0.00  0.00    -0.002 A 
ATOM      7  C5  OXE d   1      -0.639   0.762  -0.949  0.00  0.00    -0.002 A 
ATOM      8  C6  OXE d   1      -0.120   1.895  -1.566  0.00  0.00     0.003 A 
ENDROOT
TORSDOF 0
ENDMDL
