MODEL 1
REMARK minimizedAffinity -5.65838957
REMARK minimizedRMSD -1
REMARK  0 active torsions:
REMARK  status: ('A' for Active; 'I' for Inactive)
ROOT
ATOM      1  C2' OXE d   1       2.551   0.557  -0.455  0.00  0.00     0.078 C 
ATOM      2  C1' OXE d   1      -0.246   0.419  -0.646  0.00  0.00     0.078 C 
ATOM      3  C1  OXE d   1       0.455  -0.631   0.180  0.00  0.00    -0.078 A 
ATOM      4  C2  OXE d   1       1.828  -0.583   0.229  0.00  0.00    -0.078 A 
ATOM      5  C3  OXE d   1       2.521  -1.495   1.021  0.00  0.00     0.003 A 
ATOM      6  C4  OXE d   1       1.845  -2.552   1.642  0.00  0.00    -0.002 A 
ATOM      7  C5  OXE d   1       0.451  -2.642   1.572  0.00  0.00    -0.002 A 
ATOM      8  C6  OXE d   1      -0.261  -1.667   0.881  0.00  0.00     0.003 A 
ENDROOT
TORSDOF 0
ENDMDL
