MODEL 1
REMARK minimizedAffinity 0.951691985
REMARK minimizedRMSD -1
REMARK  0 active torsions:
REMARK  status: ('A' for Active; 'I' for Inactive)
ROOT
ATOM      1  C2' OXE d   1      -1.825  -1.691   2.553  0.00  0.00     0.078 C 
ATOM      2  C1' OXE d   1       0.384  -2.806   1.228  0.00  0.00     0.078 C 
ATOM      3  C1  OXE d   1      -0.041  -1.412   0.838  0.00  0.00    -0.078 A 
ATOM      4  C2  OXE d   1      -1.151  -0.893   1.458  0.00  0.00    -0.078 A 
ATOM      5  C3  OXE d   1      -1.553   0.409   1.175  0.00  0.00     0.003 A 
ATOM      6  C4  OXE d   1      -0.930   1.137   0.154  0.00  0.00    -0.002 A 
ATOM      7  C5  OXE d   1       0.178   0.611  -0.518  0.00  0.00    -0.002 A 
ATOM      8  C6  OXE d   1       0.661  -0.642  -0.160  0.00  0.00     0.003 A 
ENDROOT
TORSDOF 0
ENDMDL
