MODEL 1
REMARK minimizedAffinity -4.11239719
REMARK minimizedRMSD -1
REMARK  0 active torsions:
REMARK  status: ('A' for Active; 'I' for Inactive)
ROOT
ATOM      1  C2' OXE d   1       1.882   0.011  -0.725  0.00  0.00     0.078 C 
ATOM      2  C1' OXE d   1      -0.780   0.638  -0.092  0.00  0.00     0.078 C 
ATOM      3  C1  OXE d   1      -0.137  -0.515   0.637  0.00  0.00    -0.078 A 
ATOM      4  C2  OXE d   1       1.151  -0.844   0.287  0.00  0.00    -0.078 A 
ATOM      5  C3  OXE d   1       1.810  -1.864   0.967  0.00  0.00     0.003 A 
ATOM      6  C4  OXE d   1       1.124  -2.657   1.895  0.00  0.00    -0.002 A 
ATOM      7  C5  OXE d   1      -0.201  -2.364   2.237  0.00  0.00    -0.002 A 
ATOM      8  C6  OXE d   1      -0.830  -1.272   1.649  0.00  0.00     0.003 A 
ENDROOT
TORSDOF 0
ENDMDL
