MODEL 1
REMARK minimizedAffinity -5.52180386
REMARK minimizedRMSD -1
REMARK  0 active torsions:
REMARK  status: ('A' for Active; 'I' for Inactive)
ROOT
ATOM      1  C2' OXE d   1       2.543   0.751  -0.544  0.00  0.00     0.078 C 
ATOM      2  C1' OXE d   1      -0.253   0.933  -0.380  0.00  0.00     0.078 C 
ATOM      3  C1  OXE d   1       0.394  -0.358   0.053  0.00  0.00    -0.078 A 
ATOM      4  C2  OXE d   1       1.759  -0.455  -0.074  0.00  0.00    -0.078 A 
ATOM      5  C3  OXE d   1       2.413  -1.604   0.362  0.00  0.00     0.003 A 
ATOM      6  C4  OXE d   1       1.679  -2.719   0.786  0.00  0.00    -0.002 A 
ATOM      7  C5  OXE d   1       0.285  -2.655   0.886  0.00  0.00    -0.002 A 
ATOM      8  C6  OXE d   1      -0.368  -1.470   0.565  0.00  0.00     0.003 A 
ENDROOT
TORSDOF 0
ENDMDL
