MODEL 1
REMARK minimizedAffinity -5.24889183
REMARK minimizedRMSD -1
REMARK  0 active torsions:
REMARK  status: ('A' for Active; 'I' for Inactive)
ROOT
ATOM      1  C2' OXE d   1       2.512   0.825  -0.846  0.00  0.00     0.078 C 
ATOM      2  C1' OXE d   1      -0.221   1.184  -0.317  0.00  0.00     0.078 C 
ATOM      3  C1  OXE d   1       0.438  -0.067   0.207  0.00  0.00    -0.078 A 
ATOM      4  C2  OXE d   1       1.765  -0.257  -0.097  0.00  0.00    -0.078 A 
ATOM      5  C3  OXE d   1       2.436  -1.367   0.409  0.00  0.00     0.003 A 
ATOM      6  C4  OXE d   1       1.735  -2.367   1.093  0.00  0.00    -0.002 A 
ATOM      7  C5  OXE d   1       0.374  -2.213   1.379  0.00  0.00    -0.002 A 
ATOM      8  C6  OXE d   1      -0.278  -1.051   0.981  0.00  0.00     0.003 A 
ENDROOT
TORSDOF 0
ENDMDL
