MODEL 1
REMARK minimizedAffinity -3.16461611
REMARK minimizedRMSD -1
REMARK  0 active torsions:
REMARK  status: ('A' for Active; 'I' for Inactive)
ROOT
ATOM      1  C2' OXE d   1       1.164  -2.578   0.798  0.00  0.00     0.078 C 
ATOM      2  C1' OXE d   1      -1.277  -1.562   1.742  0.00  0.00     0.078 C 
ATOM      3  C1  OXE d   1      -0.402  -0.644   0.926  0.00  0.00    -0.078 A 
ATOM      4  C2  OXE d   1       0.812  -1.135   0.507  0.00  0.00    -0.078 A 
ATOM      5  C3  OXE d   1       1.634  -0.348  -0.295  0.00  0.00     0.003 A 
ATOM      6  C4  OXE d   1       1.306   0.988  -0.551  0.00  0.00    -0.002 A 
ATOM      7  C5  OXE d   1       0.093   1.520  -0.101  0.00  0.00    -0.002 A 
ATOM      8  C6  OXE d   1      -0.790   0.706   0.601  0.00  0.00     0.003 A 
ENDROOT
TORSDOF 0
ENDMDL
