MODEL 1
REMARK minimizedAffinity -5.63446999
REMARK minimizedRMSD -1
REMARK  0 active torsions:
REMARK  status: ('A' for Active; 'I' for Inactive)
ROOT
ATOM      1  C2' OXE d   1      -0.823   0.367  -0.575  0.00  0.00     0.078 C 
ATOM      2  C1' OXE d   1      -2.233  -0.087   1.810  0.00  0.00     0.078 C 
ATOM      3  C1  OXE d   1      -0.993  -0.909   1.558  0.00  0.00    -0.078 A 
ATOM      4  C2  OXE d   1      -0.336  -0.713   0.367  0.00  0.00    -0.078 A 
ATOM      5  C3  OXE d   1       0.844  -1.405   0.109  0.00  0.00     0.003 A 
ATOM      6  C4  OXE d   1       1.282  -2.409   0.981  0.00  0.00    -0.002 A 
ATOM      7  C5  OXE d   1       0.605  -2.652   2.181  0.00  0.00    -0.002 A 
ATOM      8  C6  OXE d   1      -0.508  -1.883   2.504  0.00  0.00     0.003 A 
ENDROOT
TORSDOF 0
ENDMDL
