MODEL 1
REMARK minimizedAffinity -1.01329327
REMARK minimizedRMSD -1
REMARK  0 active torsions:
REMARK  status: ('A' for Active; 'I' for Inactive)
ROOT
ATOM      1  C2' OXE d   1       0.606   0.643  -0.595  0.00  0.00     0.078 C 
ATOM      2  C1' OXE d   1      -1.900   0.483   0.660  0.00  0.00     0.078 C 
ATOM      3  C1  OXE d   1      -1.862   0.931  -0.779  0.00  0.00    -0.078 A 
ATOM      4  C2  OXE d   1      -0.628   1.051  -1.371  0.00  0.00    -0.078 A 
ATOM      5  C3  OXE d   1      -0.539   1.408  -2.714  0.00  0.00     0.003 A 
ATOM      6  C4  OXE d   1      -1.683   1.794  -3.422  0.00  0.00    -0.002 A 
ATOM      7  C5  OXE d   1      -2.946   1.717  -2.826  0.00  0.00    -0.002 A 
ATOM      8  C6  OXE d   1      -3.057   1.248  -1.521  0.00  0.00     0.003 A 
ENDROOT
TORSDOF 0
ENDMDL
