MODEL 1
REMARK minimizedAffinity 2.66610336
REMARK minimizedRMSD -1
REMARK  0 active torsions:
REMARK  status: ('A' for Active; 'I' for Inactive)
ROOT
ATOM      1  C2' OXE d   1      -1.055  -0.407   0.395  0.00  0.00     0.078 C 
ATOM      2  C1' OXE d   1       0.814   1.487  -0.498  0.00  0.00     0.078 C 
ATOM      3  C1  OXE d   1      -0.528   1.445  -1.185  0.00  0.00    -0.078 A 
ATOM      4  C2  OXE d   1      -1.419   0.483  -0.773  0.00  0.00    -0.078 A 
ATOM      5  C3  OXE d   1      -2.691   0.436  -1.336  0.00  0.00     0.003 A 
ATOM      6  C4  OXE d   1      -3.017   1.257  -2.423  0.00  0.00    -0.002 A 
ATOM      7  C5  OXE d   1      -2.109   2.216  -2.885  0.00  0.00    -0.002 A 
ATOM      8  C6  OXE d   1      -0.879   2.351  -2.250  0.00  0.00     0.003 A 
ENDROOT
TORSDOF 0
ENDMDL
