MODEL 1
REMARK minimizedAffinity -5.80590248
REMARK minimizedRMSD -1
REMARK  0 active torsions:
REMARK  status: ('A' for Active; 'I' for Inactive)
ROOT
ATOM      1  C2' OXE d   1      -1.063   1.096  -0.194  0.00  0.00     0.078 C 
ATOM      2  C1' OXE d   1       1.378  -0.082  -0.928  0.00  0.00     0.078 C 
ATOM      3  C1  OXE d   1       0.677  -0.619   0.295  0.00  0.00    -0.078 A 
ATOM      4  C2  OXE d   1      -0.493  -0.006   0.674  0.00  0.00    -0.078 A 
ATOM      5  C3  OXE d   1      -1.207  -0.497   1.763  0.00  0.00     0.003 A 
ATOM      6  C4  OXE d   1      -0.668  -1.509   2.566  0.00  0.00    -0.002 A 
ATOM      7  C5  OXE d   1       0.542  -2.121   2.221  0.00  0.00    -0.002 A 
ATOM      8  C6  OXE d   1       1.205  -1.717   1.067  0.00  0.00     0.003 A 
ENDROOT
TORSDOF 0
ENDMDL
