MODEL 1
REMARK minimizedAffinity -3.69230747
REMARK minimizedRMSD -1
REMARK  0 active torsions:
REMARK  status: ('A' for Active; 'I' for Inactive)
ROOT
ATOM      1  C2' OXE d   1      -1.843  -1.803   2.392  0.00  0.00     0.078 C 
ATOM      2  C1' OXE d   1       0.377  -2.574   0.855  0.00  0.00     0.078 C 
ATOM      3  C1  OXE d   1      -0.144  -1.168   0.684  0.00  0.00    -0.078 A 
ATOM      4  C2  OXE d   1      -1.259  -0.815   1.405  0.00  0.00    -0.078 A 
ATOM      5  C3  OXE d   1      -1.747   0.486   1.326  0.00  0.00     0.003 A 
ATOM      6  C4  OXE d   1      -1.208   1.391   0.404  0.00  0.00    -0.002 A 
ATOM      7  C5  OXE d   1      -0.097   1.038  -0.370  0.00  0.00    -0.002 A 
ATOM      8  C6  OXE d   1       0.472  -0.220  -0.212  0.00  0.00     0.003 A 
ENDROOT
TORSDOF 0
ENDMDL
