MODEL 1
REMARK minimizedAffinity -3.98266053
REMARK minimizedRMSD -1
REMARK  0 active torsions:
REMARK  status: ('A' for Active; 'I' for Inactive)
ROOT
ATOM      1  C2' OXE d   1       2.676  -0.023  -1.392  0.00  0.00     0.078 C 
ATOM      2  C1' OXE d   1       1.918  -1.915   0.538  0.00  0.00     0.078 C 
ATOM      3  C1  OXE d   1       0.936  -0.822   0.201  0.00  0.00    -0.078 A 
ATOM      4  C2  OXE d   1       1.333   0.127  -0.710  0.00  0.00    -0.078 A 
ATOM      5  C3  OXE d   1       0.444   1.126  -1.098  0.00  0.00     0.003 A 
ATOM      6  C4  OXE d   1      -0.792   1.263  -0.455  0.00  0.00    -0.002 A 
ATOM      7  C5  OXE d   1      -1.200   0.331   0.505  0.00  0.00    -0.002 A 
ATOM      8  C6  OXE d   1      -0.368  -0.740   0.813  0.00  0.00     0.003 A 
ENDROOT
TORSDOF 0
ENDMDL
