MODEL 1
REMARK minimizedAffinity -3.28047085
REMARK minimizedRMSD -1
REMARK  0 active torsions:
REMARK  status: ('A' for Active; 'I' for Inactive)
ROOT
ATOM      1  C2' OXE d   1      -0.853   0.943  -0.353  0.00  0.00     0.078 C 
ATOM      2  C1' OXE d   1      -1.091  -1.216   1.425  0.00  0.00     0.078 C 
ATOM      3  C1  OXE d   1       0.259  -0.964   0.801  0.00  0.00    -0.078 A 
ATOM      4  C2  OXE d   1       0.355   0.066  -0.103  0.00  0.00    -0.078 A 
ATOM      5  C3  OXE d   1       1.590   0.376  -0.666  0.00  0.00     0.003 A 
ATOM      6  C4  OXE d   1       2.700  -0.446  -0.437  0.00  0.00    -0.002 A 
ATOM      7  C5  OXE d   1       2.614  -1.524   0.450  0.00  0.00    -0.002 A 
ATOM      8  C6  OXE d   1       1.414  -1.770   1.109  0.00  0.00     0.003 A 
ENDROOT
TORSDOF 0
ENDMDL
