MODEL 1
REMARK minimizedAffinity -4.46180964
REMARK minimizedRMSD -1
REMARK  0 active torsions:
REMARK  status: ('A' for Active; 'I' for Inactive)
ROOT
ATOM      1  C2' OXE d   1      -2.297   1.488  -4.194  0.00  0.00     0.078 C 
ATOM      2  C1' OXE d   1      -1.455   1.898  -1.547  0.00  0.00     0.078 C 
ATOM      3  C1  OXE d   1      -1.131   2.966  -2.562  0.00  0.00    -0.078 A 
ATOM      4  C2  OXE d   1      -1.505   2.735  -3.864  0.00  0.00    -0.078 A 
ATOM      5  C3  OXE d   1      -1.279   3.712  -4.829  0.00  0.00     0.003 A 
ATOM      6  C4  OXE d   1      -0.538   4.859  -4.518  0.00  0.00    -0.002 A 
ATOM      7  C5  OXE d   1      -0.112   5.094  -3.206  0.00  0.00    -0.002 A 
ATOM      8  C6  OXE d   1      -0.437   4.180  -2.210  0.00  0.00     0.003 A 
ENDROOT
TORSDOF 0
ENDMDL
