MODEL 1
REMARK minimizedAffinity 7.63665962
REMARK minimizedRMSD -1
REMARK  1 active torsions:
REMARK  status: ('A' for Active; 'I' for Inactive)
REMARK    1  A    between atoms: C1_2  and  C2_3 
ROOT
ATOM      1  C2  UNL d   1       3.161  -2.776   2.005  0.00  0.00    -0.076 A 
ATOM      2  C3  UNL d   1       2.582  -1.545   2.360  0.00  0.00     0.004 A 
ATOM      3  C4  UNL d   1       1.615  -0.948   1.553  0.00  0.00    -0.003 A 
ATOM      4  C5  UNL d   1       1.212  -1.571   0.377  0.00  0.00     0.000 A 
ATOM      5  C6  UNL d   1       1.764  -2.801   0.019  0.00  0.00     0.000 A 
ATOM      6  C7  UNL d   1       2.727  -3.425   0.830  0.00  0.00    -0.073 A 
ATOM      7  C8  UNL d   1       3.293  -4.748   0.391  0.00  0.00     0.078 C 
ENDROOT
BRANCH   1   8
ATOM      8  C1  UNL d   1       4.224  -3.362   2.906  0.00  0.00     0.053 C 
ATOM      9  C   UNL d   1       4.404  -2.566   4.190  0.00  0.00     0.018 C 
ENDBRANCH   1   8
TORSDOF 1
ENDMDL
