MODEL 1
REMARK minimizedAffinity 18.9374828
REMARK minimizedRMSD -1
REMARK  1 active torsions:
REMARK  status: ('A' for Active; 'I' for Inactive)
REMARK    1  A    between atoms: C1_2  and  C2_3 
ROOT
ATOM      1  C2  UNL d   1       4.014  -2.642   4.866  0.00  0.00    -0.076 A 
ATOM      2  C3  UNL d   1       3.438  -3.924   4.901  0.00  0.00     0.004 A 
ATOM      3  C4  UNL d   1       4.121  -5.002   5.462  0.00  0.00    -0.003 A 
ATOM      4  C5  UNL d   1       5.391  -4.815   5.998  0.00  0.00     0.000 A 
ATOM      5  C6  UNL d   1       5.970  -3.546   5.987  0.00  0.00     0.000 A 
ATOM      6  C7  UNL d   1       5.288  -2.446   5.440  0.00  0.00    -0.073 A 
ATOM      7  C8  UNL d   1       5.962  -1.101   5.449  0.00  0.00     0.078 C 
ENDROOT
BRANCH   1   8
ATOM      8  C1  UNL d   1       3.237  -1.517   4.220  0.00  0.00     0.053 C 
ATOM      9  C   UNL d   1       2.831  -1.835   2.789  0.00  0.00     0.018 C 
ENDBRANCH   1   8
TORSDOF 1
ENDMDL
