MODEL 1
REMARK minimizedAffinity 12.2149124
REMARK minimizedRMSD -1
REMARK  1 active torsions:
REMARK  status: ('A' for Active; 'I' for Inactive)
REMARK    1  A    between atoms: C1_2  and  C2_3 
ROOT
ATOM      1  C2  UNL d   1       3.941  -3.630   4.796  0.00  0.00    -0.076 A 
ATOM      2  C3  UNL d   1       3.596  -4.986   4.657  0.00  0.00     0.004 A 
ATOM      3  C4  UNL d   1       4.415  -5.990   5.170  0.00  0.00    -0.003 A 
ATOM      4  C5  UNL d   1       5.591  -5.656   5.831  0.00  0.00     0.000 A 
ATOM      5  C6  UNL d   1       5.940  -4.316   5.994  0.00  0.00     0.000 A 
ATOM      6  C7  UNL d   1       5.118  -3.290   5.497  0.00  0.00    -0.073 A 
ATOM      7  C8  UNL d   1       5.546  -1.861   5.696  0.00  0.00     0.078 C 
ENDROOT
BRANCH   1   8
ATOM      8  C1  UNL d   1       3.028  -2.585   4.195  0.00  0.00     0.053 C 
ATOM      9  C   UNL d   1       3.637  -1.912   2.975  0.00  0.00     0.018 C 
ENDBRANCH   1   8
TORSDOF 1
ENDMDL
