MODEL 1
REMARK minimizedAffinity 13.6775608
REMARK minimizedRMSD -1
REMARK  1 active torsions:
REMARK  status: ('A' for Active; 'I' for Inactive)
REMARK    1  A    between atoms: C1_2  and  C2_3 
ROOT
ATOM      1  C2  UNL d   1       2.052  -3.484   0.577  0.00  0.00    -0.076 A 
ATOM      2  C3  UNL d   1       0.660  -3.393   0.747  0.00  0.00     0.004 A 
ATOM      3  C4  UNL d   1       0.083  -2.277   1.351  0.00  0.00    -0.003 A 
ATOM      4  C5  UNL d   1       0.889  -1.235   1.795  0.00  0.00     0.000 A 
ATOM      5  C6  UNL d   1       2.271  -1.301   1.619  0.00  0.00     0.000 A 
ATOM      6  C7  UNL d   1       2.867  -2.411   0.997  0.00  0.00    -0.073 A 
ATOM      7  C8  UNL d   1       4.362  -2.433   0.838  0.00  0.00     0.078 C 
ENDROOT
BRANCH   1   8
ATOM      8  C1  UNL d   1       2.623  -4.731  -0.061  0.00  0.00     0.053 C 
ATOM      9  C   UNL d   1       2.214  -6.000   0.670  0.00  0.00     0.018 C 
ENDBRANCH   1   8
TORSDOF 1
ENDMDL
