MODEL 1
REMARK minimizedAffinity 17.6525326
REMARK minimizedRMSD -1
REMARK  1 active torsions:
REMARK  status: ('A' for Active; 'I' for Inactive)
REMARK    1  A    between atoms: C1_2  and  C2_3 
ROOT
ATOM      1  C2  UNL d   1      -3.704   2.659  -4.472  0.00  0.00    -0.076 A 
ATOM      2  C3  UNL d   1      -3.857   3.967  -3.979  0.00  0.00     0.004 A 
ATOM      3  C4  UNL d   1      -4.994   4.716  -4.274  0.00  0.00    -0.003 A 
ATOM      4  C5  UNL d   1      -5.998   4.170  -5.067  0.00  0.00     0.000 A 
ATOM      5  C6  UNL d   1      -5.870   2.868  -5.550  0.00  0.00     0.000 A 
ATOM      6  C7  UNL d   1      -4.737   2.093  -5.248  0.00  0.00    -0.073 A 
ATOM      7  C8  UNL d   1      -4.649   0.697  -5.801  0.00  0.00     0.078 C 
ENDROOT
BRANCH   1   8
ATOM      8  C1  UNL d   1      -2.436   1.904  -4.141  0.00  0.00     0.053 C 
ATOM      9  C   UNL d   1      -2.186   1.813  -2.643  0.00  0.00     0.018 C 
ENDBRANCH   1   8
TORSDOF 1
ENDMDL
