MODEL 1
REMARK minimizedAffinity 19.8801765
REMARK minimizedRMSD -1
REMARK  1 active torsions:
REMARK  status: ('A' for Active; 'I' for Inactive)
REMARK    1  A    between atoms: C1_2  and  C2_3 
ROOT
ATOM      1  C2  UNL d   1      -4.373   2.182  -4.309  0.00  0.00    -0.076 A 
ATOM      2  C3  UNL d   1      -3.283   2.900  -3.788  0.00  0.00     0.004 A 
ATOM      3  C4  UNL d   1      -2.689   2.529  -2.583  0.00  0.00    -0.003 A 
ATOM      4  C5  UNL d   1      -3.176   1.433  -1.878  0.00  0.00     0.000 A 
ATOM      5  C6  UNL d   1      -4.246   0.699  -2.389  0.00  0.00     0.000 A 
ATOM      6  C7  UNL d   1      -4.845   1.049  -3.611  0.00  0.00    -0.073 A 
ATOM      7  C8  UNL d   1      -6.000   0.225  -4.111  0.00  0.00     0.078 C 
ENDROOT
BRANCH   1   8
ATOM      8  C1  UNL d   1      -4.993   2.647  -5.607  0.00  0.00     0.053 C 
ATOM      9  C   UNL d   1      -6.000   3.769  -5.402  0.00  0.00     0.018 C 
ENDBRANCH   1   8
TORSDOF 1
ENDMDL
