MODEL 1
REMARK minimizedAffinity 8.4141016
REMARK minimizedRMSD -1
REMARK  1 active torsions:
REMARK  status: ('A' for Active; 'I' for Inactive)
REMARK    1  A    between atoms: C1_2  and  C2_3 
ROOT
ATOM      1  C2  UNL d   1       3.938   4.705  -4.932  0.00  0.00    -0.076 A 
ATOM      2  C3  UNL d   1       3.386   3.512  -4.432  0.00  0.00     0.004 A 
ATOM      3  C4  UNL d   1       4.125   2.331  -4.415  0.00  0.00    -0.003 A 
ATOM      4  C5  UNL d   1       5.429   2.323  -4.898  0.00  0.00     0.000 A 
ATOM      5  C6  UNL d   1       5.999   3.500  -5.381  0.00  0.00     0.000 A 
ATOM      6  C7  UNL d   1       5.272   4.704  -5.390  0.00  0.00    -0.073 A 
ATOM      7  C8  UNL d   1       5.934   5.942  -5.929  0.00  0.00     0.078 C 
ENDROOT
BRANCH   1   8
ATOM      8  C1  UNL d   1       3.079   5.949  -4.950  0.00  0.00     0.053 C 
ATOM      9  C   UNL d   1       1.971   5.877  -5.989  0.00  0.00     0.018 C 
ENDBRANCH   1   8
TORSDOF 1
ENDMDL
