MODEL 1
REMARK minimizedAffinity 16.4266243
REMARK minimizedRMSD -1
REMARK  1 active torsions:
REMARK  status: ('A' for Active; 'I' for Inactive)
REMARK    1  A    between atoms: C1_2  and  C2_3 
ROOT
ATOM      1  C2  UNL d   1      -4.491   1.857  -4.844  0.00  0.00    -0.076 A 
ATOM      2  C3  UNL d   1      -3.408   1.502  -4.021  0.00  0.00     0.004 A 
ATOM      3  C4  UNL d   1      -2.666   2.474  -3.353  0.00  0.00    -0.003 A 
ATOM      4  C5  UNL d   1      -2.994   3.817  -3.497  0.00  0.00     0.000 A 
ATOM      5  C6  UNL d   1      -4.076   4.186  -4.295  0.00  0.00     0.000 A 
ATOM      6  C7  UNL d   1      -4.845   3.218  -4.963  0.00  0.00    -0.073 A 
ATOM      7  C8  UNL d   1      -5.997   3.673  -5.816  0.00  0.00     0.078 C 
ENDROOT
BRANCH   1   8
ATOM      8  C1  UNL d   1      -5.242   0.761  -5.566  0.00  0.00     0.053 C 
ATOM      9  C   UNL d   1      -5.998  -0.152  -4.612  0.00  0.00     0.018 C 
ENDBRANCH   1   8
TORSDOF 1
ENDMDL
