MODEL 1
REMARK minimizedAffinity 10.6239939
REMARK minimizedRMSD -1
REMARK  0 active torsions:
REMARK  status: ('A' for Active; 'I' for Inactive)
ROOT
ATOM      1  C2' OXE d   1      -5.978  -2.433  -2.389  0.00  0.00     0.078 C 
ATOM      2  C1' OXE d   1      -4.312  -0.907  -4.055  0.00  0.00     0.078 C 
ATOM      3  C1  OXE d   1      -4.608  -2.328  -4.467  0.00  0.00    -0.078 A 
ATOM      4  C2  OXE d   1      -5.386  -3.082  -3.621  0.00  0.00    -0.078 A 
ATOM      5  C3  OXE d   1      -5.734  -4.381  -3.980  0.00  0.00     0.003 A 
ATOM      6  C4  OXE d   1      -5.174  -4.977  -5.116  0.00  0.00    -0.002 A 
ATOM      7  C5  OXE d   1      -4.347  -4.239  -5.970  0.00  0.00    -0.002 A 
ATOM      8  C6  OXE d   1      -4.089  -2.903  -5.683  0.00  0.00     0.003 A 
ENDROOT
TORSDOF 0
ENDMDL
