MODEL 1
REMARK minimizedAffinity 8.96334457
REMARK minimizedRMSD -1
REMARK  0 active torsions:
REMARK  status: ('A' for Active; 'I' for Inactive)
ROOT
ATOM      1  C2' OXE d   1      -2.701  -0.739  -3.401  0.00  0.00     0.078 C 
ATOM      2  C1' OXE d   1      -4.774  -1.825  -1.850  0.00  0.00     0.078 C 
ATOM      3  C1  OXE d   1      -4.875  -0.372  -2.242  0.00  0.00    -0.078 A 
ATOM      4  C2  OXE d   1      -3.834   0.163  -2.962  0.00  0.00    -0.078 A 
ATOM      5  C3  OXE d   1      -3.903   1.484  -3.396  0.00  0.00     0.003 A 
ATOM      6  C4  OXE d   1      -4.949   2.314  -2.976  0.00  0.00    -0.002 A 
ATOM      7  C5  OXE d   1      -6.000   1.800  -2.210  0.00  0.00    -0.002 A 
ATOM      8  C6  OXE d   1      -6.000   0.451  -1.871  0.00  0.00     0.003 A 
ENDROOT
TORSDOF 0
ENDMDL
