MODEL 1
REMARK minimizedAffinity 2.18488598
REMARK minimizedRMSD -1
REMARK  0 active torsions:
REMARK  status: ('A' for Active; 'I' for Inactive)
ROOT
ATOM      1  C2' OXE d   1       2.235  -6.000  -4.554  0.00  0.00     0.078 C 
ATOM      2  C1' OXE d   1       4.641  -5.982  -5.999  0.00  0.00     0.078 C 
ATOM      3  C1  OXE d   1       4.725  -5.982  -4.493  0.00  0.00    -0.078 A 
ATOM      4  C2  OXE d   1       3.543  -5.944  -3.794  0.00  0.00    -0.078 A 
ATOM      5  C3  OXE d   1       3.562  -5.997  -2.403  0.00  0.00     0.003 A 
ATOM      6  C4  OXE d   1       4.776  -5.935  -1.708  0.00  0.00    -0.002 A 
ATOM      7  C5  OXE d   1       5.992  -5.933  -2.401  0.00  0.00    -0.002 A 
ATOM      8  C6  OXE d   1       5.984  -6.000  -3.790  0.00  0.00     0.003 A 
ENDROOT
TORSDOF 0
ENDMDL
