MODEL 1
REMARK minimizedAffinity 2.42715859
REMARK minimizedRMSD -1
REMARK  0 active torsions:
REMARK  status: ('A' for Active; 'I' for Inactive)
ROOT
ATOM      1  C2' OXE d   1       2.774  -1.105   2.470  0.00  0.00     0.078 C 
ATOM      2  C1' OXE d   1       1.345  -0.863   4.874  0.00  0.00     0.078 C 
ATOM      3  C1  OXE d   1       1.475  -2.238   4.269  0.00  0.00    -0.078 A 
ATOM      4  C2  OXE d   1       2.136  -2.340   3.068  0.00  0.00    -0.078 A 
ATOM      5  C3  OXE d   1       2.332  -3.593   2.494  0.00  0.00     0.003 A 
ATOM      6  C4  OXE d   1       1.730  -4.729   3.048  0.00  0.00    -0.002 A 
ATOM      7  C5  OXE d   1       1.019  -4.641   4.249  0.00  0.00    -0.002 A 
ATOM      8  C6  OXE d   1       0.918  -3.413   4.893  0.00  0.00     0.003 A 
ENDROOT
TORSDOF 0
ENDMDL
