MODEL 1
REMARK minimizedAffinity 1.72057545
REMARK minimizedRMSD -1
REMARK  0 active torsions:
REMARK  status: ('A' for Active; 'I' for Inactive)
ROOT
ATOM      1  C2' OXE d   1       3.287   0.967   1.254  0.00  0.00     0.078 C 
ATOM      2  C1' OXE d   1       2.089   2.168   3.491  0.00  0.00     0.078 C 
ATOM      3  C1  OXE d   1       1.974   0.670   3.350  0.00  0.00    -0.078 A 
ATOM      4  C2  OXE d   1       2.523   0.097   2.229  0.00  0.00    -0.078 A 
ATOM      5  C3  OXE d   1       2.494  -1.286   2.077  0.00  0.00     0.003 A 
ATOM      6  C4  OXE d   1       1.777  -2.083   2.978  0.00  0.00    -0.002 A 
ATOM      7  C5  OXE d   1       1.176  -1.515   4.106  0.00  0.00    -0.002 A 
ATOM      8  C6  OXE d   1       1.302  -0.148   4.329  0.00  0.00     0.003 A 
ENDROOT
TORSDOF 0
ENDMDL
