MODEL 1
REMARK minimizedAffinity 1.66627336
REMARK minimizedRMSD -1
REMARK  0 active torsions:
REMARK  status: ('A' for Active; 'I' for Inactive)
ROOT
ATOM      1  C2' OXE d   1       1.734  -5.950  -4.993  0.00  0.00     0.078 C 
ATOM      2  C1' OXE d   1       2.209  -5.966  -2.226  0.00  0.00     0.078 C 
ATOM      3  C1  OXE d   1       3.405  -5.961  -3.145  0.00  0.00    -0.078 A 
ATOM      4  C2  OXE d   1       3.164  -6.000  -4.497  0.00  0.00    -0.078 A 
ATOM      5  C3  OXE d   1       4.230  -5.941  -5.390  0.00  0.00     0.003 A 
ATOM      6  C4  OXE d   1       5.549  -5.997  -4.923  0.00  0.00    -0.002 A 
ATOM      7  C5  OXE d   1       5.817  -5.998  -3.550  0.00  0.00    -0.002 A 
ATOM      8  C6  OXE d   1       4.759  -5.937  -2.649  0.00  0.00     0.003 A 
ENDROOT
TORSDOF 0
ENDMDL
