MODEL 1
REMARK minimizedAffinity 2.26939154
REMARK minimizedRMSD -1
REMARK  0 active torsions:
REMARK  status: ('A' for Active; 'I' for Inactive)
ROOT
ATOM      1  C2' OXE d   1       5.599  -5.773  -3.489  0.00  0.00     0.078 C 
ATOM      2  C1' OXE d   1       3.404  -5.812  -1.740  0.00  0.00     0.078 C 
ATOM      3  C1  OXE d   1       3.125  -5.884  -3.220  0.00  0.00    -0.078 A 
ATOM      4  C2  OXE d   1       4.203  -5.817  -4.070  0.00  0.00    -0.078 A 
ATOM      5  C3  OXE d   1       4.006  -5.933  -5.443  0.00  0.00     0.003 A 
ATOM      6  C4  OXE d   1       2.711  -5.964  -5.974  0.00  0.00    -0.002 A 
ATOM      7  C5  OXE d   1       1.598  -5.993  -5.127  0.00  0.00    -0.002 A 
ATOM      8  C6  OXE d   1       1.789  -5.996  -3.750  0.00  0.00     0.003 A 
ENDROOT
TORSDOF 0
ENDMDL
