MODEL 1
REMARK minimizedAffinity 6.2152791
REMARK minimizedRMSD -1
REMARK  0 active torsions:
REMARK  status: ('A' for Active; 'I' for Inactive)
ROOT
ATOM      1  C2' OXE d   1       1.277  -4.239   2.349  0.00  0.00     0.078 C 
ATOM      2  C1' OXE d   1       1.542  -1.519   2.989  0.00  0.00     0.078 C 
ATOM      3  C1  OXE d   1       2.409  -2.504   3.732  0.00  0.00    -0.078 A 
ATOM      4  C2  OXE d   1       2.239  -3.837   3.446  0.00  0.00    -0.078 A 
ATOM      5  C3  OXE d   1       3.052  -4.784   4.064  0.00  0.00     0.003 A 
ATOM      6  C4  OXE d   1       3.932  -4.405   5.084  0.00  0.00    -0.002 A 
ATOM      7  C5  OXE d   1       4.092  -3.056   5.420  0.00  0.00    -0.002 A 
ATOM      8  C6  OXE d   1       3.370  -2.091   4.725  0.00  0.00     0.003 A 
ENDROOT
TORSDOF 0
ENDMDL
