MODEL 1
REMARK minimizedAffinity 9.80622959
REMARK minimizedRMSD -1
REMARK  0 active torsions:
REMARK  status: ('A' for Active; 'I' for Inactive)
ROOT
ATOM      1  C2' OXE d   1       2.122  -1.230   3.042  0.00  0.00     0.078 C 
ATOM      2  C1' OXE d   1       4.329  -2.377   4.344  0.00  0.00     0.078 C 
ATOM      3  C1  OXE d   1       3.077  -3.207   4.218  0.00  0.00    -0.078 A 
ATOM      4  C2  OXE d   1       1.987  -2.621   3.621  0.00  0.00    -0.078 A 
ATOM      5  C3  OXE d   1       0.824  -3.362   3.431  0.00  0.00     0.003 A 
ATOM      6  C4  OXE d   1       0.703  -4.645   3.978  0.00  0.00    -0.002 A 
ATOM      7  C5  OXE d   1       1.788  -5.246   4.625  0.00  0.00    -0.002 A 
ATOM      8  C6  OXE d   1       2.993  -4.558   4.716  0.00  0.00     0.003 A 
ENDROOT
TORSDOF 0
ENDMDL
