MODEL 1
REMARK minimizedAffinity 9.7594862
REMARK minimizedRMSD -1
REMARK  0 active torsions:
REMARK  status: ('A' for Active; 'I' for Inactive)
ROOT
ATOM      1  C2' OXE d   1      -5.658   5.729  -0.976  0.00  0.00     0.078 C 
ATOM      2  C1' OXE d   1      -5.997   3.505  -2.656  0.00  0.00     0.078 C 
ATOM      3  C1  OXE d   1      -5.899   3.257  -1.171  0.00  0.00    -0.078 A 
ATOM      4  C2  OXE d   1      -5.687   4.346  -0.361  0.00  0.00    -0.078 A 
ATOM      5  C3  OXE d   1      -5.644   4.180   1.020  0.00  0.00     0.003 A 
ATOM      6  C4  OXE d   1      -5.661   2.897   1.581  0.00  0.00    -0.002 A 
ATOM      7  C5  OXE d   1      -5.836   1.770   0.770  0.00  0.00    -0.002 A 
ATOM      8  C6  OXE d   1      -5.999   1.936  -0.601  0.00  0.00     0.003 A 
ENDROOT
TORSDOF 0
ENDMDL
