MODEL 1
REMARK minimizedAffinity -2.57430387
REMARK minimizedRMSD -1
REMARK  0 active torsions:
REMARK  status: ('A' for Active; 'I' for Inactive)
ROOT
ATOM      1  C2' OXE d   1       2.781   0.679   2.446  0.00  0.00     0.078 C 
ATOM      2  C1' OXE d   1       4.637  -1.101   1.320  0.00  0.00     0.078 C 
ATOM      3  C1  OXE d   1       3.398  -1.684   1.953  0.00  0.00    -0.078 A 
ATOM      4  C2  OXE d   1       2.518  -0.808   2.543  0.00  0.00    -0.078 A 
ATOM      5  C3  OXE d   1       1.333  -1.288   3.093  0.00  0.00     0.003 A 
ATOM      6  C4  OXE d   1       1.103  -2.666   3.187  0.00  0.00    -0.002 A 
ATOM      7  C5  OXE d   1       2.005  -3.577   2.628  0.00  0.00    -0.002 A 
ATOM      8  C6  OXE d   1       3.135  -3.101   1.971  0.00  0.00     0.003 A 
ENDROOT
TORSDOF 0
ENDMDL
