MODEL 1
REMARK minimizedAffinity 1.44823742
REMARK minimizedRMSD -1
REMARK  0 active torsions:
REMARK  status: ('A' for Active; 'I' for Inactive)
ROOT
ATOM      1  C   UNL d   1      -0.299  -2.636   0.412  0.00  0.00     0.124 A 
ATOM      2  C1  UNL d   1      -1.173  -1.763   1.044  0.00  0.00     0.062 A 
ATOM      3  C2  UNL d   1      -1.055  -0.390   0.849  0.00  0.00     0.162 A 
ATOM      4  C3  UNL d   1      -0.059   0.119   0.017  0.00  0.00    -0.034 A 
ATOM      5  C4  UNL d   1       0.818  -0.765  -0.616  0.00  0.00     0.162 A 
ATOM      6  C5  UNL d   1       0.695  -2.136  -0.418  0.00  0.00     0.062 A 
ATOM      7  F   UNL d   1       1.541  -2.978  -1.030  0.00  0.00    -0.097 F 
ATOM      8  F1  UNL d   1       1.787  -0.309  -1.423  0.00  0.00    -0.096 F 
ATOM      9  I   UNL d   1       0.122   2.172  -0.277  0.00  0.00    -0.060 I 
ATOM     10  F2  UNL d   1      -1.914   0.430   1.474  0.00  0.00    -0.096 F 
ATOM     11  F3  UNL d   1      -2.134  -2.243   1.847  0.00  0.00    -0.097 F 
ATOM     12  F4  UNL d   1      -0.415  -3.957   0.602  0.00  0.00    -0.092 F 
ENDROOT
TORSDOF 0
ENDMDL
