MODEL 1
REMARK minimizedAffinity -4.11045265
REMARK minimizedRMSD -1
REMARK  0 active torsions:
REMARK  status: ('A' for Active; 'I' for Inactive)
ROOT
ATOM      1  C   UNL d   1      -0.123  -2.710  -1.021  0.00  0.00     0.124 A 
ATOM      2  C1  UNL d   1      -0.027  -1.745  -2.014  0.00  0.00     0.062 A 
ATOM      3  C2  UNL d   1       0.025  -0.396  -1.677  0.00  0.00     0.162 A 
ATOM      4  C3  UNL d   1      -0.018  -0.002  -0.340  0.00  0.00    -0.034 A 
ATOM      5  C4  UNL d   1      -0.116  -0.978   0.654  0.00  0.00     0.162 A 
ATOM      6  C5  UNL d   1      -0.168  -2.325   0.312  0.00  0.00     0.062 A 
ATOM      7  F   UNL d   1      -0.261  -3.256   1.273  0.00  0.00    -0.097 F 
ATOM      8  F1  UNL d   1      -0.160  -0.635   1.950  0.00  0.00    -0.096 F 
ATOM      9  I   UNL d   1       0.059   2.014   0.168  0.00  0.00    -0.060 I 
ATOM     10  F2  UNL d   1       0.118   0.514  -2.658  0.00  0.00    -0.096 F 
ATOM     11  F3  UNL d   1       0.015  -2.114  -3.303  0.00  0.00    -0.097 F 
ATOM     12  F4  UNL d   1      -0.174  -4.007  -1.348  0.00  0.00    -0.092 F 
ENDROOT
TORSDOF 0
ENDMDL
