MODEL 1
REMARK minimizedAffinity 0.0323736332
REMARK minimizedRMSD -1
REMARK  0 active torsions:
REMARK  status: ('A' for Active; 'I' for Inactive)
ROOT
ATOM      1  C   UNL d   1      -0.240  -1.668  -0.399  0.00  0.00     0.124 A 
ATOM      2  C1  UNL d   1      -0.656  -1.151   0.821  0.00  0.00     0.062 A 
ATOM      3  C2  UNL d   1      -0.614   0.221   1.050  0.00  0.00     0.162 A 
ATOM      4  C3  UNL d   1      -0.156   1.087   0.057  0.00  0.00    -0.034 A 
ATOM      5  C4  UNL d   1       0.262   0.560  -1.166  0.00  0.00     0.162 A 
ATOM      6  C5  UNL d   1       0.219  -0.813  -1.390  0.00  0.00     0.062 A 
ATOM      7  F   UNL d   1       0.621  -1.310  -2.569  0.00  0.00    -0.097 F 
ATOM      8  F1  UNL d   1       0.709   1.364  -2.142  0.00  0.00    -0.096 F 
ATOM      9  I   UNL d   1      -0.092   3.139   0.397  0.00  0.00    -0.060 I 
ATOM     10  F2  UNL d   1      -1.023   0.693   2.238  0.00  0.00    -0.096 F 
ATOM     11  F3  UNL d   1      -1.099  -1.976   1.781  0.00  0.00    -0.097 F 
ATOM     12  F4  UNL d   1      -0.280  -2.989  -0.616  0.00  0.00    -0.092 F 
ENDROOT
TORSDOF 0
ENDMDL
