MODEL 1
REMARK minimizedAffinity -0.731069684
REMARK minimizedRMSD -1
REMARK  0 active torsions:
REMARK  status: ('A' for Active; 'I' for Inactive)
ROOT
ATOM      1  C   UNL d   1      -0.258  -2.838   0.191  0.00  0.00     0.124 A 
ATOM      2  C1  UNL d   1       0.615  -2.189  -0.671  0.00  0.00     0.062 A 
ATOM      3  C2  UNL d   1       0.690  -0.799  -0.677  0.00  0.00     0.162 A 
ATOM      4  C3  UNL d   1      -0.111  -0.048   0.184  0.00  0.00    -0.034 A 
ATOM      5  C4  UNL d   1      -0.987  -0.708   1.048  0.00  0.00     0.162 A 
ATOM      6  C5  UNL d   1      -1.058  -2.097   1.049  0.00  0.00     0.062 A 
ATOM      7  F   UNL d   1      -1.902  -2.722   1.883  0.00  0.00    -0.097 F 
ATOM      8  F1  UNL d   1      -1.771  -0.016   1.888  0.00  0.00    -0.096 F 
ATOM      9  I   UNL d   1      -0.003   2.030   0.179  0.00  0.00    -0.060 I 
ATOM     10  F2  UNL d   1       1.542  -0.199  -1.520  0.00  0.00    -0.096 F 
ATOM     11  F3  UNL d   1       1.389  -2.903  -1.502  0.00  0.00    -0.097 F 
ATOM     12  F4  UNL d   1      -0.328  -4.175   0.194  0.00  0.00    -0.092 F 
ENDROOT
TORSDOF 0
ENDMDL
