MODEL 1
REMARK minimizedAffinity -2.12749934
REMARK minimizedRMSD -1
REMARK  0 active torsions:
REMARK  status: ('A' for Active; 'I' for Inactive)
ROOT
ATOM      1  C   UNL d   1      -1.084  -1.568   1.132  0.00  0.00     0.124 A 
ATOM      2  C1  UNL d   1      -0.052  -2.103   0.374  0.00  0.00     0.062 A 
ATOM      3  C2  UNL d   1       0.757  -1.271  -0.394  0.00  0.00     0.162 A 
ATOM      4  C3  UNL d   1       0.538   0.107  -0.408  0.00  0.00    -0.034 A 
ATOM      5  C4  UNL d   1      -0.503   0.638   0.357  0.00  0.00     0.162 A 
ATOM      6  C5  UNL d   1      -1.308  -0.198   1.123  0.00  0.00     0.062 A 
ATOM      7  F   UNL d   1      -2.305   0.321   1.854  0.00  0.00    -0.097 F 
ATOM      8  F1  UNL d   1      -0.741   1.958   0.367  0.00  0.00    -0.096 F 
ATOM      9  I   UNL d   1       1.746   1.354  -1.555  0.00  0.00    -0.060 I 
ATOM     10  F2  UNL d   1       1.747  -1.816  -1.117  0.00  0.00    -0.096 F 
ATOM     11  F3  UNL d   1       0.167  -3.426   0.381  0.00  0.00    -0.097 F 
ATOM     12  F4  UNL d   1      -1.861  -2.371   1.869  0.00  0.00    -0.092 F 
ENDROOT
TORSDOF 0
ENDMDL
