MODEL 1
REMARK minimizedAffinity -2.70687866
REMARK minimizedRMSD -1
REMARK  0 active torsions:
REMARK  status: ('A' for Active; 'I' for Inactive)
ROOT
ATOM      1  C   UNL d   1       1.103  -1.165  -2.130  0.00  0.00     0.124 A 
ATOM      2  C1  UNL d   1       1.010  -2.120  -1.127  0.00  0.00     0.062 A 
ATOM      3  C2  UNL d   1       0.583  -1.756   0.147  0.00  0.00     0.162 A 
ATOM      4  C3  UNL d   1       0.245  -0.432   0.425  0.00  0.00    -0.034 A 
ATOM      5  C4  UNL d   1       0.342   0.522  -0.589  0.00  0.00     0.162 A 
ATOM      6  C5  UNL d   1       0.769   0.154  -1.861  0.00  0.00     0.062 A 
ATOM      7  F   UNL d   1       0.859   1.078  -2.829  0.00  0.00    -0.097 F 
ATOM      8  F1  UNL d   1       0.024   1.805  -0.357  0.00  0.00    -0.096 F 
ATOM      9  I   UNL d   1      -0.394   0.115   2.329  0.00  0.00    -0.060 I 
ATOM     10  F2  UNL d   1       0.503  -2.699   1.098  0.00  0.00    -0.096 F 
ATOM     11  F3  UNL d   1       1.333  -3.395  -1.384  0.00  0.00    -0.097 F 
ATOM     12  F4  UNL d   1       1.515  -1.518  -3.355  0.00  0.00    -0.092 F 
ENDROOT
TORSDOF 0
ENDMDL
