MODEL 1
REMARK minimizedAffinity 5.55313301
REMARK minimizedRMSD -1
REMARK  0 active torsions:
REMARK  status: ('A' for Active; 'I' for Inactive)
ROOT
ATOM      1  C   UNL d   1      -0.243  -0.800  -0.133  0.00  0.00     0.124 A 
ATOM      2  C1  UNL d   1      -0.826   0.326   0.431  0.00  0.00     0.062 A 
ATOM      3  C2  UNL d   1      -0.067   1.471   0.654  0.00  0.00     0.162 A 
ATOM      4  C3  UNL d   1       1.285   1.497   0.313  0.00  0.00    -0.034 A 
ATOM      5  C4  UNL d   1       1.866   0.360  -0.253  0.00  0.00     0.162 A 
ATOM      6  C5  UNL d   1       1.102  -0.782  -0.474  0.00  0.00     0.062 A 
ATOM      7  F   UNL d   1       1.668  -1.869  -1.019  0.00  0.00    -0.097 F 
ATOM      8  F1  UNL d   1       3.163   0.350  -0.594  0.00  0.00    -0.096 F 
ATOM      9  I   UNL d   1       2.424   3.206   0.645  0.00  0.00    -0.060 I 
ATOM     10  F2  UNL d   1      -0.657   2.545   1.201  0.00  0.00    -0.096 F 
ATOM     11  F3  UNL d   1      -2.125   0.311   0.763  0.00  0.00    -0.097 F 
ATOM     12  F4  UNL d   1      -0.975  -1.900  -0.346  0.00  0.00    -0.092 F 
ENDROOT
TORSDOF 0
ENDMDL
