MODEL 1
REMARK minimizedAffinity 1.49056888
REMARK minimizedRMSD -1
REMARK  0 active torsions:
REMARK  status: ('A' for Active; 'I' for Inactive)
ROOT
ATOM      1  C   UNL d   1       1.136   2.988   0.194  0.00  0.00     0.124 A 
ATOM      2  C1  UNL d   1       2.105   2.008   0.018  0.00  0.00     0.062 A 
ATOM      3  C2  UNL d   1       1.748   0.663   0.020  0.00  0.00     0.162 A 
ATOM      4  C3  UNL d   1       0.416   0.288   0.198  0.00  0.00    -0.034 A 
ATOM      5  C4  UNL d   1      -0.552   1.279   0.374  0.00  0.00     0.162 A 
ATOM      6  C5  UNL d   1      -0.190   2.622   0.372  0.00  0.00     0.062 A 
ATOM      7  F   UNL d   1      -1.127   3.566   0.541  0.00  0.00    -0.097 F 
ATOM      8  F1  UNL d   1      -1.842   0.953   0.547  0.00  0.00    -0.096 F 
ATOM      9  I   UNL d   1      -0.121  -1.722   0.201  0.00  0.00    -0.060 I 
ATOM     10  F2  UNL d   1       2.704  -0.262  -0.151  0.00  0.00    -0.096 F 
ATOM     11  F3  UNL d   1       3.387   2.359  -0.153  0.00  0.00    -0.097 F 
ATOM     12  F4  UNL d   1       1.483   4.281   0.193  0.00  0.00    -0.092 F 
ENDROOT
TORSDOF 0
ENDMDL
