MODEL 1
REMARK minimizedAffinity -3.50394988
REMARK minimizedRMSD -1
REMARK  0 active torsions:
REMARK  status: ('A' for Active; 'I' for Inactive)
ROOT
ATOM      1  C   UNL d   1      -0.043  -3.226  -1.121  0.00  0.00     0.124 A 
ATOM      2  C1  UNL d   1      -0.139  -2.338  -2.184  0.00  0.00     0.062 A 
ATOM      3  C2  UNL d   1      -0.059  -0.967  -1.961  0.00  0.00     0.162 A 
ATOM      4  C3  UNL d   1       0.119  -0.474  -0.668  0.00  0.00    -0.034 A 
ATOM      5  C4  UNL d   1       0.214  -1.372   0.396  0.00  0.00     0.162 A 
ATOM      6  C5  UNL d   1       0.133  -2.742   0.167  0.00  0.00     0.062 A 
ATOM      7  F   UNL d   1       0.227  -3.598   1.196  0.00  0.00    -0.097 F 
ATOM      8  F1  UNL d   1       0.386  -0.932   1.651  0.00  0.00    -0.096 F 
ATOM      9  I   UNL d   1       0.239   1.576  -0.330  0.00  0.00    -0.060 I 
ATOM     10  F2  UNL d   1      -0.156  -0.133  -3.007  0.00  0.00    -0.096 F 
ATOM     11  F3  UNL d   1      -0.311  -2.803  -3.430  0.00  0.00    -0.097 F 
ATOM     12  F4  UNL d   1      -0.122  -4.545  -1.339  0.00  0.00    -0.092 F 
ENDROOT
TORSDOF 0
ENDMDL
