MODEL 1
REMARK minimizedAffinity 1.90082085
REMARK minimizedRMSD -1
REMARK  0 active torsions:
REMARK  status: ('A' for Active; 'I' for Inactive)
ROOT
ATOM      1  C   UNL d   1      -0.087  -2.543   0.065  0.00  0.00     0.124 A 
ATOM      2  C1  UNL d   1       0.639  -1.936  -0.951  0.00  0.00     0.062 A 
ATOM      3  C2  UNL d   1       0.550  -0.561  -1.149  0.00  0.00     0.162 A 
ATOM      4  C3  UNL d   1      -0.266   0.217  -0.329  0.00  0.00    -0.034 A 
ATOM      5  C4  UNL d   1      -0.994  -0.401   0.690  0.00  0.00     0.162 A 
ATOM      6  C5  UNL d   1      -0.902  -1.775   0.884  0.00  0.00     0.062 A 
ATOM      7  F   UNL d   1      -1.604  -2.360   1.866  0.00  0.00    -0.097 F 
ATOM      8  F1  UNL d   1      -1.789   0.318   1.497  0.00  0.00    -0.096 F 
ATOM      9  I   UNL d   1      -0.401   2.273  -0.622  0.00  0.00    -0.060 I 
ATOM     10  F2  UNL d   1       1.263  -0.002  -2.138  0.00  0.00    -0.096 F 
ATOM     11  F3  UNL d   1       1.427  -2.676  -1.744  0.00  0.00    -0.097 F 
ATOM     12  F4  UNL d   1      -0.001  -3.866   0.253  0.00  0.00    -0.092 F 
ENDROOT
TORSDOF 0
ENDMDL
