MODEL 1
REMARK minimizedAffinity -4.26499367
REMARK minimizedRMSD -1
REMARK  0 active torsions:
REMARK  status: ('A' for Active; 'I' for Inactive)
ROOT
ATOM      1  C   UNL d   1      -0.037  -2.294  -0.519  0.00  0.00     0.124 A 
ATOM      2  C1  UNL d   1       0.359  -1.397  -1.502  0.00  0.00     0.062 A 
ATOM      3  C2  UNL d   1       0.293  -0.027  -1.267  0.00  0.00     0.162 A 
ATOM      4  C3  UNL d   1      -0.169   0.456  -0.042  0.00  0.00    -0.034 A 
ATOM      5  C4  UNL d   1      -0.566  -0.452   0.941  0.00  0.00     0.162 A 
ATOM      6  C5  UNL d   1      -0.498  -1.821   0.702  0.00  0.00     0.062 A 
ATOM      7  F   UNL d   1      -0.881  -2.685   1.653  0.00  0.00    -0.097 F 
ATOM      8  F1  UNL d   1      -1.015  -0.022   2.130  0.00  0.00    -0.096 F 
ATOM      9  I   UNL d   1      -0.269   2.504   0.313  0.00  0.00    -0.060 I 
ATOM     10  F2  UNL d   1       0.681   0.816  -2.235  0.00  0.00    -0.096 F 
ATOM     11  F3  UNL d   1       0.804  -1.852  -2.682  0.00  0.00    -0.097 F 
ATOM     12  F4  UNL d   1       0.027  -3.612  -0.748  0.00  0.00    -0.092 F 
ENDROOT
TORSDOF 0
ENDMDL
