MODEL 1
REMARK minimizedAffinity -2.84744263
REMARK minimizedRMSD -1
REMARK  0 active torsions:
REMARK  status: ('A' for Active; 'I' for Inactive)
ROOT
ATOM      1  C   UNL d   1       0.039  -2.387  -2.005  0.00  0.00     0.124 A 
ATOM      2  C1  UNL d   1      -0.329  -3.117  -0.884  0.00  0.00     0.062 A 
ATOM      3  C2  UNL d   1      -0.634  -2.465   0.308  0.00  0.00     0.162 A 
ATOM      4  C3  UNL d   1      -0.572  -1.074   0.384  0.00  0.00    -0.034 A 
ATOM      5  C4  UNL d   1      -0.200  -0.346  -0.748  0.00  0.00     0.162 A 
ATOM      6  C5  UNL d   1       0.103  -1.002  -1.936  0.00  0.00     0.062 A 
ATOM      7  F   UNL d   1       0.459  -0.295  -3.018  0.00  0.00    -0.097 F 
ATOM      8  F1  UNL d   1      -0.131   0.993  -0.709  0.00  0.00    -0.096 F 
ATOM      9  I   UNL d   1      -1.027  -0.095   2.163  0.00  0.00    -0.060 I 
ATOM     10  F2  UNL d   1      -0.987  -3.196   1.375  0.00  0.00    -0.096 F 
ATOM     11  F3  UNL d   1      -0.391  -4.455  -0.947  0.00  0.00    -0.097 F 
ATOM     12  F4  UNL d   1       0.333  -3.017  -3.150  0.00  0.00    -0.092 F 
ENDROOT
TORSDOF 0
ENDMDL
