MODEL 1
REMARK minimizedAffinity -1.28537142
REMARK minimizedRMSD -1
REMARK  0 active torsions:
REMARK  status: ('A' for Active; 'I' for Inactive)
ROOT
ATOM      1  C   UNL d   1       0.375  -2.409  -0.243  0.00  0.00     0.124 A 
ATOM      2  C1  UNL d   1      -0.224  -1.954   0.924  0.00  0.00     0.062 A 
ATOM      3  C2  UNL d   1      -0.438  -0.592   1.115  0.00  0.00     0.162 A 
ATOM      4  C3  UNL d   1      -0.055   0.325   0.137  0.00  0.00    -0.034 A 
ATOM      5  C4  UNL d   1       0.547  -0.140  -1.034  0.00  0.00     0.162 A 
ATOM      6  C5  UNL d   1       0.759  -1.502  -1.220  0.00  0.00     0.062 A 
ATOM      7  F   UNL d   1       1.338  -1.940  -2.348  0.00  0.00    -0.097 F 
ATOM      8  F1  UNL d   1       0.927   0.714  -1.995  0.00  0.00    -0.096 F 
ATOM      9  I   UNL d   1      -0.375   2.362   0.419  0.00  0.00    -0.060 I 
ATOM     10  F2  UNL d   1      -1.019  -0.181   2.252  0.00  0.00    -0.096 F 
ATOM     11  F3  UNL d   1      -0.595  -2.828   1.870  0.00  0.00    -0.097 F 
ATOM     12  F4  UNL d   1       0.582  -3.720  -0.424  0.00  0.00    -0.092 F 
ENDROOT
TORSDOF 0
ENDMDL
