MODEL 1
REMARK minimizedAffinity -1.61665487
REMARK minimizedRMSD -1
REMARK  0 active torsions:
REMARK  status: ('A' for Active; 'I' for Inactive)
ROOT
ATOM      1  C   UNL d   1      -0.832  -1.698   0.232  0.00  0.00     0.124 A 
ATOM      2  C1  UNL d   1       0.472  -1.929   0.647  0.00  0.00     0.062 A 
ATOM      3  C2  UNL d   1       1.354  -0.864   0.810  0.00  0.00     0.162 A 
ATOM      4  C3  UNL d   1       0.934   0.442   0.559  0.00  0.00    -0.034 A 
ATOM      5  C4  UNL d   1      -0.379   0.666   0.141  0.00  0.00     0.162 A 
ATOM      6  C5  UNL d   1      -1.256  -0.401  -0.021  0.00  0.00     0.062 A 
ATOM      7  F   UNL d   1      -2.516  -0.176  -0.422  0.00  0.00    -0.097 F 
ATOM      8  F1  UNL d   1      -0.815   1.910  -0.110  0.00  0.00    -0.096 F 
ATOM      9  I   UNL d   1       2.250   2.036   0.801  0.00  0.00    -0.060 I 
ATOM     10  F2  UNL d   1       2.608  -1.117   1.212  0.00  0.00    -0.096 F 
ATOM     11  F3  UNL d   1       0.884  -3.181   0.891  0.00  0.00    -0.097 F 
ATOM     12  F4  UNL d   1      -1.678  -2.724   0.075  0.00  0.00    -0.092 F 
ENDROOT
TORSDOF 0
ENDMDL
