MODEL 1
REMARK minimizedAffinity -1.45136619
REMARK minimizedRMSD -1
REMARK  0 active torsions:
REMARK  status: ('A' for Active; 'I' for Inactive)
ROOT
ATOM      1  C   UNL d   1      -0.204  -1.974   0.239  0.00  0.00     0.124 A 
ATOM      2  C1  UNL d   1      -0.956  -1.352   1.227  0.00  0.00     0.062 A 
ATOM      3  C2  UNL d   1      -0.800   0.010   1.472  0.00  0.00     0.162 A 
ATOM      4  C3  UNL d   1       0.111   0.759   0.727  0.00  0.00    -0.034 A 
ATOM      5  C4  UNL d   1       0.863   0.126  -0.264  0.00  0.00     0.162 A 
ATOM      6  C5  UNL d   1       0.704  -1.235  -0.505  0.00  0.00     0.062 A 
ATOM      7  F   UNL d   1       1.431  -1.834  -1.459  0.00  0.00    -0.097 F 
ATOM      8  F1  UNL d   1       1.748   0.817  -0.999  0.00  0.00    -0.096 F 
ATOM      9  I   UNL d   1       0.347   2.795   1.089  0.00  0.00    -0.060 I 
ATOM     10  F2  UNL d   1      -1.539   0.585   2.432  0.00  0.00    -0.096 F 
ATOM     11  F3  UNL d   1      -1.833  -2.064   1.948  0.00  0.00    -0.097 F 
ATOM     12  F4  UNL d   1      -0.356  -3.284   0.007  0.00  0.00    -0.092 F 
ENDROOT
TORSDOF 0
ENDMDL
