MODEL 1
REMARK minimizedAffinity 0.405018389
REMARK minimizedRMSD -1
REMARK  0 active torsions:
REMARK  status: ('A' for Active; 'I' for Inactive)
ROOT
ATOM      1  C   UNL d   1       1.732   3.288   0.502  0.00  0.00     0.124 A 
ATOM      2  C1  UNL d   1       0.365   3.055   0.548  0.00  0.00     0.062 A 
ATOM      3  C2  UNL d   1      -0.140   1.787   0.274  0.00  0.00     0.162 A 
ATOM      4  C3  UNL d   1       0.725   0.741  -0.049  0.00  0.00    -0.034 A 
ATOM      5  C4  UNL d   1       2.099   0.983  -0.094  0.00  0.00     0.162 A 
ATOM      6  C5  UNL d   1       2.598   2.252   0.181  0.00  0.00     0.062 A 
ATOM      7  F   UNL d   1       3.919   2.474   0.136  0.00  0.00    -0.097 F 
ATOM      8  F1  UNL d   1       2.958  -0.001  -0.401  0.00  0.00    -0.096 F 
ATOM      9  I   UNL d   1      -0.025  -1.156  -0.460  0.00  0.00    -0.060 I 
ATOM     10  F2  UNL d   1      -1.466   1.591   0.326  0.00  0.00    -0.096 F 
ATOM     11  F3  UNL d   1      -0.474   4.055   0.857  0.00  0.00    -0.097 F 
ATOM     12  F4  UNL d   1       2.214   4.509   0.766  0.00  0.00    -0.092 F 
ENDROOT
TORSDOF 0
ENDMDL
