MODEL 1
REMARK minimizedAffinity -3.14217925
REMARK minimizedRMSD -1
REMARK  0 active torsions:
REMARK  status: ('A' for Active; 'I' for Inactive)
ROOT
ATOM      1  C   UNL d   1      -0.526  -2.065  -0.331  0.00  0.00     0.124 A 
ATOM      2  C1  UNL d   1      -0.755  -1.542   0.934  0.00  0.00     0.062 A 
ATOM      3  C2  UNL d   1      -0.521  -0.194   1.187  0.00  0.00     0.162 A 
ATOM      4  C3  UNL d   1      -0.055   0.642   0.172  0.00  0.00    -0.034 A 
ATOM      5  C4  UNL d   1       0.174   0.108  -1.097  0.00  0.00     0.162 A 
ATOM      6  C5  UNL d   1      -0.062  -1.240  -1.345  0.00  0.00     0.062 A 
ATOM      7  F   UNL d   1       0.160  -1.744  -2.568  0.00  0.00    -0.097 F 
ATOM      8  F1  UNL d   1       0.622   0.883  -2.096  0.00  0.00    -0.096 F 
ATOM      9  I   UNL d   1       0.297   2.659   0.546  0.00  0.00    -0.060 I 
ATOM     10  F2  UNL d   1      -0.751   0.285   2.419  0.00  0.00    -0.096 F 
ATOM     11  F3  UNL d   1      -1.203  -2.338   1.916  0.00  0.00    -0.097 F 
ATOM     12  F4  UNL d   1      -0.752  -3.363  -0.571  0.00  0.00    -0.092 F 
ENDROOT
TORSDOF 0
ENDMDL
