MODEL 1
REMARK minimizedAffinity 0.21951212
REMARK minimizedRMSD -1
REMARK  0 active torsions:
REMARK  status: ('A' for Active; 'I' for Inactive)
ROOT
ATOM      1  C   UNL d   1      -1.086  -1.394   0.282  0.00  0.00     0.124 A 
ATOM      2  C1  UNL d   1      -1.554  -0.096   0.132  0.00  0.00     0.062 A 
ATOM      3  C2  UNL d   1      -0.658   0.964   0.028  0.00  0.00     0.162 A 
ATOM      4  C3  UNL d   1       0.717   0.730   0.073  0.00  0.00    -0.034 A 
ATOM      5  C4  UNL d   1       1.180  -0.578   0.225  0.00  0.00     0.162 A 
ATOM      6  C5  UNL d   1       0.280  -1.634   0.329  0.00  0.00     0.062 A 
ATOM      7  F   UNL d   1       0.734  -2.887   0.474  0.00  0.00    -0.097 F 
ATOM      8  F1  UNL d   1       2.495  -0.838   0.273  0.00  0.00    -0.096 F 
ATOM      9  I   UNL d   1       2.060   2.312  -0.081  0.00  0.00    -0.060 I 
ATOM     10  F2  UNL d   1      -1.138   2.208  -0.116  0.00  0.00    -0.096 F 
ATOM     11  F3  UNL d   1      -2.874   0.138   0.087  0.00  0.00    -0.097 F 
ATOM     12  F4  UNL d   1      -1.951  -2.412   0.382  0.00  0.00    -0.092 F 
ENDROOT
TORSDOF 0
ENDMDL
