MODEL 1
REMARK minimizedAffinity -2.13606906
REMARK minimizedRMSD -1
REMARK  1 active torsions:
REMARK  status: ('A' for Active; 'I' for Inactive)
REMARK    1  A    between atoms: C1_2  and  C2_3 
ROOT
ATOM      1  C2  UNL d   1      -0.972   1.373  -0.929  0.00  0.00    -0.077 A 
ATOM      2  C3  UNL d   1      -0.375   2.105  -1.964  0.00  0.00     0.002 A 
ATOM      3  C4  UNL d   1      -1.150   2.613  -3.008  0.00  0.00     0.002 A 
ATOM      4  C5  UNL d   1      -2.527   2.398  -3.024  0.00  0.00    -0.004 A 
ATOM      5  C6  UNL d   1      -3.130   1.670  -2.000  0.00  0.00     0.002 A 
ATOM      6  C7  UNL d   1      -2.356   1.160  -0.956  0.00  0.00     0.002 A 
ENDROOT
BRANCH   1   7
ATOM      7  C1  UNL d   1      -0.145   0.866   0.224  0.00  0.00     0.055 C 
ATOM      8  C   UNL d   1       1.131   0.195  -0.264  0.00  0.00     0.019 C 
ENDBRANCH   1   7
TORSDOF 1
ENDMDL
