MODEL 1
REMARK minimizedAffinity -3.66244817
REMARK minimizedRMSD -1
REMARK  1 active torsions:
REMARK  status: ('A' for Active; 'I' for Inactive)
REMARK    1  A    between atoms: C1_2  and  C2_3 
ROOT
ATOM      1  C2  UNL d   1      -1.324   1.543  -1.189  0.00  0.00    -0.077 A 
ATOM      2  C3  UNL d   1      -2.110   0.589  -1.849  0.00  0.00     0.002 A 
ATOM      3  C4  UNL d   1      -2.606   0.846  -3.129  0.00  0.00     0.002 A 
ATOM      4  C5  UNL d   1      -2.317   2.054  -3.760  0.00  0.00    -0.004 A 
ATOM      5  C6  UNL d   1      -1.538   3.010  -3.111  0.00  0.00     0.002 A 
ATOM      6  C7  UNL d   1      -1.042   2.756  -1.831  0.00  0.00     0.002 A 
ENDROOT
BRANCH   1   7
ATOM      7  C1  UNL d   1      -0.747   1.248   0.171  0.00  0.00     0.055 C 
ATOM      8  C   UNL d   1       0.227   0.080   0.118  0.00  0.00     0.019 C 
ENDBRANCH   1   7
TORSDOF 1
ENDMDL
