MODEL 1
REMARK minimizedAffinity -5.80142689
REMARK minimizedRMSD -1
REMARK  1 active torsions:
REMARK  status: ('A' for Active; 'I' for Inactive)
REMARK    1  A    between atoms: C1_2  and  C2_3 
ROOT
ATOM      1  C2  UNL d   1      -0.213   0.369   0.031  0.00  0.00    -0.077 A 
ATOM      2  C3  UNL d   1      -0.690  -0.738   0.746  0.00  0.00     0.002 A 
ATOM      3  C4  UNL d   1       0.168  -1.791   1.072  0.00  0.00     0.002 A 
ATOM      4  C5  UNL d   1       1.507  -1.745   0.690  0.00  0.00    -0.004 A 
ATOM      5  C6  UNL d   1       1.990  -0.649  -0.024  0.00  0.00     0.002 A 
ATOM      6  C7  UNL d   1       1.135   0.404  -0.351  0.00  0.00     0.002 A 
ENDROOT
BRANCH   1   7
ATOM      7  C1  UNL d   1      -1.124   1.529  -0.278  0.00  0.00     0.055 C 
ATOM      8  C   UNL d   1      -1.739   1.395  -1.664  0.00  0.00     0.019 C 
ENDBRANCH   1   7
TORSDOF 1
ENDMDL
