MODEL 1
REMARK minimizedAffinity -2.97948933
REMARK minimizedRMSD -1
REMARK  1 active torsions:
REMARK  status: ('A' for Active; 'I' for Inactive)
REMARK    1  A    between atoms: C1_2  and  C2_3 
ROOT
ATOM      1  C2  UNL d   1      -0.315   1.263  -0.303  0.00  0.00    -0.077 A 
ATOM      2  C3  UNL d   1      -0.706   0.989  -1.621  0.00  0.00     0.002 A 
ATOM      3  C4  UNL d   1      -1.962   1.386  -2.082  0.00  0.00     0.002 A 
ATOM      4  C5  UNL d   1      -2.835   2.064  -1.234  0.00  0.00    -0.004 A 
ATOM      5  C6  UNL d   1      -2.457   2.340   0.079  0.00  0.00     0.002 A 
ATOM      6  C7  UNL d   1      -1.202   1.942   0.542  0.00  0.00     0.002 A 
ENDROOT
BRANCH   1   7
ATOM      7  C1  UNL d   1       1.059   0.879   0.182  0.00  0.00     0.055 C 
ATOM      8  C   UNL d   1       1.210  -0.632   0.275  0.00  0.00     0.019 C 
ENDBRANCH   1   7
TORSDOF 1
ENDMDL
