MODEL 1
REMARK minimizedAffinity -4.53425694
REMARK minimizedRMSD -1
REMARK  1 active torsions:
REMARK  status: ('A' for Active; 'I' for Inactive)
REMARK    1  A    between atoms: C1_2  and  C2_3 
ROOT
ATOM      1  C2  UNL d   1       0.219   0.082  -0.239  0.00  0.00    -0.077 A 
ATOM      2  C3  UNL d   1       0.340  -0.956   0.695  0.00  0.00     0.002 A 
ATOM      3  C4  UNL d   1       1.511  -1.713   0.762  0.00  0.00     0.002 A 
ATOM      4  C5  UNL d   1       2.571  -1.438  -0.100  0.00  0.00    -0.004 A 
ATOM      5  C6  UNL d   1       2.459  -0.409  -1.034  0.00  0.00     0.002 A 
ATOM      6  C7  UNL d   1       1.289   0.348  -1.103  0.00  0.00     0.002 A 
ENDROOT
BRANCH   1   7
ATOM      7  C1  UNL d   1      -1.025   0.932  -0.280  0.00  0.00     0.055 C 
ATOM      8  C   UNL d   1      -1.210   1.576  -1.646  0.00  0.00     0.019 C 
ENDBRANCH   1   7
TORSDOF 1
ENDMDL
