MODEL 1
REMARK minimizedAffinity -4.2228899
REMARK minimizedRMSD -1
REMARK  1 active torsions:
REMARK  status: ('A' for Active; 'I' for Inactive)
REMARK    1  A    between atoms: C1_2  and  C2_3 
ROOT
ATOM      1  C2  UNL d   1      -0.800   0.977  -1.240  0.00  0.00    -0.077 A 
ATOM      2  C3  UNL d   1       0.147   1.840  -0.669  0.00  0.00     0.002 A 
ATOM      3  C4  UNL d   1       1.283   1.326  -0.041  0.00  0.00     0.002 A 
ATOM      4  C5  UNL d   1       1.486  -0.052   0.018  0.00  0.00    -0.004 A 
ATOM      5  C6  UNL d   1       0.549  -0.918  -0.545  0.00  0.00     0.002 A 
ATOM      6  C7  UNL d   1      -0.588  -0.406  -1.172  0.00  0.00     0.002 A 
ENDROOT
BRANCH   1   7
ATOM      7  C1  UNL d   1      -2.001   1.531  -1.960  0.00  0.00     0.055 C 
ATOM      8  C   UNL d   1      -1.691   1.803  -3.425  0.00  0.00     0.019 C 
ENDBRANCH   1   7
TORSDOF 1
ENDMDL
