MODEL 1
REMARK minimizedAffinity -4.40287256
REMARK minimizedRMSD -1
REMARK  1 active torsions:
REMARK  status: ('A' for Active; 'I' for Inactive)
REMARK    1  A    between atoms: C1_2  and  C2_3 
ROOT
ATOM      1  C2  UNL d   1      -1.433   0.704  -1.339  0.00  0.00    -0.077 A 
ATOM      2  C3  UNL d   1      -0.768   1.488  -0.386  0.00  0.00     0.002 A 
ATOM      3  C4  UNL d   1       0.402   1.024   0.218  0.00  0.00     0.002 A 
ATOM      4  C5  UNL d   1       0.919  -0.223  -0.127  0.00  0.00    -0.004 A 
ATOM      5  C6  UNL d   1       0.263  -1.012  -1.072  0.00  0.00     0.002 A 
ATOM      6  C7  UNL d   1      -0.907  -0.550  -1.676  0.00  0.00     0.002 A 
ENDROOT
BRANCH   1   7
ATOM      7  C1  UNL d   1      -2.668   1.223  -2.028  0.00  0.00     0.055 C 
ATOM      8  C   UNL d   1      -2.321   2.295  -3.051  0.00  0.00     0.019 C 
ENDBRANCH   1   7
TORSDOF 1
ENDMDL
