MODEL 1
REMARK minimizedAffinity -4.19961071
REMARK minimizedRMSD -1
REMARK  1 active torsions:
REMARK  status: ('A' for Active; 'I' for Inactive)
REMARK    1  A    between atoms: C1_2  and  C2_3 
ROOT
ATOM      1  C2  UNL d   1      -1.053   3.115  -3.589  0.00  0.00    -0.077 A 
ATOM      2  C3  UNL d   1      -0.771   3.242  -2.222  0.00  0.00     0.002 A 
ATOM      3  C4  UNL d   1      -1.412   2.424  -1.289  0.00  0.00     0.002 A 
ATOM      4  C5  UNL d   1      -2.336   1.472  -1.714  0.00  0.00    -0.004 A 
ATOM      5  C6  UNL d   1      -2.625   1.339  -3.072  0.00  0.00     0.002 A 
ATOM      6  C7  UNL d   1      -1.985   2.156  -4.005  0.00  0.00     0.002 A 
ENDROOT
BRANCH   1   7
ATOM      7  C1  UNL d   1      -0.326   3.962  -4.601  0.00  0.00     0.055 C 
ATOM      8  C   UNL d   1       0.479   5.063  -3.925  0.00  0.00     0.019 C 
ENDBRANCH   1   7
TORSDOF 1
ENDMDL
