MODEL 1
REMARK minimizedAffinity -1.76747751
REMARK minimizedRMSD -1
REMARK  1 active torsions:
REMARK  status: ('A' for Active; 'I' for Inactive)
REMARK    1  A    between atoms: C1_2  and  C2_3 
ROOT
ATOM      1  C2  UNL d   1      -1.227   3.216  -3.852  0.00  0.00    -0.077 A 
ATOM      2  C3  UNL d   1      -2.370   2.472  -4.176  0.00  0.00     0.002 A 
ATOM      3  C4  UNL d   1      -3.006   1.696  -3.205  0.00  0.00     0.002 A 
ATOM      4  C5  UNL d   1      -2.510   1.661  -1.904  0.00  0.00    -0.004 A 
ATOM      5  C6  UNL d   1      -1.373   2.395  -1.572  0.00  0.00     0.002 A 
ATOM      6  C7  UNL d   1      -0.734   3.170  -2.541  0.00  0.00     0.002 A 
ENDROOT
BRANCH   1   7
ATOM      7  C1  UNL d   1      -0.567   4.092  -4.885  0.00  0.00     0.055 C 
ATOM      8  C   UNL d   1       0.092   5.304  -4.244  0.00  0.00     0.019 C 
ENDBRANCH   1   7
TORSDOF 1
ENDMDL
