MODEL 1
REMARK minimizedAffinity -0.498587221
REMARK minimizedRMSD -1
REMARK  3 active torsions:
REMARK  status: ('A' for Active; 'I' for Inactive)
REMARK    1  A    between atoms: C3'_2  and  C2'_3 
REMARK    2  A    between atoms: C2'_3  and  C1'_4 
REMARK    3  A    between atoms: C1'_4  and  C1_5 
ROOT
ATOM      1  C1  N4B d   1       0.499  -0.051   0.438  0.00  0.00    -0.075 A 
ATOM      2  C2  N4B d   1       1.074  -1.177   1.068  0.00  0.00     0.002 A 
ATOM      3  C3  N4B d   1       0.275  -2.075   1.732  0.00  0.00     0.002 A 
ATOM      4  C4  N4B d   1      -1.094  -1.860   1.794  0.00  0.00    -0.004 A 
ATOM      5  C5  N4B d   1      -1.645  -0.784   1.161  0.00  0.00     0.002 A 
ATOM      6  C6  N4B d   1      -0.854   0.125   0.487  0.00  0.00     0.002 A 
ENDROOT
BRANCH   1   7
ATOM      7  C1' N4B d   1       1.340   1.004  -0.226  0.00  0.00     0.057 C 
BRANCH   7   8
ATOM      8  C2' N4B d   1       2.366   1.529   0.774  0.00  0.00     0.009 C 
BRANCH   8   9
ATOM      9  C3' N4B d   1       2.312   3.041   0.903  0.00  0.00     0.004 C 
ATOM     10  C4' N4B d   1       2.559   3.514   2.304  0.00  0.00     0.003 C 
ENDBRANCH   8   9
ENDBRANCH   7   8
ENDBRANCH   1   7
TORSDOF 3
ENDMDL
