MODEL 1
REMARK minimizedAffinity -4.47823763
REMARK minimizedRMSD -1
REMARK  3 active torsions:
REMARK  status: ('A' for Active; 'I' for Inactive)
REMARK    1  A    between atoms: C3'_2  and  C2'_3 
REMARK    2  A    between atoms: C2'_3  and  C1'_4 
REMARK    3  A    between atoms: C1'_4  and  C1_5 
ROOT
ATOM      1  C1  N4B d   1      -0.123  -0.301   0.081  0.00  0.00    -0.075 A 
ATOM      2  C2  N4B d   1      -0.924   0.122  -1.003  0.00  0.00     0.002 A 
ATOM      3  C3  N4B d   1      -2.243  -0.252  -1.069  0.00  0.00     0.002 A 
ATOM      4  C4  N4B d   1      -2.778  -1.060  -0.077  0.00  0.00    -0.004 A 
ATOM      5  C5  N4B d   1      -2.005  -1.443   0.980  0.00  0.00     0.002 A 
ATOM      6  C6  N4B d   1      -0.678  -1.071   1.061  0.00  0.00     0.002 A 
ENDROOT
BRANCH   1   7
ATOM      7  C1' N4B d   1       1.346   0.012   0.152  0.00  0.00     0.057 C 
BRANCH   7   8
ATOM      8  C2' N4B d   1       1.572   1.133   1.162  0.00  0.00     0.009 C 
BRANCH   8   9
ATOM      9  C3' N4B d   1       2.675   2.080   0.723  0.00  0.00     0.004 C 
ATOM     10  C4' N4B d   1       2.394   3.507   1.088  0.00  0.00     0.003 C 
ENDBRANCH   8   9
ENDBRANCH   7   8
ENDBRANCH   1   7
TORSDOF 3
ENDMDL
