MODEL 1
REMARK minimizedAffinity -4.29713631
REMARK minimizedRMSD -1
REMARK  3 active torsions:
REMARK  status: ('A' for Active; 'I' for Inactive)
REMARK    1  A    between atoms: C3'_2  and  C2'_3 
REMARK    2  A    between atoms: C2'_3  and  C1'_4 
REMARK    3  A    between atoms: C1'_4  and  C1_5 
ROOT
ATOM      1  C1  N4B d   1       0.113  -0.090  -0.195  0.00  0.00    -0.075 A 
ATOM      2  C2  N4B d   1      -0.622  -0.655   0.870  0.00  0.00     0.002 A 
ATOM      3  C3  N4B d   1      -1.955  -0.944   0.708  0.00  0.00     0.002 A 
ATOM      4  C4  N4B d   1      -2.576  -0.661  -0.500  0.00  0.00    -0.004 A 
ATOM      5  C5  N4B d   1      -1.853  -0.139  -1.532  0.00  0.00     0.002 A 
ATOM      6  C6  N4B d   1      -0.512   0.153  -1.384  0.00  0.00     0.002 A 
ENDROOT
BRANCH   1   7
ATOM      7  C1' N4B d   1       1.551   0.322  -0.037  0.00  0.00     0.057 C 
BRANCH   7   8
ATOM      8  C2' N4B d   1       1.645   1.412   1.026  0.00  0.00     0.009 C 
BRANCH   8   9
ATOM      9  C3' N4B d   1       2.678   2.467   0.668  0.00  0.00     0.004 C 
ATOM     10  C4' N4B d   1       2.457   3.764   1.388  0.00  0.00     0.003 C 
ENDBRANCH   8   9
ENDBRANCH   7   8
ENDBRANCH   1   7
TORSDOF 3
ENDMDL
