MODEL 1
REMARK minimizedAffinity -4.44986296
REMARK minimizedRMSD -1
REMARK  3 active torsions:
REMARK  status: ('A' for Active; 'I' for Inactive)
REMARK    1  A    between atoms: C3'_2  and  C2'_3 
REMARK    2  A    between atoms: C2'_3  and  C1'_4 
REMARK    3  A    between atoms: C1'_4  and  C1_5 
ROOT
ATOM      1  C1  N4B d   1      -0.135   0.299   0.094  0.00  0.00    -0.075 A 
ATOM      2  C2  N4B d   1      -0.173  -0.054  -1.273  0.00  0.00     0.002 A 
ATOM      3  C3  N4B d   1      -1.372  -0.356  -1.871  0.00  0.00     0.002 A 
ATOM      4  C4  N4B d   1      -2.538  -0.330  -1.120  0.00  0.00    -0.004 A 
ATOM      5  C5  N4B d   1      -2.496   0.037   0.193  0.00  0.00     0.002 A 
ATOM      6  C6  N4B d   1      -1.299   0.347   0.806  0.00  0.00     0.002 A 
ENDROOT
BRANCH   1   7
ATOM      7  C1' N4B d   1       1.162   0.554   0.813  0.00  0.00     0.057 C 
BRANCH   7   8
ATOM      8  C2' N4B d   1       2.042   1.455  -0.048  0.00  0.00     0.009 C 
BRANCH   8   9
ATOM      9  C3' N4B d   1       2.248   2.821   0.585  0.00  0.00     0.004 C 
ATOM     10  C4' N4B d   1       2.136   2.791   2.080  0.00  0.00     0.003 C 
ENDBRANCH   8   9
ENDBRANCH   7   8
ENDBRANCH   1   7
TORSDOF 3
ENDMDL
