MODEL 1
REMARK minimizedAffinity -2.74251962
REMARK minimizedRMSD -1
REMARK  3 active torsions:
REMARK  status: ('A' for Active; 'I' for Inactive)
REMARK    1  A    between atoms: C3'_2  and  C2'_3 
REMARK    2  A    between atoms: C2'_3  and  C1'_4 
REMARK    3  A    between atoms: C1'_4  and  C1_5 
ROOT
ATOM      1  C1  N4B d   1      -0.205  -0.064  -0.118  0.00  0.00    -0.075 A 
ATOM      2  C2  N4B d   1      -0.863  -0.378  -1.327  0.00  0.00     0.002 A 
ATOM      3  C3  N4B d   1      -2.230  -0.517  -1.349  0.00  0.00     0.002 A 
ATOM      4  C4  N4B d   1      -2.953  -0.366  -0.176  0.00  0.00    -0.004 A 
ATOM      5  C5  N4B d   1      -2.312  -0.037   0.983  0.00  0.00     0.002 A 
ATOM      6  C6  N4B d   1      -0.940   0.110   1.019  0.00  0.00     0.002 A 
ENDROOT
BRANCH   1   7
ATOM      7  C1' N4B d   1       1.294   0.014  -0.027  0.00  0.00     0.057 C 
BRANCH   7   8
ATOM      8  C2' N4B d   1       1.683   1.232   0.805  0.00  0.00     0.009 C 
BRANCH   8   9
ATOM      9  C3' N4B d   1       2.605   2.169   0.043  0.00  0.00     0.004 C 
ATOM     10  C4' N4B d   1       2.370   3.613   0.375  0.00  0.00     0.003 C 
ENDBRANCH   8   9
ENDBRANCH   7   8
ENDBRANCH   1   7
TORSDOF 3
ENDMDL
