MODEL 1
REMARK minimizedAffinity -4.3293891
REMARK minimizedRMSD -1
REMARK  3 active torsions:
REMARK  status: ('A' for Active; 'I' for Inactive)
REMARK    1  A    between atoms: C3'_2  and  C2'_3 
REMARK    2  A    between atoms: C2'_3  and  C1'_4 
REMARK    3  A    between atoms: C1'_4  and  C1_5 
ROOT
ATOM      1  C1  N4B d   1       0.159  -0.321   0.052  0.00  0.00    -0.075 A 
ATOM      2  C2  N4B d   1      -0.701  -0.081  -1.042  0.00  0.00     0.002 A 
ATOM      3  C3  N4B d   1      -1.989  -0.558  -1.020  0.00  0.00     0.002 A 
ATOM      4  C4  N4B d   1      -2.431  -1.290   0.071  0.00  0.00    -0.004 A 
ATOM      5  C5  N4B d   1      -1.602  -1.496   1.135  0.00  0.00     0.002 A 
ATOM      6  C6  N4B d   1      -0.306  -1.020   1.129  0.00  0.00     0.002 A 
ENDROOT
BRANCH   1   7
ATOM      7  C1' N4B d   1       1.601   0.106   0.037  0.00  0.00     0.057 C 
BRANCH   7   8
ATOM      8  C2' N4B d   1       1.847   1.080   1.186  0.00  0.00     0.009 C 
BRANCH   8   9
ATOM      9  C3' N4B d   1       2.877   2.137   0.824  0.00  0.00     0.004 C 
ATOM     10  C4' N4B d   1       2.966   3.233   1.844  0.00  0.00     0.003 C 
ENDBRANCH   8   9
ENDBRANCH   7   8
ENDBRANCH   1   7
TORSDOF 3
ENDMDL
