MODEL 1
REMARK minimizedAffinity -4.66799545
REMARK minimizedRMSD -1
REMARK  3 active torsions:
REMARK  status: ('A' for Active; 'I' for Inactive)
REMARK    1  A    between atoms: C3'_2  and  C2'_3 
REMARK    2  A    between atoms: C2'_3  and  C1'_4 
REMARK    3  A    between atoms: C1'_4  and  C1_5 
ROOT
ATOM      1  C1  N4B d   1       0.104  -0.288   0.015  0.00  0.00    -0.075 A 
ATOM      2  C2  N4B d   1      -0.615  -1.221  -0.764  0.00  0.00     0.002 A 
ATOM      3  C3  N4B d   1      -1.982  -1.126  -0.862  0.00  0.00     0.002 A 
ATOM      4  C4  N4B d   1      -2.650  -0.121  -0.178  0.00  0.00    -0.004 A 
ATOM      5  C5  N4B d   1      -1.946   0.792   0.552  0.00  0.00     0.002 A 
ATOM      6  C6  N4B d   1      -0.572   0.710   0.656  0.00  0.00     0.002 A 
ENDROOT
BRANCH   1   7
ATOM      7  C1' N4B d   1       1.589  -0.402   0.222  0.00  0.00     0.057 C 
BRANCH   7   8
ATOM      8  C2' N4B d   1       2.082   0.814   1.000  0.00  0.00     0.009 C 
BRANCH   8   9
ATOM      9  C3' N4B d   1       2.975   1.706   0.155  0.00  0.00     0.004 C 
ATOM     10  C4' N4B d   1       2.449   3.105   0.032  0.00  0.00     0.003 C 
ENDBRANCH   8   9
ENDBRANCH   7   8
ENDBRANCH   1   7
TORSDOF 3
ENDMDL
