MODEL 1
REMARK minimizedAffinity -4.17410278
REMARK minimizedRMSD -1
REMARK  3 active torsions:
REMARK  status: ('A' for Active; 'I' for Inactive)
REMARK    1  A    between atoms: C3'_2  and  C2'_3 
REMARK    2  A    between atoms: C2'_3  and  C1'_4 
REMARK    3  A    between atoms: C1'_4  and  C1_5 
ROOT
ATOM      1  C1  N4B d   1       0.230  -0.113   0.199  0.00  0.00    -0.075 A 
ATOM      2  C2  N4B d   1      -0.113  -0.111  -1.170  0.00  0.00     0.002 A 
ATOM      3  C3  N4B d   1      -1.386  -0.451  -1.560  0.00  0.00     0.002 A 
ATOM      4  C4  N4B d   1      -2.322  -0.813  -0.603  0.00  0.00    -0.004 A 
ATOM      5  C5  N4B d   1      -1.990  -0.787   0.720  0.00  0.00     0.002 A 
ATOM      6  C6  N4B d   1      -0.716  -0.444   1.126  0.00  0.00     0.002 A 
ENDROOT
BRANCH   1   7
ATOM      7  C1' N4B d   1       1.632   0.168   0.667  0.00  0.00     0.057 C 
BRANCH   7   8
ATOM      8  C2' N4B d   1       2.224   1.295  -0.174  0.00  0.00     0.009 C 
BRANCH   8   9
ATOM      9  C3' N4B d   1       2.864   2.370   0.686  0.00  0.00     0.004 C 
ATOM     10  C4' N4B d   1       2.619   2.165   2.151  0.00  0.00     0.003 C 
ENDBRANCH   8   9
ENDBRANCH   7   8
ENDBRANCH   1   7
TORSDOF 3
ENDMDL
