MODEL 1
REMARK minimizedAffinity -5.2983532
REMARK minimizedRMSD -1
REMARK  3 active torsions:
REMARK  status: ('A' for Active; 'I' for Inactive)
REMARK    1  A    between atoms: C3'_2  and  C2'_3 
REMARK    2  A    between atoms: C2'_3  and  C1'_4 
REMARK    3  A    between atoms: C1'_4  and  C1_5 
ROOT
ATOM      1  C1  N4B d   1      -0.539   0.221  -0.447  0.00  0.00    -0.075 A 
ATOM      2  C2  N4B d   1      -1.187   0.052   0.797  0.00  0.00     0.002 A 
ATOM      3  C3  N4B d   1      -2.438  -0.512   0.848  0.00  0.00     0.002 A 
ATOM      4  C4  N4B d   1      -3.066  -0.896  -0.327  0.00  0.00    -0.004 A 
ATOM      5  C5  N4B d   1      -2.423  -0.752  -1.522  0.00  0.00     0.002 A 
ATOM      6  C6  N4B d   1      -1.164  -0.191  -1.588  0.00  0.00     0.002 A 
ENDROOT
BRANCH   1   7
ATOM      7  C1' N4B d   1       0.792   0.912  -0.561  0.00  0.00     0.057 C 
BRANCH   7   8
ATOM      8  C2' N4B d   1       1.527   0.807   0.772  0.00  0.00     0.009 C 
BRANCH   8   9
ATOM      9  C3' N4B d   1       2.663   1.810   0.875  0.00  0.00     0.004 C 
ATOM     10  C4' N4B d   1       2.179   3.219   1.046  0.00  0.00     0.003 C 
ENDBRANCH   8   9
ENDBRANCH   7   8
ENDBRANCH   1   7
TORSDOF 3
ENDMDL
