MODEL 1
REMARK minimizedAffinity 7.04082298
REMARK minimizedRMSD -1
REMARK  1 active torsions:
REMARK  status: ('A' for Active; 'I' for Inactive)
REMARK    1  A    between atoms: C1_2  and  C2_3 
ROOT
ATOM      1  C2  UNL d   1       1.893   2.376   1.016  0.00  0.00    -0.076 A 
ATOM      2  C3  UNL d   1       2.401   1.308   1.777  0.00  0.00     0.004 A 
ATOM      3  C4  UNL d   1       3.626   1.414   2.433  0.00  0.00    -0.003 A 
ATOM      4  C5  UNL d   1       4.363   2.589   2.340  0.00  0.00     0.000 A 
ATOM      5  C6  UNL d   1       3.867   3.664   1.604  0.00  0.00     0.000 A 
ATOM      6  C7  UNL d   1       2.626   3.580   0.950  0.00  0.00    -0.073 A 
ATOM      7  C8  UNL d   1       2.142   4.769   0.165  0.00  0.00     0.078 C 
ENDROOT
BRANCH   1   8
ATOM      8  C1  UNL d   1       0.572   2.194   0.304  0.00  0.00     0.053 C 
ATOM      9  C   UNL d   1       0.686   1.294  -0.916  0.00  0.00     0.018 C 
ENDBRANCH   1   8
TORSDOF 1
ENDMDL
