MODEL 1
REMARK minimizedAffinity -0.0878364071
REMARK minimizedRMSD -1
REMARK  1 active torsions:
REMARK  status: ('A' for Active; 'I' for Inactive)
REMARK    1  A    between atoms: C1_2  and  C2_3 
ROOT
ATOM      1  C2  UNL d   1       1.394   1.745  -2.189  0.00  0.00    -0.076 A 
ATOM      2  C3  UNL d   1       2.009   1.854  -3.448  0.00  0.00     0.004 A 
ATOM      3  C4  UNL d   1       2.795   2.959  -3.770  0.00  0.00    -0.003 A 
ATOM      4  C5  UNL d   1       2.979   3.973  -2.836  0.00  0.00     0.000 A 
ATOM      5  C6  UNL d   1       2.392   3.873  -1.576  0.00  0.00     0.000 A 
ATOM      6  C7  UNL d   1       1.610   2.758  -1.230  0.00  0.00    -0.073 A 
ATOM      7  C8  UNL d   1       0.995   2.704   0.142  0.00  0.00     0.078 C 
ENDROOT
BRANCH   1   8
ATOM      8  C1  UNL d   1       0.531   0.536  -1.907  0.00  0.00     0.053 C 
ATOM      9  C   UNL d   1       1.352  -0.718  -1.646  0.00  0.00     0.018 C 
ENDBRANCH   1   8
TORSDOF 1
ENDMDL
