MODEL 1
REMARK minimizedAffinity 3.20684361
REMARK minimizedRMSD -1
REMARK  1 active torsions:
REMARK  status: ('A' for Active; 'I' for Inactive)
REMARK    1  A    between atoms: C1_2  and  C2_3 
ROOT
ATOM      1  C2  UNL d   1       5.198   1.625   3.874  0.00  0.00    -0.076 A 
ATOM      2  C3  UNL d   1       5.704   1.826   5.170  0.00  0.00     0.004 A 
ATOM      3  C4  UNL d   1       6.000   0.746   6.000  0.00  0.00    -0.003 A 
ATOM      4  C5  UNL d   1       5.794  -0.552   5.548  0.00  0.00     0.000 A 
ATOM      5  C6  UNL d   1       5.309  -0.771   4.259  0.00  0.00     0.000 A 
ATOM      6  C7  UNL d   1       5.022   0.306   3.403  0.00  0.00    -0.073 A 
ATOM      7  C8  UNL d   1       4.495   0.013   2.025  0.00  0.00     0.078 C 
ENDROOT
BRANCH   1   8
ATOM      8  C1  UNL d   1       4.870   2.835   3.028  0.00  0.00     0.053 C 
ATOM      9  C   UNL d   1       3.379   3.134   2.992  0.00  0.00     0.018 C 
ENDBRANCH   1   8
TORSDOF 1
ENDMDL
