MODEL 1
REMARK minimizedAffinity 12.304904
REMARK minimizedRMSD -1
REMARK  1 active torsions:
REMARK  status: ('A' for Active; 'I' for Inactive)
REMARK    1  A    between atoms: C1_2  and  C2_3 
ROOT
ATOM      1  C2  UNL d   1       1.904   1.531  -3.442  0.00  0.00    -0.076 A 
ATOM      2  C3  UNL d   1       1.800   0.853  -4.668  0.00  0.00     0.004 A 
ATOM      3  C4  UNL d   1       2.437   1.335  -5.811  0.00  0.00    -0.003 A 
ATOM      4  C5  UNL d   1       3.190   2.502  -5.744  0.00  0.00     0.000 A 
ATOM      5  C6  UNL d   1       3.318   3.178  -4.531  0.00  0.00     0.000 A 
ATOM      6  C7  UNL d   1       2.695   2.697  -3.367  0.00  0.00    -0.073 A 
ATOM      7  C8  UNL d   1       2.862   3.470  -2.087  0.00  0.00     0.078 C 
ENDROOT
BRANCH   1   8
ATOM      8  C1  UNL d   1       1.168   0.976  -2.243  0.00  0.00     0.053 C 
ATOM      9  C   UNL d   1       1.695  -0.384  -1.814  0.00  0.00     0.018 C 
ENDBRANCH   1   8
TORSDOF 1
ENDMDL
