MODEL 1
REMARK minimizedAffinity 10.2296324
REMARK minimizedRMSD -1
REMARK  1 active torsions:
REMARK  status: ('A' for Active; 'I' for Inactive)
REMARK    1  A    between atoms: C1_2  and  C2_3 
ROOT
ATOM      1  C2  UNL d   1       3.302   1.018  -4.060  0.00  0.00    -0.076 A 
ATOM      2  C3  UNL d   1       3.408   0.355  -2.825  0.00  0.00     0.004 A 
ATOM      3  C4  UNL d   1       2.283   0.130  -2.032  0.00  0.00    -0.003 A 
ATOM      4  C5  UNL d   1       1.034   0.565  -2.462  0.00  0.00     0.000 A 
ATOM      5  C6  UNL d   1       0.908   1.209  -3.693  0.00  0.00     0.000 A 
ATOM      6  C7  UNL d   1       2.030   1.429  -4.511  0.00  0.00    -0.073 A 
ATOM      7  C8  UNL d   1       1.837   2.134  -5.826  0.00  0.00     0.078 C 
ENDROOT
BRANCH   1   8
ATOM      8  C1  UNL d   1       4.560   1.258  -4.863  0.00  0.00     0.053 C 
ATOM      9  C   UNL d   1       5.814   0.799  -4.134  0.00  0.00     0.018 C 
ENDBRANCH   1   8
TORSDOF 1
ENDMDL
