MODEL 1
REMARK minimizedAffinity 2.65762019
REMARK minimizedRMSD -1
REMARK  1 active torsions:
REMARK  status: ('A' for Active; 'I' for Inactive)
REMARK    1  A    between atoms: C1_2  and  C2_3 
ROOT
ATOM      1  C2  UNL d   1       0.056  -0.169  -1.308  0.00  0.00    -0.076 A 
ATOM      2  C3  UNL d   1      -1.269   0.177  -0.990  0.00  0.00     0.004 A 
ATOM      3  C4  UNL d   1      -2.054  -0.649  -0.187  0.00  0.00    -0.003 A 
ATOM      4  C5  UNL d   1      -1.526  -1.834   0.312  0.00  0.00     0.000 A 
ATOM      5  C6  UNL d   1      -0.208  -2.185   0.021  0.00  0.00     0.000 A 
ATOM      6  C7  UNL d   1       0.602  -1.355  -0.773  0.00  0.00    -0.073 A 
ATOM      7  C8  UNL d   1       2.015  -1.785  -1.059  0.00  0.00     0.078 C 
ENDROOT
BRANCH   1   8
ATOM      8  C1  UNL d   1       0.850   0.753  -2.205  0.00  0.00     0.053 C 
ATOM      9  C   UNL d   1       1.239   0.094  -3.519  0.00  0.00     0.018 C 
ENDBRANCH   1   8
TORSDOF 1
ENDMDL
