MODEL 1
REMARK minimizedAffinity 8.19293976
REMARK minimizedRMSD -1
REMARK  1 active torsions:
REMARK  status: ('A' for Active; 'I' for Inactive)
REMARK    1  A    between atoms: C1_2  and  C2_3 
ROOT
ATOM      1  C2  UNL d   1       0.416  -0.750  -0.857  0.00  0.00    -0.076 A 
ATOM      2  C3  UNL d   1      -0.712  -0.989  -0.053  0.00  0.00     0.004 A 
ATOM      3  C4  UNL d   1      -0.999  -2.269   0.418  0.00  0.00    -0.003 A 
ATOM      4  C5  UNL d   1      -0.162  -3.331   0.093  0.00  0.00     0.000 A 
ATOM      5  C6  UNL d   1       0.971  -3.109  -0.688  0.00  0.00     0.000 A 
ATOM      6  C7  UNL d   1       1.284  -1.822  -1.158  0.00  0.00    -0.073 A 
ATOM      7  C8  UNL d   1       2.516  -1.640  -2.002  0.00  0.00     0.078 C 
ENDROOT
BRANCH   1   8
ATOM      8  C1  UNL d   1       0.661   0.654  -1.361  0.00  0.00     0.053 C 
ATOM      9  C   UNL d   1       0.988   1.627  -0.239  0.00  0.00     0.018 C 
ENDBRANCH   1   8
TORSDOF 1
ENDMDL
