MODEL 1
REMARK minimizedAffinity 12.1490049
REMARK minimizedRMSD -1
REMARK  1 active torsions:
REMARK  status: ('A' for Active; 'I' for Inactive)
REMARK    1  A    between atoms: C1_2  and  C2_3 
ROOT
ATOM      1  C2  UNL d   1       0.192  -0.672  -0.280  0.00  0.00    -0.076 A 
ATOM      2  C3  UNL d   1       1.276  -1.194  -1.007  0.00  0.00     0.004 A 
ATOM      3  C4  UNL d   1       1.646  -2.532  -0.881  0.00  0.00    -0.003 A 
ATOM      4  C5  UNL d   1       0.937  -3.370  -0.028  0.00  0.00     0.000 A 
ATOM      5  C6  UNL d   1      -0.152  -2.873   0.688  0.00  0.00     0.000 A 
ATOM      6  C7  UNL d   1      -0.548  -1.531   0.560  0.00  0.00    -0.073 A 
ATOM      7  C8  UNL d   1      -1.726  -1.047   1.360  0.00  0.00     0.078 C 
ENDROOT
BRANCH   1   8
ATOM      8  C1  UNL d   1      -0.145   0.794  -0.436  0.00  0.00     0.053 C 
ATOM      9  C   UNL d   1       1.007   1.703  -0.037  0.00  0.00     0.018 C 
ENDBRANCH   1   8
TORSDOF 1
ENDMDL
