MODEL 1
REMARK minimizedAffinity 2.24675465
REMARK minimizedRMSD -1
REMARK  1 active torsions:
REMARK  status: ('A' for Active; 'I' for Inactive)
REMARK    1  A    between atoms: C1_2  and  C2_3 
ROOT
ATOM      1  C2  UNL d   1       5.785  -0.098   4.826  0.00  0.00    -0.076 A 
ATOM      2  C3  UNL d   1       5.999   0.645   5.999  0.00  0.00     0.004 A 
ATOM      3  C4  UNL d   1       5.887   2.035   5.999  0.00  0.00    -0.003 A 
ATOM      4  C5  UNL d   1       5.558   2.703   4.825  0.00  0.00     0.000 A 
ATOM      5  C6  UNL d   1       5.324   1.980   3.656  0.00  0.00     0.000 A 
ATOM      6  C7  UNL d   1       5.417   0.578   3.643  0.00  0.00    -0.073 A 
ATOM      7  C8  UNL d   1       5.161  -0.151   2.352  0.00  0.00     0.078 C 
ENDROOT
BRANCH   1   8
ATOM      8  C1  UNL d   1       5.947  -1.600   4.881  0.00  0.00     0.053 C 
ATOM      9  C   UNL d   1       5.131  -2.235   5.996  0.00  0.00     0.018 C 
ENDBRANCH   1   8
TORSDOF 1
ENDMDL
