MODEL 1
REMARK minimizedAffinity 3.23127913
REMARK minimizedRMSD -1
REMARK  1 active torsions:
REMARK  status: ('A' for Active; 'I' for Inactive)
REMARK    1  A    between atoms: C1_2  and  C2_3 
ROOT
ATOM      1  C2  UNL d   1       1.119  -1.557  -1.299  0.00  0.00    -0.076 A 
ATOM      2  C3  UNL d   1       0.948  -2.936  -1.089  0.00  0.00     0.004 A 
ATOM      3  C4  UNL d   1      -0.089  -3.417  -0.291  0.00  0.00    -0.003 A 
ATOM      4  C5  UNL d   1      -0.971  -2.527   0.311  0.00  0.00     0.000 A 
ATOM      5  C6  UNL d   1      -0.827  -1.156   0.099  0.00  0.00     0.000 A 
ATOM      6  C7  UNL d   1       0.203  -0.655  -0.716  0.00  0.00    -0.073 A 
ATOM      7  C8  UNL d   1       0.315   0.833  -0.904  0.00  0.00     0.078 C 
ENDROOT
BRANCH   1   8
ATOM      8  C1  UNL d   1       2.277  -1.092  -2.152  0.00  0.00     0.053 C 
ATOM      9  C   UNL d   1       1.839  -0.654  -3.541  0.00  0.00     0.018 C 
ENDBRANCH   1   8
TORSDOF 1
ENDMDL
