MODEL 1
REMARK minimizedAffinity 2.2067399
REMARK minimizedRMSD -1
REMARK  1 active torsions:
REMARK  status: ('A' for Active; 'I' for Inactive)
REMARK    1  A    between atoms: C1_2  and  C2_3 
ROOT
ATOM      1  C2  UNL d   1       1.435  -1.178  -1.453  0.00  0.00    -0.076 A 
ATOM      2  C3  UNL d   1       1.604  -2.506  -1.023  0.00  0.00     0.004 A 
ATOM      3  C4  UNL d   1       0.785  -3.049  -0.034  0.00  0.00    -0.003 A 
ATOM      4  C5  UNL d   1      -0.216  -2.274   0.540  0.00  0.00     0.000 A 
ATOM      5  C6  UNL d   1      -0.409  -0.961   0.113  0.00  0.00     0.000 A 
ATOM      6  C7  UNL d   1       0.397  -0.403  -0.894  0.00  0.00    -0.073 A 
ATOM      7  C8  UNL d   1       0.148   1.021  -1.312  0.00  0.00     0.078 C 
ENDROOT
BRANCH   1   8
ATOM      8  C1  UNL d   1       2.371  -0.634  -2.509  0.00  0.00     0.053 C 
ATOM      9  C   UNL d   1       1.642  -0.232  -3.782  0.00  0.00     0.018 C 
ENDBRANCH   1   8
TORSDOF 1
ENDMDL
