MODEL 1
REMARK minimizedAffinity 3.63429284
REMARK minimizedRMSD -1
REMARK  1 active torsions:
REMARK  status: ('A' for Active; 'I' for Inactive)
REMARK    1  A    between atoms: C1_2  and  C2_3 
ROOT
ATOM      1  C2  UNL d   1       0.881  -0.583  -1.573  0.00  0.00    -0.076 A 
ATOM      2  C3  UNL d   1       0.542   0.769  -1.761  0.00  0.00     0.004 A 
ATOM      3  C4  UNL d   1       0.853   1.428  -2.949  0.00  0.00    -0.003 A 
ATOM      4  C5  UNL d   1       1.508   0.746  -3.969  0.00  0.00     0.000 A 
ATOM      5  C6  UNL d   1       1.836  -0.600  -3.806  0.00  0.00     0.000 A 
ATOM      6  C7  UNL d   1       1.515  -1.283  -2.621  0.00  0.00    -0.073 A 
ATOM      7  C8  UNL d   1       1.898  -2.733  -2.497  0.00  0.00     0.078 C 
ENDROOT
BRANCH   1   8
ATOM      8  C1  UNL d   1       0.542  -1.237  -0.253  0.00  0.00     0.053 C 
ATOM      9  C   UNL d   1      -0.810  -1.934  -0.278  0.00  0.00     0.018 C 
ENDBRANCH   1   8
TORSDOF 1
ENDMDL
