MODEL 1
REMARK minimizedAffinity 0.369274408
REMARK minimizedRMSD -1
REMARK  1 active torsions:
REMARK  status: ('A' for Active; 'I' for Inactive)
REMARK    1  A    between atoms: C1_2  and  C2_3 
ROOT
ATOM      1  C2  UNL d   1       0.387   0.571  -1.369  0.00  0.00    -0.076 A 
ATOM      2  C3  UNL d   1       0.181  -0.427  -0.400  0.00  0.00     0.004 A 
ATOM      3  C4  UNL d   1       0.703  -1.709  -0.569  0.00  0.00    -0.003 A 
ATOM      4  C5  UNL d   1       1.440  -2.013  -1.708  0.00  0.00     0.000 A 
ATOM      5  C6  UNL d   1       1.669  -1.030  -2.671  0.00  0.00     0.000 A 
ATOM      6  C7  UNL d   1       1.164   0.271  -2.509  0.00  0.00    -0.073 A 
ATOM      7  C8  UNL d   1       1.436   1.290  -3.581  0.00  0.00     0.078 C 
ENDROOT
BRANCH   1   8
ATOM      8  C1  UNL d   1      -0.226   1.935  -1.145  0.00  0.00     0.053 C 
ATOM      9  C   UNL d   1       0.424   2.683   0.008  0.00  0.00     0.018 C 
ENDBRANCH   1   8
TORSDOF 1
ENDMDL
