MODEL 1
REMARK minimizedAffinity 11.0171061
REMARK minimizedRMSD -1
REMARK  0 active torsions:
REMARK  status: ('A' for Active; 'I' for Inactive)
ROOT
ATOM      1  C   UNL d   1       5.211   2.614   4.812  0.00  0.00    -0.002 A 
ATOM      2  C1  UNL d   1       5.304   3.149   3.535  0.00  0.00     0.010 A 
ATOM      3  C2  UNL d   1       4.323   2.880   2.578  0.00  0.00     0.041 A 
ATOM      4  C3  UNL d   1       3.236   2.056   2.931  0.00  0.00    -0.075 A 
ATOM      5  S   UNL d   1       1.916   1.590   1.925  0.00  0.00     0.015 SA
ATOM      6  C4  UNL d   1       1.197   0.671   3.166  0.00  0.00     0.022 A 
ATOM      7  C5  UNL d   1       1.933   0.707   4.327  0.00  0.00     0.026 A 
ATOM      8  C6  UNL d   1       3.120   1.507   4.211  0.00  0.00    -0.082 A 
ATOM      9  C7  UNL d   1       4.131   1.798   5.158  0.00  0.00     0.045 A 
ENDROOT
TORSDOF 0
ENDMDL
