MODEL 1
REMARK minimizedAffinity 2.63101935
REMARK minimizedRMSD -1
REMARK  0 active torsions:
REMARK  status: ('A' for Active; 'I' for Inactive)
ROOT
ATOM      1  C   UNL d   1       4.274  -1.436  -1.104  0.00  0.00    -0.002 A 
ATOM      2  C1  UNL d   1       4.186  -0.052  -1.040  0.00  0.00     0.010 A 
ATOM      3  C2  UNL d   1       2.943   0.577  -0.940  0.00  0.00     0.041 A 
ATOM      4  C3  UNL d   1       1.779  -0.216  -0.902  0.00  0.00    -0.075 A 
ATOM      5  S   UNL d   1       0.150   0.335  -0.780  0.00  0.00     0.015 SA
ATOM      6  C4  UNL d   1      -0.468  -1.253  -0.809  0.00  0.00     0.022 A 
ATOM      7  C5  UNL d   1       0.531  -2.193  -0.908  0.00  0.00     0.026 A 
ATOM      8  C6  UNL d   1       1.842  -1.611  -0.963  0.00  0.00    -0.082 A 
ATOM      9  C7  UNL d   1       3.117  -2.219  -1.066  0.00  0.00     0.045 A 
ENDROOT
TORSDOF 0
ENDMDL
