MODEL 1
REMARK minimizedAffinity 3.55887079
REMARK minimizedRMSD -1
REMARK  0 active torsions:
REMARK  status: ('A' for Active; 'I' for Inactive)
ROOT
ATOM      1  C   UNL d   1       4.177  -0.094  -1.605  0.00  0.00    -0.002 A 
ATOM      2  C1  UNL d   1       4.240  -1.426  -1.988  0.00  0.00     0.010 A 
ATOM      3  C2  UNL d   1       3.111  -2.243  -1.905  0.00  0.00     0.041 A 
ATOM      4  C3  UNL d   1       1.905  -1.693  -1.427  0.00  0.00    -0.075 A 
ATOM      5  S   UNL d   1       0.395  -2.503  -1.239  0.00  0.00     0.015 SA
ATOM      6  C4  UNL d   1      -0.369  -1.100  -0.646  0.00  0.00     0.022 A 
ATOM      7  C5  UNL d   1       0.492  -0.030  -0.586  0.00  0.00     0.026 A 
ATOM      8  C6  UNL d   1       1.817  -0.354  -1.036  0.00  0.00    -0.082 A 
ATOM      9  C7  UNL d   1       2.980   0.448  -1.131  0.00  0.00     0.045 A 
ENDROOT
TORSDOF 0
ENDMDL
