MODEL 1
REMARK minimizedAffinity 7.50728035
REMARK minimizedRMSD -1
REMARK  0 active torsions:
REMARK  status: ('A' for Active; 'I' for Inactive)
ROOT
ATOM      1  C   UNL d   1      -0.741  -1.502  -0.697  0.00  0.00    -0.002 A 
ATOM      2  C1  UNL d   1       0.031  -2.532  -1.216  0.00  0.00     0.010 A 
ATOM      3  C2  UNL d   1       1.391  -2.342  -1.470  0.00  0.00     0.041 A 
ATOM      4  C3  UNL d   1       1.968  -1.088  -1.189  0.00  0.00    -0.075 A 
ATOM      5  S   UNL d   1       3.613  -0.626  -1.418  0.00  0.00     0.015 SA
ATOM      6  C4  UNL d   1       3.331   0.949  -0.831  0.00  0.00     0.022 A 
ATOM      7  C5  UNL d   1       2.019   1.135  -0.465  0.00  0.00     0.026 A 
ATOM      8  C6  UNL d   1       1.212  -0.036  -0.665  0.00  0.00    -0.082 A 
ATOM      9  C7  UNL d   1      -0.164  -0.260  -0.419  0.00  0.00     0.045 A 
ENDROOT
TORSDOF 0
ENDMDL
