MODEL 1
REMARK minimizedAffinity 3.10890794
REMARK minimizedRMSD -1
REMARK  0 active torsions:
REMARK  status: ('A' for Active; 'I' for Inactive)
ROOT
ATOM      1  C   UNL d   1       4.301   0.160  -1.839  0.00  0.00    -0.002 A 
ATOM      2  C1  UNL d   1       4.136  -1.147  -2.277  0.00  0.00     0.010 A 
ATOM      3  C2  UNL d   1       2.932  -1.821  -2.065  0.00  0.00     0.041 A 
ATOM      4  C3  UNL d   1       1.885  -1.153  -1.400  0.00  0.00    -0.075 A 
ATOM      5  S   UNL d   1       0.322  -1.780  -1.031  0.00  0.00     0.015 SA
ATOM      6  C4  UNL d   1      -0.165  -0.328  -0.283  0.00  0.00     0.022 A 
ATOM      7  C5  UNL d   1       0.828   0.623  -0.305  0.00  0.00     0.026 A 
ATOM      8  C6  UNL d   1       2.026   0.163  -0.950  0.00  0.00    -0.082 A 
ATOM      9  C7  UNL d   1       3.259   0.819  -1.179  0.00  0.00     0.045 A 
ENDROOT
TORSDOF 0
ENDMDL
