MODEL 1
REMARK minimizedAffinity 4.70127583
REMARK minimizedRMSD -1
REMARK  0 active torsions:
REMARK  status: ('A' for Active; 'I' for Inactive)
ROOT
ATOM      1  C   UNL d   1      -4.133   2.307  -4.852  0.00  0.00     0.172 C 
ATOM      2  N   UNL d   1      -3.518   1.613  -3.745  0.00  0.00    -0.070 N 
ATOM      3  C1  UNL d   1      -3.379   2.104  -2.474  0.00  0.00    -0.004 A 
ATOM      4  C2  UNL d   1      -2.745   1.142  -1.717  0.00  0.00    -0.047 A 
ATOM      5  C3  UNL d   1      -2.493   0.036  -2.563  0.00  0.00    -0.047 A 
ATOM      6  C4  UNL d   1      -2.982   0.354  -3.812  0.00  0.00    -0.004 A 
ENDROOT
TORSDOF 0
ENDMDL
