MODEL 1
REMARK minimizedAffinity 3.52252817
REMARK minimizedRMSD -1
REMARK  0 active torsions:
REMARK  status: ('A' for Active; 'I' for Inactive)
ROOT
ATOM      1  C   UNL d   1      -2.861  -5.255  -5.984  0.00  0.00     0.172 C 
ATOM      2  N   UNL d   1      -4.025  -4.683  -5.350  0.00  0.00    -0.070 N 
ATOM      3  C1  UNL d   1      -5.108  -4.152  -6.000  0.00  0.00    -0.004 A 
ATOM      4  C2  UNL d   1      -5.999  -3.714  -5.044  0.00  0.00    -0.047 A 
ATOM      5  C3  UNL d   1      -5.432  -3.989  -3.778  0.00  0.00    -0.047 A 
ATOM      6  C4  UNL d   1      -4.210  -4.589  -3.996  0.00  0.00    -0.004 A 
ENDROOT
TORSDOF 0
ENDMDL
