MODEL 1
REMARK minimizedAffinity 0.531757772
REMARK minimizedRMSD -1
REMARK  0 active torsions:
REMARK  status: ('A' for Active; 'I' for Inactive)
ROOT
ATOM      1  C   UNL d   1       3.367  -4.749   4.569  0.00  0.00     0.172 C 
ATOM      2  N   UNL d   1       2.775  -3.604   3.918  0.00  0.00    -0.070 N 
ATOM      3  C1  UNL d   1       2.005  -3.640   2.786  0.00  0.00    -0.004 A 
ATOM      4  C2  UNL d   1       1.635  -2.347   2.487  0.00  0.00    -0.047 A 
ATOM      5  C3  UNL d   1       2.203  -1.505   3.472  0.00  0.00    -0.047 A 
ATOM      6  C4  UNL d   1       2.904  -2.309   4.345  0.00  0.00    -0.004 A 
ENDROOT
TORSDOF 0
ENDMDL
