MODEL 1
REMARK minimizedAffinity -0.5551911
REMARK minimizedRMSD -1
REMARK  0 active torsions:
REMARK  status: ('A' for Active; 'I' for Inactive)
ROOT
ATOM      1  C   UNL d   1       3.833  -6.000   1.376  0.00  0.00     0.172 C 
ATOM      2  N   UNL d   1       4.472  -4.852   1.974  0.00  0.00    -0.070 N 
ATOM      3  C1  UNL d   1       5.778  -4.480   1.791  0.00  0.00    -0.004 A 
ATOM      4  C2  UNL d   1       5.998  -3.337   2.528  0.00  0.00    -0.047 A 
ATOM      5  C3  UNL d   1       4.784  -3.010   3.177  0.00  0.00    -0.047 A 
ATOM      6  C4  UNL d   1       3.856  -3.965   2.816  0.00  0.00    -0.004 A 
ENDROOT
TORSDOF 0
ENDMDL
