MODEL 1
REMARK minimizedAffinity 0.967550039
REMARK minimizedRMSD -1
REMARK  0 active torsions:
REMARK  status: ('A' for Active; 'I' for Inactive)
ROOT
ATOM      1  C   UNL d   1       3.242  -5.978  -0.648  0.00  0.00     0.172 C 
ATOM      2  N   UNL d   1       3.984  -5.986  -1.887  0.00  0.00    -0.070 N 
ATOM      3  C1  UNL d   1       5.349  -5.992  -2.000  0.00  0.00    -0.004 A 
ATOM      4  C2  UNL d   1       5.661  -6.000  -3.342  0.00  0.00    -0.047 A 
ATOM      5  C3  UNL d   1       4.441  -5.997  -4.061  0.00  0.00    -0.047 A 
ATOM      6  C4  UNL d   1       3.419  -5.988  -3.135  0.00  0.00    -0.004 A 
ENDROOT
TORSDOF 0
ENDMDL
