MODEL 1
REMARK minimizedAffinity -2.70238018
REMARK minimizedRMSD -1
REMARK  0 active torsions:
REMARK  status: ('A' for Active; 'I' for Inactive)
ROOT
ATOM      1  C   UNL d   1       2.337  -5.601  -5.545  0.00  0.00     0.172 C 
ATOM      2  N   UNL d   1       3.051  -5.708  -4.295  0.00  0.00    -0.070 N 
ATOM      3  C1  UNL d   1       2.481  -5.732  -3.050  0.00  0.00    -0.004 A 
ATOM      4  C2  UNL d   1       3.495  -5.843  -2.123  0.00  0.00    -0.047 A 
ATOM      5  C3  UNL d   1       4.717  -5.885  -2.836  0.00  0.00    -0.047 A 
ATOM      6  C4  UNL d   1       4.413  -5.800  -4.178  0.00  0.00    -0.004 A 
ENDROOT
TORSDOF 0
ENDMDL
