MODEL 1
REMARK minimizedAffinity 0.793255568
REMARK minimizedRMSD -1
REMARK  0 active torsions:
REMARK  status: ('A' for Active; 'I' for Inactive)
ROOT
ATOM      1  C   UNL d   1       2.309  -5.990  -2.534  0.00  0.00     0.172 C 
ATOM      2  N   UNL d   1       1.707  -5.989  -1.222  0.00  0.00    -0.070 N 
ATOM      3  C1  UNL d   1       0.362  -5.995  -0.961  0.00  0.00    -0.004 A 
ATOM      4  C2  UNL d   1       0.198  -5.993   0.408  0.00  0.00    -0.047 A 
ATOM      5  C3  UNL d   1       1.488  -5.985   0.989  0.00  0.00    -0.047 A 
ATOM      6  C4  UNL d   1       2.404  -5.983  -0.042  0.00  0.00    -0.004 A 
ENDROOT
TORSDOF 0
ENDMDL
