MODEL 1
REMARK minimizedAffinity -0.35743019
REMARK minimizedRMSD -1
REMARK  0 active torsions:
REMARK  status: ('A' for Active; 'I' for Inactive)
ROOT
ATOM      1  C   UNL d   1       1.792  -5.996   0.552  0.00  0.00     0.172 C 
ATOM      2  N   UNL d   1       2.664  -5.992  -0.599  0.00  0.00    -0.070 N 
ATOM      3  C1  UNL d   1       2.259  -6.000  -1.907  0.00  0.00    -0.004 A 
ATOM      4  C2  UNL d   1       3.388  -5.992  -2.698  0.00  0.00    -0.047 A 
ATOM      5  C3  UNL d   1       4.509  -5.980  -1.835  0.00  0.00    -0.047 A 
ATOM      6  C4  UNL d   1       4.033  -5.980  -0.541  0.00  0.00    -0.004 A 
ENDROOT
TORSDOF 0
ENDMDL
