MODEL 1
REMARK minimizedAffinity 0.480184972
REMARK minimizedRMSD -1
REMARK  0 active torsions:
REMARK  status: ('A' for Active; 'I' for Inactive)
ROOT
ATOM      1  C   UNL d   1       1.373  -2.163   5.303  0.00  0.00     0.172 C 
ATOM      2  N   UNL d   1       1.910  -1.853   3.998  0.00  0.00    -0.070 N 
ATOM      3  C1  UNL d   1       1.315  -1.054   3.059  0.00  0.00    -0.004 A 
ATOM      4  C2  UNL d   1       2.142  -1.010   1.957  0.00  0.00    -0.047 A 
ATOM      5  C3  UNL d   1       3.272  -1.812   2.244  0.00  0.00    -0.047 A 
ATOM      6  C4  UNL d   1       3.103  -2.322   3.514  0.00  0.00    -0.004 A 
ENDROOT
TORSDOF 0
ENDMDL
