MODEL 1
REMARK minimizedAffinity -1.03828442
REMARK minimizedRMSD -1
REMARK  0 active torsions:
REMARK  status: ('A' for Active; 'I' for Inactive)
ROOT
ATOM      1  C   UNL d   1       2.376  -3.997   3.678  0.00  0.00     0.172 C 
ATOM      2  N   UNL d   1       2.078  -2.727   3.060  0.00  0.00    -0.070 N 
ATOM      3  C1  UNL d   1       0.866  -2.090   3.088  0.00  0.00    -0.004 A 
ATOM      4  C2  UNL d   1       0.992  -0.911   2.386  0.00  0.00    -0.047 A 
ATOM      5  C3  UNL d   1       2.326  -0.836   1.919  0.00  0.00    -0.047 A 
ATOM      6  C4  UNL d   1       2.976  -1.974   2.350  0.00  0.00    -0.004 A 
ENDROOT
TORSDOF 0
ENDMDL
