MODEL 1
REMARK minimizedAffinity 4.11361313
REMARK minimizedRMSD -1
REMARK  0 active torsions:
REMARK  status: ('A' for Active; 'I' for Inactive)
ROOT
ATOM      1  C   UNL d   1      -0.047   1.855   2.899  0.00  0.00     0.078 C 
ATOM      2  C1  UNL d   1      -0.183   2.593   1.601  0.00  0.00    -0.077 A 
ATOM      3  C2  UNL d   1      -0.539   1.923   0.424  0.00  0.00    -0.001 A 
ATOM      4  C3  UNL d   1      -0.653   2.620  -0.779  0.00  0.00     0.003 A 
ATOM      5  C4  UNL d   1      -0.410   3.992  -0.818  0.00  0.00    -0.005 A 
ATOM      6  C5  UNL d   1      -0.053   4.667   0.347  0.00  0.00     0.003 A 
ATOM      7  C6  UNL d   1       0.061   3.971   1.551  0.00  0.00    -0.001 A 
ENDROOT
TORSDOF 0
ENDMDL
