MODEL 1
REMARK minimizedAffinity 3.6414156
REMARK minimizedRMSD -1
REMARK  0 active torsions:
REMARK  status: ('A' for Active; 'I' for Inactive)
ROOT
ATOM      1  C   UNL d   1      -0.440   4.164  -0.813  0.00  0.00     0.078 C 
ATOM      2  C1  UNL d   1      -0.510   3.423   0.489  0.00  0.00    -0.077 A 
ATOM      3  C2  UNL d   1      -1.742   3.083   1.060  0.00  0.00    -0.001 A 
ATOM      4  C3  UNL d   1      -1.792   2.401   2.277  0.00  0.00     0.003 A 
ATOM      5  C4  UNL d   1      -0.613   2.055   2.934  0.00  0.00    -0.005 A 
ATOM      6  C5  UNL d   1       0.618   2.391   2.374  0.00  0.00     0.003 A 
ATOM      7  C6  UNL d   1       0.670   3.073   1.157  0.00  0.00    -0.001 A 
ENDROOT
TORSDOF 0
ENDMDL
