MODEL 1
REMARK minimizedAffinity 6.86230183
REMARK minimizedRMSD -1
REMARK  0 active torsions:
REMARK  status: ('A' for Active; 'I' for Inactive)
ROOT
ATOM      1  C   UNL d   1      -0.121   1.248   2.991  0.00  0.00     0.078 C 
ATOM      2  C1  UNL d   1      -0.270   2.105   1.770  0.00  0.00    -0.077 A 
ATOM      3  C2  UNL d   1      -0.686   1.557   0.550  0.00  0.00    -0.001 A 
ATOM      4  C3  UNL d   1      -0.811   2.365  -0.581  0.00  0.00     0.003 A 
ATOM      5  C4  UNL d   1      -0.522   3.726  -0.504  0.00  0.00    -0.005 A 
ATOM      6  C5  UNL d   1      -0.105   4.280   0.704  0.00  0.00     0.003 A 
ATOM      7  C6  UNL d   1       0.020   3.474   1.837  0.00  0.00    -0.001 A 
ENDROOT
TORSDOF 0
ENDMDL
