MODEL 1
REMARK minimizedAffinity 4.02059937
REMARK minimizedRMSD -1
REMARK  0 active torsions:
REMARK  status: ('A' for Active; 'I' for Inactive)
ROOT
ATOM      1  C   UNL d   1      -3.945   0.306   1.376  0.00  0.00     0.078 C 
ATOM      2  C1  UNL d   1      -3.774   0.176  -0.109  0.00  0.00    -0.077 A 
ATOM      3  C2  UNL d   1      -4.086   1.239  -0.965  0.00  0.00    -0.001 A 
ATOM      4  C3  UNL d   1      -3.932   1.101  -2.346  0.00  0.00     0.003 A 
ATOM      5  C4  UNL d   1      -3.466  -0.098  -2.882  0.00  0.00    -0.005 A 
ATOM      6  C5  UNL d   1      -3.155  -1.161  -2.037  0.00  0.00     0.003 A 
ATOM      7  C6  UNL d   1      -3.308  -1.025  -0.656  0.00  0.00    -0.001 A 
ENDROOT
TORSDOF 0
ENDMDL
