MODEL 1
REMARK minimizedAffinity 5.29444313
REMARK minimizedRMSD -1
REMARK  0 active torsions:
REMARK  status: ('A' for Active; 'I' for Inactive)
ROOT
ATOM      1  C   UNL d   1      -0.214   1.487   2.613  0.00  0.00     0.078 C 
ATOM      2  C1  UNL d   1      -0.409   2.104   1.261  0.00  0.00    -0.077 A 
ATOM      3  C2  UNL d   1      -0.494   1.310   0.111  0.00  0.00    -0.001 A 
ATOM      4  C3  UNL d   1      -0.665   1.898  -1.143  0.00  0.00     0.003 A 
ATOM      5  C4  UNL d   1      -0.752   3.284  -1.259  0.00  0.00    -0.005 A 
ATOM      6  C5  UNL d   1      -0.666   4.083  -0.121  0.00  0.00     0.003 A 
ATOM      7  C6  UNL d   1      -0.495   3.496   1.134  0.00  0.00    -0.001 A 
ENDROOT
TORSDOF 0
ENDMDL
