MODEL 1
REMARK minimizedAffinity 6.55023241
REMARK minimizedRMSD -1
REMARK  0 active torsions:
REMARK  status: ('A' for Active; 'I' for Inactive)
ROOT
ATOM      1  C   UNL d   1      -0.632   1.641   2.709  0.00  0.00     0.078 C 
ATOM      2  C1  UNL d   1      -0.695   2.502   1.482  0.00  0.00    -0.077 A 
ATOM      3  C2  UNL d   1      -0.474   3.883   1.558  0.00  0.00    -0.001 A 
ATOM      4  C3  UNL d   1      -0.546   4.673   0.410  0.00  0.00     0.003 A 
ATOM      5  C4  UNL d   1      -0.840   4.093  -0.822  0.00  0.00    -0.005 A 
ATOM      6  C5  UNL d   1      -1.064   2.720  -0.907  0.00  0.00     0.003 A 
ATOM      7  C6  UNL d   1      -0.992   1.928   0.240  0.00  0.00    -0.001 A 
ENDROOT
TORSDOF 0
ENDMDL
