MODEL 1
REMARK minimizedAffinity 3.19714594
REMARK minimizedRMSD -1
REMARK  0 active torsions:
REMARK  status: ('A' for Active; 'I' for Inactive)
ROOT
ATOM      1  C   UNL d   1      -2.881  -0.198  -0.492  0.00  0.00     0.078 C 
ATOM      2  C1  UNL d   1      -1.943   0.853   0.020  0.00  0.00    -0.077 A 
ATOM      3  C2  UNL d   1      -0.940   1.386  -0.799  0.00  0.00    -0.001 A 
ATOM      4  C3  UNL d   1      -0.068   2.357  -0.306  0.00  0.00     0.003 A 
ATOM      5  C4  UNL d   1      -0.188   2.803   1.009  0.00  0.00    -0.005 A 
ATOM      6  C5  UNL d   1      -1.181   2.277   1.832  0.00  0.00     0.003 A 
ATOM      7  C6  UNL d   1      -2.054   1.306   1.341  0.00  0.00    -0.001 A 
ENDROOT
TORSDOF 0
ENDMDL
