MODEL 1
REMARK minimizedAffinity 8.05520725
REMARK minimizedRMSD -1
REMARK  0 active torsions:
REMARK  status: ('A' for Active; 'I' for Inactive)
ROOT
ATOM      1  C   UNL d   1      -1.456  -1.645  -2.408  0.00  0.00     0.078 C 
ATOM      2  C1  UNL d   1      -2.463  -0.918  -1.567  0.00  0.00    -0.077 A 
ATOM      3  C2  UNL d   1      -3.170  -1.580  -0.556  0.00  0.00    -0.001 A 
ATOM      4  C3  UNL d   1      -4.112  -0.894   0.212  0.00  0.00     0.003 A 
ATOM      5  C4  UNL d   1      -4.355   0.458  -0.023  0.00  0.00    -0.005 A 
ATOM      6  C5  UNL d   1      -3.658   1.125  -1.028  0.00  0.00     0.003 A 
ATOM      7  C6  UNL d   1      -2.716   0.440  -1.797  0.00  0.00    -0.001 A 
ENDROOT
TORSDOF 0
ENDMDL
