MODEL 1
REMARK minimizedAffinity -2.25985527
REMARK minimizedRMSD -1
REMARK  0 active torsions:
REMARK  status: ('A' for Active; 'I' for Inactive)
ROOT
ATOM      1  C   UNL d   1      -4.088   0.000  -0.740  0.00  0.00     0.078 C 
ATOM      2  C1  UNL d   1      -2.608  -0.101  -0.963  0.00  0.00    -0.077 A 
ATOM      3  C2  UNL d   1      -1.993  -1.341  -1.169  0.00  0.00    -0.001 A 
ATOM      4  C3  UNL d   1      -0.613  -1.421  -1.366  0.00  0.00     0.003 A 
ATOM      5  C4  UNL d   1       0.163  -0.264  -1.356  0.00  0.00    -0.005 A 
ATOM      6  C5  UNL d   1      -0.440   0.975  -1.150  0.00  0.00     0.003 A 
ATOM      7  C6  UNL d   1      -1.820   1.057  -0.953  0.00  0.00    -0.001 A 
ENDROOT
TORSDOF 0
ENDMDL
