MODEL 1
REMARK minimizedAffinity 4.36053514
REMARK minimizedRMSD -1
REMARK  0 active torsions:
REMARK  status: ('A' for Active; 'I' for Inactive)
ROOT
ATOM      1  C   UNL d   1      -0.382   3.446  -0.882  0.00  0.00     0.078 C 
ATOM      2  C1  UNL d   1      -0.403   2.806   0.474  0.00  0.00    -0.077 A 
ATOM      3  C2  UNL d   1       0.730   2.162   0.985  0.00  0.00    -0.001 A 
ATOM      4  C3  UNL d   1       0.693   1.561   2.245  0.00  0.00     0.003 A 
ATOM      5  C4  UNL d   1      -0.475   1.598   3.003  0.00  0.00    -0.005 A 
ATOM      6  C5  UNL d   1      -1.608   2.234   2.502  0.00  0.00     0.003 A 
ATOM      7  C6  UNL d   1      -1.573   2.835   1.242  0.00  0.00    -0.001 A 
ENDROOT
TORSDOF 0
ENDMDL
