MODEL 1
REMARK minimizedAffinity 5.70905399
REMARK minimizedRMSD -1
REMARK  0 active torsions:
REMARK  status: ('A' for Active; 'I' for Inactive)
ROOT
ATOM      1  C   UNL d   1      -3.230  -0.661  -0.920  0.00  0.00     0.078 C 
ATOM      2  C1  UNL d   1      -2.088  -0.979  -1.839  0.00  0.00    -0.077 A 
ATOM      3  C2  UNL d   1      -0.761  -0.786  -1.434  0.00  0.00    -0.001 A 
ATOM      4  C3  UNL d   1       0.291  -1.076  -2.304  0.00  0.00     0.003 A 
ATOM      5  C4  UNL d   1       0.028  -1.560  -3.584  0.00  0.00    -0.005 A 
ATOM      6  C5  UNL d   1      -1.289  -1.753  -3.996  0.00  0.00     0.003 A 
ATOM      7  C6  UNL d   1      -2.342  -1.463  -3.128  0.00  0.00    -0.001 A 
ENDROOT
TORSDOF 0
ENDMDL
