MODEL 1
REMARK minimizedAffinity 8.13047886
REMARK minimizedRMSD -1
REMARK  0 active torsions:
REMARK  status: ('A' for Active; 'I' for Inactive)
ROOT
ATOM      1  C   UNL d   1      -3.162  -0.479  -1.487  0.00  0.00     0.078 C 
ATOM      2  C1  UNL d   1      -1.931  -0.905  -2.231  0.00  0.00    -0.077 A 
ATOM      3  C2  UNL d   1      -2.021  -1.478  -3.506  0.00  0.00    -0.001 A 
ATOM      4  C3  UNL d   1      -0.868  -1.878  -4.182  0.00  0.00     0.003 A 
ATOM      5  C4  UNL d   1       0.383  -1.713  -3.591  0.00  0.00    -0.005 A 
ATOM      6  C5  UNL d   1       0.482  -1.146  -2.322  0.00  0.00     0.003 A 
ATOM      7  C6  UNL d   1      -0.670  -0.745  -1.644  0.00  0.00    -0.001 A 
ENDROOT
TORSDOF 0
ENDMDL
