MODEL 1
REMARK minimizedAffinity 8.69592476
REMARK minimizedRMSD -1
REMARK  0 active torsions:
REMARK  status: ('A' for Active; 'I' for Inactive)
ROOT
ATOM      1  C   UNL d   1      -1.169   1.122  -0.610  0.00  0.00    -0.002 A 
ATOM      2  C1  UNL d   1      -0.028   1.483   0.092  0.00  0.00     0.010 A 
ATOM      3  C2  UNL d   1       0.977   0.547   0.344  0.00  0.00     0.041 A 
ATOM      4  C3  UNL d   1       0.814  -0.771  -0.127  0.00  0.00    -0.075 A 
ATOM      5  S   UNL d   1       1.914  -2.085   0.062  0.00  0.00     0.015 SA
ATOM      6  C4  UNL d   1       0.894  -3.157  -0.784  0.00  0.00     0.022 A 
ATOM      7  C5  UNL d   1      -0.261  -2.544  -1.208  0.00  0.00     0.026 A 
ATOM      8  C6  UNL d   1      -0.326  -1.158  -0.837  0.00  0.00    -0.082 A 
ATOM      9  C7  UNL d   1      -1.327  -0.186  -1.076  0.00  0.00     0.045 A 
ENDROOT
TORSDOF 0
ENDMDL
