MODEL 1
REMARK minimizedAffinity 10.0118217
REMARK minimizedRMSD -1
REMARK  0 active torsions:
REMARK  status: ('A' for Active; 'I' for Inactive)
ROOT
ATOM      1  C   UNL d   1      -0.845  -1.550  -1.077  0.00  0.00    -0.002 A 
ATOM      2  C1  UNL d   1      -0.975  -2.349   0.050  0.00  0.00     0.010 A 
ATOM      3  C2  UNL d   1      -0.441  -1.942   1.274  0.00  0.00     0.041 A 
ATOM      4  C3  UNL d   1       0.232  -0.707   1.348  0.00  0.00    -0.075 A 
ATOM      5  S   UNL d   1       0.966  -0.004   2.740  0.00  0.00     0.015 SA
ATOM      6  C4  UNL d   1       1.469   1.373   1.872  0.00  0.00     0.022 A 
ATOM      7  C5  UNL d   1       1.095   1.315   0.551  0.00  0.00     0.026 A 
ATOM      8  C6  UNL d   1       0.375   0.115   0.226  0.00  0.00    -0.082 A 
ATOM      9  C7  UNL d   1      -0.177  -0.325  -1.001  0.00  0.00     0.045 A 
ENDROOT
TORSDOF 0
ENDMDL
