MODEL 1
REMARK minimizedAffinity 6.64062977
REMARK minimizedRMSD -1
REMARK  0 active torsions:
REMARK  status: ('A' for Active; 'I' for Inactive)
ROOT
ATOM      1  C   UNL d   1      -1.238  -1.907  -0.374  0.00  0.00    -0.002 A 
ATOM      2  C1  UNL d   1      -1.131  -0.527  -0.469  0.00  0.00     0.010 A 
ATOM      3  C2  UNL d   1       0.122   0.084  -0.552  0.00  0.00     0.041 A 
ATOM      4  C3  UNL d   1       1.276  -0.723  -0.540  0.00  0.00    -0.075 A 
ATOM      5  S   UNL d   1       2.915  -0.195  -0.631  0.00  0.00     0.015 SA
ATOM      6  C4  UNL d   1       3.511  -1.790  -0.548  0.00  0.00     0.022 A 
ATOM      7  C5  UNL d   1       2.499  -2.715  -0.452  0.00  0.00     0.026 A 
ATOM      8  C6  UNL d   1       1.194  -2.115  -0.446  0.00  0.00    -0.082 A 
ATOM      9  C7  UNL d   1      -0.091  -2.705  -0.363  0.00  0.00     0.045 A 
ENDROOT
TORSDOF 0
ENDMDL
