MODEL 1
REMARK minimizedAffinity 10.8482685
REMARK minimizedRMSD -1
REMARK  0 active torsions:
REMARK  status: ('A' for Active; 'I' for Inactive)
ROOT
ATOM      1  C   UNL d   1      -1.528  -1.954  -2.782  0.00  0.00    -0.002 A 
ATOM      2  C1  UNL d   1      -1.888  -0.717  -2.267  0.00  0.00     0.010 A 
ATOM      3  C2  UNL d   1      -1.229  -0.193  -1.153  0.00  0.00     0.041 A 
ATOM      4  C3  UNL d   1      -0.191  -0.939  -0.562  0.00  0.00    -0.075 A 
ATOM      5  S   UNL d   1       0.757  -0.496   0.809  0.00  0.00     0.015 SA
ATOM      6  C4  UNL d   1       1.663  -1.938   0.741  0.00  0.00     0.022 A 
ATOM      7  C5  UNL d   1       1.265  -2.750  -0.295  0.00  0.00     0.026 A 
ATOM      8  C6  UNL d   1       0.191  -2.187  -1.063  0.00  0.00    -0.082 A 
ATOM      9  C7  UNL d   1      -0.497  -2.692  -2.193  0.00  0.00     0.045 A 
ENDROOT
TORSDOF 0
ENDMDL
