MODEL 1
REMARK minimizedAffinity -4.91040897
REMARK minimizedRMSD -1
REMARK  0 active torsions:
REMARK  status: ('A' for Active; 'I' for Inactive)
ROOT
ATOM      1  C   UNL d   1       0.110  -2.511   2.992  0.00  0.00    -0.002 A 
ATOM      2  C1  UNL d   1      -0.849  -1.513   2.890  0.00  0.00     0.010 A 
ATOM      3  C2  UNL d   1      -0.813  -0.600   1.834  0.00  0.00     0.041 A 
ATOM      4  C3  UNL d   1       0.210  -0.709   0.873  0.00  0.00    -0.075 A 
ATOM      5  S   UNL d   1       0.452   0.298  -0.506  0.00  0.00     0.015 SA
ATOM      6  C4  UNL d   1       1.833  -0.574  -0.993  0.00  0.00     0.022 A 
ATOM      7  C5  UNL d   1       2.118  -1.611  -0.136  0.00  0.00     0.026 A 
ATOM      8  C6  UNL d   1       1.187  -1.706   0.953  0.00  0.00    -0.082 A 
ATOM      9  C7  UNL d   1       1.124  -2.616   2.036  0.00  0.00     0.045 A 
ENDROOT
TORSDOF 0
ENDMDL
