MODEL 1
REMARK minimizedAffinity -0.520020425
REMARK minimizedRMSD -1
REMARK  0 active torsions:
REMARK  status: ('A' for Active; 'I' for Inactive)
ROOT
ATOM      1  C   UNL d   1      -2.608   1.455  -2.103  0.00  0.00    -0.002 A 
ATOM      2  C1  UNL d   1      -2.685   0.951  -3.394  0.00  0.00     0.010 A 
ATOM      3  C2  UNL d   1      -2.040   1.599  -4.449  0.00  0.00     0.041 A 
ATOM      4  C3  UNL d   1      -1.308   2.773  -4.182  0.00  0.00    -0.075 A 
ATOM      5  S   UNL d   1      -0.436   3.735  -5.317  0.00  0.00     0.015 SA
ATOM      6  C4  UNL d   1       0.059   4.838  -4.115  0.00  0.00     0.022 A 
ATOM      7  C5  UNL d   1      -0.421   4.495  -2.873  0.00  0.00     0.026 A 
ATOM      8  C6  UNL d   1      -1.216   3.300  -2.891  0.00  0.00    -0.082 A 
ATOM      9  C7  UNL d   1      -1.882   2.620  -1.843  0.00  0.00     0.045 A 
ENDROOT
TORSDOF 0
ENDMDL
