MODEL 1
REMARK minimizedAffinity -2.85410261
REMARK minimizedRMSD -1
REMARK  0 active torsions:
REMARK  status: ('A' for Active; 'I' for Inactive)
ROOT
ATOM      1  C   UNL d   1      -1.061  -1.458   3.564  0.00  0.00    -0.002 A 
ATOM      2  C1  UNL d   1      -1.924  -0.480   3.091  0.00  0.00     0.010 A 
ATOM      3  C2  UNL d   1      -1.604   0.260   1.951  0.00  0.00     0.041 A 
ATOM      4  C3  UNL d   1      -0.390  -0.004   1.286  0.00  0.00    -0.075 A 
ATOM      5  S   UNL d   1       0.211   0.776  -0.130  0.00  0.00     0.015 SA
ATOM      6  C4  UNL d   1       1.627  -0.172  -0.141  0.00  0.00     0.022 A 
ATOM      7  C5  UNL d   1       1.658  -1.066   0.903  0.00  0.00     0.026 A 
ATOM      8  C6  UNL d   1       0.495  -0.984   1.742  0.00  0.00    -0.082 A 
ATOM      9  C7  UNL d   1       0.143  -1.717   2.902  0.00  0.00     0.045 A 
ENDROOT
TORSDOF 0
ENDMDL
