MODEL 1
REMARK minimizedAffinity 0.186089739
REMARK minimizedRMSD -1
REMARK  0 active torsions:
REMARK  status: ('A' for Active; 'I' for Inactive)
ROOT
ATOM      1  C   UNL d   1      -0.485  -1.607   3.642  0.00  0.00    -0.002 A 
ATOM      2  C1  UNL d   1      -1.582  -0.852   3.251  0.00  0.00     0.010 A 
ATOM      3  C2  UNL d   1      -1.572  -0.158   2.040  0.00  0.00     0.041 A 
ATOM      4  C3  UNL d   1      -0.430  -0.237   1.218  0.00  0.00    -0.075 A 
ATOM      5  S   UNL d   1      -0.192   0.528  -0.308  0.00  0.00     0.015 SA
ATOM      6  C4  UNL d   1       1.371  -0.130  -0.479  0.00  0.00     0.022 A 
ATOM      7  C5  UNL d   1       1.719  -0.916   0.594  0.00  0.00     0.026 A 
ATOM      8  C6  UNL d   1       0.687  -0.991   1.590  0.00  0.00    -0.082 A 
ATOM      9  C7  UNL d   1       0.646  -1.683   2.824  0.00  0.00     0.045 A 
ENDROOT
TORSDOF 0
ENDMDL
