MODEL 1
REMARK minimizedAffinity 0.0678388029
REMARK minimizedRMSD -1
REMARK  0 active torsions:
REMARK  status: ('A' for Active; 'I' for Inactive)
ROOT
ATOM      1  C   UNL d   1      -1.953   0.659   1.395  0.00  0.00    -0.002 A 
ATOM      2  C1  UNL d   1      -1.681  -0.421   2.224  0.00  0.00     0.010 A 
ATOM      3  C2  UNL d   1      -0.485  -1.130   2.097  0.00  0.00     0.041 A 
ATOM      4  C3  UNL d   1       0.443  -0.731   1.116  0.00  0.00    -0.075 A 
ATOM      5  S   UNL d   1       1.974  -1.450   0.779  0.00  0.00     0.015 SA
ATOM      6  C4  UNL d   1       2.304  -0.340  -0.471  0.00  0.00     0.022 A 
ATOM      7  C5  UNL d   1       1.282   0.564  -0.642  0.00  0.00     0.026 A 
ATOM      8  C6  UNL d   1       0.193   0.354   0.270  0.00  0.00    -0.082 A 
ATOM      9  C7  UNL d   1      -1.029   1.052   0.423  0.00  0.00     0.045 A 
ENDROOT
TORSDOF 0
ENDMDL
