MODEL 1
REMARK minimizedAffinity -4.16111946
REMARK minimizedRMSD -1
REMARK  0 active torsions:
REMARK  status: ('A' for Active; 'I' for Inactive)
ROOT
ATOM      1  C   UNL d   1       1.451  -1.737   1.761  0.00  0.00    -0.002 A 
ATOM      2  C1  UNL d   1       1.971  -1.232   0.578  0.00  0.00     0.010 A 
ATOM      3  C2  UNL d   1       1.243  -0.317  -0.185  0.00  0.00     0.041 A 
ATOM      4  C3  UNL d   1      -0.028   0.089   0.267  0.00  0.00    -0.075 A 
ATOM      5  S   UNL d   1      -1.099   1.200  -0.501  0.00  0.00     0.015 SA
ATOM      6  C4  UNL d   1      -2.272   1.033   0.724  0.00  0.00     0.022 A 
ATOM      7  C5  UNL d   1      -1.873   0.154   1.703  0.00  0.00     0.026 A 
ATOM      8  C6  UNL d   1      -0.573  -0.404   1.456  0.00  0.00    -0.082 A 
ATOM      9  C7  UNL d   1       0.189  -1.332   2.207  0.00  0.00     0.045 A 
ENDROOT
TORSDOF 0
ENDMDL
