MODEL 1
REMARK minimizedAffinity -3.87384701
REMARK minimizedRMSD -1
REMARK  0 active torsions:
REMARK  status: ('A' for Active; 'I' for Inactive)
ROOT
ATOM      1  C   UNL d   1       1.513  -2.292   1.403  0.00  0.00    -0.002 A 
ATOM      2  C1  UNL d   1       1.984  -1.534   0.340  0.00  0.00     0.010 A 
ATOM      3  C2  UNL d   1       1.306  -0.384  -0.068  0.00  0.00     0.041 A 
ATOM      4  C3  UNL d   1       0.137  -0.002   0.620  0.00  0.00    -0.075 A 
ATOM      5  S   UNL d   1      -0.857   1.369   0.298  0.00  0.00     0.015 SA
ATOM      6  C4  UNL d   1      -1.930   0.983   1.565  0.00  0.00     0.022 A 
ATOM      7  C5  UNL d   1      -1.554  -0.162   2.227  0.00  0.00     0.026 A 
ATOM      8  C6  UNL d   1      -0.356  -0.748   1.694  0.00  0.00    -0.082 A 
ATOM      9  C7  UNL d   1       0.353  -1.910   2.082  0.00  0.00     0.045 A 
ENDROOT
TORSDOF 0
ENDMDL
