MODEL 1
REMARK minimizedAffinity 0.24538067
REMARK minimizedRMSD -1
REMARK  0 active torsions:
REMARK  status: ('A' for Active; 'I' for Inactive)
ROOT
ATOM      1  C   UNL d   1       1.580  -1.849   2.564  0.00  0.00    -0.002 A 
ATOM      2  C1  UNL d   1       0.303  -1.597   3.045  0.00  0.00     0.010 A 
ATOM      3  C2  UNL d   1      -0.579  -0.786   2.328  0.00  0.00     0.041 A 
ATOM      4  C3  UNL d   1      -0.152  -0.228   1.106  0.00  0.00    -0.075 A 
ATOM      5  S   UNL d   1      -1.060   0.794   0.057  0.00  0.00     0.015 SA
ATOM      6  C4  UNL d   1       0.225   0.919  -1.055  0.00  0.00     0.022 A 
ATOM      7  C5  UNL d   1       1.328   0.205  -0.651  0.00  0.00     0.026 A 
ATOM      8  C6  UNL d   1       1.129  -0.469   0.601  0.00  0.00    -0.082 A 
ATOM      9  C7  UNL d   1       1.999  -1.294   1.352  0.00  0.00     0.045 A 
ENDROOT
TORSDOF 0
ENDMDL
