MODEL 1
REMARK minimizedAffinity -0.972612858
REMARK minimizedRMSD -1
REMARK  0 active torsions:
REMARK  status: ('A' for Active; 'I' for Inactive)
ROOT
ATOM      1  C   UNL d   1      -1.898   1.640  -2.150  0.00  0.00    -0.002 A 
ATOM      2  C1  UNL d   1      -2.600   1.455  -3.333  0.00  0.00     0.010 A 
ATOM      3  C2  UNL d   1      -2.302   2.219  -4.463  0.00  0.00     0.041 A 
ATOM      4  C3  UNL d   1      -1.276   3.181  -4.384  0.00  0.00    -0.075 A 
ATOM      5  S   UNL d   1      -0.737   4.231  -5.640  0.00  0.00     0.015 SA
ATOM      6  C4  UNL d   1       0.439   4.950  -4.636  0.00  0.00     0.022 A 
ATOM      7  C5  UNL d   1       0.433   4.414  -3.370  0.00  0.00     0.026 A 
ATOM      8  C6  UNL d   1      -0.554   3.385  -3.204  0.00  0.00    -0.082 A 
ATOM      9  C7  UNL d   1      -0.881   2.595  -2.076  0.00  0.00     0.045 A 
ENDROOT
TORSDOF 0
ENDMDL
