MODEL 1
REMARK minimizedAffinity 1.26923716
REMARK minimizedRMSD -1
REMARK  0 active torsions:
REMARK  status: ('A' for Active; 'I' for Inactive)
ROOT
ATOM      1  C   UNL d   1       2.212  -0.737   0.004  0.00  0.00    -0.002 A 
ATOM      2  C1  UNL d   1       1.100   0.036  -0.301  0.00  0.00     0.010 A 
ATOM      3  C2  UNL d   1      -0.015   0.038   0.539  0.00  0.00     0.041 A 
ATOM      4  C3  UNL d   1       0.006  -0.756   1.702  0.00  0.00    -0.075 A 
ATOM      5  S   UNL d   1      -1.246  -0.911   2.878  0.00  0.00     0.015 SA
ATOM      6  C4  UNL d   1      -0.334  -2.006   3.813  0.00  0.00     0.022 A 
ATOM      7  C5  UNL d   1       0.897  -2.259   3.256  0.00  0.00     0.026 A 
ATOM      8  C6  UNL d   1       1.113  -1.543   2.030  0.00  0.00    -0.082 A 
ATOM      9  C7  UNL d   1       2.229  -1.524   1.158  0.00  0.00     0.045 A 
ENDROOT
TORSDOF 0
ENDMDL
