MODEL 1
REMARK minimizedAffinity 0.953865111
REMARK minimizedRMSD -1
REMARK  0 active torsions:
REMARK  status: ('A' for Active; 'I' for Inactive)
ROOT
ATOM      1  C   UNL d   1       2.316  -0.429   0.011  0.00  0.00    -0.002 A 
ATOM      2  C1  UNL d   1       2.222  -0.747   1.359  0.00  0.00     0.010 A 
ATOM      3  C2  UNL d   1       0.985  -0.743   2.005  0.00  0.00     0.041 A 
ATOM      4  C3  UNL d   1      -0.169  -0.413   1.267  0.00  0.00    -0.075 A 
ATOM      5  S   UNL d   1      -1.790  -0.343   1.848  0.00  0.00     0.015 SA
ATOM      6  C4  UNL d   1      -2.397   0.108   0.321  0.00  0.00     0.022 A 
ATOM      7  C5  UNL d   1      -1.401   0.209  -0.621  0.00  0.00     0.026 A 
ATOM      8  C6  UNL d   1      -0.100  -0.090  -0.091  0.00  0.00    -0.082 A 
ATOM      9  C7  UNL d   1       1.169  -0.102  -0.718  0.00  0.00     0.045 A 
ENDROOT
TORSDOF 0
ENDMDL
