MODEL 1
REMARK minimizedAffinity 3.33980656
REMARK minimizedRMSD -1
REMARK  0 active torsions:
REMARK  status: ('A' for Active; 'I' for Inactive)
ROOT
ATOM      1  C   UNL d   1      -0.963  -1.475   3.273  0.00  0.00    -0.002 A 
ATOM      2  C1  UNL d   1      -1.857  -0.771   2.478  0.00  0.00     0.010 A 
ATOM      3  C2  UNL d   1      -1.438  -0.194   1.278  0.00  0.00     0.041 A 
ATOM      4  C3  UNL d   1      -0.093  -0.340   0.885  0.00  0.00    -0.075 A 
ATOM      5  S   UNL d   1       0.645   0.280  -0.545  0.00  0.00     0.015 SA
ATOM      6  C4  UNL d   1       2.164  -0.376  -0.135  0.00  0.00     0.022 A 
ATOM      7  C5  UNL d   1       2.127  -1.054   1.060  0.00  0.00     0.026 A 
ATOM      8  C6  UNL d   1       0.826  -1.045   1.667  0.00  0.00    -0.082 A 
ATOM      9  C7  UNL d   1       0.370  -1.617   2.880  0.00  0.00     0.045 A 
ENDROOT
TORSDOF 0
ENDMDL
