MODEL 1
REMARK minimizedAffinity 14.9671488
REMARK minimizedRMSD -1
REMARK  0 active torsions:
REMARK  status: ('A' for Active; 'I' for Inactive)
ROOT
ATOM      1  C   UNL d   1      -1.083  -1.936  -3.511  0.00  0.00     0.078 C 
ATOM      2  C1  UNL d   1      -0.868  -2.522  -2.147  0.00  0.00    -0.077 A 
ATOM      3  C2  UNL d   1      -0.536  -3.873  -1.987  0.00  0.00    -0.001 A 
ATOM      4  C3  UNL d   1      -0.348  -4.407  -0.711  0.00  0.00     0.003 A 
ATOM      5  C4  UNL d   1      -0.491  -3.597   0.414  0.00  0.00    -0.005 A 
ATOM      6  C5  UNL d   1      -0.823  -2.252   0.265  0.00  0.00     0.003 A 
ATOM      7  C6  UNL d   1      -1.011  -1.717  -1.011  0.00  0.00    -0.001 A 
ENDROOT
TORSDOF 0
ENDMDL
