MODEL 1
REMARK minimizedAffinity 13.3273754
REMARK minimizedRMSD -1
REMARK  0 active torsions:
REMARK  status: ('A' for Active; 'I' for Inactive)
ROOT
ATOM      1  C   UNL d   1       0.510   3.023  -4.974  0.00  0.00     0.078 C 
ATOM      2  C1  UNL d   1      -0.982   2.871  -4.987  0.00  0.00    -0.077 A 
ATOM      3  C2  UNL d   1      -1.634   2.076  -4.036  0.00  0.00    -0.001 A 
ATOM      4  C3  UNL d   1      -3.023   1.935  -4.067  0.00  0.00     0.003 A 
ATOM      5  C4  UNL d   1      -3.771   2.586  -5.046  0.00  0.00    -0.005 A 
ATOM      6  C5  UNL d   1      -3.130   3.377  -5.997  0.00  0.00     0.003 A 
ATOM      7  C6  UNL d   1      -1.742   3.519  -5.969  0.00  0.00    -0.001 A 
ENDROOT
TORSDOF 0
ENDMDL
