MODEL 1
REMARK minimizedAffinity 3.24580693
REMARK minimizedRMSD -1
REMARK  0 active torsions:
REMARK  status: ('A' for Active; 'I' for Inactive)
ROOT
ATOM      1  C   UNL d   1       3.548   2.293   5.011  0.00  0.00     0.078 C 
ATOM      2  C1  UNL d   1       3.825   1.925   3.583  0.00  0.00    -0.077 A 
ATOM      3  C2  UNL d   1       4.592   0.798   3.265  0.00  0.00    -0.001 A 
ATOM      4  C3  UNL d   1       4.850   0.472   1.933  0.00  0.00     0.003 A 
ATOM      5  C4  UNL d   1       4.345   1.270   0.908  0.00  0.00    -0.005 A 
ATOM      6  C5  UNL d   1       3.583   2.395   1.214  0.00  0.00     0.003 A 
ATOM      7  C6  UNL d   1       3.324   2.722   2.546  0.00  0.00    -0.001 A 
ENDROOT
TORSDOF 0
ENDMDL
