MODEL 1
REMARK minimizedAffinity 9.8308506
REMARK minimizedRMSD -1
REMARK  0 active torsions:
REMARK  status: ('A' for Active; 'I' for Inactive)
ROOT
ATOM      1  C   UNL d   1      -2.373  -1.189   0.187  0.00  0.00     0.078 C 
ATOM      2  C1  UNL d   1      -2.482  -0.551   1.540  0.00  0.00    -0.077 A 
ATOM      3  C2  UNL d   1      -2.403   0.839   1.690  0.00  0.00    -0.001 A 
ATOM      4  C3  UNL d   1      -2.496   1.419   2.956  0.00  0.00     0.003 A 
ATOM      5  C4  UNL d   1      -2.667   0.617   4.082  0.00  0.00    -0.005 A 
ATOM      6  C5  UNL d   1      -2.744  -0.768   3.943  0.00  0.00     0.003 A 
ATOM      7  C6  UNL d   1      -2.651  -1.349   2.678  0.00  0.00    -0.001 A 
ENDROOT
TORSDOF 0
ENDMDL
