MODEL 1
REMARK minimizedAffinity 7.24197483
REMARK minimizedRMSD -1
REMARK  0 active torsions:
REMARK  status: ('A' for Active; 'I' for Inactive)
ROOT
ATOM      1  C   UNL d   1       5.999   2.836  -2.193  0.00  0.00     0.078 C 
ATOM      2  C1  UNL d   1       5.417   2.606  -0.830  0.00  0.00    -0.077 A 
ATOM      3  C2  UNL d   1       5.999   1.695   0.059  0.00  0.00    -0.001 A 
ATOM      4  C3  UNL d   1       5.441   1.484   1.321  0.00  0.00     0.003 A 
ATOM      5  C4  UNL d   1       4.296   2.180   1.704  0.00  0.00    -0.005 A 
ATOM      6  C5  UNL d   1       3.708   3.088   0.825  0.00  0.00     0.003 A 
ATOM      7  C6  UNL d   1       4.265   3.300  -0.437  0.00  0.00    -0.001 A 
ENDROOT
TORSDOF 0
ENDMDL
