MODEL 1
REMARK minimizedAffinity 3.31195116
REMARK minimizedRMSD -1
REMARK  0 active torsions:
REMARK  status: ('A' for Active; 'I' for Inactive)
ROOT
ATOM      1  C   UNL d   1      -4.642   3.562   1.327  0.00  0.00     0.078 C 
ATOM      2  C1  UNL d   1      -4.748   4.403   0.090  0.00  0.00    -0.077 A 
ATOM      3  C2  UNL d   1      -3.710   4.438  -0.849  0.00  0.00    -0.001 A 
ATOM      4  C3  UNL d   1      -3.818   5.233  -1.991  0.00  0.00     0.003 A 
ATOM      5  C4  UNL d   1      -4.962   6.000  -2.205  0.00  0.00    -0.005 A 
ATOM      6  C5  UNL d   1      -5.999   5.973  -1.275  0.00  0.00     0.003 A 
ATOM      7  C6  UNL d   1      -5.893   5.178  -0.132  0.00  0.00    -0.001 A 
ENDROOT
TORSDOF 0
ENDMDL
