MODEL 1
REMARK minimizedAffinity 6.19726849
REMARK minimizedRMSD -1
REMARK  0 active torsions:
REMARK  status: ('A' for Active; 'I' for Inactive)
ROOT
ATOM      1  C   UNL d   1       5.256   0.479   2.971  0.00  0.00     0.078 C 
ATOM      2  C1  UNL d   1       5.253   1.580   1.953  0.00  0.00    -0.077 A 
ATOM      3  C2  UNL d   1       4.501   2.744   2.152  0.00  0.00    -0.001 A 
ATOM      4  C3  UNL d   1       4.499   3.757   1.191  0.00  0.00     0.003 A 
ATOM      5  C4  UNL d   1       5.247   3.616   0.024  0.00  0.00    -0.005 A 
ATOM      6  C5  UNL d   1       5.997   2.460  -0.184  0.00  0.00     0.003 A 
ATOM      7  C6  UNL d   1       6.000   1.446   0.776  0.00  0.00    -0.001 A 
ENDROOT
TORSDOF 0
ENDMDL
