MODEL 1
REMARK minimizedAffinity 12.2896223
REMARK minimizedRMSD -1
REMARK  0 active torsions:
REMARK  status: ('A' for Active; 'I' for Inactive)
ROOT
ATOM      1  C   UNL d   1       2.252  -0.113  -1.659  0.00  0.00     0.078 C 
ATOM      2  C1  UNL d   1       3.556   0.008  -2.391  0.00  0.00    -0.077 A 
ATOM      3  C2  UNL d   1       4.316  -1.126  -2.703  0.00  0.00    -0.001 A 
ATOM      4  C3  UNL d   1       5.532  -0.998  -3.375  0.00  0.00     0.003 A 
ATOM      5  C4  UNL d   1       6.000   0.263  -3.740  0.00  0.00    -0.005 A 
ATOM      6  C5  UNL d   1       5.252   1.398  -3.432  0.00  0.00     0.003 A 
ATOM      7  C6  UNL d   1       4.035   1.271  -2.760  0.00  0.00    -0.001 A 
ENDROOT
TORSDOF 0
ENDMDL
