MODEL 1
REMARK minimizedAffinity 0.846280634
REMARK minimizedRMSD -1
REMARK  0 active torsions:
REMARK  status: ('A' for Active; 'I' for Inactive)
ROOT
ATOM      1  C   UNL d   1      -1.523  -1.818  -1.136  0.00  0.00     0.078 C 
ATOM      2  C1  UNL d   1      -1.725  -2.496   0.187  0.00  0.00    -0.077 A 
ATOM      3  C2  UNL d   1      -2.810  -2.166   1.008  0.00  0.00    -0.001 A 
ATOM      4  C3  UNL d   1      -2.980  -2.798   2.240  0.00  0.00     0.003 A 
ATOM      5  C4  UNL d   1      -2.068  -3.763   2.664  0.00  0.00    -0.005 A 
ATOM      6  C5  UNL d   1      -0.983  -4.095   1.855  0.00  0.00     0.003 A 
ATOM      7  C6  UNL d   1      -0.812  -3.464   0.622  0.00  0.00    -0.001 A 
ENDROOT
TORSDOF 0
ENDMDL
