MODEL 1
REMARK minimizedAffinity 11.1098452
REMARK minimizedRMSD -1
REMARK  0 active torsions:
REMARK  status: ('A' for Active; 'I' for Inactive)
ROOT
ATOM      1  C   UNL d   1      -0.258  -5.681   1.839  0.00  0.00     0.078 C 
ATOM      2  C1  UNL d   1      -0.941  -4.347   1.775  0.00  0.00    -0.077 A 
ATOM      3  C2  UNL d   1      -1.651  -3.847   2.874  0.00  0.00    -0.001 A 
ATOM      4  C3  UNL d   1      -2.290  -2.608   2.796  0.00  0.00     0.003 A 
ATOM      5  C4  UNL d   1      -2.225  -1.860   1.623  0.00  0.00    -0.005 A 
ATOM      6  C5  UNL d   1      -1.523  -2.350   0.524  0.00  0.00     0.003 A 
ATOM      7  C6  UNL d   1      -0.884  -3.589   0.599  0.00  0.00    -0.001 A 
ENDROOT
TORSDOF 0
ENDMDL
