MODEL 1
REMARK minimizedAffinity 12.2528944
REMARK minimizedRMSD -1
REMARK  0 active torsions:
REMARK  status: ('A' for Active; 'I' for Inactive)
ROOT
ATOM      1  C   UNL d   1       4.890   5.625  -0.211  0.00  0.00     0.078 C 
ATOM      2  C1  UNL d   1       4.995   4.180   0.173  0.00  0.00    -0.077 A 
ATOM      3  C2  UNL d   1       5.915   3.332  -0.454  0.00  0.00    -0.001 A 
ATOM      4  C3  UNL d   1       5.995   1.986  -0.094  0.00  0.00     0.003 A 
ATOM      5  C4  UNL d   1       5.157   1.475   0.895  0.00  0.00    -0.005 A 
ATOM      6  C5  UNL d   1       4.236   2.311   1.524  0.00  0.00     0.003 A 
ATOM      7  C6  UNL d   1       4.154   3.657   1.164  0.00  0.00    -0.001 A 
ENDROOT
TORSDOF 0
ENDMDL
