MODEL 1
REMARK minimizedAffinity 12.0360088
REMARK minimizedRMSD -1
REMARK  0 active torsions:
REMARK  status: ('A' for Active; 'I' for Inactive)
ROOT
ATOM      1  C   UNL d   1      -1.988  -1.393  -0.487  0.00  0.00     0.078 C 
ATOM      2  C1  UNL d   1      -0.927  -0.972  -1.459  0.00  0.00    -0.077 A 
ATOM      3  C2  UNL d   1      -1.037  -1.272  -2.822  0.00  0.00    -0.001 A 
ATOM      4  C3  UNL d   1      -0.037  -0.882  -3.714  0.00  0.00     0.003 A 
ATOM      5  C4  UNL d   1       1.081  -0.190  -3.253  0.00  0.00    -0.005 A 
ATOM      6  C5  UNL d   1       1.201   0.111  -1.898  0.00  0.00     0.003 A 
ATOM      7  C6  UNL d   1       0.202  -0.278  -1.004  0.00  0.00    -0.001 A 
ENDROOT
TORSDOF 0
ENDMDL
