MODEL 1
REMARK minimizedAffinity 4.81524038
REMARK minimizedRMSD -1
REMARK  0 active torsions:
REMARK  status: ('A' for Active; 'I' for Inactive)
ROOT
ATOM      1  C   UNL d   1      -0.201  -4.955   0.431  0.00  0.00     0.078 C 
ATOM      2  C1  UNL d   1      -0.949  -3.671   0.230  0.00  0.00    -0.077 A 
ATOM      3  C2  UNL d   1      -1.942  -3.266   1.131  0.00  0.00    -0.001 A 
ATOM      4  C3  UNL d   1      -2.636  -2.073   0.927  0.00  0.00     0.003 A 
ATOM      5  C4  UNL d   1      -2.347  -1.276  -0.179  0.00  0.00    -0.005 A 
ATOM      6  C5  UNL d   1      -1.363  -1.671  -1.082  0.00  0.00     0.003 A 
ATOM      7  C6  UNL d   1      -0.667  -2.864  -0.879  0.00  0.00    -0.001 A 
ENDROOT
TORSDOF 0
ENDMDL
