MODEL 1
REMARK minimizedAffinity -0.692599475
REMARK minimizedRMSD -1
REMARK  1 active torsions:
REMARK  status: ('A' for Active; 'I' for Inactive)
REMARK    1  A    between atoms: C1_2  and  C2_3 
ROOT
ATOM      1  C2  UNL d   1       0.587   1.360  -0.064  0.00  0.00    -0.073 A 
ATOM      2  C3  UNL d   1       1.976   1.188  -0.058  0.00  0.00    -0.002 A 
ATOM      3  C4  UNL d   1       2.528  -0.093  -0.093  0.00  0.00     0.004 A 
ATOM      4  C5  UNL d   1       1.699  -1.214  -0.140  0.00  0.00    -0.004 A 
ATOM      5  C6  UNL d   1       0.308  -1.062  -0.158  0.00  0.00    -0.075 A 
ATOM      6  C7  UNL d   1      -0.598  -2.257  -0.207  0.00  0.00     0.076 C 
ATOM      7  C8  UNL d   1      -0.238   0.228  -0.121  0.00  0.00     0.001 A 
ENDROOT
BRANCH   1   8
ATOM      8  C1  UNL d   1      -0.013   2.742  -0.034  0.00  0.00     0.053 C 
ATOM      9  C   UNL d   1      -0.862   2.967   1.207  0.00  0.00     0.018 C 
ENDBRANCH   1   8
TORSDOF 1
ENDMDL
