MODEL 1
REMARK minimizedAffinity -2.8753438
REMARK minimizedRMSD -1
REMARK  1 active torsions:
REMARK  status: ('A' for Active; 'I' for Inactive)
REMARK    1  A    between atoms: C1_2  and  C2_3 
ROOT
ATOM      1  C2  UNL d   1      -0.155   0.692   0.377  0.00  0.00    -0.073 A 
ATOM      2  C3  UNL d   1      -0.856   1.877   0.622  0.00  0.00    -0.002 A 
ATOM      3  C4  UNL d   1      -0.168   3.067   0.861  0.00  0.00     0.004 A 
ATOM      4  C5  UNL d   1       1.227   3.085   0.852  0.00  0.00    -0.004 A 
ATOM      5  C6  UNL d   1       1.946   1.913   0.597  0.00  0.00    -0.075 A 
ATOM      6  C7  UNL d   1       3.446   1.916   0.586  0.00  0.00     0.076 C 
ATOM      7  C8  UNL d   1       1.247   0.722   0.360  0.00  0.00     0.001 A 
ENDROOT
BRANCH   1   8
ATOM      8  C1  UNL d   1      -0.894  -0.594   0.111  0.00  0.00     0.053 C 
ATOM      9  C   UNL d   1       0.054  -1.768  -0.077  0.00  0.00     0.018 C 
ENDBRANCH   1   8
TORSDOF 1
ENDMDL
