MODEL 1
REMARK minimizedAffinity -5.23772049
REMARK minimizedRMSD -1
REMARK  1 active torsions:
REMARK  status: ('A' for Active; 'I' for Inactive)
REMARK    1  A    between atoms: C1_2  and  C2_3 
ROOT
ATOM      1  C2  UNL d   1      -0.707   0.517   0.581  0.00  0.00    -0.073 A 
ATOM      2  C3  UNL d   1       0.101   1.370  -0.180  0.00  0.00    -0.002 A 
ATOM      3  C4  UNL d   1       0.171   2.730   0.122  0.00  0.00     0.004 A 
ATOM      4  C5  UNL d   1      -0.559   3.250   1.191  0.00  0.00    -0.004 A 
ATOM      5  C6  UNL d   1      -1.362   2.412   1.971  0.00  0.00    -0.075 A 
ATOM      6  C7  UNL d   1      -2.155   2.955   3.123  0.00  0.00     0.076 C 
ATOM      7  C8  UNL d   1      -1.429   1.047   1.659  0.00  0.00     0.001 A 
ENDROOT
BRANCH   1   8
ATOM      8  C1  UNL d   1      -0.780  -0.954   0.262  0.00  0.00     0.053 C 
ATOM      9  C   UNL d   1       0.596  -1.556   0.026  0.00  0.00     0.018 C 
ENDBRANCH   1   8
TORSDOF 1
ENDMDL
