MODEL 1
REMARK minimizedAffinity -3.14450049
REMARK minimizedRMSD -1
REMARK  1 active torsions:
REMARK  status: ('A' for Active; 'I' for Inactive)
REMARK    1  A    between atoms: C1_2  and  C2_3 
ROOT
ATOM      1  C2  UNL d   1      -0.165  -0.031   0.020  0.00  0.00    -0.073 A 
ATOM      2  C3  UNL d   1      -1.304   0.097   0.821  0.00  0.00    -0.002 A 
ATOM      3  C4  UNL d   1      -1.751   1.360   1.214  0.00  0.00     0.004 A 
ATOM      4  C5  UNL d   1      -1.068   2.505   0.804  0.00  0.00    -0.004 A 
ATOM      5  C6  UNL d   1       0.066   2.397  -0.007  0.00  0.00    -0.075 A 
ATOM      6  C7  UNL d   1       0.813   3.619  -0.455  0.00  0.00     0.076 C 
ATOM      7  C8  UNL d   1       0.510   1.126  -0.395  0.00  0.00     0.001 A 
ENDROOT
BRANCH   1   8
ATOM      8  C1  UNL d   1       0.318  -1.392  -0.412  0.00  0.00     0.053 C 
ATOM      9  C   UNL d   1      -0.796  -2.426  -0.387  0.00  0.00     0.018 C 
ENDBRANCH   1   8
TORSDOF 1
ENDMDL
