MODEL 1
REMARK minimizedAffinity -4.13481569
REMARK minimizedRMSD -1
REMARK  1 active torsions:
REMARK  status: ('A' for Active; 'I' for Inactive)
REMARK    1  A    between atoms: C1_2  and  C2_3 
ROOT
ATOM      1  C2  UNL d   1      -0.280  -1.775  -0.834  0.00  0.00    -0.073 A 
ATOM      2  C3  UNL d   1       0.400  -2.053  -2.025  0.00  0.00    -0.002 A 
ATOM      3  C4  UNL d   1      -0.209  -2.816  -3.022  0.00  0.00     0.004 A 
ATOM      4  C5  UNL d   1      -1.503  -3.303  -2.842  0.00  0.00    -0.004 A 
ATOM      5  C6  UNL d   1      -2.204  -3.025  -1.664  0.00  0.00    -0.075 A 
ATOM      6  C7  UNL d   1      -3.596  -3.543  -1.454  0.00  0.00     0.076 C 
ATOM      7  C8  UNL d   1      -1.585  -2.260  -0.666  0.00  0.00     0.001 A 
ENDROOT
BRANCH   1   8
ATOM      8  C1  UNL d   1       0.370  -0.946   0.243  0.00  0.00     0.053 C 
ATOM      9  C   UNL d   1       0.060   0.535   0.089  0.00  0.00     0.018 C 
ENDBRANCH   1   8
TORSDOF 1
ENDMDL
