MODEL 1
REMARK minimizedAffinity -3.35946393
REMARK minimizedRMSD -1
REMARK  1 active torsions:
REMARK  status: ('A' for Active; 'I' for Inactive)
REMARK    1  A    between atoms: C1_2  and  C2_3 
ROOT
ATOM      1  C2  UNL d   1       1.600   0.588   0.768  0.00  0.00    -0.073 A 
ATOM      2  C3  UNL d   1       1.377  -0.794   0.770  0.00  0.00    -0.002 A 
ATOM      3  C4  UNL d   1       0.079  -1.298   0.682  0.00  0.00     0.004 A 
ATOM      4  C5  UNL d   1      -1.007  -0.428   0.584  0.00  0.00    -0.004 A 
ATOM      5  C6  UNL d   1      -0.803   0.956   0.568  0.00  0.00    -0.075 A 
ATOM      6  C7  UNL d   1      -1.961   1.905   0.465  0.00  0.00     0.076 C 
ATOM      7  C8  UNL d   1       0.503   1.454   0.660  0.00  0.00     0.001 A 
ENDROOT
BRANCH   1   8
ATOM      8  C1  UNL d   1       3.001   1.137   0.857  0.00  0.00     0.053 C 
ATOM      9  C   UNL d   1       3.057   2.430   1.655  0.00  0.00     0.018 C 
ENDBRANCH   1   8
TORSDOF 1
ENDMDL
