MODEL 1
REMARK minimizedAffinity -2.07998991
REMARK minimizedRMSD -1
REMARK  1 active torsions:
REMARK  status: ('A' for Active; 'I' for Inactive)
REMARK    1  A    between atoms: C1_2  and  C2_3 
ROOT
ATOM      1  C2  UNL d   1       0.376  -0.439  -0.523  0.00  0.00    -0.073 A 
ATOM      2  C3  UNL d   1      -0.666  -0.839   0.321  0.00  0.00    -0.002 A 
ATOM      3  C4  UNL d   1      -1.405   0.111   1.027  0.00  0.00     0.004 A 
ATOM      4  C5  UNL d   1      -1.116   1.469   0.890  0.00  0.00    -0.004 A 
ATOM      5  C6  UNL d   1      -0.087   1.889   0.042  0.00  0.00    -0.075 A 
ATOM      6  C7  UNL d   1       0.239   3.346  -0.114  0.00  0.00     0.076 C 
ATOM      7  C8  UNL d   1       0.653   0.929  -0.661  0.00  0.00     0.001 A 
ENDROOT
BRANCH   1   8
ATOM      8  C1  UNL d   1       1.173  -1.461  -1.292  0.00  0.00     0.053 C 
ATOM      9  C   UNL d   1       0.394  -2.749  -1.504  0.00  0.00     0.018 C 
ENDBRANCH   1   8
TORSDOF 1
ENDMDL
