MODEL 1
REMARK minimizedAffinity 3.3801868
REMARK minimizedRMSD -1
REMARK  1 active torsions:
REMARK  status: ('A' for Active; 'I' for Inactive)
REMARK    1  A    between atoms: C1_2  and  C2_3 
ROOT
ATOM      1  C2  UNL d   1      -0.396   2.441   0.218  0.00  0.00    -0.073 A 
ATOM      2  C3  UNL d   1       0.083   3.535  -0.511  0.00  0.00    -0.002 A 
ATOM      3  C4  UNL d   1       1.406   3.562  -0.953  0.00  0.00     0.004 A 
ATOM      4  C5  UNL d   1       2.261   2.494  -0.678  0.00  0.00    -0.004 A 
ATOM      5  C6  UNL d   1       1.797   1.386   0.039  0.00  0.00    -0.075 A 
ATOM      6  C7  UNL d   1       2.703   0.231   0.345  0.00  0.00     0.076 C 
ATOM      7  C8  UNL d   1       0.467   1.368   0.482  0.00  0.00     0.001 A 
ENDROOT
BRANCH   1   8
ATOM      8  C1  UNL d   1      -1.826   2.404   0.692  0.00  0.00     0.053 C 
ATOM      9  C   UNL d   1      -2.812   2.434  -0.465  0.00  0.00     0.018 C 
ENDBRANCH   1   8
TORSDOF 1
ENDMDL
