MODEL 1
REMARK minimizedAffinity 1.91163468
REMARK minimizedRMSD -1
REMARK  1 active torsions:
REMARK  status: ('A' for Active; 'I' for Inactive)
REMARK    1  A    between atoms: C1_2  and  C2_3 
ROOT
ATOM      1  C2  UNL d   1       0.845   0.945   0.329  0.00  0.00    -0.073 A 
ATOM      2  C3  UNL d   1       1.744   1.930  -0.097  0.00  0.00    -0.002 A 
ATOM      3  C4  UNL d   1       1.275   3.165  -0.547  0.00  0.00     0.004 A 
ATOM      4  C5  UNL d   1      -0.094   3.430  -0.569  0.00  0.00    -0.004 A 
ATOM      5  C6  UNL d   1      -1.007   2.463  -0.136  0.00  0.00    -0.075 A 
ATOM      6  C7  UNL d   1      -2.483   2.732  -0.155  0.00  0.00     0.076 C 
ATOM      7  C8  UNL d   1      -0.529   1.225   0.312  0.00  0.00     0.001 A 
ENDROOT
BRANCH   1   8
ATOM      8  C1  UNL d   1       1.348  -0.388   0.821  0.00  0.00     0.053 C 
ATOM      9  C   UNL d   1       0.609  -1.549   0.176  0.00  0.00     0.018 C 
ENDBRANCH   1   8
TORSDOF 1
ENDMDL
