MODEL 1
REMARK minimizedAffinity -6.03806591
REMARK minimizedRMSD -1
REMARK  1 active torsions:
REMARK  status: ('A' for Active; 'I' for Inactive)
REMARK    1  A    between atoms: C1_2  and  C2_3 
ROOT
ATOM      1  C2  UNL d   1      -0.676   0.749   0.176  0.00  0.00    -0.073 A 
ATOM      2  C3  UNL d   1      -0.539   0.747  -1.217  0.00  0.00    -0.002 A 
ATOM      3  C4  UNL d   1      -0.516  -0.457  -1.921  0.00  0.00     0.004 A 
ATOM      4  C5  UNL d   1      -0.636  -1.670  -1.243  0.00  0.00    -0.004 A 
ATOM      5  C6  UNL d   1      -0.786  -1.688   0.147  0.00  0.00    -0.075 A 
ATOM      6  C7  UNL d   1      -0.914  -2.984   0.892  0.00  0.00     0.076 C 
ATOM      7  C8  UNL d   1      -0.805  -0.475   0.848  0.00  0.00     0.001 A 
ENDROOT
BRANCH   1   8
ATOM      8  C1  UNL d   1      -0.708   2.047   0.940  0.00  0.00     0.053 C 
ATOM      9  C   UNL d   1       0.280   3.060   0.385  0.00  0.00     0.018 C 
ENDBRANCH   1   8
TORSDOF 1
ENDMDL
