MODEL 1
REMARK minimizedAffinity 13.6653433
REMARK minimizedRMSD -1
REMARK  2 active torsions:
REMARK  status: ('A' for Active; 'I' for Inactive)
REMARK    1  A    between atoms: C2'_3  and  C1'_4 
REMARK    2  A    between atoms: C1'_4  and  C1_5 
ROOT
ATOM      1  C1  I4B d   1      -1.796  -2.429   3.369  0.00  0.00    -0.075 A 
ATOM      2  C2  I4B d   1      -0.982  -1.860   2.421  0.00  0.00     0.003 A 
ATOM      3  C3  I4B d   1       0.026  -0.942   2.806  0.00  0.00     0.002 A 
ATOM      4  C4  I4B d   1       0.151  -0.587   4.133  0.00  0.00    -0.004 A 
ATOM      5  C5  I4B d   1      -0.660  -1.183   5.095  0.00  0.00     0.002 A 
ATOM      6  C6  I4B d   1      -1.631  -2.119   4.713  0.00  0.00     0.003 A 
ENDROOT
BRANCH   1   7
ATOM      7  C1' I4B d   1      -2.871  -3.369   2.924  0.00  0.00     0.060 C 
BRANCH   7   8
ATOM      8  C2' I4B d   1      -3.566  -2.750   1.728  0.00  0.00    -0.013 C 
ATOM      9  C4' I4B d   1      -3.941  -3.798   0.713  0.00  0.00     0.013 C 
ATOM     10  C3' I4B d   1      -4.778  -2.020   2.224  0.00  0.00     0.013 C 
ENDBRANCH   7   8
ENDBRANCH   1   7
TORSDOF 2
ENDMDL
