MODEL 1
REMARK minimizedAffinity 10.6016798
REMARK minimizedRMSD -1
REMARK  2 active torsions:
REMARK  status: ('A' for Active; 'I' for Inactive)
REMARK    1  A    between atoms: C2'_3  and  C1'_4 
REMARK    2  A    between atoms: C1'_4  and  C1_5 
ROOT
ATOM      1  C1  I4B d   1      -1.499  -2.325   3.402  0.00  0.00    -0.075 A 
ATOM      2  C2  I4B d   1      -0.418  -2.390   2.558  0.00  0.00     0.003 A 
ATOM      3  C3  I4B d   1       0.583  -1.390   2.606  0.00  0.00     0.002 A 
ATOM      4  C4  I4B d   1       0.440  -0.324   3.470  0.00  0.00    -0.004 A 
ATOM      5  C5  I4B d   1      -0.646  -0.272   4.340  0.00  0.00     0.002 A 
ATOM      6  C6  I4B d   1      -1.615  -1.285   4.315  0.00  0.00     0.003 A 
ENDROOT
BRANCH   1   7
ATOM      7  C1' I4B d   1      -2.555  -3.380   3.302  0.00  0.00     0.060 C 
BRANCH   7   8
ATOM      8  C2' I4B d   1      -3.414  -3.069   2.093  0.00  0.00    -0.013 C 
ATOM      9  C4' I4B d   1      -3.571  -4.279   1.210  0.00  0.00     0.013 C 
ATOM     10  C3' I4B d   1      -4.744  -2.580   2.583  0.00  0.00     0.013 C 
ENDBRANCH   7   8
ENDBRANCH   1   7
TORSDOF 2
ENDMDL
