MODEL 1
REMARK minimizedAffinity 15.676568
REMARK minimizedRMSD -1
REMARK  2 active torsions:
REMARK  status: ('A' for Active; 'I' for Inactive)
REMARK    1  A    between atoms: C2'_3  and  C1'_4 
REMARK    2  A    between atoms: C1'_4  and  C1_5 
ROOT
ATOM      1  C1  I4B d   1       1.784  -1.114   2.464  0.00  0.00    -0.075 A 
ATOM      2  C2  I4B d   1       1.868  -0.451   3.663  0.00  0.00     0.003 A 
ATOM      3  C3  I4B d   1       0.722  -0.314   4.483  0.00  0.00     0.002 A 
ATOM      4  C4  I4B d   1      -0.490  -0.807   4.045  0.00  0.00    -0.004 A 
ATOM      5  C5  I4B d   1      -0.568  -1.499   2.840  0.00  0.00     0.002 A 
ATOM      6  C6  I4B d   1       0.578  -1.664   2.049  0.00  0.00     0.003 A 
ENDROOT
BRANCH   1   7
ATOM      7  C1' I4B d   1       3.007  -1.212   1.607  0.00  0.00     0.060 C 
BRANCH   7   8
ATOM      8  C2' I4B d   1       3.994  -0.165   2.082  0.00  0.00    -0.013 C 
ATOM      9  C4' I4B d   1       5.382  -0.738   2.199  0.00  0.00     0.013 C 
ATOM     10  C3' I4B d   1       3.960   0.977   1.110  0.00  0.00     0.013 C 
ENDBRANCH   7   8
ENDBRANCH   1   7
TORSDOF 2
ENDMDL
