MODEL 1
REMARK minimizedAffinity 13.6834269
REMARK minimizedRMSD -1
REMARK  2 active torsions:
REMARK  status: ('A' for Active; 'I' for Inactive)
REMARK    1  A    between atoms: C2'_3  and  C1'_4 
REMARK    2  A    between atoms: C1'_4  and  C1_5 
ROOT
ATOM      1  C1  I4B d   1      -3.591  -4.145   0.205  0.00  0.00    -0.075 A 
ATOM      2  C2  I4B d   1      -4.456  -3.566   1.100  0.00  0.00     0.003 A 
ATOM      3  C3  I4B d   1      -5.670  -4.212   1.437  0.00  0.00     0.002 A 
ATOM      4  C4  I4B d   1      -6.000  -5.403   0.823  0.00  0.00    -0.004 A 
ATOM      5  C5  I4B d   1      -5.110  -6.000  -0.066  0.00  0.00     0.002 A 
ATOM      6  C6  I4B d   1      -3.893  -5.373  -0.368  0.00  0.00     0.003 A 
ENDROOT
BRANCH   1   7
ATOM      7  C1' I4B d   1      -2.333  -3.419  -0.153  0.00  0.00     0.060 C 
BRANCH   7   8
ATOM      8  C2' I4B d   1      -1.528  -3.225   1.116  0.00  0.00    -0.013 C 
ATOM      9  C4' I4B d   1      -2.401  -2.753   2.248  0.00  0.00     0.013 C 
ATOM     10  C3' I4B d   1      -0.867  -4.529   1.449  0.00  0.00     0.013 C 
ENDBRANCH   7   8
ENDBRANCH   1   7
TORSDOF 2
ENDMDL
