MODEL 1
REMARK minimizedAffinity 9.67886639
REMARK minimizedRMSD -1
REMARK  2 active torsions:
REMARK  status: ('A' for Active; 'I' for Inactive)
REMARK    1  A    between atoms: C2'_3  and  C1'_4 
REMARK    2  A    between atoms: C1'_4  and  C1_5 
ROOT
ATOM      1  C1  I4B d   1      -4.142  -4.497   2.572  0.00  0.00    -0.075 A 
ATOM      2  C2  I4B d   1      -3.736  -5.669   1.985  0.00  0.00     0.003 A 
ATOM      3  C3  I4B d   1      -3.727  -5.794   0.575  0.00  0.00     0.002 A 
ATOM      4  C4  I4B d   1      -4.178  -4.748  -0.203  0.00  0.00    -0.004 A 
ATOM      5  C5  I4B d   1      -4.568  -3.552   0.393  0.00  0.00     0.002 A 
ATOM      6  C6  I4B d   1      -4.539  -3.421   1.789  0.00  0.00     0.003 A 
ENDROOT
BRANCH   1   7
ATOM      7  C1' I4B d   1      -4.170  -4.410   4.065  0.00  0.00     0.060 C 
BRANCH   7   8
ATOM      8  C2' I4B d   1      -5.610  -4.550   4.514  0.00  0.00    -0.013 C 
ATOM      9  C4' I4B d   1      -5.995  -5.999   4.665  0.00  0.00     0.013 C 
ATOM     10  C3' I4B d   1      -5.765  -3.811   5.810  0.00  0.00     0.013 C 
ENDBRANCH   7   8
ENDBRANCH   1   7
TORSDOF 2
ENDMDL
