MODEL 1
REMARK minimizedAffinity 9.7681942
REMARK minimizedRMSD -1
REMARK  2 active torsions:
REMARK  status: ('A' for Active; 'I' for Inactive)
REMARK    1  A    between atoms: C2'_3  and  C1'_4 
REMARK    2  A    between atoms: C1'_4  and  C1_5 
ROOT
ATOM      1  C1  I4B d   1      -0.610  -1.377   2.194  0.00  0.00    -0.075 A 
ATOM      2  C2  I4B d   1      -1.710  -2.177   2.011  0.00  0.00     0.003 A 
ATOM      3  C3  I4B d   1      -2.548  -2.498   3.107  0.00  0.00     0.002 A 
ATOM      4  C4  I4B d   1      -2.223  -2.041   4.368  0.00  0.00    -0.004 A 
ATOM      5  C5  I4B d   1      -1.120  -1.211   4.547  0.00  0.00     0.002 A 
ATOM      6  C6  I4B d   1      -0.315  -0.866   3.451  0.00  0.00     0.003 A 
ENDROOT
BRANCH   1   7
ATOM      7  C1' I4B d   1       0.272  -1.085   1.021  0.00  0.00     0.060 C 
BRANCH   7   8
ATOM      8  C2' I4B d   1       1.497  -1.969   1.127  0.00  0.00    -0.013 C 
ATOM      9  C4' I4B d   1       1.551  -2.965  -0.002  0.00  0.00     0.013 C 
ATOM     10  C3' I4B d   1       2.708  -1.084   1.127  0.00  0.00     0.013 C 
ENDBRANCH   7   8
ENDBRANCH   1   7
TORSDOF 2
ENDMDL
