MODEL 1
REMARK minimizedAffinity 17.9565792
REMARK minimizedRMSD -1
REMARK  2 active torsions:
REMARK  status: ('A' for Active; 'I' for Inactive)
REMARK    1  A    between atoms: C2'_3  and  C1'_4 
REMARK    2  A    between atoms: C1'_4  and  C1_5 
ROOT
ATOM      1  C1  I4B d   1      -0.382  -0.666   3.333  0.00  0.00    -0.075 A 
ATOM      2  C2  I4B d   1      -1.717  -0.722   3.645  0.00  0.00     0.003 A 
ATOM      3  C3  I4B d   1      -2.136  -0.666   4.997  0.00  0.00     0.002 A 
ATOM      4  C4  I4B d   1      -1.189  -0.604   5.999  0.00  0.00    -0.004 A 
ATOM      5  C5  I4B d   1       0.163  -0.524   5.679  0.00  0.00     0.002 A 
ATOM      6  C6  I4B d   1       0.569  -0.543   4.337  0.00  0.00     0.003 A 
ENDROOT
BRANCH   1   7
ATOM      7  C1' I4B d   1       0.027  -0.762   1.897  0.00  0.00     0.060 C 
BRANCH   7   8
ATOM      8  C2' I4B d   1      -0.148  -2.201   1.456  0.00  0.00    -0.013 C 
ATOM      9  C4' I4B d   1      -1.063  -2.299   0.265  0.00  0.00     0.013 C 
ATOM     10  C3' I4B d   1       1.209  -2.758   1.144  0.00  0.00     0.013 C 
ENDBRANCH   7   8
ENDBRANCH   1   7
TORSDOF 2
ENDMDL
