MODEL 1
REMARK minimizedAffinity 8.6230526
REMARK minimizedRMSD -1
REMARK  2 active torsions:
REMARK  status: ('A' for Active; 'I' for Inactive)
REMARK    1  A    between atoms: C2'_3  and  C1'_4 
REMARK    2  A    between atoms: C1'_4  and  C1_5 
ROOT
ATOM      1  C1  I4B d   1      -4.182  -4.205   1.229  0.00  0.00    -0.075 A 
ATOM      2  C2  I4B d   1      -5.395  -4.471   1.814  0.00  0.00     0.003 A 
ATOM      3  C3  I4B d   1      -5.500  -4.574   3.222  0.00  0.00     0.002 A 
ATOM      4  C4  I4B d   1      -4.365  -4.455   3.998  0.00  0.00    -0.004 A 
ATOM      5  C5  I4B d   1      -3.141  -4.162   3.405  0.00  0.00     0.002 A 
ATOM      6  C6  I4B d   1      -3.050  -4.023   2.013  0.00  0.00     0.003 A 
ENDROOT
BRANCH   1   7
ATOM      7  C1' I4B d   1      -4.101  -4.135  -0.263  0.00  0.00     0.060 C 
BRANCH   7   8
ATOM      8  C2' I4B d   1      -4.052  -5.553  -0.795  0.00  0.00    -0.013 C 
ATOM      9  C4' I4B d   1      -5.147  -5.797  -1.800  0.00  0.00     0.013 C 
ATOM     10  C3' I4B d   1      -2.699  -5.772  -1.404  0.00  0.00     0.013 C 
ENDBRANCH   7   8
ENDBRANCH   1   7
TORSDOF 2
ENDMDL
