MODEL 1
REMARK minimizedAffinity -0.851888955
REMARK minimizedRMSD -1
REMARK  2 active torsions:
REMARK  status: ('A' for Active; 'I' for Inactive)
REMARK    1  A    between atoms: C2'_3  and  C1'_4 
REMARK    2  A    between atoms: C1'_4  and  C1_5 
ROOT
ATOM      1  C1  I4B d   1      -5.529  -5.173   3.392  0.00  0.00    -0.075 A 
ATOM      2  C2  I4B d   1      -4.639  -4.147   3.588  0.00  0.00     0.003 A 
ATOM      3  C3  I4B d   1      -4.201  -3.823   4.894  0.00  0.00     0.002 A 
ATOM      4  C4  I4B d   1      -4.713  -4.513   5.974  0.00  0.00    -0.004 A 
ATOM      5  C5  I4B d   1      -5.597  -5.569   5.772  0.00  0.00     0.002 A 
ATOM      6  C6  I4B d   1      -5.999  -5.909   4.472  0.00  0.00     0.003 A 
ENDROOT
BRANCH   1   7
ATOM      7  C1' I4B d   1      -5.997  -5.467   2.002  0.00  0.00     0.060 C 
BRANCH   7   8
ATOM      8  C2' I4B d   1      -4.853  -5.172   1.053  0.00  0.00    -0.013 C 
ATOM      9  C4' I4B d   1      -4.958  -6.000  -0.201  0.00  0.00     0.013 C 
ATOM     10  C3' I4B d   1      -4.879  -3.706   0.738  0.00  0.00     0.013 C 
ENDBRANCH   7   8
ENDBRANCH   1   7
TORSDOF 2
ENDMDL
