MODEL 1
REMARK minimizedAffinity 14.9224577
REMARK minimizedRMSD -1
REMARK  2 active torsions:
REMARK  status: ('A' for Active; 'I' for Inactive)
REMARK    1  A    between atoms: C2'_3  and  C1'_4 
REMARK    2  A    between atoms: C1'_4  and  C1_5 
ROOT
ATOM      1  C1  I4B d   1       2.415  -4.181  -5.043  0.00  0.00    -0.075 A 
ATOM      2  C2  I4B d   1       1.756  -5.317  -5.441  0.00  0.00     0.003 A 
ATOM      3  C3  I4B d   1       0.880  -5.982  -4.549  0.00  0.00     0.002 A 
ATOM      4  C4  I4B d   1       0.732  -5.508  -3.262  0.00  0.00    -0.004 A 
ATOM      5  C5  I4B d   1       1.383  -4.343  -2.868  0.00  0.00     0.002 A 
ATOM      6  C6  I4B d   1       2.220  -3.668  -3.768  0.00  0.00     0.003 A 
ENDROOT
BRANCH   1   7
ATOM      7  C1' I4B d   1       3.358  -3.523  -6.000  0.00  0.00     0.060 C 
BRANCH   7   8
ATOM      8  C2' I4B d   1       4.610  -3.145  -5.235  0.00  0.00    -0.013 C 
ATOM      9  C4' I4B d   1       5.851  -3.532  -5.995  0.00  0.00     0.013 C 
ATOM     10  C3' I4B d   1       4.570  -1.667  -4.981  0.00  0.00     0.013 C 
ENDBRANCH   7   8
ENDBRANCH   1   7
TORSDOF 2
ENDMDL
