MODEL 1
REMARK minimizedAffinity 21.2138519
REMARK minimizedRMSD -1
REMARK  2 active torsions:
REMARK  status: ('A' for Active; 'I' for Inactive)
REMARK    1  A    between atoms: C2'_3  and  C1'_4 
REMARK    2  A    between atoms: C1'_4  and  C1_5 
ROOT
ATOM      1  C1  I4B d   1      -2.360   3.230  -2.183  0.00  0.00    -0.075 A 
ATOM      2  C2  I4B d   1      -3.535   2.590  -1.878  0.00  0.00     0.003 A 
ATOM      3  C3  I4B d   1      -4.699   3.341  -1.581  0.00  0.00     0.002 A 
ATOM      4  C4  I4B d   1      -4.629   4.719  -1.552  0.00  0.00    -0.004 A 
ATOM      5  C5  I4B d   1      -3.442   5.366  -1.884  0.00  0.00     0.002 A 
ATOM      6  C6  I4B d   1      -2.303   4.617  -2.214  0.00  0.00     0.003 A 
ENDROOT
BRANCH   1   7
ATOM      7  C1' I4B d   1      -1.142   2.406  -2.460  0.00  0.00     0.060 C 
BRANCH   7   8
ATOM      8  C2' I4B d   1      -0.067   2.817  -1.474  0.00  0.00    -0.013 C 
ATOM      9  C4' I4B d   1       0.031   1.839  -0.334  0.00  0.00     0.013 C 
ATOM     10  C3' I4B d   1       1.231   2.913  -2.219  0.00  0.00     0.013 C 
ENDBRANCH   7   8
ENDBRANCH   1   7
TORSDOF 2
ENDMDL
