MODEL 1
REMARK minimizedAffinity 15.2436523
REMARK minimizedRMSD -1
REMARK  1 active torsions:
REMARK  status: ('A' for Active; 'I' for Inactive)
REMARK    1  A    between atoms: C1_2  and  C2_3 
ROOT
ATOM      1  C2  UNL d   1      -0.118  -2.244  -2.617  0.00  0.00    -0.076 A 
ATOM      2  C3  UNL d   1      -1.173  -2.347  -1.693  0.00  0.00     0.004 A 
ATOM      3  C4  UNL d   1      -1.158  -1.621  -0.504  0.00  0.00    -0.003 A 
ATOM      4  C5  UNL d   1      -0.088  -0.779  -0.219  0.00  0.00     0.000 A 
ATOM      5  C6  UNL d   1       0.958  -0.651  -1.132  0.00  0.00     0.000 A 
ATOM      6  C7  UNL d   1       0.951  -1.364  -2.343  0.00  0.00    -0.073 A 
ATOM      7  C8  UNL d   1       2.108  -1.192  -3.289  0.00  0.00     0.078 C 
ENDROOT
BRANCH   1   8
ATOM      8  C1  UNL d   1      -0.176  -3.076  -3.878  0.00  0.00     0.053 C 
ATOM      9  C   UNL d   1      -1.055  -4.307  -3.724  0.00  0.00     0.018 C 
ENDBRANCH   1   8
TORSDOF 1
ENDMDL
