MODEL 1
REMARK minimizedAffinity 8.00160789
REMARK minimizedRMSD -1
REMARK  1 active torsions:
REMARK  status: ('A' for Active; 'I' for Inactive)
REMARK    1  A    between atoms: C1_2  and  C2_3 
ROOT
ATOM      1  C2  UNL d   1       3.716   0.224  -4.163  0.00  0.00    -0.076 A 
ATOM      2  C3  UNL d   1       4.843   0.038  -3.345  0.00  0.00     0.004 A 
ATOM      3  C4  UNL d   1       5.964   0.858  -3.469  0.00  0.00    -0.003 A 
ATOM      4  C5  UNL d   1       5.974   1.878  -4.414  0.00  0.00     0.000 A 
ATOM      5  C6  UNL d   1       4.858   2.089  -5.222  0.00  0.00     0.000 A 
ATOM      6  C7  UNL d   1       3.714   1.282  -5.098  0.00  0.00    -0.073 A 
ATOM      7  C8  UNL d   1       2.540   1.550  -6.000  0.00  0.00     0.078 C 
ENDROOT
BRANCH   1   8
ATOM      8  C1  UNL d   1       2.541  -0.713  -4.002  0.00  0.00     0.053 C 
ATOM      9  C   UNL d   1       2.505  -1.372  -2.632  0.00  0.00     0.018 C 
ENDBRANCH   1   8
TORSDOF 1
ENDMDL
