MODEL 1
REMARK minimizedAffinity 8.38684177
REMARK minimizedRMSD -1
REMARK  1 active torsions:
REMARK  status: ('A' for Active; 'I' for Inactive)
REMARK    1  A    between atoms: C1_2  and  C2_3 
ROOT
ATOM      1  C2  UNL d   1      -0.561  -1.580   1.691  0.00  0.00    -0.076 A 
ATOM      2  C3  UNL d   1       0.318  -1.304   0.629  0.00  0.00     0.004 A 
ATOM      3  C4  UNL d   1       0.952  -0.067   0.526  0.00  0.00    -0.003 A 
ATOM      4  C5  UNL d   1       0.718   0.914   1.482  0.00  0.00     0.000 A 
ATOM      5  C6  UNL d   1      -0.138   0.652   2.552  0.00  0.00     0.000 A 
ATOM      6  C7  UNL d   1      -0.772  -0.595   2.680  0.00  0.00    -0.073 A 
ATOM      7  C8  UNL d   1      -1.690  -0.821   3.850  0.00  0.00     0.078 C 
ENDROOT
BRANCH   1   8
ATOM      8  C1  UNL d   1      -1.241  -2.929   1.736  0.00  0.00     0.053 C 
ATOM      9  C   UNL d   1      -0.490  -3.931   2.599  0.00  0.00     0.018 C 
ENDBRANCH   1   8
TORSDOF 1
ENDMDL
