MODEL 1
REMARK minimizedAffinity 13.4462461
REMARK minimizedRMSD -1
REMARK  1 active torsions:
REMARK  status: ('A' for Active; 'I' for Inactive)
REMARK    1  A    between atoms: C1_2  and  C2_3 
ROOT
ATOM      1  C2  UNL d   1      -5.946   0.524   5.108  0.00  0.00    -0.076 A 
ATOM      2  C3  UNL d   1      -5.959   1.735   5.821  0.00  0.00     0.004 A 
ATOM      3  C4  UNL d   1      -5.981   2.959   5.155  0.00  0.00    -0.003 A 
ATOM      4  C5  UNL d   1      -5.991   2.992   3.765  0.00  0.00     0.000 A 
ATOM      5  C6  UNL d   1      -5.996   1.800   3.042  0.00  0.00     0.000 A 
ATOM      6  C7  UNL d   1      -5.991   0.557   3.698  0.00  0.00    -0.073 A 
ATOM      7  C8  UNL d   1      -5.990  -0.697   2.868  0.00  0.00     0.078 C 
ENDROOT
BRANCH   1   8
ATOM      8  C1  UNL d   1      -5.895  -0.773   5.884  0.00  0.00     0.053 C 
ATOM      9  C   UNL d   1      -4.484  -1.330   5.995  0.00  0.00     0.018 C 
ENDBRANCH   1   8
TORSDOF 1
ENDMDL
