MODEL 1
REMARK minimizedAffinity 12.7430134
REMARK minimizedRMSD -1
REMARK  1 active torsions:
REMARK  status: ('A' for Active; 'I' for Inactive)
REMARK    1  A    between atoms: C1_2  and  C2_3 
ROOT
ATOM      1  C2  UNL d   1       0.731  -1.841  -3.493  0.00  0.00    -0.076 A 
ATOM      2  C3  UNL d   1       1.415  -2.893  -4.126  0.00  0.00     0.004 A 
ATOM      3  C4  UNL d   1       0.726  -3.866  -4.847  0.00  0.00    -0.003 A 
ATOM      4  C5  UNL d   1      -0.659  -3.803  -4.948  0.00  0.00     0.000 A 
ATOM      5  C6  UNL d   1      -1.353  -2.756  -4.342  0.00  0.00     0.000 A 
ATOM      6  C7  UNL d   1      -0.672  -1.758  -3.625  0.00  0.00    -0.073 A 
ATOM      7  C8  UNL d   1      -1.471  -0.655  -2.986  0.00  0.00     0.078 C 
ENDROOT
BRANCH   1   8
ATOM      8  C1  UNL d   1       1.529  -0.829  -2.702  0.00  0.00     0.053 C 
ATOM      9  C   UNL d   1       3.022  -1.120  -2.723  0.00  0.00     0.018 C 
ENDBRANCH   1   8
TORSDOF 1
ENDMDL
