MODEL 1
REMARK minimizedAffinity 9.10718632
REMARK minimizedRMSD -1
REMARK  1 active torsions:
REMARK  status: ('A' for Active; 'I' for Inactive)
REMARK    1  A    between atoms: C1_2  and  C2_3 
ROOT
ATOM      1  C2  UNL d   1      -4.306  -1.118   3.239  0.00  0.00    -0.076 A 
ATOM      2  C3  UNL d   1      -5.129  -1.674   2.245  0.00  0.00     0.004 A 
ATOM      3  C4  UNL d   1      -4.584  -2.402   1.188  0.00  0.00    -0.003 A 
ATOM      4  C5  UNL d   1      -3.208  -2.586   1.109  0.00  0.00     0.000 A 
ATOM      5  C6  UNL d   1      -2.379  -2.056   2.097  0.00  0.00     0.000 A 
ATOM      6  C7  UNL d   1      -2.912  -1.334   3.177  0.00  0.00    -0.073 A 
ATOM      7  C8  UNL d   1      -1.970  -0.780   4.211  0.00  0.00     0.078 C 
ENDROOT
BRANCH   1   8
ATOM      8  C1  UNL d   1      -4.950  -0.315   4.347  0.00  0.00     0.053 C 
ATOM      9  C   UNL d   1      -5.999   0.656   3.828  0.00  0.00     0.018 C 
ENDBRANCH   1   8
TORSDOF 1
ENDMDL
