MODEL 1
REMARK minimizedAffinity 4.6479826
REMARK minimizedRMSD -1
REMARK  1 active torsions:
REMARK  status: ('A' for Active; 'I' for Inactive)
REMARK    1  A    between atoms: C1_2  and  C2_3 
ROOT
ATOM      1  C2  UNL d   1      -5.628   2.370   4.738  0.00  0.00    -0.076 A 
ATOM      2  C3  UNL d   1      -5.827   3.052   3.526  0.00  0.00     0.004 A 
ATOM      3  C4  UNL d   1      -6.000   2.357   2.330  0.00  0.00    -0.003 A 
ATOM      4  C5  UNL d   1      -5.976   0.966   2.328  0.00  0.00     0.000 A 
ATOM      5  C6  UNL d   1      -5.797   0.272   3.524  0.00  0.00     0.000 A 
ATOM      6  C7  UNL d   1      -5.638   0.958   4.741  0.00  0.00    -0.073 A 
ATOM      7  C8  UNL d   1      -5.442   0.159   6.000  0.00  0.00     0.078 C 
ENDROOT
BRANCH   1   8
ATOM      8  C1  UNL d   1      -5.419   3.178   5.999  0.00  0.00     0.053 C 
ATOM      9  C   UNL d   1      -5.946   4.599   5.873  0.00  0.00     0.018 C 
ENDBRANCH   1   8
TORSDOF 1
ENDMDL
