MODEL 1
REMARK minimizedAffinity 13.1609354
REMARK minimizedRMSD -1
REMARK  1 active torsions:
REMARK  status: ('A' for Active; 'I' for Inactive)
REMARK    1  A    between atoms: C1_2  and  C2_3 
ROOT
ATOM      1  C2  UNL d   1      -0.116  -0.577   0.912  0.00  0.00    -0.076 A 
ATOM      2  C3  UNL d   1      -0.869  -1.409   1.760  0.00  0.00     0.004 A 
ATOM      3  C4  UNL d   1      -1.461  -0.906   2.917  0.00  0.00    -0.003 A 
ATOM      4  C5  UNL d   1      -1.310   0.437   3.245  0.00  0.00     0.000 A 
ATOM      5  C6  UNL d   1      -0.582   1.280   2.407  0.00  0.00     0.000 A 
ATOM      6  C7  UNL d   1       0.008   0.793   1.228  0.00  0.00    -0.073 A 
ATOM      7  C8  UNL d   1       0.788   1.745   0.364  0.00  0.00     0.078 C 
ENDROOT
BRANCH   1   8
ATOM      8  C1  UNL d   1       0.526  -1.184  -0.315  0.00  0.00     0.053 C 
ATOM      9  C   UNL d   1       1.974  -1.584  -0.078  0.00  0.00     0.018 C 
ENDBRANCH   1   8
TORSDOF 1
ENDMDL
