MODEL 1
REMARK minimizedAffinity 2.04450011
REMARK minimizedRMSD -1
REMARK  0 active torsions:
REMARK  status: ('A' for Active; 'I' for Inactive)
ROOT
ATOM      1  C   UNL d   1       5.177  -0.719   2.630  0.00  0.00     0.077 C 
ATOM      2  C1  UNL d   1       3.723  -0.801   2.271  0.00  0.00    -0.074 A 
ATOM      3  C2  UNL d   1       2.811  -1.446   3.113  0.00  0.00    -0.005 A 
ATOM      4  C3  UNL d   1       1.460  -1.506   2.771  0.00  0.00     0.006 A 
ATOM      5  C4  UNL d   1       1.008  -0.923   1.586  0.00  0.00    -0.005 A 
ATOM      6  C5  UNL d   1       1.906  -0.273   0.733  0.00  0.00    -0.074 A 
ATOM      7  C6  UNL d   1       1.436   0.368  -0.539  0.00  0.00     0.077 C 
ATOM      8  C7  UNL d   1       3.261  -0.211   1.087  0.00  0.00    -0.001 A 
ENDROOT
TORSDOF 0
ENDMDL
