MODEL 1
REMARK minimizedAffinity 0.967535734
REMARK minimizedRMSD -1
REMARK  0 active torsions:
REMARK  status: ('A' for Active; 'I' for Inactive)
ROOT
ATOM      1  C   UNL d   1      -1.118   3.799  -4.958  0.00  0.00     0.077 C 
ATOM      2  C1  UNL d   1      -1.404   2.615  -4.083  0.00  0.00    -0.074 A 
ATOM      3  C2  UNL d   1      -0.369   1.796  -3.619  0.00  0.00    -0.005 A 
ATOM      4  C3  UNL d   1      -0.650   0.704  -2.799  0.00  0.00     0.006 A 
ATOM      5  C4  UNL d   1      -1.967   0.419  -2.435  0.00  0.00    -0.005 A 
ATOM      6  C5  UNL d   1      -3.015   1.227  -2.888  0.00  0.00    -0.074 A 
ATOM      7  C6  UNL d   1      -4.434   0.941  -2.498  0.00  0.00     0.077 C 
ATOM      8  C7  UNL d   1      -2.724   2.327  -3.706  0.00  0.00    -0.001 A 
ENDROOT
TORSDOF 0
ENDMDL
