MODEL 1
REMARK minimizedAffinity -3.42033768
REMARK minimizedRMSD -1
REMARK  0 active torsions:
REMARK  status: ('A' for Active; 'I' for Inactive)
ROOT
ATOM      1  C   UNL d   1       1.012   0.537   0.029  0.00  0.00     0.077 C 
ATOM      2  C1  UNL d   1       1.512  -0.526   0.961  0.00  0.00    -0.074 A 
ATOM      3  C2  UNL d   1       2.428  -1.489   0.527  0.00  0.00    -0.005 A 
ATOM      4  C3  UNL d   1       2.891  -2.466   1.409  0.00  0.00     0.006 A 
ATOM      5  C4  UNL d   1       2.444  -2.489   2.730  0.00  0.00    -0.005 A 
ATOM      6  C5  UNL d   1       1.529  -1.533   3.182  0.00  0.00    -0.074 A 
ATOM      7  C6  UNL d   1       1.046  -1.537   4.602  0.00  0.00     0.077 C 
ATOM      8  C7  UNL d   1       1.073  -0.550   2.293  0.00  0.00    -0.001 A 
ENDROOT
TORSDOF 0
ENDMDL
