MODEL 1
REMARK minimizedAffinity -3.52535343
REMARK minimizedRMSD -1
REMARK  0 active torsions:
REMARK  status: ('A' for Active; 'I' for Inactive)
ROOT
ATOM      1  C   UNL d   1      -1.995  -6.000  -2.319  0.00  0.00     0.077 C 
ATOM      2  C1  UNL d   1      -1.100  -5.993  -3.523  0.00  0.00    -0.074 A 
ATOM      3  C2  UNL d   1      -1.634  -5.961  -4.815  0.00  0.00    -0.005 A 
ATOM      4  C3  UNL d   1      -0.790  -5.945  -5.925  0.00  0.00     0.006 A 
ATOM      5  C4  UNL d   1       0.595  -5.960  -5.754  0.00  0.00    -0.005 A 
ATOM      6  C5  UNL d   1       1.147  -5.991  -4.470  0.00  0.00    -0.074 A 
ATOM      7  C6  UNL d   1       2.634  -5.998  -4.269  0.00  0.00     0.077 C 
ATOM      8  C7  UNL d   1       0.292  -6.000  -3.360  0.00  0.00    -0.001 A 
ENDROOT
TORSDOF 0
ENDMDL
