MODEL 1
REMARK minimizedAffinity -1.17386341
REMARK minimizedRMSD -1
REMARK  0 active torsions:
REMARK  status: ('A' for Active; 'I' for Inactive)
ROOT
ATOM      1  C   UNL d   1       3.067  -1.724   1.023  0.00  0.00     0.077 C 
ATOM      2  C1  UNL d   1       2.071  -0.705   0.555  0.00  0.00    -0.074 A 
ATOM      3  C2  UNL d   1       2.438   0.299  -0.347  0.00  0.00    -0.005 A 
ATOM      4  C3  UNL d   1       1.498   1.233  -0.781  0.00  0.00     0.006 A 
ATOM      5  C4  UNL d   1       0.183   1.173  -0.318  0.00  0.00    -0.005 A 
ATOM      6  C5  UNL d   1      -0.203   0.176   0.583  0.00  0.00    -0.074 A 
ATOM      7  C6  UNL d   1      -1.615   0.092   1.083  0.00  0.00     0.077 C 
ATOM      8  C7  UNL d   1       0.746  -0.763   1.009  0.00  0.00    -0.001 A 
ENDROOT
TORSDOF 0
ENDMDL
