MODEL 1
REMARK minimizedAffinity -1.9844507
REMARK minimizedRMSD -1
REMARK  0 active torsions:
REMARK  status: ('A' for Active; 'I' for Inactive)
ROOT
ATOM      1  C   UNL d   1       1.134  -0.887   4.315  0.00  0.00     0.077 C 
ATOM      2  C1  UNL d   1       1.869  -0.869   3.008  0.00  0.00    -0.074 A 
ATOM      3  C2  UNL d   1       3.194  -1.310   2.922  0.00  0.00    -0.005 A 
ATOM      4  C3  UNL d   1       3.861  -1.297   1.698  0.00  0.00     0.006 A 
ATOM      5  C4  UNL d   1       3.213  -0.843   0.548  0.00  0.00    -0.005 A 
ATOM      6  C5  UNL d   1       1.888  -0.400   0.614  0.00  0.00    -0.074 A 
ATOM      7  C6  UNL d   1       1.173   0.081  -0.613  0.00  0.00     0.077 C 
ATOM      8  C7  UNL d   1       1.222  -0.423   1.847  0.00  0.00    -0.001 A 
ENDROOT
TORSDOF 0
ENDMDL
