MODEL 1
REMARK minimizedAffinity 7.38445854
REMARK minimizedRMSD -1
REMARK  0 active torsions:
REMARK  status: ('A' for Active; 'I' for Inactive)
ROOT
ATOM      1  C   UNL d   1       2.106   0.133   0.241  0.00  0.00     0.077 C 
ATOM      2  C1  UNL d   1       0.782  -0.571   0.211  0.00  0.00    -0.074 A 
ATOM      3  C2  UNL d   1       0.702  -1.942  -0.056  0.00  0.00    -0.005 A 
ATOM      4  C3  UNL d   1      -0.536  -2.585  -0.071  0.00  0.00     0.006 A 
ATOM      5  C4  UNL d   1      -1.704  -1.865   0.181  0.00  0.00    -0.005 A 
ATOM      6  C5  UNL d   1      -1.644  -0.494   0.451  0.00  0.00    -0.074 A 
ATOM      7  C6  UNL d   1      -2.890   0.292   0.733  0.00  0.00     0.077 C 
ATOM      8  C7  UNL d   1      -0.396   0.143   0.471  0.00  0.00    -0.001 A 
ENDROOT
TORSDOF 0
ENDMDL
