MODEL 1
REMARK minimizedAffinity -0.426616609
REMARK minimizedRMSD -1
REMARK  0 active torsions:
REMARK  status: ('A' for Active; 'I' for Inactive)
ROOT
ATOM      1  C   UNL d   1      -5.990  -5.998   3.422  0.00  0.00     0.077 C 
ATOM      2  C1  UNL d   1      -4.906  -5.727   2.422  0.00  0.00    -0.074 A 
ATOM      3  C2  UNL d   1      -3.656  -5.248   2.828  0.00  0.00    -0.005 A 
ATOM      4  C3  UNL d   1      -2.654  -5.010   1.887  0.00  0.00     0.006 A 
ATOM      5  C4  UNL d   1      -2.892  -5.248   0.532  0.00  0.00    -0.005 A 
ATOM      6  C5  UNL d   1      -4.135  -5.728   0.108  0.00  0.00    -0.074 A 
ATOM      7  C6  UNL d   1      -4.403  -5.998  -1.343  0.00  0.00     0.077 C 
ATOM      8  C7  UNL d   1      -5.134  -5.971   1.060  0.00  0.00    -0.001 A 
ENDROOT
TORSDOF 0
ENDMDL
