MODEL 1
REMARK minimizedAffinity 3.67771649
REMARK minimizedRMSD -1
REMARK  0 active torsions:
REMARK  status: ('A' for Active; 'I' for Inactive)
ROOT
ATOM      1  C   UNL d   1       1.416  -5.316  -5.933  0.00  0.00     0.077 C 
ATOM      2  C1  UNL d   1       0.077  -5.453  -5.272  0.00  0.00    -0.074 A 
ATOM      3  C2  UNL d   1      -1.044  -5.868  -5.998  0.00  0.00    -0.005 A 
ATOM      4  C3  UNL d   1      -2.281  -6.000  -5.367  0.00  0.00     0.006 A 
ATOM      5  C4  UNL d   1      -2.410  -5.717  -4.006  0.00  0.00    -0.005 A 
ATOM      6  C5  UNL d   1      -1.300  -5.302  -3.264  0.00  0.00    -0.074 A 
ATOM      7  C6  UNL d   1      -1.418  -5.004  -1.799  0.00  0.00     0.077 C 
ATOM      8  C7  UNL d   1      -0.059  -5.179  -3.904  0.00  0.00    -0.001 A 
ENDROOT
TORSDOF 0
ENDMDL
