MODEL 1
REMARK minimizedAffinity -3.71739149
REMARK minimizedRMSD -1
REMARK  0 active torsions:
REMARK  status: ('A' for Active; 'I' for Inactive)
ROOT
ATOM      1  C   UNL d   1       0.548  -5.246  -5.617  0.00  0.00     0.077 C 
ATOM      2  C1  UNL d   1      -0.650  -5.504  -4.751  0.00  0.00    -0.074 A 
ATOM      3  C2  UNL d   1      -1.905  -5.753  -5.316  0.00  0.00    -0.005 A 
ATOM      4  C3  UNL d   1      -3.007  -6.000  -4.498  0.00  0.00     0.006 A 
ATOM      5  C4  UNL d   1      -2.866  -6.000  -3.109  0.00  0.00    -0.005 A 
ATOM      6  C5  UNL d   1      -1.619  -5.753  -2.527  0.00  0.00    -0.074 A 
ATOM      7  C6  UNL d   1      -1.448  -5.759  -1.037  0.00  0.00     0.077 C 
ATOM      8  C7  UNL d   1      -0.514  -5.513  -3.356  0.00  0.00    -0.001 A 
ENDROOT
TORSDOF 0
ENDMDL
