MODEL 1
REMARK minimizedAffinity 3.21464753
REMARK minimizedRMSD -1
REMARK  0 active torsions:
REMARK  status: ('A' for Active; 'I' for Inactive)
ROOT
ATOM      1  C   UNL d   1      -1.076  -3.746   0.377  0.00  0.00     0.077 C 
ATOM      2  C1  UNL d   1      -1.990  -4.536   1.267  0.00  0.00    -0.074 A 
ATOM      3  C2  UNL d   1      -1.593  -4.910   2.555  0.00  0.00    -0.005 A 
ATOM      4  C3  UNL d   1      -2.456  -5.636   3.374  0.00  0.00     0.006 A 
ATOM      5  C4  UNL d   1      -3.724  -5.996   2.915  0.00  0.00    -0.005 A 
ATOM      6  C5  UNL d   1      -4.139  -5.630   1.631  0.00  0.00    -0.074 A 
ATOM      7  C6  UNL d   1      -5.502  -6.000   1.125  0.00  0.00     0.077 C 
ATOM      8  C7  UNL d   1      -3.268  -4.894   0.816  0.00  0.00    -0.001 A 
ENDROOT
TORSDOF 0
ENDMDL
