MODEL 1
REMARK minimizedAffinity -3.05100632
REMARK minimizedRMSD -1
REMARK  0 active torsions:
REMARK  status: ('A' for Active; 'I' for Inactive)
ROOT
ATOM      1  C   UNL d   1      -1.880  -5.992  -0.973  0.00  0.00     0.077 C 
ATOM      2  C1  UNL d   1      -1.906  -5.816  -2.462  0.00  0.00    -0.074 A 
ATOM      3  C2  UNL d   1      -3.088  -6.000  -3.187  0.00  0.00    -0.005 A 
ATOM      4  C3  UNL d   1      -3.099  -5.823  -4.571  0.00  0.00     0.006 A 
ATOM      5  C4  UNL d   1      -1.930  -5.463  -5.242  0.00  0.00    -0.005 A 
ATOM      6  C5  UNL d   1      -0.739  -5.274  -4.534  0.00  0.00    -0.074 A 
ATOM      7  C6  UNL d   1       0.524  -4.877  -5.239  0.00  0.00     0.077 C 
ATOM      8  C7  UNL d   1      -0.738  -5.446  -3.143  0.00  0.00    -0.001 A 
ENDROOT
TORSDOF 0
ENDMDL
