MODEL 1
REMARK minimizedAffinity -3.86257434
REMARK minimizedRMSD -1
REMARK  0 active torsions:
REMARK  status: ('A' for Active; 'I' for Inactive)
ROOT
ATOM      1  C   UNL d   1      -3.013  -5.977  -2.551  0.00  0.00     0.077 C 
ATOM      2  C1  UNL d   1      -3.841  -5.938  -1.301  0.00  0.00    -0.074 A 
ATOM      3  C2  UNL d   1      -5.237  -6.000  -1.361  0.00  0.00    -0.005 A 
ATOM      4  C3  UNL d   1      -5.994  -5.972  -0.189  0.00  0.00     0.006 A 
ATOM      5  C4  UNL d   1      -5.363  -5.883   1.052  0.00  0.00    -0.005 A 
ATOM      6  C5  UNL d   1      -3.968  -5.821   1.132  0.00  0.00    -0.074 A 
ATOM      7  C6  UNL d   1      -3.274  -5.735   2.459  0.00  0.00     0.077 C 
ATOM      8  C7  UNL d   1      -3.215  -5.857  -0.050  0.00  0.00    -0.001 A 
ENDROOT
TORSDOF 0
ENDMDL
