MODEL 1
REMARK minimizedAffinity 4.29173946
REMARK minimizedRMSD -1
REMARK  0 active torsions:
REMARK  status: ('A' for Active; 'I' for Inactive)
ROOT
ATOM      1  C   UNL d   1       5.279  -0.802   2.337  0.00  0.00     0.077 C 
ATOM      2  C1  UNL d   1       3.790  -0.963   2.251  0.00  0.00    -0.074 A 
ATOM      3  C2  UNL d   1       3.056  -1.445   3.340  0.00  0.00    -0.005 A 
ATOM      4  C3  UNL d   1       1.671  -1.580   3.248  0.00  0.00     0.006 A 
ATOM      5  C4  UNL d   1       1.007  -1.235   2.070  0.00  0.00    -0.005 A 
ATOM      6  C5  UNL d   1       1.725  -0.751   0.972  0.00  0.00    -0.074 A 
ATOM      7  C6  UNL d   1       1.026  -0.367  -0.298  0.00  0.00     0.077 C 
ATOM      8  C7  UNL d   1       3.115  -0.611   1.074  0.00  0.00    -0.001 A 
ENDROOT
TORSDOF 0
ENDMDL
