MODEL 1
REMARK minimizedAffinity 2.16736937
REMARK minimizedRMSD -1
REMARK  0 active torsions:
REMARK  status: ('A' for Active; 'I' for Inactive)
ROOT
ATOM      1  C   UNL d   1       0.825  -0.541  -0.312  0.00  0.00     0.077 C 
ATOM      2  C1  UNL d   1       0.422   0.858  -0.672  0.00  0.00    -0.074 A 
ATOM      3  C2  UNL d   1       0.601   1.913   0.229  0.00  0.00    -0.005 A 
ATOM      4  C3  UNL d   1       0.231   3.210  -0.123  0.00  0.00     0.006 A 
ATOM      5  C4  UNL d   1      -0.320   3.467  -1.379  0.00  0.00    -0.005 A 
ATOM      6  C5  UNL d   1      -0.506   2.426  -2.294  0.00  0.00    -0.074 A 
ATOM      7  C6  UNL d   1      -1.089   2.686  -3.652  0.00  0.00     0.077 C 
ATOM      8  C7  UNL d   1      -0.125   1.126  -1.935  0.00  0.00    -0.001 A 
ENDROOT
TORSDOF 0
ENDMDL
