MODEL 1
REMARK minimizedAffinity 0.676446438
REMARK minimizedRMSD -1
REMARK  0 active torsions:
REMARK  status: ('A' for Active; 'I' for Inactive)
ROOT
ATOM      1  C   UNL d   1      -2.337  -5.919  -1.938  0.00  0.00     0.077 C 
ATOM      2  C1  UNL d   1      -1.852  -5.917  -3.357  0.00  0.00    -0.074 A 
ATOM      3  C2  UNL d   1      -2.752  -5.993  -4.425  0.00  0.00    -0.005 A 
ATOM      4  C3  UNL d   1      -2.287  -5.981  -5.740  0.00  0.00     0.006 A 
ATOM      5  C4  UNL d   1      -0.919  -5.893  -6.000  0.00  0.00    -0.005 A 
ATOM      6  C5  UNL d   1      -0.003  -5.815  -4.945  0.00  0.00    -0.074 A 
ATOM      7  C6  UNL d   1       1.470  -5.709  -5.208  0.00  0.00     0.077 C 
ATOM      8  C7  UNL d   1      -0.479  -5.821  -3.627  0.00  0.00    -0.001 A 
ENDROOT
TORSDOF 0
ENDMDL
