MODEL 1
REMARK minimizedAffinity -1.70396101
REMARK minimizedRMSD -1
REMARK  0 active torsions:
REMARK  status: ('A' for Active; 'I' for Inactive)
ROOT
ATOM      1  C   UNL d   1       1.493  -0.368  -1.079  0.00  0.00     0.077 C 
ATOM      2  C1  UNL d   1       1.739  -0.625   0.378  0.00  0.00    -0.074 A 
ATOM      3  C2  UNL d   1       0.676  -0.715   1.282  0.00  0.00    -0.005 A 
ATOM      4  C3  UNL d   1       0.921  -0.963   2.633  0.00  0.00     0.006 A 
ATOM      5  C4  UNL d   1       2.229  -1.124   3.092  0.00  0.00    -0.005 A 
ATOM      6  C5  UNL d   1       3.304  -1.038   2.202  0.00  0.00    -0.074 A 
ATOM      7  C6  UNL d   1       4.716  -1.218   2.678  0.00  0.00     0.077 C 
ATOM      8  C7  UNL d   1       3.050  -0.795   0.846  0.00  0.00    -0.001 A 
ENDROOT
TORSDOF 0
ENDMDL
