MODEL 1
REMARK minimizedAffinity 6.53945923
REMARK minimizedRMSD -1
REMARK  0 active torsions:
REMARK  status: ('A' for Active; 'I' for Inactive)
ROOT
ATOM      1  C   UNL d   1      -2.012  -3.998   0.826  0.00  0.00     0.077 C 
ATOM      2  C1  UNL d   1      -3.348  -4.485   1.301  0.00  0.00    -0.074 A 
ATOM      3  C2  UNL d   1      -3.997  -5.545   0.659  0.00  0.00    -0.005 A 
ATOM      4  C3  UNL d   1      -5.235  -5.993   1.118  0.00  0.00     0.006 A 
ATOM      5  C4  UNL d   1      -5.837  -5.387   2.222  0.00  0.00    -0.005 A 
ATOM      6  C5  UNL d   1      -5.203  -4.327   2.877  0.00  0.00    -0.074 A 
ATOM      7  C6  UNL d   1      -5.831  -3.671   4.071  0.00  0.00     0.077 C 
ATOM      8  C7  UNL d   1      -3.955  -3.887   2.414  0.00  0.00    -0.001 A 
ENDROOT
TORSDOF 0
ENDMDL
