MODEL 1
REMARK minimizedAffinity -4.36104631
REMARK minimizedRMSD -1
REMARK  0 active torsions:
REMARK  status: ('A' for Active; 'I' for Inactive)
ROOT
ATOM      1  C4' PXY d   1       2.607  -0.432   2.335  0.00  0.00     0.077 C 
ATOM      2  C1' PXY d   1      -2.528  -0.134  -0.303  0.00  0.00     0.077 C 
ATOM      3  C1  PXY d   1      -1.177  -0.221   0.380  0.00  0.00    -0.082 A 
ATOM      4  C2  PXY d   1      -1.076   0.063   1.668  0.00  0.00     0.003 A 
ATOM      5  C3  PXY d   1       0.143   0.021   2.294  0.00  0.00     0.003 A 
ATOM      6  C4  PXY d   1       1.262  -0.367   1.606  0.00  0.00    -0.082 A 
ATOM      7  C5  PXY d   1       1.165  -0.668   0.294  0.00  0.00     0.003 A 
ATOM      8  C6  PXY d   1      -0.075  -0.579  -0.332  0.00  0.00     0.003 A 
ENDROOT
TORSDOF 0
ENDMDL
