MODEL 1
REMARK minimizedAffinity -3.42531133
REMARK minimizedRMSD -1
REMARK  0 active torsions:
REMARK  status: ('A' for Active; 'I' for Inactive)
ROOT
ATOM      1  C4' PXY d   1      -0.903   1.538   3.018  0.00  0.00     0.077 C 
ATOM      2  C1' PXY d   1       0.703  -0.899  -1.971  0.00  0.00     0.077 C 
ATOM      3  C1  PXY d   1       0.271  -0.256  -0.668  0.00  0.00    -0.082 A 
ATOM      4  C2  PXY d   1       1.182   0.066   0.236  0.00  0.00     0.003 A 
ATOM      5  C3  PXY d   1       0.806   0.619   1.433  0.00  0.00     0.003 A 
ATOM      6  C4  PXY d   1      -0.511   0.895   1.685  0.00  0.00    -0.082 A 
ATOM      7  C5  PXY d   1      -1.445   0.580   0.763  0.00  0.00     0.003 A 
ATOM      8  C6  PXY d   1      -1.047  -0.019  -0.429  0.00  0.00     0.003 A 
ENDROOT
TORSDOF 0
ENDMDL
