MODEL 1
REMARK minimizedAffinity -0.0692875609
REMARK minimizedRMSD -1
REMARK  0 active torsions:
REMARK  status: ('A' for Active; 'I' for Inactive)
ROOT
ATOM      1  C4' PXY d   1      -1.593   0.688   2.318  0.00  0.00     0.077 C 
ATOM      2  C1' PXY d   1      -0.015  -1.010  -2.977  0.00  0.00     0.077 C 
ATOM      3  C1  PXY d   1      -0.420  -0.573  -1.584  0.00  0.00    -0.082 A 
ATOM      4  C2  PXY d   1      -1.598  -0.000  -1.395  0.00  0.00     0.003 A 
ATOM      5  C3  PXY d   1      -1.967   0.430  -0.146  0.00  0.00     0.003 A 
ATOM      6  C4  PXY d   1      -1.146   0.223   0.929  0.00  0.00    -0.082 A 
ATOM      7  C5  PXY d   1       0.053  -0.371   0.747  0.00  0.00     0.003 A 
ATOM      8  C6  PXY d   1       0.427  -0.763  -0.536  0.00  0.00     0.003 A 
ENDROOT
TORSDOF 0
ENDMDL
