MODEL 1
REMARK minimizedAffinity -2.62145519
REMARK minimizedRMSD -1
REMARK  0 active torsions:
REMARK  status: ('A' for Active; 'I' for Inactive)
ROOT
ATOM      1  C4' PXY d   1      -2.254  -1.053  -5.564  0.00  0.00     0.077 C 
ATOM      2  C1' PXY d   1       2.306   0.583  -2.411  0.00  0.00     0.077 C 
ATOM      3  C1  PXY d   1       1.111   0.142  -3.232  0.00  0.00    -0.082 A 
ATOM      4  C2  PXY d   1       0.834   0.760  -4.369  0.00  0.00     0.003 A 
ATOM      5  C3  PXY d   1      -0.261   0.396  -5.108  0.00  0.00     0.003 A 
ATOM      6  C4  PXY d   1      -1.051  -0.648  -4.707  0.00  0.00    -0.082 A 
ATOM      7  C5  PXY d   1      -0.770  -1.291  -3.554  0.00  0.00     0.003 A 
ATOM      8  C6  PXY d   1       0.323  -0.878  -2.797  0.00  0.00     0.003 A 
ENDROOT
TORSDOF 0
ENDMDL
