MODEL 1
REMARK minimizedAffinity -2.43033028
REMARK minimizedRMSD -1
REMARK  0 active torsions:
REMARK  status: ('A' for Active; 'I' for Inactive)
ROOT
ATOM      1  C4' PXY d   1       1.960   0.102  -3.637  0.00  0.00     0.077 C 
ATOM      2  C1' PXY d   1      -2.103  -0.096   0.470  0.00  0.00     0.077 C 
ATOM      3  C1  PXY d   1      -1.029  -0.050  -0.599  0.00  0.00    -0.082 A 
ATOM      4  C2  PXY d   1      -1.084   0.876  -1.542  0.00  0.00     0.003 A 
ATOM      5  C3  PXY d   1      -0.139   0.912  -2.535  0.00  0.00     0.003 A 
ATOM      6  C4  PXY d   1       0.903   0.024  -2.532  0.00  0.00    -0.082 A 
ATOM      7  C5  PXY d   1       0.972  -0.917  -1.567  0.00  0.00     0.003 A 
ATOM      8  C6  PXY d   1      -0.020  -0.962  -0.592  0.00  0.00     0.003 A 
ENDROOT
TORSDOF 0
ENDMDL
