MODEL 1
REMARK minimizedAffinity -5.06988525
REMARK minimizedRMSD -1
REMARK  0 active torsions:
REMARK  status: ('A' for Active; 'I' for Inactive)
ROOT
ATOM      1  C4' PXY d   1       2.082   0.118   2.234  0.00  0.00     0.077 C 
ATOM      2  C1' PXY d   1      -2.996  -0.730  -0.395  0.00  0.00     0.077 C 
ATOM      3  C1  PXY d   1      -1.670  -0.498   0.302  0.00  0.00    -0.082 A 
ATOM      4  C2  PXY d   1      -0.546  -0.871  -0.290  0.00  0.00     0.003 A 
ATOM      5  C3  PXY d   1       0.659  -0.698   0.340  0.00  0.00     0.003 A 
ATOM      6  C4  PXY d   1       0.720  -0.088   1.564  0.00  0.00    -0.082 A 
ATOM      7  C5  PXY d   1      -0.420   0.305   2.169  0.00  0.00     0.003 A 
ATOM      8  C6  PXY d   1      -1.637   0.083   1.532  0.00  0.00     0.003 A 
ENDROOT
TORSDOF 0
ENDMDL
