MODEL 1
REMARK minimizedAffinity -4.98468494
REMARK minimizedRMSD -1
REMARK  0 active torsions:
REMARK  status: ('A' for Active; 'I' for Inactive)
ROOT
ATOM      1  C4' PXY d   1       0.571  -1.173  -2.237  0.00  0.00     0.077 C 
ATOM      2  C1' PXY d   1      -0.580   1.488   2.764  0.00  0.00     0.077 C 
ATOM      3  C1  PXY d   1      -0.267   0.786   1.457  0.00  0.00    -0.082 A 
ATOM      4  C2  PXY d   1      -0.823   1.213   0.336  0.00  0.00     0.003 A 
ATOM      5  C3  PXY d   1      -0.576   0.570  -0.850  0.00  0.00     0.003 A 
ATOM      6  C4  PXY d   1       0.291  -0.489  -0.896  0.00  0.00    -0.082 A 
ATOM      7  C5  PXY d   1       0.870  -0.925   0.242  0.00  0.00     0.003 A 
ATOM      8  C6  PXY d   1       0.575  -0.284   1.442  0.00  0.00     0.003 A 
ENDROOT
TORSDOF 0
ENDMDL
