MODEL 1
REMARK minimizedAffinity -5.18102407
REMARK minimizedRMSD -1
REMARK  0 active torsions:
REMARK  status: ('A' for Active; 'I' for Inactive)
ROOT
ATOM      1  C4' PXY d   1       0.480  -0.769  -2.336  0.00  0.00     0.077 C 
ATOM      2  C1' PXY d   1      -0.550   1.274   2.972  0.00  0.00     0.077 C 
ATOM      3  C1  PXY d   1      -0.268   0.743   1.581  0.00  0.00    -0.082 A 
ATOM      4  C2  PXY d   1      -1.267   0.569   0.732  0.00  0.00     0.003 A 
ATOM      5  C3  PXY d   1      -1.034   0.059  -0.519  0.00  0.00     0.003 A 
ATOM      6  C4  PXY d   1       0.243  -0.226  -0.924  0.00  0.00    -0.082 A 
ATOM      7  C5  PXY d   1       1.269  -0.041  -0.067  0.00  0.00     0.003 A 
ATOM      8  C6  PXY d   1       1.006   0.438   1.213  0.00  0.00     0.003 A 
ENDROOT
TORSDOF 0
ENDMDL
