MODEL 1
REMARK minimizedAffinity -3.39910221
REMARK minimizedRMSD -1
REMARK  3 active torsions:
REMARK  status: ('A' for Active; 'I' for Inactive)
REMARK    1  A    between atoms: C3'_2  and  C2'_3 
REMARK    2  A    between atoms: C2'_3  and  C1'_4 
REMARK    3  A    between atoms: C1'_4  and  C1_5 
ROOT
ATOM      1  C1  N4B d   1      -1.078  -1.340  -0.862  0.00  0.00    -0.075 A 
ATOM      2  C2  N4B d   1      -2.171  -0.962  -0.051  0.00  0.00     0.002 A 
ATOM      3  C3  N4B d   1      -1.950  -0.333   1.149  0.00  0.00     0.002 A 
ATOM      4  C4  N4B d   1      -0.650  -0.091   1.568  0.00  0.00    -0.004 A 
ATOM      5  C5  N4B d   1       0.399  -0.437   0.767  0.00  0.00     0.002 A 
ATOM      6  C6  N4B d   1       0.192  -1.065  -0.444  0.00  0.00     0.002 A 
ENDROOT
BRANCH   1   7
ATOM      7  C1' N4B d   1      -1.267  -2.106  -2.143  0.00  0.00     0.057 C 
BRANCH   7   8
ATOM      8  C2' N4B d   1      -0.535  -1.385  -3.270  0.00  0.00     0.009 C 
BRANCH   8   9
ATOM      9  C3' N4B d   1      -1.242  -1.552  -4.605  0.00  0.00     0.004 C 
ATOM     10  C4' N4B d   1      -0.682  -0.662  -5.674  0.00  0.00     0.003 C 
ENDBRANCH   8   9
ENDBRANCH   7   8
ENDBRANCH   1   7
TORSDOF 3
ENDMDL
