MODEL 1
REMARK minimizedAffinity 7.07453918
REMARK minimizedRMSD -1
REMARK  0 active torsions:
REMARK  status: ('A' for Active; 'I' for Inactive)
ROOT
ATOM      1  C2' OXE d   1      -2.193  -2.528  -3.755  0.00  0.00     0.078 C 
ATOM      2  C1' OXE d   1      -4.450  -3.618  -2.491  0.00  0.00     0.078 C 
ATOM      3  C1  OXE d   1      -3.350  -3.071  -1.617  0.00  0.00    -0.078 A 
ATOM      4  C2  OXE d   1      -2.229  -2.582  -2.243  0.00  0.00    -0.078 A 
ATOM      5  C3  OXE d   1      -1.208  -2.015  -1.485  0.00  0.00     0.003 A 
ATOM      6  C4  OXE d   1      -1.244  -2.078  -0.087  0.00  0.00    -0.002 A 
ATOM      7  C5  OXE d   1      -2.359  -2.608   0.571  0.00  0.00    -0.002 A 
ATOM      8  C6  OXE d   1      -3.436  -3.069  -0.177  0.00  0.00     0.003 A 
ENDROOT
TORSDOF 0
ENDMDL
