MODEL 1
REMARK minimizedAffinity 5.89508486
REMARK minimizedRMSD -1
REMARK  0 active torsions:
REMARK  status: ('A' for Active; 'I' for Inactive)
ROOT
ATOM      1  C2' OXE d   1       4.885   3.221   0.756  0.00  0.00     0.078 C 
ATOM      2  C1' OXE d   1       2.420   1.880   0.691  0.00  0.00     0.078 C 
ATOM      3  C1  OXE d   1       3.641   1.088   1.087  0.00  0.00    -0.078 A 
ATOM      4  C2  OXE d   1       4.850   1.741   1.070  0.00  0.00    -0.078 A 
ATOM      5  C3  OXE d   1       6.000   1.071   1.480  0.00  0.00     0.003 A 
ATOM      6  C4  OXE d   1       5.960  -0.300   1.760  0.00  0.00    -0.002 A 
ATOM      7  C5  OXE d   1       4.745  -0.993   1.743  0.00  0.00    -0.002 A 
ATOM      8  C6  OXE d   1       3.572  -0.305   1.451  0.00  0.00     0.003 A 
ENDROOT
TORSDOF 0
ENDMDL
