MODEL 1
REMARK minimizedAffinity 1.83648694
REMARK minimizedRMSD -1
REMARK  0 active torsions:
REMARK  status: ('A' for Active; 'I' for Inactive)
ROOT
ATOM      1  C2' OXE d   1       2.541   0.008   1.019  0.00  0.00     0.078 C 
ATOM      2  C1' OXE d   1       4.828  -0.736   2.467  0.00  0.00     0.078 C 
ATOM      3  C1  OXE d   1       4.858   0.582   1.733  0.00  0.00    -0.078 A 
ATOM      4  C2  OXE d   1       3.752   0.916   0.989  0.00  0.00    -0.078 A 
ATOM      5  C3  OXE d   1       3.705   2.145   0.337  0.00  0.00     0.003 A 
ATOM      6  C4  OXE d   1       4.833   2.974   0.305  0.00  0.00    -0.002 A 
ATOM      7  C5  OXE d   1       5.985   2.634   1.024  0.00  0.00    -0.002 A 
ATOM      8  C6  OXE d   1       5.998   1.464   1.775  0.00  0.00     0.003 A 
ENDROOT
TORSDOF 0
ENDMDL
