MODEL 1
REMARK minimizedAffinity 18.4427948
REMARK minimizedRMSD -1
REMARK  0 active torsions:
REMARK  status: ('A' for Active; 'I' for Inactive)
ROOT
ATOM      1  C2' OXE d   1       5.744  -1.091   1.327  0.00  0.00     0.078 C 
ATOM      2  C1' OXE d   1       4.998  -1.565   3.991  0.00  0.00     0.078 C 
ATOM      3  C1  OXE d   1       3.952  -1.013   3.055  0.00  0.00    -0.078 A 
ATOM      4  C2  OXE d   1       4.339  -0.741   1.765  0.00  0.00    -0.078 A 
ATOM      5  C3  OXE d   1       3.399  -0.282   0.846  0.00  0.00     0.003 A 
ATOM      6  C4  OXE d   1       2.104   0.049   1.262  0.00  0.00    -0.002 A 
ATOM      7  C5  OXE d   1       1.701  -0.184   2.581  0.00  0.00    -0.002 A 
ATOM      8  C6  OXE d   1       2.598  -0.753   3.478  0.00  0.00     0.003 A 
ENDROOT
TORSDOF 0
ENDMDL
