MODEL 1
REMARK minimizedAffinity 4.62899017
REMARK minimizedRMSD -1
REMARK  0 active torsions:
REMARK  status: ('A' for Active; 'I' for Inactive)
ROOT
ATOM      1  C2' OXE d   1       1.742   5.848  -5.271  0.00  0.00     0.078 C 
ATOM      2  C1' OXE d   1       4.449   6.000  -6.000  0.00  0.00     0.078 C 
ATOM      3  C1  OXE d   1       4.024   4.864  -5.102  0.00  0.00    -0.078 A 
ATOM      4  C2  OXE d   1       2.707   4.824  -4.713  0.00  0.00    -0.078 A 
ATOM      5  C3  OXE d   1       2.251   3.767  -3.930  0.00  0.00     0.003 A 
ATOM      6  C4  OXE d   1       3.152   2.830  -3.410  0.00  0.00    -0.002 A 
ATOM      7  C5  OXE d   1       4.506   2.876  -3.762  0.00  0.00    -0.002 A 
ATOM      8  C6  OXE d   1       4.949   3.859  -4.640  0.00  0.00     0.003 A 
ENDROOT
TORSDOF 0
ENDMDL
