MODEL 1
REMARK minimizedAffinity 11.3435354
REMARK minimizedRMSD -1
REMARK  0 active torsions:
REMARK  status: ('A' for Active; 'I' for Inactive)
ROOT
ATOM      1  C2' OXE d   1       4.540  -0.612   0.076  0.00  0.00     0.078 C 
ATOM      2  C1' OXE d   1       4.333   1.614  -1.623  0.00  0.00     0.078 C 
ATOM      3  C1  OXE d   1       3.385   1.532  -0.452  0.00  0.00    -0.078 A 
ATOM      4  C2  OXE d   1       3.463   0.416   0.347  0.00  0.00    -0.078 A 
ATOM      5  C3  OXE d   1       2.649   0.316   1.472  0.00  0.00     0.003 A 
ATOM      6  C4  OXE d   1       1.649   1.267   1.710  0.00  0.00    -0.002 A 
ATOM      7  C5  OXE d   1       1.527   2.390   0.886  0.00  0.00    -0.002 A 
ATOM      8  C6  OXE d   1       2.413   2.559  -0.172  0.00  0.00     0.003 A 
ENDROOT
TORSDOF 0
ENDMDL
