MODEL 1
REMARK minimizedAffinity 7.11552572
REMARK minimizedRMSD -1
REMARK  0 active torsions:
REMARK  status: ('A' for Active; 'I' for Inactive)
ROOT
ATOM      1  C2' OXE d   1       3.783   1.191  -0.535  0.00  0.00     0.078 C 
ATOM      2  C1' OXE d   1       4.578  -0.276   1.722  0.00  0.00     0.078 C 
ATOM      3  C1  OXE d   1       3.236   0.410   1.767  0.00  0.00    -0.078 A 
ATOM      4  C2  OXE d   1       2.875   1.165   0.676  0.00  0.00    -0.078 A 
ATOM      5  C3  OXE d   1       1.624   1.774   0.643  0.00  0.00     0.003 A 
ATOM      6  C4  OXE d   1       0.795   1.753   1.771  0.00  0.00    -0.002 A 
ATOM      7  C5  OXE d   1       1.161   1.023   2.907  0.00  0.00    -0.002 A 
ATOM      8  C6  OXE d   1       2.356   0.313   2.905  0.00  0.00     0.003 A 
ENDROOT
TORSDOF 0
ENDMDL
