MODEL 1
REMARK minimizedAffinity 13.8848372
REMARK minimizedRMSD -1
REMARK  0 active torsions:
REMARK  status: ('A' for Active; 'I' for Inactive)
ROOT
ATOM      1  C2' OXE d   1       3.371   2.276  -3.578  0.00  0.00     0.078 C 
ATOM      2  C1' OXE d   1       4.366   4.716  -2.609  0.00  0.00     0.078 C 
ATOM      3  C1  OXE d   1       3.399   4.760  -3.766  0.00  0.00    -0.078 A 
ATOM      4  C2  OXE d   1       2.953   3.560  -4.264  0.00  0.00    -0.078 A 
ATOM      5  C3  OXE d   1       2.018   3.545  -5.295  0.00  0.00     0.003 A 
ATOM      6  C4  OXE d   1       1.645   4.736  -5.930  0.00  0.00    -0.002 A 
ATOM      7  C5  OXE d   1       2.118   5.967  -5.464  0.00  0.00    -0.002 A 
ATOM      8  C6  OXE d   1       2.961   6.000  -4.358  0.00  0.00     0.003 A 
ENDROOT
TORSDOF 0
ENDMDL
