MODEL 1
REMARK minimizedAffinity 15.3743773
REMARK minimizedRMSD -1
REMARK  0 active torsions:
REMARK  status: ('A' for Active; 'I' for Inactive)
ROOT
ATOM      1  C2' OXE d   1      -3.619   1.563   3.068  0.00  0.00     0.078 C 
ATOM      2  C1' OXE d   1      -3.437  -1.100   2.197  0.00  0.00     0.078 C 
ATOM      3  C1  OXE d   1      -4.095  -0.839   3.529  0.00  0.00    -0.078 A 
ATOM      4  C2  OXE d   1      -4.137   0.462   3.969  0.00  0.00    -0.078 A 
ATOM      5  C3  OXE d   1      -4.781   0.765   5.165  0.00  0.00     0.003 A 
ATOM      6  C4  OXE d   1      -5.249  -0.260   5.997  0.00  0.00    -0.002 A 
ATOM      7  C5  OXE d   1      -5.180  -1.595   5.586  0.00  0.00    -0.002 A 
ATOM      8  C6  OXE d   1      -4.645  -1.898   4.339  0.00  0.00     0.003 A 
ENDROOT
TORSDOF 0
ENDMDL
