MODEL 1
REMARK minimizedAffinity 8.36599922
REMARK minimizedRMSD -1
REMARK  0 active torsions:
REMARK  status: ('A' for Active; 'I' for Inactive)
ROOT
ATOM      1  C2' OXE d   1       5.883   3.063  -4.878  0.00  0.00     0.078 C 
ATOM      2  C1' OXE d   1       3.941   2.380  -2.969  0.00  0.00     0.078 C 
ATOM      3  C1  OXE d   1       3.562   3.383  -4.030  0.00  0.00    -0.078 A 
ATOM      4  C2  OXE d   1       4.533   3.747  -4.932  0.00  0.00    -0.078 A 
ATOM      5  C3  OXE d   1       4.220   4.627  -5.963  0.00  0.00     0.003 A 
ATOM      6  C4  OXE d   1       2.973   5.262  -6.000  0.00  0.00    -0.002 A 
ATOM      7  C5  OXE d   1       1.983   4.936  -5.067  0.00  0.00    -0.002 A 
ATOM      8  C6  OXE d   1       2.247   3.969  -4.103  0.00  0.00     0.003 A 
ENDROOT
TORSDOF 0
ENDMDL
