MODEL 1
REMARK minimizedAffinity 13.0014067
REMARK minimizedRMSD -1
REMARK  0 active torsions:
REMARK  status: ('A' for Active; 'I' for Inactive)
ROOT
ATOM      1  C2' OXE d   1      -0.688  -2.050   2.393  0.00  0.00     0.078 C 
ATOM      2  C1' OXE d   1      -2.546  -2.367   0.313  0.00  0.00     0.078 C 
ATOM      3  C1  OXE d   1      -2.220  -3.575   1.154  0.00  0.00    -0.078 A 
ATOM      4  C2  OXE d   1      -1.275  -3.423   2.140  0.00  0.00    -0.078 A 
ATOM      5  C3  OXE d   1      -0.976  -4.491   2.980  0.00  0.00     0.003 A 
ATOM      6  C4  OXE d   1      -1.515  -5.760   2.733  0.00  0.00    -0.002 A 
ATOM      7  C5  OXE d   1      -2.450  -5.946   1.708  0.00  0.00    -0.002 A 
ATOM      8  C6  OXE d   1      -2.844  -4.857   0.939  0.00  0.00     0.003 A 
ENDROOT
TORSDOF 0
ENDMDL
