MODEL 1
REMARK minimizedAffinity 6.08450031
REMARK minimizedRMSD -1
REMARK  0 active torsions:
REMARK  status: ('A' for Active; 'I' for Inactive)
ROOT
ATOM      1  C2' OXE d   1       3.594   0.331   0.775  0.00  0.00     0.078 C 
ATOM      2  C1' OXE d   1       1.029   1.334   1.320  0.00  0.00     0.078 C 
ATOM      3  C1  OXE d   1       1.578   1.524  -0.072  0.00  0.00    -0.078 A 
ATOM      4  C2  OXE d   1       2.852   1.072  -0.317  0.00  0.00    -0.078 A 
ATOM      5  C3  OXE d   1       3.385   1.173  -1.599  0.00  0.00     0.003 A 
ATOM      6  C4  OXE d   1       2.696   1.868  -2.600  0.00  0.00    -0.002 A 
ATOM      7  C5  OXE d   1       1.413   2.371  -2.361  0.00  0.00    -0.002 A 
ATOM      8  C6  OXE d   1       0.824   2.171  -1.117  0.00  0.00     0.003 A 
ENDROOT
TORSDOF 0
ENDMDL
