MODEL 1
REMARK minimizedAffinity 6.74185467
REMARK minimizedRMSD -1
REMARK  0 active torsions:
REMARK  status: ('A' for Active; 'I' for Inactive)
ROOT
ATOM      1  C2' OXE d   1       3.419   2.067  -0.966  0.00  0.00     0.078 C 
ATOM      2  C1' OXE d   1       3.750  -0.409   0.314  0.00  0.00     0.078 C 
ATOM      3  C1  OXE d   1       2.711   0.535   0.866  0.00  0.00    -0.078 A 
ATOM      4  C2  OXE d   1       2.588   1.763   0.262  0.00  0.00    -0.078 A 
ATOM      5  C3  OXE d   1       1.608   2.650   0.697  0.00  0.00     0.003 A 
ATOM      6  C4  OXE d   1       0.850   2.365   1.840  0.00  0.00    -0.002 A 
ATOM      7  C5  OXE d   1       0.987   1.136   2.494  0.00  0.00    -0.002 A 
ATOM      8  C6  OXE d   1       1.881   0.195   1.995  0.00  0.00     0.003 A 
ENDROOT
TORSDOF 0
ENDMDL
