MODEL 1
REMARK minimizedAffinity 0.281670988
REMARK minimizedRMSD -1
REMARK  0 active torsions:
REMARK  status: ('A' for Active; 'I' for Inactive)
ROOT
ATOM      1  C2' OXE d   1       6.000   2.041  -4.093  0.00  0.00     0.078 C 
ATOM      2  C1' OXE d   1       6.000   4.281  -5.785  0.00  0.00     0.078 C 
ATOM      3  C1  OXE d   1       4.673   3.633  -5.476  0.00  0.00    -0.078 A 
ATOM      4  C2  OXE d   1       4.688   2.509  -4.685  0.00  0.00    -0.078 A 
ATOM      5  C3  OXE d   1       3.487   1.905  -4.324  0.00  0.00     0.003 A 
ATOM      6  C4  OXE d   1       2.279   2.338  -4.884  0.00  0.00    -0.002 A 
ATOM      7  C5  OXE d   1       2.246   3.457  -5.724  0.00  0.00    -0.002 A 
ATOM      8  C6  OXE d   1       3.427   4.139  -5.995  0.00  0.00     0.003 A 
ENDROOT
TORSDOF 0
ENDMDL
