MODEL 1
REMARK minimizedAffinity 2.69566989
REMARK minimizedRMSD -1
REMARK  0 active torsions:
REMARK  status: ('A' for Active; 'I' for Inactive)
ROOT
ATOM      1  C2' OXE d   1       5.950   1.321  -4.915  0.00  0.00     0.078 C 
ATOM      2  C1' OXE d   1       5.997   2.228  -2.258  0.00  0.00     0.078 C 
ATOM      3  C1  OXE d   1       5.975   3.263  -3.355  0.00  0.00    -0.078 A 
ATOM      4  C2  OXE d   1       5.999   2.811  -4.652  0.00  0.00    -0.078 A 
ATOM      5  C3  OXE d   1       5.924   3.722  -5.702  0.00  0.00     0.003 A 
ATOM      6  C4  OXE d   1       5.980   5.098  -5.451  0.00  0.00    -0.002 A 
ATOM      7  C5  OXE d   1       5.995   5.581  -4.138  0.00  0.00    -0.002 A 
ATOM      8  C6  OXE d   1       5.950   4.679  -3.080  0.00  0.00     0.003 A 
ENDROOT
TORSDOF 0
ENDMDL
