MODEL 1
REMARK minimizedAffinity 6.83178616
REMARK minimizedRMSD -1
REMARK  0 active torsions:
REMARK  status: ('A' for Active; 'I' for Inactive)
ROOT
ATOM      1  C2' OXE d   1       5.873   4.346  -5.901  0.00  0.00     0.078 C 
ATOM      2  C1' OXE d   1       3.100   3.926  -6.000  0.00  0.00     0.078 C 
ATOM      3  C1  OXE d   1       3.878   3.233  -4.909  0.00  0.00    -0.078 A 
ATOM      4  C2  OXE d   1       5.241   3.407  -4.896  0.00  0.00    -0.078 A 
ATOM      5  C3  OXE d   1       6.000   2.835  -3.880  0.00  0.00     0.003 A 
ATOM      6  C4  OXE d   1       5.408   1.960  -2.961  0.00  0.00    -0.002 A 
ATOM      7  C5  OXE d   1       4.027   1.737  -2.980  0.00  0.00    -0.002 A 
ATOM      8  C6  OXE d   1       3.244   2.398  -3.919  0.00  0.00     0.003 A 
ENDROOT
TORSDOF 0
ENDMDL
