MODEL 1
REMARK minimizedAffinity -1.37848318
REMARK minimizedRMSD -1
REMARK  0 active torsions:
REMARK  status: ('A' for Active; 'I' for Inactive)
ROOT
ATOM      1  C2' OXE d   1       3.343   1.700  -4.316  0.00  0.00     0.078 C 
ATOM      2  C1' OXE d   1       5.535   3.021  -3.165  0.00  0.00     0.078 C 
ATOM      3  C1  OXE d   1       4.512   3.858  -3.891  0.00  0.00    -0.078 A 
ATOM      4  C2  OXE d   1       3.466   3.198  -4.491  0.00  0.00    -0.078 A 
ATOM      5  C3  OXE d   1       2.465   3.927  -5.127  0.00  0.00     0.003 A 
ATOM      6  C4  OXE d   1       2.593   5.311  -5.293  0.00  0.00    -0.002 A 
ATOM      7  C5  OXE d   1       3.670   5.998  -4.723  0.00  0.00    -0.002 A 
ATOM      8  C6  OXE d   1       4.614   5.293  -3.984  0.00  0.00     0.003 A 
ENDROOT
TORSDOF 0
ENDMDL
