MODEL 1
REMARK minimizedAffinity -4.35752058
REMARK minimizedRMSD -1
REMARK  0 active torsions:
REMARK  status: ('A' for Active; 'I' for Inactive)
ROOT
ATOM      1  C   UNL d   1       1.349   2.477   0.770  0.00  0.00     0.078 C 
ATOM      2  C1  UNL d   1       1.285   1.226  -0.054  0.00  0.00    -0.077 A 
ATOM      3  C2  UNL d   1       0.513   0.132   0.355  0.00  0.00    -0.001 A 
ATOM      4  C3  UNL d   1       0.471  -1.030  -0.418  0.00  0.00     0.003 A 
ATOM      5  C4  UNL d   1       1.199  -1.109  -1.603  0.00  0.00    -0.005 A 
ATOM      6  C5  UNL d   1       1.972  -0.026  -2.017  0.00  0.00     0.003 A 
ATOM      7  C6  UNL d   1       2.015   1.137  -1.246  0.00  0.00    -0.001 A 
ENDROOT
TORSDOF 0
ENDMDL
