MODEL 1
REMARK minimizedAffinity -0.511203527
REMARK minimizedRMSD -1
REMARK  0 active torsions:
REMARK  status: ('A' for Active; 'I' for Inactive)
ROOT
ATOM      1  C   UNL d   1      -2.028   0.329   1.764  0.00  0.00     0.078 C 
ATOM      2  C1  UNL d   1      -1.036  -0.281   0.819  0.00  0.00    -0.077 A 
ATOM      3  C2  UNL d   1      -0.490  -1.547   1.066  0.00  0.00    -0.001 A 
ATOM      4  C3  UNL d   1       0.440  -2.098   0.183  0.00  0.00     0.003 A 
ATOM      5  C4  UNL d   1       0.833  -1.390  -0.951  0.00  0.00    -0.005 A 
ATOM      6  C5  UNL d   1       0.297  -0.129  -1.203  0.00  0.00     0.003 A 
ATOM      7  C6  UNL d   1      -0.633   0.424  -0.322  0.00  0.00    -0.001 A 
ENDROOT
TORSDOF 0
ENDMDL
