MODEL 1
REMARK minimizedAffinity -3.18133426
REMARK minimizedRMSD -1
REMARK  0 active torsions:
REMARK  status: ('A' for Active; 'I' for Inactive)
ROOT
ATOM      1  C   UNL d   1      -1.607   3.073  -5.976  0.00  0.00     0.078 C 
ATOM      2  C1  UNL d   1      -2.988   3.657  -5.973  0.00  0.00    -0.077 A 
ATOM      3  C2  UNL d   1      -4.120   2.832  -5.993  0.00  0.00    -0.001 A 
ATOM      4  C3  UNL d   1      -5.399   3.390  -6.000  0.00  0.00     0.003 A 
ATOM      5  C4  UNL d   1      -5.559   4.774  -5.988  0.00  0.00    -0.005 A 
ATOM      6  C5  UNL d   1      -4.439   5.603  -5.971  0.00  0.00     0.003 A 
ATOM      7  C6  UNL d   1      -3.159   5.047  -5.964  0.00  0.00    -0.001 A 
ENDROOT
TORSDOF 0
ENDMDL
