MODEL 1
REMARK minimizedAffinity -4.64597368
REMARK minimizedRMSD -1
REMARK  0 active torsions:
REMARK  status: ('A' for Active; 'I' for Inactive)
ROOT
ATOM      1  C   UNL d   1       0.426  -2.711  -0.543  0.00  0.00     0.078 C 
ATOM      2  C1  UNL d   1       0.857  -1.303  -0.825  0.00  0.00    -0.077 A 
ATOM      3  C2  UNL d   1       1.630  -0.998  -1.952  0.00  0.00    -0.001 A 
ATOM      4  C3  UNL d   1       2.033   0.316  -2.197  0.00  0.00     0.003 A 
ATOM      5  C4  UNL d   1       1.668   1.335  -1.320  0.00  0.00    -0.005 A 
ATOM      6  C5  UNL d   1       0.900   1.041  -0.195  0.00  0.00     0.003 A 
ATOM      7  C6  UNL d   1       0.497  -0.273   0.052  0.00  0.00    -0.001 A 
ENDROOT
TORSDOF 0
ENDMDL
