MODEL 1
REMARK minimizedAffinity -1.35165703
REMARK minimizedRMSD -1
REMARK  0 active torsions:
REMARK  status: ('A' for Active; 'I' for Inactive)
ROOT
ATOM      1  C   UNL d   1      -0.865  -0.310   1.005  0.00  0.00     0.078 C 
ATOM      2  C1  UNL d   1       0.007  -0.068  -0.191  0.00  0.00    -0.077 A 
ATOM      3  C2  UNL d   1       0.099  -1.013  -1.219  0.00  0.00    -0.001 A 
ATOM      4  C3  UNL d   1       0.922  -0.778  -2.322  0.00  0.00     0.003 A 
ATOM      5  C4  UNL d   1       1.659   0.401  -2.407  0.00  0.00    -0.005 A 
ATOM      6  C5  UNL d   1       1.575   1.347  -1.387  0.00  0.00     0.003 A 
ATOM      7  C6  UNL d   1       0.753   1.114  -0.283  0.00  0.00    -0.001 A 
ENDROOT
TORSDOF 0
ENDMDL
