MODEL 1
REMARK minimizedAffinity -3.59277058
REMARK minimizedRMSD -1
REMARK  0 active torsions:
REMARK  status: ('A' for Active; 'I' for Inactive)
ROOT
ATOM      1  C   UNL d   1       1.632   1.476   3.149  0.00  0.00     0.078 C 
ATOM      2  C1  UNL d   1       1.145   1.265   1.747  0.00  0.00    -0.077 A 
ATOM      3  C2  UNL d   1       1.580   2.087   0.700  0.00  0.00    -0.001 A 
ATOM      4  C3  UNL d   1       1.111   1.885  -0.599  0.00  0.00     0.003 A 
ATOM      5  C4  UNL d   1       0.204   0.861  -0.863  0.00  0.00    -0.005 A 
ATOM      6  C5  UNL d   1      -0.237   0.038   0.172  0.00  0.00     0.003 A 
ATOM      7  C6  UNL d   1       0.231   0.239   1.471  0.00  0.00    -0.001 A 
ENDROOT
TORSDOF 0
ENDMDL
