MODEL 1
REMARK minimizedAffinity 0.333206266
REMARK minimizedRMSD -1
REMARK  0 active torsions:
REMARK  status: ('A' for Active; 'I' for Inactive)
ROOT
ATOM      1  C   UNL d   1       1.556  -0.256  -2.873  0.00  0.00     0.078 C 
ATOM      2  C1  UNL d   1       0.766  -0.634  -1.655  0.00  0.00    -0.077 A 
ATOM      3  C2  UNL d   1       0.077   0.333  -0.914  0.00  0.00    -0.001 A 
ATOM      4  C3  UNL d   1      -0.647  -0.032   0.222  0.00  0.00     0.003 A 
ATOM      5  C4  UNL d   1      -0.686  -1.364   0.629  0.00  0.00    -0.005 A 
ATOM      6  C5  UNL d   1      -0.001  -2.334  -0.101  0.00  0.00     0.003 A 
ATOM      7  C6  UNL d   1       0.723  -1.971  -1.238  0.00  0.00    -0.001 A 
ENDROOT
TORSDOF 0
ENDMDL
