MODEL 1
REMARK minimizedAffinity -4.30037355
REMARK minimizedRMSD -1
REMARK  0 active torsions:
REMARK  status: ('A' for Active; 'I' for Inactive)
ROOT
ATOM      1  C   UNL d   1       2.007   2.384   1.095  0.00  0.00     0.078 C 
ATOM      2  C1  UNL d   1       1.619   1.576  -0.106  0.00  0.00    -0.077 A 
ATOM      3  C2  UNL d   1       0.319   1.076  -0.250  0.00  0.00    -0.001 A 
ATOM      4  C3  UNL d   1      -0.025   0.316  -1.369  0.00  0.00     0.003 A 
ATOM      5  C4  UNL d   1       0.925   0.048  -2.352  0.00  0.00    -0.005 A 
ATOM      6  C5  UNL d   1       2.222   0.539  -2.217  0.00  0.00     0.003 A 
ATOM      7  C6  UNL d   1       2.569   1.299  -1.098  0.00  0.00    -0.001 A 
ENDROOT
TORSDOF 0
ENDMDL
