MODEL 1
REMARK minimizedAffinity -3.4157517
REMARK minimizedRMSD -1
REMARK  0 active torsions:
REMARK  status: ('A' for Active; 'I' for Inactive)
ROOT
ATOM      1  C   UNL d   1       1.493  -0.153  -2.823  0.00  0.00     0.078 C 
ATOM      2  C1  UNL d   1       0.719  -0.575  -1.610  0.00  0.00    -0.077 A 
ATOM      3  C2  UNL d   1       0.092   0.370  -0.790  0.00  0.00    -0.001 A 
ATOM      4  C3  UNL d   1      -0.617  -0.036   0.342  0.00  0.00     0.003 A 
ATOM      5  C4  UNL d   1      -0.704  -1.389   0.664  0.00  0.00    -0.005 A 
ATOM      6  C5  UNL d   1      -0.081  -2.337  -0.145  0.00  0.00     0.003 A 
ATOM      7  C6  UNL d   1       0.628  -1.932  -1.277  0.00  0.00    -0.001 A 
ENDROOT
TORSDOF 0
ENDMDL
