MODEL 1
REMARK minimizedAffinity -3.72800207
REMARK minimizedRMSD -1
REMARK  0 active torsions:
REMARK  status: ('A' for Active; 'I' for Inactive)
ROOT
ATOM      1  C   UNL d   1       1.853   0.001  -3.128  0.00  0.00     0.078 C 
ATOM      2  C1  UNL d   1       1.230  -0.114  -1.768  0.00  0.00    -0.077 A 
ATOM      3  C2  UNL d   1       1.039   1.016  -0.965  0.00  0.00    -0.001 A 
ATOM      4  C3  UNL d   1       0.467   0.893   0.302  0.00  0.00     0.003 A 
ATOM      5  C4  UNL d   1       0.083  -0.359   0.778  0.00  0.00    -0.005 A 
ATOM      6  C5  UNL d   1       0.272  -1.490  -0.013  0.00  0.00     0.003 A 
ATOM      7  C6  UNL d   1       0.843  -1.369  -1.281  0.00  0.00    -0.001 A 
ENDROOT
TORSDOF 0
ENDMDL
