MODEL 1
REMARK minimizedAffinity -5.08179665
REMARK minimizedRMSD -1
REMARK  0 active torsions:
REMARK  status: ('A' for Active; 'I' for Inactive)
ROOT
ATOM      1  C   UNL d   1       1.082   1.205   1.186  0.00  0.00     0.078 C 
ATOM      2  C1  UNL d   1       1.052   0.586  -0.179  0.00  0.00    -0.077 A 
ATOM      3  C2  UNL d   1       0.011  -0.269  -0.561  0.00  0.00    -0.001 A 
ATOM      4  C3  UNL d   1       0.002  -0.846  -1.832  0.00  0.00     0.003 A 
ATOM      5  C4  UNL d   1       1.032  -0.575  -2.731  0.00  0.00    -0.005 A 
ATOM      6  C5  UNL d   1       2.073   0.273  -2.359  0.00  0.00     0.003 A 
ATOM      7  C6  UNL d   1       2.084   0.851  -1.089  0.00  0.00    -0.001 A 
ENDROOT
TORSDOF 0
ENDMDL
