MODEL 1
REMARK minimizedAffinity -2.09722996
REMARK minimizedRMSD -1
REMARK  0 active torsions:
REMARK  status: ('A' for Active; 'I' for Inactive)
ROOT
ATOM      1  C   UNL d   1       0.796  -0.328  -2.923  0.00  0.00     0.078 C 
ATOM      2  C1  UNL d   1       0.501  -0.381  -1.454  0.00  0.00    -0.077 A 
ATOM      3  C2  UNL d   1       0.075  -1.569  -0.846  0.00  0.00    -0.001 A 
ATOM      4  C3  UNL d   1      -0.205  -1.601   0.521  0.00  0.00     0.003 A 
ATOM      5  C4  UNL d   1      -0.064  -0.449   1.292  0.00  0.00    -0.005 A 
ATOM      6  C5  UNL d   1       0.357   0.738   0.695  0.00  0.00     0.003 A 
ATOM      7  C6  UNL d   1       0.638   0.772  -0.671  0.00  0.00    -0.001 A 
ENDROOT
TORSDOF 0
ENDMDL
