MODEL 1
REMARK minimizedAffinity -4.56260824
REMARK minimizedRMSD -1
REMARK  0 active torsions:
REMARK  status: ('A' for Active; 'I' for Inactive)
ROOT
ATOM      1  C   UNL d   1       1.438   0.234  -3.221  0.00  0.00     0.078 C 
ATOM      2  C1  UNL d   1       1.082  -0.077  -1.798  0.00  0.00    -0.077 A 
ATOM      3  C2  UNL d   1       0.684  -1.365  -1.419  0.00  0.00    -0.001 A 
ATOM      4  C3  UNL d   1       0.346  -1.638  -0.093  0.00  0.00     0.003 A 
ATOM      5  C4  UNL d   1       0.401  -0.628   0.865  0.00  0.00    -0.005 A 
ATOM      6  C5  UNL d   1       0.794   0.657   0.498  0.00  0.00     0.003 A 
ATOM      7  C6  UNL d   1       1.133   0.932  -0.828  0.00  0.00    -0.001 A 
ENDROOT
TORSDOF 0
ENDMDL
