MODEL 1
REMARK minimizedAffinity -5.36305094
REMARK minimizedRMSD -1
REMARK  0 active torsions:
REMARK  status: ('A' for Active; 'I' for Inactive)
ROOT
ATOM      1  C   UNL d   1      -1.195   0.037   0.218  0.00  0.00     0.078 C 
ATOM      2  C1  UNL d   1      -0.199   0.029  -0.903  0.00  0.00    -0.077 A 
ATOM      3  C2  UNL d   1      -0.537  -0.476  -2.165  0.00  0.00    -0.001 A 
ATOM      4  C3  UNL d   1       0.403  -0.486  -3.196  0.00  0.00     0.003 A 
ATOM      5  C4  UNL d   1       1.688   0.006  -2.976  0.00  0.00    -0.005 A 
ATOM      6  C5  UNL d   1       2.034   0.508  -1.724  0.00  0.00     0.003 A 
ATOM      7  C6  UNL d   1       1.095   0.519  -0.691  0.00  0.00    -0.001 A 
ENDROOT
TORSDOF 0
ENDMDL
