MODEL 1
REMARK minimizedAffinity -1.10403967
REMARK minimizedRMSD -1
REMARK  0 active torsions:
REMARK  status: ('A' for Active; 'I' for Inactive)
ROOT
ATOM      1  C   UNL d   1       2.548   3.089   2.819  0.00  0.00     0.078 C 
ATOM      2  C1  UNL d   1       1.892   2.504   1.604  0.00  0.00    -0.077 A 
ATOM      3  C2  UNL d   1       1.192   1.293   1.675  0.00  0.00    -0.001 A 
ATOM      4  C3  UNL d   1       0.595   0.755   0.535  0.00  0.00     0.003 A 
ATOM      5  C4  UNL d   1       0.691   1.420  -0.686  0.00  0.00    -0.005 A 
ATOM      6  C5  UNL d   1       1.387   2.625  -0.767  0.00  0.00     0.003 A 
ATOM      7  C6  UNL d   1       1.985   3.164   0.373  0.00  0.00    -0.001 A 
ENDROOT
TORSDOF 0
ENDMDL
