MODEL 1
REMARK minimizedAffinity -3.53466773
REMARK minimizedRMSD -1
REMARK  0 active torsions:
REMARK  status: ('A' for Active; 'I' for Inactive)
ROOT
ATOM      1  C   UNL d   1      -4.868   0.356  -5.973  0.00  0.00     0.078 C 
ATOM      2  C1  UNL d   1      -4.728   1.848  -5.917  0.00  0.00    -0.077 A 
ATOM      3  C2  UNL d   1      -3.471   2.449  -5.777  0.00  0.00    -0.001 A 
ATOM      4  C3  UNL d   1      -3.356   3.839  -5.716  0.00  0.00     0.003 A 
ATOM      5  C4  UNL d   1      -4.495   4.639  -5.794  0.00  0.00    -0.005 A 
ATOM      6  C5  UNL d   1      -5.750   4.049  -5.931  0.00  0.00     0.003 A 
ATOM      7  C6  UNL d   1      -5.866   2.660  -5.992  0.00  0.00    -0.001 A 
ENDROOT
TORSDOF 0
ENDMDL
