MODEL 1
REMARK minimizedAffinity 1.90356982
REMARK minimizedRMSD -1
REMARK  0 active torsions:
REMARK  status: ('A' for Active; 'I' for Inactive)
ROOT
ATOM      1  C   UNL d   1      -5.262   1.864  -5.818  0.00  0.00     0.078 C 
ATOM      2  C1  UNL d   1      -4.304   3.018  -5.822  0.00  0.00    -0.077 A 
ATOM      3  C2  UNL d   1      -2.930   2.816  -5.638  0.00  0.00    -0.001 A 
ATOM      4  C3  UNL d   1      -2.052   3.900  -5.635  0.00  0.00     0.003 A 
ATOM      5  C4  UNL d   1      -2.537   5.195  -5.813  0.00  0.00    -0.005 A 
ATOM      6  C5  UNL d   1      -3.902   5.406  -5.994  0.00  0.00     0.003 A 
ATOM      7  C6  UNL d   1      -4.782   4.322  -5.998  0.00  0.00    -0.001 A 
ENDROOT
TORSDOF 0
ENDMDL
