MODEL 1
REMARK minimizedAffinity 3.67354178
REMARK minimizedRMSD -1
REMARK  1 active torsions:
REMARK  status: ('A' for Active; 'I' for Inactive)
REMARK    1  A    between atoms: C3_4  and  O_7 
ROOT
ATOM      1  C   UNL d   1       5.411   1.131  -5.923  0.00  0.00    -0.033 A 
ATOM      2  C1  UNL d   1       4.264   0.339  -5.849  0.00  0.00     0.039 A 
ATOM      3  C2  UNL d   1       3.001   0.935  -5.849  0.00  0.00    -0.080 A 
ATOM      4  C3  UNL d   1       2.900   2.321  -5.923  0.00  0.00     0.150 A 
ATOM      5  C4  UNL d   1       4.039   3.116  -6.000  0.00  0.00    -0.007 A 
ATOM      6  C5  UNL d   1       5.299   2.519  -6.000  0.00  0.00     0.039 A 
ENDROOT
BRANCH   4   7
ATOM      7  O   UNL d   1       1.689   2.948  -5.920  0.00  0.00    -0.526 OA
ATOM      8  H5  UNL d   1       0.994   2.275  -5.834  0.00  0.00     0.418 HD
ENDBRANCH   4   7
TORSDOF 1
ENDMDL
