MODEL 1
REMARK minimizedAffinity -3.81317806
REMARK minimizedRMSD -1
REMARK  1 active torsions:
REMARK  status: ('A' for Active; 'I' for Inactive)
REMARK    1  A    between atoms: C3_4  and  O_7 
ROOT
ATOM      1  C   UNL d   1      -3.746  -1.890  -0.410  0.00  0.00    -0.033 A 
ATOM      2  C1  UNL d   1      -3.125  -2.422  -1.542  0.00  0.00     0.039 A 
ATOM      3  C2  UNL d   1      -3.643  -3.565  -2.153  0.00  0.00    -0.080 A 
ATOM      4  C3  UNL d   1      -4.782  -4.166  -1.624  0.00  0.00     0.150 A 
ATOM      5  C4  UNL d   1      -5.408  -3.639  -0.499  0.00  0.00    -0.007 A 
ATOM      6  C5  UNL d   1      -4.889  -2.498   0.110  0.00  0.00     0.039 A 
ENDROOT
BRANCH   4   7
ATOM      7  O   UNL d   1      -5.322  -5.286  -2.182  0.00  0.00    -0.526 OA
ATOM      8  H5  UNL d   1      -4.768  -5.553  -2.934  0.00  0.00     0.418 HD
ENDBRANCH   4   7
TORSDOF 1
ENDMDL
