MODEL 1
REMARK minimizedAffinity -1.94547176
REMARK minimizedRMSD -1
REMARK  1 active torsions:
REMARK  status: ('A' for Active; 'I' for Inactive)
REMARK    1  A    between atoms: C3_4  and  O_7 
ROOT
ATOM      1  C   UNL d   1       5.997   1.395  -3.877  0.00  0.00    -0.033 A 
ATOM      2  C1  UNL d   1       5.993   1.363  -5.272  0.00  0.00     0.039 A 
ATOM      3  C2  UNL d   1       5.988   2.555  -6.000  0.00  0.00    -0.080 A 
ATOM      4  C3  UNL d   1       5.987   3.770  -5.321  0.00  0.00     0.150 A 
ATOM      5  C4  UNL d   1       5.995   3.809  -3.930  0.00  0.00    -0.007 A 
ATOM      6  C5  UNL d   1       6.000   2.618  -3.205  0.00  0.00     0.039 A 
ENDROOT
BRANCH   4   7
ATOM      7  O   UNL d   1       5.977   4.959  -5.987  0.00  0.00    -0.526 OA
ATOM      8  H5  UNL d   1       5.944   4.777  -6.941  0.00  0.00     0.418 HD
ENDBRANCH   4   7
TORSDOF 1
ENDMDL
