MODEL 1
REMARK minimizedAffinity 4.00926208
REMARK minimizedRMSD -1
REMARK  1 active torsions:
REMARK  status: ('A' for Active; 'I' for Inactive)
REMARK    1  A    between atoms: C3_4  and  O_7 
ROOT
ATOM      1  C   UNL d   1      -0.362  -3.095  -0.087  0.00  0.00    -0.033 A 
ATOM      2  C1  UNL d   1      -0.412  -4.124  -1.029  0.00  0.00     0.039 A 
ATOM      3  C2  UNL d   1      -1.183  -3.978  -2.184  0.00  0.00    -0.080 A 
ATOM      4  C3  UNL d   1      -1.897  -2.800  -2.385  0.00  0.00     0.150 A 
ATOM      5  C4  UNL d   1      -1.849  -1.769  -1.452  0.00  0.00    -0.007 A 
ATOM      6  C5  UNL d   1      -1.079  -1.917  -0.299  0.00  0.00     0.039 A 
ENDROOT
BRANCH   4   7
ATOM      7  O   UNL d   1      -2.667  -2.614  -3.495  0.00  0.00    -0.526 OA
ATOM      8  H5  UNL d   1      -2.627  -3.420  -4.036  0.00  0.00     0.418 HD
ENDBRANCH   4   7
TORSDOF 1
ENDMDL
