MODEL 1
REMARK minimizedAffinity 0.935979962
REMARK minimizedRMSD -1
REMARK  1 active torsions:
REMARK  status: ('A' for Active; 'I' for Inactive)
REMARK    1  A    between atoms: C3_4  and  O_7 
ROOT
ATOM      1  C   UNL d   1       2.901   2.801  -0.186  0.00  0.00    -0.033 A 
ATOM      2  C1  UNL d   1       4.055   2.134  -0.603  0.00  0.00     0.039 A 
ATOM      3  C2  UNL d   1       4.606   1.126   0.190  0.00  0.00    -0.080 A 
ATOM      4  C3  UNL d   1       3.993   0.793   1.395  0.00  0.00     0.150 A 
ATOM      5  C4  UNL d   1       2.842   1.451   1.815  0.00  0.00    -0.007 A 
ATOM      6  C5  UNL d   1       2.294   2.458   1.022  0.00  0.00     0.039 A 
ENDROOT
BRANCH   4   7
ATOM      7  O   UNL d   1       4.497  -0.181   2.205  0.00  0.00    -0.526 OA
ATOM      8  H5  UNL d   1       5.310  -0.528   1.801  0.00  0.00     0.418 HD
ENDBRANCH   4   7
TORSDOF 1
ENDMDL
