MODEL 1
REMARK minimizedAffinity 2.95959425
REMARK minimizedRMSD -1
REMARK  1 active torsions:
REMARK  status: ('A' for Active; 'I' for Inactive)
REMARK    1  A    between atoms: C3_4  and  O_7 
ROOT
ATOM      1  C   UNL d   1      -2.094  -1.964  -1.984  0.00  0.00    -0.033 A 
ATOM      2  C1  UNL d   1      -1.619  -1.576  -0.729  0.00  0.00     0.039 A 
ATOM      3  C2  UNL d   1      -0.716  -2.389  -0.041  0.00  0.00    -0.080 A 
ATOM      4  C3  UNL d   1      -0.295  -3.583  -0.618  0.00  0.00     0.150 A 
ATOM      5  C4  UNL d   1      -0.761  -3.974  -1.869  0.00  0.00    -0.007 A 
ATOM      6  C5  UNL d   1      -1.663  -3.162  -2.555  0.00  0.00     0.039 A 
ENDROOT
BRANCH   4   7
ATOM      7  O   UNL d   1       0.582  -4.412   0.017  0.00  0.00    -0.526 OA
ATOM      8  H5  UNL d   1       0.795  -4.027   0.884  0.00  0.00     0.418 HD
ENDBRANCH   4   7
TORSDOF 1
ENDMDL
