MODEL 1
REMARK minimizedAffinity 4.32351542
REMARK minimizedRMSD -1
REMARK  1 active torsions:
REMARK  status: ('A' for Active; 'I' for Inactive)
REMARK    1  A    between atoms: C3_4  and  O_7 
ROOT
ATOM      1  C   UNL d   1       0.300  -4.379   0.691  0.00  0.00    -0.033 A 
ATOM      2  C1  UNL d   1      -0.182  -5.030   1.828  0.00  0.00     0.039 A 
ATOM      3  C2  UNL d   1      -0.767  -4.294   2.861  0.00  0.00    -0.080 A 
ATOM      4  C3  UNL d   1      -0.864  -2.910   2.744  0.00  0.00     0.150 A 
ATOM      5  C4  UNL d   1      -0.389  -2.255   1.612  0.00  0.00    -0.007 A 
ATOM      6  C5  UNL d   1       0.195  -2.992   0.582  0.00  0.00     0.039 A 
ENDROOT
BRANCH   4   7
ATOM      7  O   UNL d   1      -1.422  -2.149   3.728  0.00  0.00    -0.526 OA
ATOM      8  H5  UNL d   1      -1.679  -2.733   4.461  0.00  0.00     0.418 HD
ENDBRANCH   4   7
TORSDOF 1
ENDMDL
