MODEL 1
REMARK minimizedAffinity 7.19168043
REMARK minimizedRMSD -1
REMARK  1 active torsions:
REMARK  status: ('A' for Active; 'I' for Inactive)
REMARK    1  A    between atoms: C3_4  and  O_7 
ROOT
ATOM      1  C   UNL d   1      -1.131  -2.235  -1.130  0.00  0.00    -0.033 A 
ATOM      2  C1  UNL d   1      -0.051  -2.863  -0.506  0.00  0.00     0.039 A 
ATOM      3  C2  UNL d   1      -0.012  -2.970   0.885  0.00  0.00    -0.080 A 
ATOM      4  C3  UNL d   1      -1.058  -2.447   1.641  0.00  0.00     0.150 A 
ATOM      5  C4  UNL d   1      -2.138  -1.823   1.026  0.00  0.00    -0.007 A 
ATOM      6  C5  UNL d   1      -2.175  -1.716  -0.364  0.00  0.00     0.039 A 
ENDROOT
BRANCH   4   7
ATOM      7  O   UNL d   1      -1.062  -2.523   3.002  0.00  0.00    -0.526 OA
ATOM      8  H5  UNL d   1      -0.239  -2.954   3.288  0.00  0.00     0.418 HD
ENDBRANCH   4   7
TORSDOF 1
ENDMDL
