MODEL 1
REMARK minimizedAffinity 5.02939606
REMARK minimizedRMSD -1
REMARK  1 active torsions:
REMARK  status: ('A' for Active; 'I' for Inactive)
REMARK    1  A    between atoms: C3_4  and  O_7 
ROOT
ATOM      1  C   UNL d   1      -2.202  -4.113  -5.992  0.00  0.00    -0.033 A 
ATOM      2  C1  UNL d   1      -1.457  -4.462  -4.864  0.00  0.00     0.039 A 
ATOM      3  C2  UNL d   1      -1.455  -3.631  -3.742  0.00  0.00    -0.080 A 
ATOM      4  C3  UNL d   1      -2.201  -2.457  -3.760  0.00  0.00     0.150 A 
ATOM      5  C4  UNL d   1      -2.949  -2.104  -4.879  0.00  0.00    -0.007 A 
ATOM      6  C5  UNL d   1      -2.949  -2.935  -5.999  0.00  0.00     0.039 A 
ENDROOT
BRANCH   4   7
ATOM      7  O   UNL d   1      -2.226  -1.611  -2.691  0.00  0.00    -0.526 OA
ATOM      8  H5  UNL d   1      -1.641  -1.969  -2.002  0.00  0.00     0.418 HD
ENDBRANCH   4   7
TORSDOF 1
ENDMDL
