MODEL 1
REMARK minimizedAffinity 7.98102999
REMARK minimizedRMSD -1
REMARK  1 active torsions:
REMARK  status: ('A' for Active; 'I' for Inactive)
REMARK    1  A    between atoms: C3_4  and  O_7 
ROOT
ATOM      1  C   UNL d   1      -1.328  -2.997  -3.919  0.00  0.00    -0.033 A 
ATOM      2  C1  UNL d   1      -2.531  -3.000  -3.210  0.00  0.00     0.039 A 
ATOM      3  C2  UNL d   1      -3.747  -2.957  -3.895  0.00  0.00    -0.080 A 
ATOM      4  C3  UNL d   1      -3.746  -2.912  -5.287  0.00  0.00     0.150 A 
ATOM      5  C4  UNL d   1      -2.552  -2.914  -5.999  0.00  0.00    -0.007 A 
ATOM      6  C5  UNL d   1      -1.338  -2.956  -5.314  0.00  0.00     0.039 A 
ENDROOT
BRANCH   4   7
ATOM      7  O   UNL d   1      -4.908  -2.864  -5.999  0.00  0.00    -0.526 OA
ATOM      8  H5  UNL d   1      -5.651  -2.840  -5.373  0.00  0.00     0.418 HD
ENDBRANCH   4   7
TORSDOF 1
ENDMDL
