MODEL 1
REMARK minimizedAffinity 6.06009912
REMARK minimizedRMSD -1
REMARK  1 active torsions:
REMARK  status: ('A' for Active; 'I' for Inactive)
REMARK    1  A    between atoms: C3_4  and  O_7 
ROOT
ATOM      1  C   UNL d   1      -2.979  -3.572  -5.996  0.00  0.00    -0.033 A 
ATOM      2  C1  UNL d   1      -1.707  -2.995  -5.990  0.00  0.00     0.039 A 
ATOM      3  C2  UNL d   1      -1.113  -2.623  -4.783  0.00  0.00    -0.080 A 
ATOM      4  C3  UNL d   1      -1.799  -2.833  -3.590  0.00  0.00     0.150 A 
ATOM      5  C4  UNL d   1      -3.065  -3.410  -3.588  0.00  0.00    -0.007 A 
ATOM      6  C5  UNL d   1      -3.657  -3.781  -4.794  0.00  0.00     0.039 A 
ENDROOT
BRANCH   4   7
ATOM      7  O   UNL d   1      -1.262  -2.481  -2.388  0.00  0.00    -0.526 OA
ATOM      8  H5  UNL d   1      -0.397  -2.068  -2.546  0.00  0.00     0.418 HD
ENDBRANCH   4   7
TORSDOF 1
ENDMDL
