MODEL 1
REMARK minimizedAffinity 5.22288895
REMARK minimizedRMSD -1
REMARK  1 active torsions:
REMARK  status: ('A' for Active; 'I' for Inactive)
REMARK    1  A    between atoms: C3_4  and  O_7 
ROOT
ATOM      1  C   UNL d   1      -2.658  -3.152  -5.999  0.00  0.00    -0.033 A 
ATOM      2  C1  UNL d   1      -1.521  -2.364  -5.811  0.00  0.00     0.039 A 
ATOM      3  C2  UNL d   1      -1.103  -2.034  -4.521  0.00  0.00    -0.080 A 
ATOM      4  C3  UNL d   1      -1.830  -2.498  -3.428  0.00  0.00     0.150 A 
ATOM      5  C4  UNL d   1      -2.962  -3.286  -3.607  0.00  0.00    -0.007 A 
ATOM      6  C5  UNL d   1      -3.377  -3.614  -4.897  0.00  0.00     0.039 A 
ENDROOT
BRANCH   4   7
ATOM      7  O   UNL d   1      -1.464  -2.198  -2.149  0.00  0.00    -0.526 OA
ATOM      8  H5  UNL d   1      -0.681  -1.623  -2.180  0.00  0.00     0.418 HD
ENDBRANCH   4   7
TORSDOF 1
ENDMDL
