MODEL 1
REMARK minimizedAffinity 2.86693549
REMARK minimizedRMSD -1
REMARK  1 active torsions:
REMARK  status: ('A' for Active; 'I' for Inactive)
REMARK    1  A    between atoms: C3_4  and  O_7 
ROOT
ATOM      1  C   UNL d   1      -2.809  -3.781  -5.999  0.00  0.00    -0.033 A 
ATOM      2  C1  UNL d   1      -3.663  -3.731  -4.896  0.00  0.00     0.039 A 
ATOM      3  C2  UNL d   1      -3.169  -3.353  -3.645  0.00  0.00    -0.080 A 
ATOM      4  C3  UNL d   1      -1.823  -3.026  -3.512  0.00  0.00     0.150 A 
ATOM      5  C4  UNL d   1      -0.967  -3.070  -4.608  0.00  0.00    -0.007 A 
ATOM      6  C5  UNL d   1      -1.461  -3.448  -5.856  0.00  0.00     0.039 A 
ENDROOT
BRANCH   4   7
ATOM      7  O   UNL d   1      -1.294  -2.656  -2.311  0.00  0.00    -0.526 OA
ATOM      8  H5  UNL d   1      -1.996  -2.700  -1.640  0.00  0.00     0.418 HD
ENDBRANCH   4   7
TORSDOF 1
ENDMDL
