MODEL 1
REMARK minimizedAffinity -1.09158075
REMARK minimizedRMSD -1
REMARK  1 active torsions:
REMARK  status: ('A' for Active; 'I' for Inactive)
REMARK    1  A    between atoms: C3_4  and  O_7 
ROOT
ATOM      1  C   UNL d   1       4.934  -0.000  -5.998  0.00  0.00    -0.033 A 
ATOM      2  C1  UNL d   1       3.689  -0.632  -5.999  0.00  0.00     0.039 A 
ATOM      3  C2  UNL d   1       3.506  -1.819  -5.287  0.00  0.00    -0.080 A 
ATOM      4  C3  UNL d   1       4.573  -2.362  -4.578  0.00  0.00     0.150 A 
ATOM      5  C4  UNL d   1       5.815  -1.736  -4.569  0.00  0.00    -0.007 A 
ATOM      6  C5  UNL d   1       5.997  -0.551  -5.281  0.00  0.00     0.039 A 
ENDROOT
BRANCH   4   7
ATOM      7  O   UNL d   1       4.444  -3.521  -3.872  0.00  0.00    -0.526 OA
ATOM      8  H5  UNL d   1       3.540  -3.856  -3.993  0.00  0.00     0.418 HD
ENDBRANCH   4   7
TORSDOF 1
ENDMDL
