MODEL 1
REMARK minimizedAffinity 2.18551922
REMARK minimizedRMSD -1
REMARK  1 active torsions:
REMARK  status: ('A' for Active; 'I' for Inactive)
REMARK    1  A    between atoms: C3_4  and  O_7 
ROOT
ATOM      1  C   UNL d   1      -1.957  -3.654  -5.996  0.00  0.00    -0.033 A 
ATOM      2  C1  UNL d   1      -2.610  -4.240  -4.910  0.00  0.00     0.039 A 
ATOM      3  C2  UNL d   1      -2.348  -3.797  -3.612  0.00  0.00    -0.080 A 
ATOM      4  C3  UNL d   1      -1.432  -2.767  -3.414  0.00  0.00     0.150 A 
ATOM      5  C4  UNL d   1      -0.781  -2.175  -4.492  0.00  0.00    -0.007 A 
ATOM      6  C5  UNL d   1      -1.043  -2.620  -5.786  0.00  0.00     0.039 A 
ENDROOT
BRANCH   4   7
ATOM      7  O   UNL d   1      -1.140  -2.304  -2.166  0.00  0.00    -0.526 OA
ATOM      8  H5  UNL d   1      -1.643  -2.825  -1.518  0.00  0.00     0.418 HD
ENDBRANCH   4   7
TORSDOF 1
ENDMDL
