MODEL 1
REMARK minimizedAffinity -0.226248994
REMARK minimizedRMSD -1
REMARK  0 active torsions:
REMARK  status: ('A' for Active; 'I' for Inactive)
ROOT
ATOM      1  C   UNL d   1      -0.259  -2.015  -0.223  0.00  0.00     0.124 A 
ATOM      2  C1  UNL d   1      -0.436  -1.512   1.058  0.00  0.00     0.062 A 
ATOM      3  C2  UNL d   1      -0.377  -0.140   1.286  0.00  0.00     0.162 A 
ATOM      4  C3  UNL d   1      -0.140   0.739   0.229  0.00  0.00    -0.034 A 
ATOM      5  C4  UNL d   1       0.038   0.226  -1.057  0.00  0.00     0.162 A 
ATOM      6  C5  UNL d   1      -0.022  -1.146  -1.279  0.00  0.00     0.062 A 
ATOM      7  F   UNL d   1       0.149  -1.631  -2.518  0.00  0.00    -0.097 F 
ATOM      8  F1  UNL d   1       0.267   1.043  -2.095  0.00  0.00    -0.096 F 
ATOM      9  I   UNL d   1      -0.051   2.791   0.565  0.00  0.00    -0.060 I 
ATOM     10  F2  UNL d   1      -0.551   0.318   2.534  0.00  0.00    -0.096 F 
ATOM     11  F3  UNL d   1      -0.664  -2.349   2.080  0.00  0.00    -0.097 F 
ATOM     12  F4  UNL d   1      -0.315  -3.335  -0.439  0.00  0.00    -0.092 F 
ENDROOT
TORSDOF 0
ENDMDL
