MODEL 1
REMARK minimizedAffinity 12.4372406
REMARK minimizedRMSD -1
REMARK  0 active torsions:
REMARK  status: ('A' for Active; 'I' for Inactive)
ROOT
ATOM      1  C   UNL d   1      -2.005  -4.882  -0.746  0.00  0.00     0.124 A 
ATOM      2  C1  UNL d   1      -1.018  -4.844   0.229  0.00  0.00     0.062 A 
ATOM      3  C2  UNL d   1      -0.809  -3.684   0.969  0.00  0.00     0.162 A 
ATOM      4  C3  UNL d   1      -1.589  -2.551   0.736  0.00  0.00    -0.034 A 
ATOM      5  C4  UNL d   1      -2.579  -2.597  -0.247  0.00  0.00     0.162 A 
ATOM      6  C5  UNL d   1      -2.784  -3.759  -0.984  0.00  0.00     0.062 A 
ATOM      7  F   UNL d   1      -3.738  -3.794  -1.926  0.00  0.00    -0.097 F 
ATOM      8  F1  UNL d   1      -3.347  -1.526  -0.497  0.00  0.00    -0.096 F 
ATOM      9  I   UNL d   1      -1.280  -0.814   1.840  0.00  0.00    -0.060 I 
ATOM     10  F2  UNL d   1       0.151  -3.675   1.905  0.00  0.00    -0.096 F 
ATOM     11  F3  UNL d   1      -0.263  -5.928   0.460  0.00  0.00    -0.097 F 
ATOM     12  F4  UNL d   1      -2.203  -6.000  -1.457  0.00  0.00    -0.092 F 
ENDROOT
TORSDOF 0
ENDMDL
