MODEL 1
REMARK minimizedAffinity 6.0208354
REMARK minimizedRMSD -1
REMARK  0 active torsions:
REMARK  status: ('A' for Active; 'I' for Inactive)
ROOT
ATOM      1  C   UNL d   1      -1.369  -2.104  -0.176  0.00  0.00     0.124 A 
ATOM      2  C1  UNL d   1      -1.718  -1.542   1.044  0.00  0.00     0.062 A 
ATOM      3  C2  UNL d   1      -1.363  -0.228   1.336  0.00  0.00     0.162 A 
ATOM      4  C3  UNL d   1      -0.656   0.534   0.405  0.00  0.00    -0.034 A 
ATOM      5  C4  UNL d   1      -0.308  -0.039  -0.819  0.00  0.00     0.162 A 
ATOM      6  C5  UNL d   1      -0.664  -1.353  -1.106  0.00  0.00     0.062 A 
ATOM      7  F   UNL d   1      -0.326  -1.895  -2.285  0.00  0.00    -0.097 F 
ATOM      8  F1  UNL d   1       0.372   0.664  -1.736  0.00  0.00    -0.096 F 
ATOM      9  I   UNL d   1      -0.124   2.499   0.838  0.00  0.00    -0.060 I 
ATOM     10  F2  UNL d   1      -1.714   0.290   2.522  0.00  0.00    -0.096 F 
ATOM     11  F3  UNL d   1      -2.398  -2.266   1.944  0.00  0.00    -0.097 F 
ATOM     12  F4  UNL d   1      -1.711  -3.369  -0.454  0.00  0.00    -0.092 F 
ENDROOT
TORSDOF 0
ENDMDL
