MODEL 1
REMARK minimizedAffinity 0.946514845
REMARK minimizedRMSD -1
REMARK  0 active torsions:
REMARK  status: ('A' for Active; 'I' for Inactive)
ROOT
ATOM      1  C   UNL d   1      -0.560  -2.108  -0.354  0.00  0.00     0.124 A 
ATOM      2  C1  UNL d   1      -0.230  -1.287  -1.423  0.00  0.00     0.062 A 
ATOM      3  C2  UNL d   1       0.025   0.065  -1.215  0.00  0.00     0.162 A 
ATOM      4  C3  UNL d   1      -0.047   0.605   0.069  0.00  0.00    -0.034 A 
ATOM      5  C4  UNL d   1      -0.380  -0.227   1.140  0.00  0.00     0.162 A 
ATOM      6  C5  UNL d   1      -0.635  -1.577   0.926  0.00  0.00     0.062 A 
ATOM      7  F   UNL d   1      -0.953  -2.369   1.960  0.00  0.00    -0.097 F 
ATOM      8  F1  UNL d   1      -0.459   0.260   2.387  0.00  0.00    -0.096 F 
ATOM      9  I   UNL d   1       0.334   2.627   0.386  0.00  0.00    -0.060 I 
ATOM     10  F2  UNL d   1       0.342   0.835  -2.266  0.00  0.00    -0.096 F 
ATOM     11  F3  UNL d   1      -0.158  -1.797  -2.661  0.00  0.00    -0.097 F 
ATOM     12  F4  UNL d   1      -0.806  -3.409  -0.558  0.00  0.00    -0.092 F 
ENDROOT
TORSDOF 0
ENDMDL
