MODEL 1
REMARK minimizedAffinity 2.11273766
REMARK minimizedRMSD -1
REMARK  0 active torsions:
REMARK  status: ('A' for Active; 'I' for Inactive)
ROOT
ATOM      1  C   UNL d   1      -0.555  -2.001  -0.998  0.00  0.00     0.124 A 
ATOM      2  C1  UNL d   1      -0.886  -1.611   0.293  0.00  0.00     0.062 A 
ATOM      3  C2  UNL d   1      -0.713  -0.289   0.690  0.00  0.00     0.162 A 
ATOM      4  C3  UNL d   1      -0.208   0.655  -0.205  0.00  0.00    -0.034 A 
ATOM      5  C4  UNL d   1       0.123   0.255  -1.501  0.00  0.00     0.162 A 
ATOM      6  C5  UNL d   1      -0.051  -1.068  -1.893  0.00  0.00     0.062 A 
ATOM      7  F   UNL d   1       0.269  -1.443  -3.140  0.00  0.00    -0.097 F 
ATOM      8  F1  UNL d   1       0.612   1.136  -2.386  0.00  0.00    -0.096 F 
ATOM      9  I   UNL d   1       0.052   2.634   0.386  0.00  0.00    -0.060 I 
ATOM     10  F2  UNL d   1      -1.041   0.060   1.943  0.00  0.00    -0.096 F 
ATOM     11  F3  UNL d   1      -1.372  -2.511   1.159  0.00  0.00    -0.097 F 
ATOM     12  F4  UNL d   1      -0.722  -3.275  -1.377  0.00  0.00    -0.092 F 
ENDROOT
TORSDOF 0
ENDMDL
