MODEL 1
REMARK minimizedAffinity -2.77484846
REMARK minimizedRMSD -1
REMARK  0 active torsions:
REMARK  status: ('A' for Active; 'I' for Inactive)
ROOT
ATOM      1  C   UNL d   1      -0.665  -2.374  -0.525  0.00  0.00     0.124 A 
ATOM      2  C1  UNL d   1      -0.332  -1.603  -1.630  0.00  0.00     0.062 A 
ATOM      3  C2  UNL d   1       0.048  -0.274  -1.468  0.00  0.00     0.162 A 
ATOM      4  C3  UNL d   1       0.098   0.293  -0.195  0.00  0.00    -0.034 A 
ATOM      5  C4  UNL d   1      -0.240  -0.488   0.912  0.00  0.00     0.162 A 
ATOM      6  C5  UNL d   1      -0.619  -1.816   0.744  0.00  0.00     0.062 A 
ATOM      7  F   UNL d   1      -0.941  -2.559   1.813  0.00  0.00    -0.097 F 
ATOM      8  F1  UNL d   1      -0.203   0.025   2.150  0.00  0.00    -0.096 F 
ATOM      9  I   UNL d   1       0.666   2.280   0.052  0.00  0.00    -0.060 I 
ATOM     10  F2  UNL d   1       0.365   0.447  -2.554  0.00  0.00    -0.096 F 
ATOM     11  F3  UNL d   1      -0.376  -2.140  -2.858  0.00  0.00    -0.097 F 
ATOM     12  F4  UNL d   1      -1.031  -3.652  -0.685  0.00  0.00    -0.092 F 
ENDROOT
TORSDOF 0
ENDMDL
