MODEL 1
REMARK minimizedAffinity 14.1982603
REMARK minimizedRMSD -1
REMARK  0 active torsions:
REMARK  status: ('A' for Active; 'I' for Inactive)
ROOT
ATOM      1  C   UNL d   1      -1.406   0.851   1.398  0.00  0.00     0.124 A 
ATOM      2  C1  UNL d   1      -0.940   0.733   0.096  0.00  0.00     0.062 A 
ATOM      3  C2  UNL d   1      -0.931  -0.508  -0.535  0.00  0.00     0.162 A 
ATOM      4  C3  UNL d   1      -1.391  -1.641   0.136  0.00  0.00    -0.034 A 
ATOM      5  C4  UNL d   1      -1.857  -1.515   1.446  0.00  0.00     0.162 A 
ATOM      6  C5  UNL d   1      -1.864  -0.272   2.071  0.00  0.00     0.062 A 
ATOM      7  F   UNL d   1      -2.314  -0.160   3.329  0.00  0.00    -0.097 F 
ATOM      8  F1  UNL d   1      -2.307  -2.584   2.120  0.00  0.00    -0.096 F 
ATOM      9  I   UNL d   1      -1.380  -3.499  -0.803  0.00  0.00    -0.060 I 
ATOM     10  F2  UNL d   1      -0.476  -0.593  -1.794  0.00  0.00    -0.096 F 
ATOM     11  F3  UNL d   1      -0.496   1.817  -0.557  0.00  0.00    -0.097 F 
ATOM     12  F4  UNL d   1      -1.412   2.046   2.002  0.00  0.00    -0.092 F 
ENDROOT
TORSDOF 0
ENDMDL
