MODEL 1
REMARK minimizedAffinity 0.192422628
REMARK minimizedRMSD -1
REMARK  0 active torsions:
REMARK  status: ('A' for Active; 'I' for Inactive)
ROOT
ATOM      1  C   UNL d   1      -0.522  -1.760  -0.070  0.00  0.00     0.124 A 
ATOM      2  C1  UNL d   1      -0.371  -1.318   1.237  0.00  0.00     0.062 A 
ATOM      3  C2  UNL d   1       0.084  -0.027   1.491  0.00  0.00     0.162 A 
ATOM      4  C3  UNL d   1       0.390   0.831   0.436  0.00  0.00    -0.034 A 
ATOM      5  C4  UNL d   1       0.237   0.379  -0.876  0.00  0.00     0.162 A 
ATOM      6  C5  UNL d   1      -0.218  -0.912  -1.125  0.00  0.00     0.062 A 
ATOM      7  F   UNL d   1      -0.363  -1.338  -2.388  0.00  0.00    -0.097 F 
ATOM      8  F1  UNL d   1       0.522   1.178  -1.915  0.00  0.00    -0.096 F 
ATOM      9  I   UNL d   1       1.070   2.762   0.811  0.00  0.00    -0.060 I 
ATOM     10  F2  UNL d   1       0.220   0.374   2.764  0.00  0.00    -0.096 F 
ATOM     11  F3  UNL d   1      -0.663  -2.136   2.259  0.00  0.00    -0.097 F 
ATOM     12  F4  UNL d   1      -0.959  -3.003  -0.311  0.00  0.00    -0.092 F 
ENDROOT
TORSDOF 0
ENDMDL
