MODEL 1
REMARK minimizedAffinity -2.08445835
REMARK minimizedRMSD -1
REMARK  0 active torsions:
REMARK  status: ('A' for Active; 'I' for Inactive)
ROOT
ATOM      1  C   UNL d   1      -0.389  -2.071  -0.692  0.00  0.00     0.124 A 
ATOM      2  C1  UNL d   1      -0.256  -1.483   0.559  0.00  0.00     0.062 A 
ATOM      3  C2  UNL d   1       0.113  -0.146   0.668  0.00  0.00     0.162 A 
ATOM      4  C3  UNL d   1       0.350   0.615  -0.478  0.00  0.00    -0.034 A 
ATOM      5  C4  UNL d   1       0.215   0.016  -1.732  0.00  0.00     0.162 A 
ATOM      6  C5  UNL d   1      -0.153  -1.321  -1.835  0.00  0.00     0.062 A 
ATOM      7  F   UNL d   1      -0.281  -1.887  -3.044  0.00  0.00    -0.097 F 
ATOM      8  F1  UNL d   1       0.436   0.718  -2.853  0.00  0.00    -0.096 F 
ATOM      9  I   UNL d   1       0.901   2.615  -0.319  0.00  0.00    -0.060 I 
ATOM     10  F2  UNL d   1       0.234   0.396   1.889  0.00  0.00    -0.096 F 
ATOM     11  F3  UNL d   1      -0.482  -2.206   1.665  0.00  0.00    -0.097 F 
ATOM     12  F4  UNL d   1      -0.742  -3.359  -0.794  0.00  0.00    -0.092 F 
ENDROOT
TORSDOF 0
ENDMDL
