MODEL 1
REMARK minimizedAffinity -1.55056119
REMARK minimizedRMSD -1
REMARK  0 active torsions:
REMARK  status: ('A' for Active; 'I' for Inactive)
ROOT
ATOM      1  C   UNL d   1       1.970   2.766  -0.199  0.00  0.00     0.124 A 
ATOM      2  C1  UNL d   1       1.227   2.162  -1.204  0.00  0.00     0.062 A 
ATOM      3  C2  UNL d   1       0.434   1.054  -0.918  0.00  0.00     0.162 A 
ATOM      4  C3  UNL d   1       0.379   0.543   0.378  0.00  0.00    -0.034 A 
ATOM      5  C4  UNL d   1       1.130   1.155   1.383  0.00  0.00     0.162 A 
ATOM      6  C5  UNL d   1       1.921   2.262   1.093  0.00  0.00     0.062 A 
ATOM      7  F   UNL d   1       2.639   2.844   2.065  0.00  0.00    -0.097 F 
ATOM      8  F1  UNL d   1       1.101   0.690   2.641  0.00  0.00    -0.096 F 
ATOM      9  I   UNL d   1      -0.806  -1.112   0.809  0.00  0.00    -0.060 I 
ATOM     10  F2  UNL d   1      -0.274   0.491  -1.909  0.00  0.00    -0.096 F 
ATOM     11  F3  UNL d   1       1.273   2.646  -2.453  0.00  0.00    -0.097 F 
ATOM     12  F4  UNL d   1       2.733   3.831  -0.477  0.00  0.00    -0.092 F 
ENDROOT
TORSDOF 0
ENDMDL
