MODEL 1
REMARK minimizedAffinity -0.820516944
REMARK minimizedRMSD -1
REMARK  0 active torsions:
REMARK  status: ('A' for Active; 'I' for Inactive)
ROOT
ATOM      1  C   UNL d   1      -0.595  -2.607  -0.648  0.00  0.00     0.124 A 
ATOM      2  C1  UNL d   1      -0.178  -1.812  -1.707  0.00  0.00     0.062 A 
ATOM      3  C2  UNL d   1       0.066  -0.456  -1.511  0.00  0.00     0.162 A 
ATOM      4  C3  UNL d   1      -0.106   0.115  -0.250  0.00  0.00    -0.034 A 
ATOM      5  C4  UNL d   1      -0.526  -0.690   0.810  0.00  0.00     0.162 A 
ATOM      6  C5  UNL d   1      -0.768  -2.045   0.609  0.00  0.00     0.062 A 
ATOM      7  F   UNL d   1      -1.171  -2.811   1.634  0.00  0.00    -0.097 F 
ATOM      8  F1  UNL d   1      -0.701  -0.174   2.036  0.00  0.00    -0.096 F 
ATOM      9  I   UNL d   1       0.258   2.143   0.047  0.00  0.00    -0.060 I 
ATOM     10  F2  UNL d   1       0.468   0.288  -2.553  0.00  0.00    -0.096 F 
ATOM     11  F3  UNL d   1      -0.011  -2.352  -2.923  0.00  0.00    -0.097 F 
ATOM     12  F4  UNL d   1      -0.830  -3.911  -0.840  0.00  0.00    -0.092 F 
ENDROOT
TORSDOF 0
ENDMDL
