MODEL 1
REMARK minimizedAffinity 0.144241065
REMARK minimizedRMSD -1
REMARK  0 active torsions:
REMARK  status: ('A' for Active; 'I' for Inactive)
ROOT
ATOM      1  C   UNL d   1      -0.708  -1.962  -0.521  0.00  0.00     0.124 A 
ATOM      2  C1  UNL d   1      -0.607  -1.582   0.811  0.00  0.00     0.062 A 
ATOM      3  C2  UNL d   1      -0.179  -0.300   1.142  0.00  0.00     0.162 A 
ATOM      4  C3  UNL d   1       0.150   0.613   0.141  0.00  0.00    -0.034 A 
ATOM      5  C4  UNL d   1       0.047   0.224  -1.196  0.00  0.00     0.162 A 
ATOM      6  C5  UNL d   1      -0.381  -1.059  -1.522  0.00  0.00     0.062 A 
ATOM      7  F   UNL d   1      -0.478  -1.424  -2.809  0.00  0.00    -0.097 F 
ATOM      8  F1  UNL d   1       0.355   1.077  -2.184  0.00  0.00    -0.096 F 
ATOM      9  I   UNL d   1       0.790   2.532   0.633  0.00  0.00    -0.060 I 
ATOM     10  F2  UNL d   1      -0.091   0.040   2.437  0.00  0.00    -0.096 F 
ATOM     11  F3  UNL d   1      -0.921  -2.453   1.780  0.00  0.00    -0.097 F 
ATOM     12  F4  UNL d   1      -1.119  -3.197  -0.837  0.00  0.00    -0.092 F 
ENDROOT
TORSDOF 0
ENDMDL
