MODEL 1
REMARK minimizedAffinity -2.29268599
REMARK minimizedRMSD -1
REMARK  0 active torsions:
REMARK  status: ('A' for Active; 'I' for Inactive)
ROOT
ATOM      1  C   UNL d   1      -0.414  -2.327  -0.853  0.00  0.00     0.124 A 
ATOM      2  C1  UNL d   1      -0.596  -1.819   0.426  0.00  0.00     0.062 A 
ATOM      3  C2  UNL d   1      -0.427  -0.459   0.670  0.00  0.00     0.162 A 
ATOM      4  C3  UNL d   1      -0.075   0.403  -0.368  0.00  0.00    -0.034 A 
ATOM      5  C4  UNL d   1       0.108  -0.115  -1.652  0.00  0.00     0.162 A 
ATOM      6  C5  UNL d   1      -0.063  -1.474  -1.891  0.00  0.00     0.062 A 
ATOM      7  F   UNL d   1       0.114  -1.963  -3.127  0.00  0.00    -0.097 F 
ATOM      8  F1  UNL d   1       0.447   0.687  -2.673  0.00  0.00    -0.096 F 
ATOM      9  I   UNL d   1       0.179   2.437  -0.008  0.00  0.00    -0.060 I 
ATOM     10  F2  UNL d   1      -0.609   0.004   1.915  0.00  0.00    -0.096 F 
ATOM     11  F3  UNL d   1      -0.935  -2.641   1.429  0.00  0.00    -0.097 F 
ATOM     12  F4  UNL d   1      -0.577  -3.636  -1.085  0.00  0.00    -0.092 F 
ENDROOT
TORSDOF 0
ENDMDL
