MODEL 1
REMARK minimizedAffinity -1.86732638
REMARK minimizedRMSD -1
REMARK  0 active torsions:
REMARK  status: ('A' for Active; 'I' for Inactive)
ROOT
ATOM      1  C   UNL d   1      -1.767   1.906   0.920  0.00  0.00     0.020 A 
ATOM      2  C1  UNL d   1      -1.084   2.296   2.071  0.00  0.00     0.020 A 
ATOM      3  C2  UNL d   1       0.138   1.702   2.393  0.00  0.00     0.034 A 
ATOM      4  C3  UNL d   1       0.681   0.715   1.562  0.00  0.00     0.017 A 
ATOM      5  C4  UNL d   1      -0.005   0.325   0.407  0.00  0.00     0.017 A 
ATOM      6  C5  UNL d   1      -1.229   0.923   0.089  0.00  0.00     0.034 A 
ATOM      7 Cl   UNL d   1       0.601  -0.886  -0.667  0.00  0.00    -0.070 Cl
ATOM      8 Cl1  UNL d   1       2.197   0.023   2.021  0.00  0.00    -0.070 Cl
ENDROOT
TORSDOF 0
ENDMDL
