MODEL 1
REMARK minimizedAffinity -4.98719358
REMARK minimizedRMSD -1
REMARK  0 active torsions:
REMARK  status: ('A' for Active; 'I' for Inactive)
ROOT
ATOM      1  C   UNL d   1      -0.728   3.287   1.345  0.00  0.00     0.020 A 
ATOM      2  C1  UNL d   1      -0.920   3.346  -0.034  0.00  0.00     0.020 A 
ATOM      3  C2  UNL d   1      -0.573   2.256  -0.835  0.00  0.00     0.034 A 
ATOM      4  C3  UNL d   1      -0.032   1.102  -0.257  0.00  0.00     0.017 A 
ATOM      5  C4  UNL d   1       0.160   1.044   1.128  0.00  0.00     0.017 A 
ATOM      6  C5  UNL d   1      -0.189   2.139   1.925  0.00  0.00     0.034 A 
ATOM      7 Cl   UNL d   1       0.823  -0.346   1.915  0.00  0.00    -0.070 Cl
ATOM      8 Cl1  UNL d   1       0.373  -0.209  -1.307  0.00  0.00    -0.070 Cl
ENDROOT
TORSDOF 0
ENDMDL
