MODEL 1
REMARK minimizedAffinity -2.9406476
REMARK minimizedRMSD -1
REMARK  0 active torsions:
REMARK  status: ('A' for Active; 'I' for Inactive)
ROOT
ATOM      1  C   UNL d   1       0.102  -0.816   0.768  0.00  0.00     0.020 A 
ATOM      2  C1  UNL d   1       0.185  -0.012   1.904  0.00  0.00     0.020 A 
ATOM      3  C2  UNL d   1       0.171   1.378   1.779  0.00  0.00     0.034 A 
ATOM      4  C3  UNL d   1       0.074   1.970   0.514  0.00  0.00     0.017 A 
ATOM      5  C4  UNL d   1      -0.009   1.162  -0.626  0.00  0.00     0.017 A 
ATOM      6  C5  UNL d   1       0.005  -0.230  -0.495  0.00  0.00     0.034 A 
ATOM      7 Cl   UNL d   1      -0.132   1.819  -2.220  0.00  0.00    -0.070 Cl
ATOM      8 Cl1  UNL d   1       0.062   3.696   0.433  0.00  0.00    -0.070 Cl
ENDROOT
TORSDOF 0
ENDMDL
