MODEL 1
REMARK minimizedAffinity -2.75497961
REMARK minimizedRMSD -1
REMARK  0 active torsions:
REMARK  status: ('A' for Active; 'I' for Inactive)
ROOT
ATOM      1  C   UNL d   1       0.323   0.859   2.456  0.00  0.00     0.020 A 
ATOM      2  C1  UNL d   1       0.005   2.167   2.090  0.00  0.00     0.020 A 
ATOM      3  C2  UNL d   1      -0.233   2.478   0.749  0.00  0.00     0.034 A 
ATOM      4  C3  UNL d   1      -0.154   1.481  -0.230  0.00  0.00     0.017 A 
ATOM      5  C4  UNL d   1       0.166   0.169   0.139  0.00  0.00     0.017 A 
ATOM      6  C5  UNL d   1       0.404  -0.137   1.482  0.00  0.00     0.034 A 
ATOM      7 Cl   UNL d   1       0.282  -1.115  -1.013  0.00  0.00    -0.070 Cl
ATOM      8 Cl1  UNL d   1      -0.461   1.937  -1.868  0.00  0.00    -0.070 Cl
ENDROOT
TORSDOF 0
ENDMDL
