MODEL 1
REMARK minimizedAffinity -4.2624402
REMARK minimizedRMSD -1
REMARK  0 active torsions:
REMARK  status: ('A' for Active; 'I' for Inactive)
ROOT
ATOM      1  C   UNL d   1       0.673   4.017   1.848  0.00  0.00     0.020 A 
ATOM      2  C1  UNL d   1       0.737   2.864   2.628  0.00  0.00     0.020 A 
ATOM      3  C2  UNL d   1       0.242   1.656   2.130  0.00  0.00     0.034 A 
ATOM      4  C3  UNL d   1      -0.319   1.600   0.849  0.00  0.00     0.017 A 
ATOM      5  C4  UNL d   1      -0.383   2.759   0.067  0.00  0.00     0.017 A 
ATOM      6  C5  UNL d   1       0.115   3.965   0.570  0.00  0.00     0.034 A 
ATOM      7 Cl   UNL d   1      -1.061   2.768  -1.523  0.00  0.00    -0.070 Cl
ATOM      8 Cl1  UNL d   1      -0.912   0.074   0.298  0.00  0.00    -0.070 Cl
ENDROOT
TORSDOF 0
ENDMDL
