MODEL 1
REMARK minimizedAffinity -3.4111836
REMARK minimizedRMSD -1
REMARK  0 active torsions:
REMARK  status: ('A' for Active; 'I' for Inactive)
ROOT
ATOM      1  C   UNL d   1      -0.505   0.450  -1.465  0.00  0.00     0.020 A 
ATOM      2  C1  UNL d   1       0.440  -0.384  -0.869  0.00  0.00     0.020 A 
ATOM      3  C2  UNL d   1       0.778  -0.208   0.474  0.00  0.00     0.034 A 
ATOM      4  C3  UNL d   1       0.171   0.805   1.226  0.00  0.00     0.017 A 
ATOM      5  C4  UNL d   1      -0.777   1.642   0.626  0.00  0.00     0.017 A 
ATOM      6  C5  UNL d   1      -1.112   1.461  -0.719  0.00  0.00     0.034 A 
ATOM      7 Cl   UNL d   1      -1.569   2.913   1.489  0.00  0.00    -0.070 Cl
ATOM      8 Cl1  UNL d   1       0.637   0.966   2.882  0.00  0.00    -0.070 Cl
ENDROOT
TORSDOF 0
ENDMDL
