MODEL 1
REMARK minimizedAffinity -1.33798301
REMARK minimizedRMSD -1
REMARK  0 active torsions:
REMARK  status: ('A' for Active; 'I' for Inactive)
ROOT
ATOM      1  C   UNL d   1       0.379  -0.479  -0.371  0.00  0.00     0.020 A 
ATOM      2  C1  UNL d   1      -0.647   0.197  -1.030  0.00  0.00     0.020 A 
ATOM      3  C2  UNL d   1      -1.325   1.235  -0.387  0.00  0.00     0.034 A 
ATOM      4  C3  UNL d   1      -0.978   1.599   0.919  0.00  0.00     0.017 A 
ATOM      5  C4  UNL d   1       0.052   0.920   1.580  0.00  0.00     0.017 A 
ATOM      6  C5  UNL d   1       0.728  -0.118   0.931  0.00  0.00     0.034 A 
ATOM      7 Cl   UNL d   1       0.537   1.314   3.192  0.00  0.00    -0.070 Cl
ATOM      8 Cl1  UNL d   1      -1.859   2.892   1.653  0.00  0.00    -0.070 Cl
ENDROOT
TORSDOF 0
ENDMDL
