MODEL 1
REMARK minimizedAffinity -2.70612478
REMARK minimizedRMSD -1
REMARK  0 active torsions:
REMARK  status: ('A' for Active; 'I' for Inactive)
ROOT
ATOM      1  C   UNL d   1       1.237  -0.367   1.367  0.00  0.00     0.020 A 
ATOM      2  C1  UNL d   1       1.188  -0.668   0.007  0.00  0.00     0.020 A 
ATOM      3  C2  UNL d   1       0.328   0.040  -0.835  0.00  0.00     0.034 A 
ATOM      4  C3  UNL d   1      -0.487   1.054  -0.318  0.00  0.00     0.017 A 
ATOM      5  C4  UNL d   1      -0.438   1.355   1.048  0.00  0.00     0.017 A 
ATOM      6  C5  UNL d   1       0.425   0.643   1.887  0.00  0.00     0.034 A 
ATOM      7 Cl   UNL d   1      -1.413   2.592   1.760  0.00  0.00    -0.070 Cl
ATOM      8 Cl1  UNL d   1      -1.526   1.889  -1.417  0.00  0.00    -0.070 Cl
ENDROOT
TORSDOF 0
ENDMDL
