MODEL 1
REMARK minimizedAffinity -1.95441806
REMARK minimizedRMSD -1
REMARK  0 active torsions:
REMARK  status: ('A' for Active; 'I' for Inactive)
ROOT
ATOM      1  C   UNL d   1      -5.999   5.999  -5.998  0.00  0.00     0.077 C 
ATOM      2  C1  UNL d   1      -5.236   4.999  -5.181  0.00  0.00    -0.074 A 
ATOM      3  C2  UNL d   1      -3.837   4.987  -5.183  0.00  0.00    -0.005 A 
ATOM      4  C3  UNL d   1      -3.141   4.057  -4.410  0.00  0.00     0.006 A 
ATOM      5  C4  UNL d   1      -3.835   3.132  -3.629  0.00  0.00    -0.005 A 
ATOM      6  C5  UNL d   1      -5.233   3.130  -3.613  0.00  0.00    -0.074 A 
ATOM      7  C6  UNL d   1      -5.994   2.150  -2.772  0.00  0.00     0.077 C 
ATOM      8  C7  UNL d   1      -5.925   4.072  -4.387  0.00  0.00    -0.001 A 
ENDROOT
TORSDOF 0
ENDMDL
