MODEL 1
REMARK minimizedAffinity 10.6847878
REMARK minimizedRMSD -1
REMARK  0 active torsions:
REMARK  status: ('A' for Active; 'I' for Inactive)
ROOT
ATOM      1  C   UNL d   1      -3.871   1.027  -5.997  0.00  0.00     0.077 C 
ATOM      2  C1  UNL d   1      -3.954   2.265  -5.155  0.00  0.00    -0.074 A 
ATOM      3  C2  UNL d   1      -3.789   2.204  -3.767  0.00  0.00    -0.005 A 
ATOM      4  C3  UNL d   1      -3.859   3.365  -2.998  0.00  0.00     0.006 A 
ATOM      5  C4  UNL d   1      -4.095   4.598  -3.608  0.00  0.00    -0.005 A 
ATOM      6  C5  UNL d   1      -4.263   4.679  -4.994  0.00  0.00    -0.074 A 
ATOM      7  C6  UNL d   1      -4.508   5.998  -5.666  0.00  0.00     0.077 C 
ATOM      8  C7  UNL d   1      -4.184   3.509  -5.761  0.00  0.00    -0.001 A 
ENDROOT
TORSDOF 0
ENDMDL
