MODEL 1
REMARK minimizedAffinity 10.0574121
REMARK minimizedRMSD -1
REMARK  0 active torsions:
REMARK  status: ('A' for Active; 'I' for Inactive)
ROOT
ATOM      1  C   UNL d   1       0.614   5.999  -1.078  0.00  0.00     0.077 C 
ATOM      2  C1  UNL d   1       0.222   4.552  -1.093  0.00  0.00    -0.074 A 
ATOM      3  C2  UNL d   1      -0.328   3.968  -2.239  0.00  0.00    -0.005 A 
ATOM      4  C3  UNL d   1      -0.678   2.617  -2.241  0.00  0.00     0.006 A 
ATOM      5  C4  UNL d   1      -0.482   1.839  -1.099  0.00  0.00    -0.005 A 
ATOM      6  C5  UNL d   1       0.067   2.406   0.055  0.00  0.00    -0.074 A 
ATOM      7  C6  UNL d   1       0.293   1.581   1.287  0.00  0.00     0.077 C 
ATOM      8  C7  UNL d   1       0.423   3.761   0.047  0.00  0.00    -0.001 A 
ENDROOT
TORSDOF 0
ENDMDL
