MODEL 1
REMARK minimizedAffinity 7.3611989
REMARK minimizedRMSD -1
REMARK  0 active torsions:
REMARK  status: ('A' for Active; 'I' for Inactive)
ROOT
ATOM      1  C   UNL d   1      -2.286  -5.270  -5.999  0.00  0.00     0.077 C 
ATOM      2  C1  UNL d   1      -1.479  -4.191  -5.338  0.00  0.00    -0.074 A 
ATOM      3  C2  UNL d   1      -0.803  -4.432  -4.138  0.00  0.00    -0.005 A 
ATOM      4  C3  UNL d   1      -0.049  -3.422  -3.541  0.00  0.00     0.006 A 
ATOM      5  C4  UNL d   1       0.036  -2.163  -4.137  0.00  0.00    -0.005 A 
ATOM      6  C5  UNL d   1      -0.633  -1.904  -5.337  0.00  0.00    -0.074 A 
ATOM      7  C6  UNL d   1      -0.544  -0.559  -5.995  0.00  0.00     0.077 C 
ATOM      8  C7  UNL d   1      -1.383  -2.926  -5.935  0.00  0.00    -0.001 A 
ENDROOT
TORSDOF 0
ENDMDL
