MODEL 1
REMARK minimizedAffinity 3.1317451
REMARK minimizedRMSD -1
REMARK  0 active torsions:
REMARK  status: ('A' for Active; 'I' for Inactive)
ROOT
ATOM      1  C   UNL d   1       5.086  -3.845  -5.100  0.00  0.00     0.077 C 
ATOM      2  C1  UNL d   1       4.369  -3.151  -3.981  0.00  0.00    -0.074 A 
ATOM      3  C2  UNL d   1       4.875  -1.971  -3.425  0.00  0.00    -0.005 A 
ATOM      4  C3  UNL d   1       4.192  -1.331  -2.391  0.00  0.00     0.006 A 
ATOM      5  C4  UNL d   1       2.998  -1.863  -1.903  0.00  0.00    -0.005 A 
ATOM      6  C5  UNL d   1       2.476  -3.041  -2.446  0.00  0.00    -0.074 A 
ATOM      7  C6  UNL d   1       1.189  -3.620  -1.940  0.00  0.00     0.077 C 
ATOM      8  C7  UNL d   1       3.164  -3.674  -3.490  0.00  0.00    -0.001 A 
ENDROOT
TORSDOF 0
ENDMDL
