MODEL 1
REMARK minimizedAffinity 12.4311838
REMARK minimizedRMSD -1
REMARK  0 active torsions:
REMARK  status: ('A' for Active; 'I' for Inactive)
ROOT
ATOM      1  C   UNL d   1       2.263  -2.479   4.221  0.00  0.00     0.077 C 
ATOM      2  C1  UNL d   1       1.373  -1.272   4.243  0.00  0.00    -0.074 A 
ATOM      3  C2  UNL d   1       0.400  -1.114   5.235  0.00  0.00    -0.005 A 
ATOM      4  C3  UNL d   1      -0.414   0.018   5.249  0.00  0.00     0.006 A 
ATOM      5  C4  UNL d   1      -0.263   1.004   4.272  0.00  0.00    -0.005 A 
ATOM      6  C5  UNL d   1       0.705   0.864   3.273  0.00  0.00    -0.074 A 
ATOM      7  C6  UNL d   1       0.887   1.918   2.221  0.00  0.00     0.077 C 
ATOM      8  C7  UNL d   1       1.524  -0.274   3.270  0.00  0.00    -0.001 A 
ENDROOT
TORSDOF 0
ENDMDL
