MODEL 1
REMARK minimizedAffinity -0.290365696
REMARK minimizedRMSD -1
REMARK  0 active torsions:
REMARK  status: ('A' for Active; 'I' for Inactive)
ROOT
ATOM      1  C   UNL d   1      -1.925   5.999  -3.992  0.00  0.00     0.077 C 
ATOM      2  C1  UNL d   1      -0.803   5.394  -3.202  0.00  0.00    -0.074 A 
ATOM      3  C2  UNL d   1       0.523   5.781  -3.425  0.00  0.00    -0.005 A 
ATOM      4  C3  UNL d   1       1.556   5.217  -2.676  0.00  0.00     0.006 A 
ATOM      5  C4  UNL d   1       1.274   4.262  -1.698  0.00  0.00    -0.005 A 
ATOM      6  C5  UNL d   1      -0.045   3.863  -1.461  0.00  0.00    -0.074 A 
ATOM      7  C6  UNL d   1      -0.367   2.845  -0.408  0.00  0.00     0.077 C 
ATOM      8  C7  UNL d   1      -1.078   4.440  -2.213  0.00  0.00    -0.001 A 
ENDROOT
TORSDOF 0
ENDMDL
