MODEL 1
REMARK minimizedAffinity -5.81052351
REMARK minimizedRMSD -1
REMARK  0 active torsions:
REMARK  status: ('A' for Active; 'I' for Inactive)
ROOT
ATOM      1  C   UNL d   1       0.703   1.057  -2.095  0.00  0.00     0.077 C 
ATOM      2  C1  UNL d   1       0.684   0.964  -0.599  0.00  0.00    -0.074 A 
ATOM      3  C2  UNL d   1       1.209  -0.154   0.058  0.00  0.00    -0.005 A 
ATOM      4  C3  UNL d   1       1.194  -0.222   1.451  0.00  0.00     0.006 A 
ATOM      5  C4  UNL d   1       0.653   0.824   2.200  0.00  0.00    -0.005 A 
ATOM      6  C5  UNL d   1       0.124   1.949   1.561  0.00  0.00    -0.074 A 
ATOM      7  C6  UNL d   1      -0.452   3.087   2.351  0.00  0.00     0.077 C 
ATOM      8  C7  UNL d   1       0.150   2.014   0.161  0.00  0.00    -0.001 A 
ENDROOT
TORSDOF 0
ENDMDL
