MODEL 1
REMARK minimizedAffinity -3.90892458
REMARK minimizedRMSD -1
REMARK  0 active torsions:
REMARK  status: ('A' for Active; 'I' for Inactive)
ROOT
ATOM      1  C   UNL d   1       1.225  -1.170  -0.090  0.00  0.00     0.077 C 
ATOM      2  C1  UNL d   1       1.242  -0.154   1.013  0.00  0.00    -0.074 A 
ATOM      3  C2  UNL d   1       1.800  -0.456   2.260  0.00  0.00    -0.005 A 
ATOM      4  C3  UNL d   1       1.817   0.502   3.273  0.00  0.00     0.006 A 
ATOM      5  C4  UNL d   1       1.278   1.770   3.051  0.00  0.00    -0.005 A 
ATOM      6  C5  UNL d   1       0.717   2.090   1.811  0.00  0.00    -0.074 A 
ATOM      7  C6  UNL d   1       0.143   3.451   1.552  0.00  0.00     0.077 C 
ATOM      8  C7  UNL d   1       0.710   1.125   0.795  0.00  0.00    -0.001 A 
ENDROOT
TORSDOF 0
ENDMDL
