MODEL 1
REMARK minimizedAffinity -3.31998682
REMARK minimizedRMSD -1
REMARK  0 active torsions:
REMARK  status: ('A' for Active; 'I' for Inactive)
ROOT
ATOM      1  C   UNL d   1       0.068   3.511   1.783  0.00  0.00     0.077 C 
ATOM      2  C1  UNL d   1       0.545   2.100   1.956  0.00  0.00    -0.074 A 
ATOM      3  C2  UNL d   1       0.527   1.484   3.211  0.00  0.00    -0.005 A 
ATOM      4  C3  UNL d   1       0.965   0.167   3.355  0.00  0.00     0.006 A 
ATOM      5  C4  UNL d   1       1.425  -0.545   2.247  0.00  0.00    -0.005 A 
ATOM      6  C5  UNL d   1       1.450   0.054   0.984  0.00  0.00    -0.074 A 
ATOM      7  C6  UNL d   1       1.932  -0.701  -0.219  0.00  0.00     0.077 C 
ATOM      8  C7  UNL d   1       1.002   1.375   0.846  0.00  0.00    -0.001 A 
ENDROOT
TORSDOF 0
ENDMDL
