MODEL 1
REMARK minimizedAffinity 7.6033206
REMARK minimizedRMSD -1
REMARK  0 active torsions:
REMARK  status: ('A' for Active; 'I' for Inactive)
ROOT
ATOM      1  C   UNL d   1       2.476   5.752   5.999  0.00  0.00     0.078 C 
ATOM      2  C1  UNL d   1       3.696   5.178   5.343  0.00  0.00    -0.077 A 
ATOM      3  C2  UNL d   1       3.759   3.823   4.997  0.00  0.00    -0.001 A 
ATOM      4  C3  UNL d   1       4.905   3.300   4.396  0.00  0.00     0.003 A 
ATOM      5  C4  UNL d   1       5.998   4.126   4.138  0.00  0.00    -0.005 A 
ATOM      6  C5  UNL d   1       5.946   5.475   4.481  0.00  0.00     0.003 A 
ATOM      7  C6  UNL d   1       4.800   5.999   5.082  0.00  0.00    -0.001 A 
ENDROOT
TORSDOF 0
ENDMDL
