MODEL 1
REMARK minimizedAffinity 9.71447277
REMARK minimizedRMSD -1
REMARK  0 active torsions:
REMARK  status: ('A' for Active; 'I' for Inactive)
ROOT
ATOM      1  C   UNL d   1      -0.728  -5.214   1.230  0.00  0.00     0.078 C 
ATOM      2  C1  UNL d   1      -1.320  -3.910   0.786  0.00  0.00    -0.077 A 
ATOM      3  C2  UNL d   1      -2.696  -3.671   0.885  0.00  0.00    -0.001 A 
ATOM      4  C3  UNL d   1      -3.233  -2.455   0.459  0.00  0.00     0.003 A 
ATOM      5  C4  UNL d   1      -2.403  -1.470  -0.071  0.00  0.00    -0.005 A 
ATOM      6  C5  UNL d   1      -1.032  -1.700  -0.176  0.00  0.00     0.003 A 
ATOM      7  C6  UNL d   1      -0.493  -2.914   0.250  0.00  0.00    -0.001 A 
ENDROOT
TORSDOF 0
ENDMDL
