MODEL 1
REMARK minimizedAffinity 4.10669756
REMARK minimizedRMSD -1
REMARK  0 active torsions:
REMARK  status: ('A' for Active; 'I' for Inactive)
ROOT
ATOM      1  C   UNL d   1      -1.163  -5.299   0.240  0.00  0.00     0.078 C 
ATOM      2  C1  UNL d   1      -1.364  -3.824   0.061  0.00  0.00    -0.077 A 
ATOM      3  C2  UNL d   1      -1.446  -2.968   1.166  0.00  0.00    -0.001 A 
ATOM      4  C3  UNL d   1      -1.643  -1.598   0.984  0.00  0.00     0.003 A 
ATOM      5  C4  UNL d   1      -1.761  -1.072  -0.301  0.00  0.00    -0.005 A 
ATOM      6  C5  UNL d   1      -1.684  -1.916  -1.406  0.00  0.00     0.003 A 
ATOM      7  C6  UNL d   1      -1.487  -3.286  -1.227  0.00  0.00    -0.001 A 
ENDROOT
TORSDOF 0
ENDMDL
