MODEL 1
REMARK minimizedAffinity 9.83130074
REMARK minimizedRMSD -1
REMARK  0 active torsions:
REMARK  status: ('A' for Active; 'I' for Inactive)
ROOT
ATOM      1  C   UNL d   1       5.991   0.452   2.621  0.00  0.00     0.078 C 
ATOM      2  C1  UNL d   1       5.207   1.359   1.720  0.00  0.00    -0.077 A 
ATOM      3  C2  UNL d   1       3.871   1.673   1.999  0.00  0.00    -0.001 A 
ATOM      4  C3  UNL d   1       3.150   2.510   1.146  0.00  0.00     0.003 A 
ATOM      5  C4  UNL d   1       3.756   3.040   0.008  0.00  0.00    -0.005 A 
ATOM      6  C5  UNL d   1       5.085   2.731  -0.278  0.00  0.00     0.003 A 
ATOM      7  C6  UNL d   1       5.807   1.894   0.574  0.00  0.00    -0.001 A 
ENDROOT
TORSDOF 0
ENDMDL
