MODEL 1
REMARK minimizedAffinity 8.90656757
REMARK minimizedRMSD -1
REMARK  0 active torsions:
REMARK  status: ('A' for Active; 'I' for Inactive)
ROOT
ATOM      1  C   UNL d   1       2.139   0.024  -2.200  0.00  0.00     0.078 C 
ATOM      2  C1  UNL d   1       3.487   0.055  -2.857  0.00  0.00    -0.077 A 
ATOM      3  C2  UNL d   1       4.019   1.251  -3.354  0.00  0.00    -0.001 A 
ATOM      4  C3  UNL d   1       5.270   1.264  -3.972  0.00  0.00     0.003 A 
ATOM      5  C4  UNL d   1       6.000   0.083  -4.099  0.00  0.00    -0.005 A 
ATOM      6  C5  UNL d   1       5.477  -1.112  -3.610  0.00  0.00     0.003 A 
ATOM      7  C6  UNL d   1       4.226  -1.127  -2.991  0.00  0.00    -0.001 A 
ENDROOT
TORSDOF 0
ENDMDL
