MODEL 1
REMARK minimizedAffinity 7.99462509
REMARK minimizedRMSD -1
REMARK  0 active torsions:
REMARK  status: ('A' for Active; 'I' for Inactive)
ROOT
ATOM      1  C   UNL d   1      -3.938   5.261   5.981  0.00  0.00     0.078 C 
ATOM      2  C1  UNL d   1      -4.241   3.792   5.992  0.00  0.00    -0.077 A 
ATOM      3  C2  UNL d   1      -3.211   2.843   5.985  0.00  0.00    -0.001 A 
ATOM      4  C3  UNL d   1      -3.508   1.480   5.985  0.00  0.00     0.003 A 
ATOM      5  C4  UNL d   1      -4.835   1.052   5.991  0.00  0.00    -0.005 A 
ATOM      6  C5  UNL d   1      -5.866   1.989   5.995  0.00  0.00     0.003 A 
ATOM      7  C6  UNL d   1      -5.571   3.354   5.995  0.00  0.00    -0.001 A 
ENDROOT
TORSDOF 0
ENDMDL
