MODEL 1
REMARK minimizedAffinity 3.94885731
REMARK minimizedRMSD -1
REMARK  0 active torsions:
REMARK  status: ('A' for Active; 'I' for Inactive)
ROOT
ATOM      1  C   UNL d   1      -0.166  -5.993   1.766  0.00  0.00     0.078 C 
ATOM      2  C1  UNL d   1      -0.834  -4.687   1.453  0.00  0.00    -0.077 A 
ATOM      3  C2  UNL d   1      -0.627  -4.048   0.225  0.00  0.00    -0.001 A 
ATOM      4  C3  UNL d   1      -1.247  -2.828  -0.050  0.00  0.00     0.003 A 
ATOM      5  C4  UNL d   1      -2.077  -2.236   0.900  0.00  0.00    -0.005 A 
ATOM      6  C5  UNL d   1      -2.287  -2.864   2.126  0.00  0.00     0.003 A 
ATOM      7  C6  UNL d   1      -1.668  -4.084   2.402  0.00  0.00    -0.001 A 
ENDROOT
TORSDOF 0
ENDMDL
