MODEL 1
REMARK minimizedAffinity 7.75410414
REMARK minimizedRMSD -1
REMARK  0 active torsions:
REMARK  status: ('A' for Active; 'I' for Inactive)
ROOT
ATOM      1  C   UNL d   1      -6.000   5.999  -5.998  0.00  0.00     0.078 C 
ATOM      2  C1  UNL d   1      -4.873   5.287  -5.310  0.00  0.00    -0.077 A 
ATOM      3  C2  UNL d   1      -4.588   3.946  -5.594  0.00  0.00    -0.001 A 
ATOM      4  C3  UNL d   1      -3.542   3.293  -4.939  0.00  0.00     0.003 A 
ATOM      5  C4  UNL d   1      -2.774   3.973  -3.996  0.00  0.00    -0.005 A 
ATOM      6  C5  UNL d   1      -3.052   5.307  -3.706  0.00  0.00     0.003 A 
ATOM      7  C6  UNL d   1      -4.097   5.962  -4.359  0.00  0.00    -0.001 A 
ENDROOT
TORSDOF 0
ENDMDL
