MODEL 1
REMARK minimizedAffinity 4.07508183
REMARK minimizedRMSD -1
REMARK  0 active torsions:
REMARK  status: ('A' for Active; 'I' for Inactive)
ROOT
ATOM      1  C   UNL d   1      -2.355  -1.327   5.719  0.00  0.00     0.078 C 
ATOM      2  C1  UNL d   1      -3.360  -0.218   5.809  0.00  0.00    -0.077 A 
ATOM      3  C2  UNL d   1      -2.956   1.123   5.814  0.00  0.00    -0.001 A 
ATOM      4  C3  UNL d   1      -3.903   2.144   5.908  0.00  0.00     0.003 A 
ATOM      5  C4  UNL d   1      -5.259   1.836   6.000  0.00  0.00    -0.005 A 
ATOM      6  C5  UNL d   1      -5.670   0.505   5.998  0.00  0.00     0.003 A 
ATOM      7  C6  UNL d   1      -4.725  -0.518   5.904  0.00  0.00    -0.001 A 
ENDROOT
TORSDOF 0
ENDMDL
