MODEL 1
REMARK minimizedAffinity 7.09848022
REMARK minimizedRMSD -1
REMARK  0 active torsions:
REMARK  status: ('A' for Active; 'I' for Inactive)
ROOT
ATOM      1  C   UNL d   1      -4.554   5.996  -3.204  0.00  0.00     0.078 C 
ATOM      2  C1  UNL d   1      -4.794   5.408  -1.845  0.00  0.00    -0.077 A 
ATOM      3  C2  UNL d   1      -5.794   5.915  -1.007  0.00  0.00    -0.001 A 
ATOM      4  C3  UNL d   1      -6.000   5.364   0.259  0.00  0.00     0.003 A 
ATOM      5  C4  UNL d   1      -5.209   4.305   0.698  0.00  0.00    -0.005 A 
ATOM      6  C5  UNL d   1      -4.210   3.795  -0.129  0.00  0.00     0.003 A 
ATOM      7  C6  UNL d   1      -4.002   4.344  -1.395  0.00  0.00    -0.001 A 
ENDROOT
TORSDOF 0
ENDMDL
