MODEL 1
REMARK minimizedAffinity 7.66648769
REMARK minimizedRMSD -1
REMARK  0 active torsions:
REMARK  status: ('A' for Active; 'I' for Inactive)
ROOT
ATOM      1  C   UNL d   1      -4.471   4.923   5.974  0.00  0.00     0.078 C 
ATOM      2  C1  UNL d   1      -4.580   3.428   5.972  0.00  0.00    -0.077 A 
ATOM      3  C2  UNL d   1      -5.829   2.795   5.989  0.00  0.00    -0.001 A 
ATOM      4  C3  UNL d   1      -5.915   1.402   5.997  0.00  0.00     0.003 A 
ATOM      5  C4  UNL d   1      -4.755   0.629   5.990  0.00  0.00    -0.005 A 
ATOM      6  C5  UNL d   1      -3.508   1.250   5.975  0.00  0.00     0.003 A 
ATOM      7  C6  UNL d   1      -3.420   2.643   5.967  0.00  0.00    -0.001 A 
ENDROOT
TORSDOF 0
ENDMDL
