MODEL 1
REMARK minimizedAffinity 3.58695483
REMARK minimizedRMSD -1
REMARK  0 active torsions:
REMARK  status: ('A' for Active; 'I' for Inactive)
ROOT
ATOM      1  C   UNL d   1      -2.158   3.570  -4.633  0.00  0.00     0.078 C 
ATOM      2  C1  UNL d   1      -3.489   4.212  -4.884  0.00  0.00    -0.077 A 
ATOM      3  C2  UNL d   1      -3.837   5.418  -4.263  0.00  0.00    -0.001 A 
ATOM      4  C3  UNL d   1      -5.083   6.000  -4.498  0.00  0.00     0.003 A 
ATOM      5  C4  UNL d   1      -5.993   5.383  -5.355  0.00  0.00    -0.005 A 
ATOM      6  C5  UNL d   1      -5.657   4.182  -5.976  0.00  0.00     0.003 A 
ATOM      7  C6  UNL d   1      -4.411   3.599  -5.742  0.00  0.00    -0.001 A 
ENDROOT
TORSDOF 0
ENDMDL
