MODEL 1
REMARK minimizedAffinity 7.2542634
REMARK minimizedRMSD -1
REMARK  0 active torsions:
REMARK  status: ('A' for Active; 'I' for Inactive)
ROOT
ATOM      1  C   UNL d   1       5.216   0.106  -3.479  0.00  0.00     0.078 C 
ATOM      2  C1  UNL d   1       4.082   0.568  -2.613  0.00  0.00    -0.077 A 
ATOM      3  C2  UNL d   1       2.998   1.268  -3.157  0.00  0.00    -0.001 A 
ATOM      4  C3  UNL d   1       1.955   1.701  -2.337  0.00  0.00     0.003 A 
ATOM      5  C4  UNL d   1       1.985   1.439  -0.969  0.00  0.00    -0.005 A 
ATOM      6  C5  UNL d   1       3.061   0.745  -0.419  0.00  0.00     0.003 A 
ATOM      7  C6  UNL d   1       4.105   0.311  -1.237  0.00  0.00    -0.001 A 
ENDROOT
TORSDOF 0
ENDMDL
