MODEL 1
REMARK minimizedAffinity 7.38913536
REMARK minimizedRMSD -1
REMARK  0 active torsions:
REMARK  status: ('A' for Active; 'I' for Inactive)
ROOT
ATOM      1  C   UNL d   1      -0.621  -5.708   1.159  0.00  0.00     0.078 C 
ATOM      2  C1  UNL d   1      -1.000  -4.297   0.823  0.00  0.00    -0.077 A 
ATOM      3  C2  UNL d   1      -1.694  -3.499   1.741  0.00  0.00    -0.001 A 
ATOM      4  C3  UNL d   1      -2.049  -2.190   1.411  0.00  0.00     0.003 A 
ATOM      5  C4  UNL d   1      -1.716  -1.667   0.163  0.00  0.00    -0.005 A 
ATOM      6  C5  UNL d   1      -1.027  -2.455  -0.757  0.00  0.00     0.003 A 
ATOM      7  C6  UNL d   1      -0.671  -3.764  -0.429  0.00  0.00    -0.001 A 
ENDROOT
TORSDOF 0
ENDMDL
