MODEL 1
REMARK minimizedAffinity 7.88129234
REMARK minimizedRMSD -1
REMARK  0 active torsions:
REMARK  status: ('A' for Active; 'I' for Inactive)
ROOT
ATOM      1  C   UNL d   1      -5.234   2.170   5.979  0.00  0.00     0.078 C 
ATOM      2  C1  UNL d   1      -4.374   0.954   5.801  0.00  0.00    -0.077 A 
ATOM      3  C2  UNL d   1      -3.031   1.069   5.424  0.00  0.00    -0.001 A 
ATOM      4  C3  UNL d   1      -2.245  -0.071   5.252  0.00  0.00     0.003 A 
ATOM      5  C4  UNL d   1      -2.794  -1.336   5.455  0.00  0.00    -0.005 A 
ATOM      6  C5  UNL d   1      -4.131  -1.461   5.828  0.00  0.00     0.003 A 
ATOM      7  C6  UNL d   1      -4.918  -0.322   6.000  0.00  0.00    -0.001 A 
ENDROOT
TORSDOF 0
ENDMDL
