MODEL 1
REMARK minimizedAffinity 2.41004539
REMARK minimizedRMSD -1
REMARK  0 active torsions:
REMARK  status: ('A' for Active; 'I' for Inactive)
ROOT
ATOM      1  C   UNL d   1      -2.248   3.379  -4.491  0.00  0.00     0.078 C 
ATOM      2  C1  UNL d   1      -3.537   4.041  -4.878  0.00  0.00    -0.077 A 
ATOM      3  C2  UNL d   1      -4.503   3.357  -5.626  0.00  0.00    -0.001 A 
ATOM      4  C3  UNL d   1      -5.694   3.989  -5.988  0.00  0.00     0.003 A 
ATOM      5  C4  UNL d   1      -5.929   5.308  -5.607  0.00  0.00    -0.005 A 
ATOM      6  C5  UNL d   1      -4.973   5.998  -4.865  0.00  0.00     0.003 A 
ATOM      7  C6  UNL d   1      -3.781   5.368  -4.502  0.00  0.00    -0.001 A 
ENDROOT
TORSDOF 0
ENDMDL
