MODEL 1
REMARK minimizedAffinity 2.05328465
REMARK minimizedRMSD -1
REMARK  0 active torsions:
REMARK  status: ('A' for Active; 'I' for Inactive)
ROOT
ATOM      1  C   UNL d   1      -4.901   5.984  -2.643  0.00  0.00     0.078 C 
ATOM      2  C1  UNL d   1      -4.856   5.807  -1.155  0.00  0.00    -0.077 A 
ATOM      3  C2  UNL d   1      -6.000   6.000  -0.371  0.00  0.00    -0.001 A 
ATOM      4  C3  UNL d   1      -5.941   5.840   1.015  0.00  0.00     0.003 A 
ATOM      5  C4  UNL d   1      -4.740   5.489   1.628  0.00  0.00    -0.005 A 
ATOM      6  C5  UNL d   1      -3.596   5.297   0.856  0.00  0.00     0.003 A 
ATOM      7  C6  UNL d   1      -3.653   5.456  -0.529  0.00  0.00    -0.001 A 
ENDROOT
TORSDOF 0
ENDMDL
