MODEL 1
REMARK minimizedAffinity 1.08941615
REMARK minimizedRMSD -1
REMARK  0 active torsions:
REMARK  status: ('A' for Active; 'I' for Inactive)
ROOT
ATOM      1  C   UNL d   1      -3.367   1.253  -4.036  0.00  0.00     0.078 C 
ATOM      2  C1  UNL d   1      -2.735   0.434  -2.950  0.00  0.00    -0.077 A 
ATOM      3  C2  UNL d   1      -3.403   0.201  -1.742  0.00  0.00    -0.001 A 
ATOM      4  C3  UNL d   1      -2.799  -0.555  -0.735  0.00  0.00     0.003 A 
ATOM      5  C4  UNL d   1      -1.523  -1.081  -0.926  0.00  0.00    -0.005 A 
ATOM      6  C5  UNL d   1      -0.849  -0.852  -2.124  0.00  0.00     0.003 A 
ATOM      7  C6  UNL d   1      -1.452  -0.097  -3.132  0.00  0.00    -0.001 A 
ENDROOT
TORSDOF 0
ENDMDL
