MODEL 1
REMARK minimizedAffinity 16.0013065
REMARK minimizedRMSD -1
REMARK  0 active torsions:
REMARK  status: ('A' for Active; 'I' for Inactive)
ROOT
ATOM      1  C   UNL d   1       5.674   0.367   2.807  0.00  0.00     0.078 C 
ATOM      2  C1  UNL d   1       5.277   1.413   1.808  0.00  0.00    -0.077 A 
ATOM      3  C2  UNL d   1       5.998   1.588   0.621  0.00  0.00    -0.001 A 
ATOM      4  C3  UNL d   1       5.623   2.571  -0.295  0.00  0.00     0.003 A 
ATOM      5  C4  UNL d   1       4.525   3.389  -0.033  0.00  0.00    -0.005 A 
ATOM      6  C5  UNL d   1       3.802   3.224   1.147  0.00  0.00     0.003 A 
ATOM      7  C6  UNL d   1       4.176   2.240   2.064  0.00  0.00    -0.001 A 
ENDROOT
TORSDOF 0
ENDMDL
