MODEL 1
REMARK minimizedAffinity -5.61330175
REMARK minimizedRMSD -1
REMARK  1 active torsions:
REMARK  status: ('A' for Active; 'I' for Inactive)
REMARK    1  A    between atoms: C1_2  and  C2_3 
ROOT
ATOM      1  C2  UNL d   1       0.166  -0.089   0.120  0.00  0.00    -0.077 A 
ATOM      2  C3  UNL d   1       1.143  -0.196   1.120  0.00  0.00     0.002 A 
ATOM      3  C4  UNL d   1       0.846   0.157   2.438  0.00  0.00     0.002 A 
ATOM      4  C5  UNL d   1      -0.427   0.614   2.769  0.00  0.00    -0.004 A 
ATOM      5  C6  UNL d   1      -1.405   0.726   1.781  0.00  0.00     0.002 A 
ATOM      6  C7  UNL d   1      -1.110   0.376   0.463  0.00  0.00     0.002 A 
ENDROOT
BRANCH   1   7
ATOM      7  C1  UNL d   1       0.469  -0.515  -1.292  0.00  0.00     0.055 C 
ATOM      8  C   UNL d   1       1.678   0.225  -1.846  0.00  0.00     0.019 C 
ENDBRANCH   1   7
TORSDOF 1
ENDMDL
