MODEL 1
REMARK minimizedAffinity -1.6970005
REMARK minimizedRMSD -1
REMARK  1 active torsions:
REMARK  status: ('A' for Active; 'I' for Inactive)
REMARK    1  A    between atoms: C1_2  and  C2_3 
ROOT
ATOM      1  C2  UNL d   1       0.694   0.007   1.259  0.00  0.00    -0.077 A 
ATOM      2  C3  UNL d   1       1.503  -0.498   2.287  0.00  0.00     0.002 A 
ATOM      3  C4  UNL d   1       1.043  -0.513   3.605  0.00  0.00     0.002 A 
ATOM      4  C5  UNL d   1      -0.228  -0.030   3.906  0.00  0.00    -0.004 A 
ATOM      5  C6  UNL d   1      -1.040   0.475   2.891  0.00  0.00     0.002 A 
ATOM      6  C7  UNL d   1      -0.581   0.493   1.574  0.00  0.00     0.002 A 
ENDROOT
BRANCH   1   7
ATOM      7  C1  UNL d   1       1.170  -0.021  -0.170  0.00  0.00     0.055 C 
ATOM      8  C   UNL d   1       0.164  -0.717  -1.075  0.00  0.00     0.019 C 
ENDBRANCH   1   7
TORSDOF 1
ENDMDL
