MODEL 1
REMARK minimizedAffinity -3.6438396
REMARK minimizedRMSD -1
REMARK  1 active torsions:
REMARK  status: ('A' for Active; 'I' for Inactive)
REMARK    1  A    between atoms: C1_2  and  C2_3 
ROOT
ATOM      1  C2  UNL d   1       0.152  -0.234  -1.479  0.00  0.00    -0.077 A 
ATOM      2  C3  UNL d   1       0.882  -1.289  -2.046  0.00  0.00     0.002 A 
ATOM      3  C4  UNL d   1       1.502  -1.132  -3.287  0.00  0.00     0.002 A 
ATOM      4  C5  UNL d   1       1.402   0.079  -3.969  0.00  0.00    -0.004 A 
ATOM      5  C6  UNL d   1       0.677   1.133  -3.414  0.00  0.00     0.002 A 
ATOM      6  C7  UNL d   1       0.056   0.977  -2.174  0.00  0.00     0.002 A 
ENDROOT
BRANCH   1   7
ATOM      7  C1  UNL d   1      -0.475  -0.386  -0.118  0.00  0.00     0.055 C 
ATOM      8  C   UNL d   1      -1.730   0.466   0.011  0.00  0.00     0.019 C 
ENDBRANCH   1   7
TORSDOF 1
ENDMDL
