MODEL 1
REMARK minimizedAffinity -3.60292006
REMARK minimizedRMSD -1
REMARK  1 active torsions:
REMARK  status: ('A' for Active; 'I' for Inactive)
REMARK    1  A    between atoms: C1_2  and  C2_3 
ROOT
ATOM      1  C2  UNL d   1       0.665  -0.207  -1.481  0.00  0.00    -0.077 A 
ATOM      2  C3  UNL d   1       1.841   0.521  -1.708  0.00  0.00     0.002 A 
ATOM      3  C4  UNL d   1       2.270   0.783  -3.011  0.00  0.00     0.002 A 
ATOM      4  C5  UNL d   1       1.527   0.323  -4.096  0.00  0.00    -0.004 A 
ATOM      5  C6  UNL d   1       0.357  -0.404  -3.881  0.00  0.00     0.002 A 
ATOM      6  C7  UNL d   1      -0.073  -0.667  -2.579  0.00  0.00     0.002 A 
ENDROOT
BRANCH   1   7
ATOM      7  C1  UNL d   1       0.175  -0.447  -0.077  0.00  0.00     0.055 C 
ATOM      8  C   UNL d   1      -1.224   0.116   0.125  0.00  0.00     0.019 C 
ENDBRANCH   1   7
TORSDOF 1
ENDMDL
