MODEL 1
REMARK minimizedAffinity -2.44211531
REMARK minimizedRMSD -1
REMARK  1 active torsions:
REMARK  status: ('A' for Active; 'I' for Inactive)
REMARK    1  A    between atoms: C1_2  and  C2_3 
ROOT
ATOM      1  C2  UNL d   1       0.387   0.089  -1.905  0.00  0.00    -0.077 A 
ATOM      2  C3  UNL d   1      -0.289  -1.093  -1.569  0.00  0.00     0.002 A 
ATOM      3  C4  UNL d   1      -1.037  -1.169  -0.393  0.00  0.00     0.002 A 
ATOM      4  C5  UNL d   1      -1.120  -0.066   0.455  0.00  0.00    -0.004 A 
ATOM      5  C6  UNL d   1      -0.449   1.113   0.131  0.00  0.00     0.002 A 
ATOM      6  C7  UNL d   1       0.300   1.190  -1.044  0.00  0.00     0.002 A 
ENDROOT
BRANCH   1   7
ATOM      7  C1  UNL d   1       1.154   0.188  -3.197  0.00  0.00     0.055 C 
ATOM      8  C   UNL d   1       0.369   0.960  -4.249  0.00  0.00     0.019 C 
ENDBRANCH   1   7
TORSDOF 1
ENDMDL
