MODEL 1
REMARK minimizedAffinity -3.0818789
REMARK minimizedRMSD -1
REMARK  1 active torsions:
REMARK  status: ('A' for Active; 'I' for Inactive)
REMARK    1  A    between atoms: C1_2  and  C2_3 
ROOT
ATOM      1  C2  UNL d   1       0.592  -0.058  -1.643  0.00  0.00    -0.077 A 
ATOM      2  C3  UNL d   1       0.101  -0.840  -2.698  0.00  0.00     0.002 A 
ATOM      3  C4  UNL d   1       0.510  -0.593  -4.010  0.00  0.00     0.002 A 
ATOM      4  C5  UNL d   1       1.415   0.432  -4.278  0.00  0.00    -0.004 A 
ATOM      5  C6  UNL d   1       1.908   1.216  -3.235  0.00  0.00     0.002 A 
ATOM      6  C7  UNL d   1       1.499   0.971  -1.923  0.00  0.00     0.002 A 
ENDROOT
BRANCH   1   7
ATOM      7  C1  UNL d   1       0.190  -0.355  -0.222  0.00  0.00     0.055 C 
ATOM      8  C   UNL d   1      -1.315  -0.548  -0.101  0.00  0.00     0.019 C 
ENDBRANCH   1   7
TORSDOF 1
ENDMDL
