MODEL 1
REMARK minimizedAffinity 1.38589001
REMARK minimizedRMSD -1
REMARK  1 active torsions:
REMARK  status: ('A' for Active; 'I' for Inactive)
REMARK    1  A    between atoms: C1_2  and  C2_3 
ROOT
ATOM      1  C2  UNL d   1       4.803   0.999   3.702  0.00  0.00    -0.077 A 
ATOM      2  C3  UNL d   1       5.328   0.230   4.750  0.00  0.00     0.002 A 
ATOM      3  C4  UNL d   1       5.916   0.850   5.855  0.00  0.00     0.002 A 
ATOM      4  C5  UNL d   1       5.980   2.241   5.923  0.00  0.00    -0.004 A 
ATOM      5  C6  UNL d   1       5.462   3.013   4.885  0.00  0.00     0.002 A 
ATOM      6  C7  UNL d   1       4.875   2.396   3.780  0.00  0.00     0.002 A 
ENDROOT
BRANCH   1   7
ATOM      7  C1  UNL d   1       4.124   0.333   2.533  0.00  0.00     0.055 C 
ATOM      8  C   UNL d   1       4.470  -1.147   2.462  0.00  0.00     0.019 C 
ENDBRANCH   1   7
TORSDOF 1
ENDMDL
