MODEL 1
REMARK minimizedAffinity -1.8564564
REMARK minimizedRMSD -1
REMARK  0 active torsions:
REMARK  status: ('A' for Active; 'I' for Inactive)
ROOT
ATOM      1  C   UNL d   1       3.038  -1.847   0.414  0.00  0.00    -0.002 A 
ATOM      2  C1  UNL d   1       1.920  -2.490  -0.099  0.00  0.00     0.010 A 
ATOM      3  C2  UNL d   1       0.749  -1.776  -0.363  0.00  0.00     0.041 A 
ATOM      4  C3  UNL d   1       0.721  -0.392  -0.102  0.00  0.00    -0.075 A 
ATOM      5  S   UNL d   1      -0.602   0.685  -0.348  0.00  0.00     0.015 SA
ATOM      6  C4  UNL d   1       0.285   2.024   0.221  0.00  0.00     0.022 A 
ATOM      7  C5  UNL d   1       1.561   1.676   0.595  0.00  0.00     0.026 A 
ATOM      8  C6  UNL d   1       1.834   0.277   0.414  0.00  0.00    -0.082 A 
ATOM      9  C7  UNL d   1       3.006  -0.474   0.672  0.00  0.00     0.045 A 
ENDROOT
TORSDOF 0
ENDMDL
