MODEL 1
REMARK minimizedAffinity -4.92598343
REMARK minimizedRMSD -1
REMARK  0 active torsions:
REMARK  status: ('A' for Active; 'I' for Inactive)
ROOT
ATOM      1  C   UNL d   1       3.189  -1.037   0.990  0.00  0.00    -0.002 A 
ATOM      2  C1  UNL d   1       3.523   0.180   0.414  0.00  0.00     0.010 A 
ATOM      3  C2  UNL d   1       2.529   1.039  -0.060  0.00  0.00     0.041 A 
ATOM      4  C3  UNL d   1       1.180   0.650   0.059  0.00  0.00    -0.075 A 
ATOM      5  S   UNL d   1      -0.206   1.540  -0.450  0.00  0.00     0.015 SA
ATOM      6  C4  UNL d   1      -1.275   0.325   0.086  0.00  0.00     0.022 A 
ATOM      7  C5  UNL d   1      -0.607  -0.740   0.642  0.00  0.00     0.026 A 
ATOM      8  C6  UNL d   1       0.819  -0.570   0.636  0.00  0.00    -0.082 A 
ATOM      9  C7  UNL d   1       1.850  -1.419   1.106  0.00  0.00     0.045 A 
ENDROOT
TORSDOF 0
ENDMDL
