MODEL 1
REMARK minimizedAffinity -5.40888405
REMARK minimizedRMSD -1
REMARK  0 active torsions:
REMARK  status: ('A' for Active; 'I' for Inactive)
ROOT
ATOM      1  C   UNL d   1       3.294  -0.629   1.146  0.00  0.00    -0.002 A 
ATOM      2  C1  UNL d   1       3.522   0.693   0.791  0.00  0.00     0.010 A 
ATOM      3  C2  UNL d   1       2.489   1.476   0.271  0.00  0.00     0.041 A 
ATOM      4  C3  UNL d   1       1.212   0.904   0.115  0.00  0.00    -0.075 A 
ATOM      5  S   UNL d   1      -0.204   1.673  -0.500  0.00  0.00     0.015 SA
ATOM      6  C4  UNL d   1      -1.144   0.264  -0.305  0.00  0.00     0.022 A 
ATOM      7  C5  UNL d   1      -0.412  -0.776   0.216  0.00  0.00     0.026 A 
ATOM      8  C6  UNL d   1       0.958  -0.425   0.467  0.00  0.00    -0.082 A 
ATOM      9  C7  UNL d   1       2.025  -1.194   0.990  0.00  0.00     0.045 A 
ENDROOT
TORSDOF 0
ENDMDL
