MODEL 1
REMARK minimizedAffinity -3.73477101
REMARK minimizedRMSD -1
REMARK  0 active torsions:
REMARK  status: ('A' for Active; 'I' for Inactive)
ROOT
ATOM      1  C   UNL d   1       0.333  -2.463  -0.654  0.00  0.00    -0.002 A 
ATOM      2  C1  UNL d   1       1.525  -2.257   0.025  0.00  0.00     0.010 A 
ATOM      3  C2  UNL d   1       1.978  -0.963   0.291  0.00  0.00     0.041 A 
ATOM      4  C3  UNL d   1       1.202   0.132  -0.140  0.00  0.00    -0.075 A 
ATOM      5  S   UNL d   1       1.557   1.805   0.075  0.00  0.00     0.015 SA
ATOM      6  C4  UNL d   1       0.133   2.287  -0.728  0.00  0.00     0.022 A 
ATOM      7  C5  UNL d   1      -0.606   1.210  -1.157  0.00  0.00     0.026 A 
ATOM      8  C6  UNL d   1      -0.003  -0.050  -0.824  0.00  0.00    -0.082 A 
ATOM      9  C7  UNL d   1      -0.434  -1.374  -1.079  0.00  0.00     0.045 A 
ENDROOT
TORSDOF 0
ENDMDL
