MODEL 1
REMARK minimizedAffinity -4.18554306
REMARK minimizedRMSD -1
REMARK  0 active torsions:
REMARK  status: ('A' for Active; 'I' for Inactive)
ROOT
ATOM      1  C   UNL d   1       2.675  -1.907   1.107  0.00  0.00    -0.002 A 
ATOM      2  C1  UNL d   1       3.074  -0.629   1.473  0.00  0.00     0.010 A 
ATOM      3  C2  UNL d   1       2.323   0.485   1.095  0.00  0.00     0.041 A 
ATOM      4  C3  UNL d   1       1.151   0.292   0.337  0.00  0.00    -0.075 A 
ATOM      5  S   UNL d   1       0.072   1.508  -0.238  0.00  0.00     0.015 SA
ATOM      6  C4  UNL d   1      -0.944   0.359  -0.982  0.00  0.00     0.022 A 
ATOM      7  C5  UNL d   1      -0.487  -0.925  -0.806  0.00  0.00     0.026 A 
ATOM      8  C6  UNL d   1       0.728  -0.985  -0.043  0.00  0.00    -0.082 A 
ATOM      9  C7  UNL d   1       1.512  -2.095   0.355  0.00  0.00     0.045 A 
ENDROOT
TORSDOF 0
ENDMDL
