MODEL 1
REMARK minimizedAffinity 1.32634628
REMARK minimizedRMSD -1
REMARK  0 active torsions:
REMARK  status: ('A' for Active; 'I' for Inactive)
ROOT
ATOM      1  C   UNL d   1       3.416  -0.902  -0.239  0.00  0.00    -0.002 A 
ATOM      2  C1  UNL d   1       3.791   0.434  -0.256  0.00  0.00     0.010 A 
ATOM      3  C2  UNL d   1       2.827   1.443  -0.209  0.00  0.00     0.041 A 
ATOM      4  C3  UNL d   1       1.466   1.083  -0.144  0.00  0.00    -0.075 A 
ATOM      5  S   UNL d   1       0.111   2.147  -0.078  0.00  0.00     0.015 SA
ATOM      6  C4  UNL d   1      -0.997   0.853  -0.026  0.00  0.00     0.022 A 
ATOM      7  C5  UNL d   1      -0.366  -0.368  -0.058  0.00  0.00     0.026 A 
ATOM      8  C6  UNL d   1       1.064  -0.256  -0.126  0.00  0.00    -0.082 A 
ATOM      9  C7  UNL d   1       2.066  -1.255  -0.175  0.00  0.00     0.045 A 
ENDROOT
TORSDOF 0
ENDMDL
