MODEL 1
REMARK minimizedAffinity -4.22973251
REMARK minimizedRMSD -1
REMARK  0 active torsions:
REMARK  status: ('A' for Active; 'I' for Inactive)
ROOT
ATOM      1  C   UNL d   1       2.764  -1.309   1.052  0.00  0.00    -0.002 A 
ATOM      2  C1  UNL d   1       1.804  -2.265   0.754  0.00  0.00     0.010 A 
ATOM      3  C2  UNL d   1       0.525  -1.884   0.343  0.00  0.00     0.041 A 
ATOM      4  C3  UNL d   1       0.225  -0.512   0.235  0.00  0.00    -0.075 A 
ATOM      5  S   UNL d   1      -1.274   0.189  -0.250  0.00  0.00     0.015 SA
ATOM      6  C4  UNL d   1      -0.675   1.775  -0.073  0.00  0.00     0.022 A 
ATOM      7  C5  UNL d   1       0.634   1.788   0.345  0.00  0.00     0.026 A 
ATOM      8  C6  UNL d   1       1.175   0.470   0.529  0.00  0.00    -0.082 A 
ATOM      9  C7  UNL d   1       2.462   0.051   0.944  0.00  0.00     0.045 A 
ENDROOT
TORSDOF 0
ENDMDL
