MODEL 1
REMARK minimizedAffinity 6.83668804
REMARK minimizedRMSD -1
REMARK  0 active torsions:
REMARK  status: ('A' for Active; 'I' for Inactive)
ROOT
ATOM      1  C   UNL d   1       2.255   0.059  -1.029  0.00  0.00    -0.002 A 
ATOM      2  C1  UNL d   1       2.743   0.352   0.236  0.00  0.00     0.010 A 
ATOM      3  C2  UNL d   1       3.900   1.117   0.392  0.00  0.00     0.041 A 
ATOM      4  C3  UNL d   1       4.564   1.591  -0.757  0.00  0.00    -0.075 A 
ATOM      5  S   UNL d   1       5.997   2.547  -0.810  0.00  0.00     0.015 SA
ATOM      6  C4  UNL d   1       5.995   2.591  -2.513  0.00  0.00     0.022 A 
ATOM      7  C5  UNL d   1       4.933   1.898  -3.046  0.00  0.00     0.026 A 
ATOM      8  C6  UNL d   1       4.091   1.310  -2.042  0.00  0.00    -0.082 A 
ATOM      9  C7  UNL d   1       2.916   0.531  -2.167  0.00  0.00     0.045 A 
ENDROOT
TORSDOF 0
ENDMDL
