MODEL 1
REMARK minimizedAffinity 11.9776621
REMARK minimizedRMSD -1
REMARK  0 active torsions:
REMARK  status: ('A' for Active; 'I' for Inactive)
ROOT
ATOM      1  C   UNL d   1       1.057  -0.059  -1.457  0.00  0.00    -0.002 A 
ATOM      2  C1  UNL d   1       2.218   0.005  -0.699  0.00  0.00     0.010 A 
ATOM      3  C2  UNL d   1       2.422   1.053   0.200  0.00  0.00     0.041 A 
ATOM      4  C3  UNL d   1       1.430   2.045   0.327  0.00  0.00    -0.075 A 
ATOM      5  S   UNL d   1       1.463   3.421   1.365  0.00  0.00     0.015 SA
ATOM      6  C4  UNL d   1      -0.063   3.956   0.828  0.00  0.00     0.022 A 
ATOM      7  C5  UNL d   1      -0.599   3.118  -0.120  0.00  0.00     0.026 A 
ATOM      8  C6  UNL d   1       0.252   2.002  -0.424  0.00  0.00    -0.082 A 
ATOM      9  C7  UNL d   1       0.075   0.927  -1.328  0.00  0.00     0.045 A 
ENDROOT
TORSDOF 0
ENDMDL
