MODEL 1
REMARK minimizedAffinity -1.19543302
REMARK minimizedRMSD -1
REMARK  0 active torsions:
REMARK  status: ('A' for Active; 'I' for Inactive)
ROOT
ATOM      1  C   UNL d   1      -5.999   0.759  -5.094  0.00  0.00    -0.002 A 
ATOM      2  C1  UNL d   1      -5.324   1.908  -5.479  0.00  0.00     0.010 A 
ATOM      3  C2  UNL d   1      -4.090   2.231  -4.911  0.00  0.00     0.041 A 
ATOM      4  C3  UNL d   1      -3.540   1.370  -3.941  0.00  0.00    -0.075 A 
ATOM      5  S   UNL d   1      -2.042   1.562  -3.110  0.00  0.00     0.015 SA
ATOM      6  C4  UNL d   1      -2.263   0.122  -2.225  0.00  0.00     0.022 A 
ATOM      7  C5  UNL d   1      -3.445  -0.502  -2.543  0.00  0.00     0.026 A 
ATOM      8  C6  UNL d   1      -4.201   0.206  -3.538  0.00  0.00    -0.082 A 
ATOM      9  C7  UNL d   1      -5.450  -0.093  -4.132  0.00  0.00     0.045 A 
ENDROOT
TORSDOF 0
ENDMDL
