MODEL 1
REMARK minimizedAffinity 0.971644342
REMARK minimizedRMSD -1
REMARK  0 active torsions:
REMARK  status: ('A' for Active; 'I' for Inactive)
ROOT
ATOM      1  C   UNL d   1      -6.000   0.910  -5.264  0.00  0.00    -0.002 A 
ATOM      2  C1  UNL d   1      -5.190   1.905  -5.792  0.00  0.00     0.010 A 
ATOM      3  C2  UNL d   1      -3.852   2.012  -5.405  0.00  0.00     0.041 A 
ATOM      4  C3  UNL d   1      -3.337   1.091  -4.472  0.00  0.00    -0.075 A 
ATOM      5  S   UNL d   1      -1.730   1.029  -3.852  0.00  0.00     0.015 SA
ATOM      6  C4  UNL d   1      -2.080  -0.322  -2.873  0.00  0.00     0.022 A 
ATOM      7  C5  UNL d   1      -3.387  -0.728  -3.003  0.00  0.00     0.026 A 
ATOM      8  C6  UNL d   1      -4.133   0.079  -3.927  0.00  0.00    -0.082 A 
ATOM      9  C7  UNL d   1      -5.485  -0.002  -4.339  0.00  0.00     0.045 A 
ENDROOT
TORSDOF 0
ENDMDL
