MODEL 1
REMARK minimizedAffinity 9.23589993
REMARK minimizedRMSD -1
REMARK  0 active torsions:
REMARK  status: ('A' for Active; 'I' for Inactive)
ROOT
ATOM      1  C   UNL d   1       2.453   0.122  -1.125  0.00  0.00    -0.002 A 
ATOM      2  C1  UNL d   1       3.000   0.753  -0.017  0.00  0.00     0.010 A 
ATOM      3  C2  UNL d   1       4.103   1.598  -0.153  0.00  0.00     0.041 A 
ATOM      4  C3  UNL d   1       4.651   1.803  -1.435  0.00  0.00    -0.075 A 
ATOM      5  S   UNL d   1       6.000   2.795  -1.842  0.00  0.00     0.015 SA
ATOM      6  C4  UNL d   1       5.881   2.406  -3.497  0.00  0.00     0.022 A 
ATOM      7  C5  UNL d   1       4.843   1.541  -3.751  0.00  0.00     0.026 A 
ATOM      8  C6  UNL d   1       4.117   1.179  -2.566  0.00  0.00    -0.082 A 
ATOM      9  C7  UNL d   1       2.999   0.327  -2.395  0.00  0.00     0.045 A 
ENDROOT
TORSDOF 0
ENDMDL
