MODEL 1
REMARK minimizedAffinity -0.04409815
REMARK minimizedRMSD -1
REMARK  0 active torsions:
REMARK  status: ('A' for Active; 'I' for Inactive)
ROOT
ATOM      1  C   UNL d   1      -1.992  -0.325   0.044  0.00  0.00    -0.002 A 
ATOM      2  C1  UNL d   1      -2.018   0.617   1.064  0.00  0.00     0.010 A 
ATOM      3  C2  UNL d   1      -0.829   1.108   1.607  0.00  0.00     0.041 A 
ATOM      4  C3  UNL d   1       0.398   0.635   1.101  0.00  0.00    -0.075 A 
ATOM      5  S   UNL d   1       1.979   1.095   1.612  0.00  0.00     0.015 SA
ATOM      6  C4  UNL d   1       2.726   0.053   0.488  0.00  0.00     0.022 A 
ATOM      7  C5  UNL d   1       1.806  -0.636  -0.266  0.00  0.00     0.026 A 
ATOM      8  C6  UNL d   1       0.449  -0.312   0.075  0.00  0.00    -0.082 A 
ATOM      9  C7  UNL d   1      -0.773  -0.792  -0.454  0.00  0.00     0.045 A 
ENDROOT
TORSDOF 0
ENDMDL
