MODEL 1
REMARK minimizedAffinity 0.00727877533
REMARK minimizedRMSD -1
REMARK  0 active torsions:
REMARK  status: ('A' for Active; 'I' for Inactive)
ROOT
ATOM      1  C   UNL d   1      -0.502   0.643   4.740  0.00  0.00    -0.002 A 
ATOM      2  C1  UNL d   1      -1.030  -0.469   4.100  0.00  0.00     0.010 A 
ATOM      3  C2  UNL d   1      -0.532  -0.881   2.863  0.00  0.00     0.041 A 
ATOM      4  C3  UNL d   1       0.519  -0.150   2.274  0.00  0.00    -0.075 A 
ATOM      5  S   UNL d   1       1.289  -0.469   0.765  0.00  0.00     0.015 SA
ATOM      6  C4  UNL d   1       2.339   0.863   0.934  0.00  0.00     0.022 A 
ATOM      7  C5  UNL d   1       2.121   1.546   2.108  0.00  0.00     0.026 A 
ATOM      8  C6  UNL d   1       1.069   0.973   2.899  0.00  0.00    -0.082 A 
ATOM      9  C7  UNL d   1       0.541   1.366   4.153  0.00  0.00     0.045 A 
ENDROOT
TORSDOF 0
ENDMDL
