MODEL 1
REMARK minimizedAffinity -5.63268757
REMARK minimizedRMSD -1
REMARK  0 active torsions:
REMARK  status: ('A' for Active; 'I' for Inactive)
ROOT
ATOM      1  C   UNL d   1      -1.054   0.620   2.884  0.00  0.00    -0.002 A 
ATOM      2  C1  UNL d   1       0.295   0.810   3.149  0.00  0.00     0.010 A 
ATOM      3  C2  UNL d   1       1.250   0.611   2.150  0.00  0.00     0.041 A 
ATOM      4  C3  UNL d   1       0.822   0.215   0.868  0.00  0.00    -0.075 A 
ATOM      5  S   UNL d   1       1.812  -0.087  -0.511  0.00  0.00     0.015 SA
ATOM      6  C4  UNL d   1       0.468  -0.474  -1.484  0.00  0.00     0.022 A 
ATOM      7  C5  UNL d   1      -0.715  -0.381  -0.790  0.00  0.00     0.026 A 
ATOM      8  C6  UNL d   1      -0.531   0.018   0.577  0.00  0.00    -0.082 A 
ATOM      9  C7  UNL d   1      -1.474   0.228   1.611  0.00  0.00     0.045 A 
ENDROOT
TORSDOF 0
ENDMDL
