MODEL 1
REMARK minimizedAffinity -2.65872264
REMARK minimizedRMSD -1
REMARK  0 active torsions:
REMARK  status: ('A' for Active; 'I' for Inactive)
ROOT
ATOM      1  C   UNL d   1       2.744  -0.922   1.994  0.00  0.00    -0.002 A 
ATOM      2  C1  UNL d   1       2.184  -0.561   3.212  0.00  0.00     0.010 A 
ATOM      3  C2  UNL d   1       0.859  -0.125   3.282  0.00  0.00     0.041 A 
ATOM      4  C3  UNL d   1       0.100  -0.058   2.098  0.00  0.00    -0.075 A 
ATOM      5  S   UNL d   1      -1.542   0.446   1.943  0.00  0.00     0.015 SA
ATOM      6  C4  UNL d   1      -1.538   0.193   0.257  0.00  0.00     0.022 A 
ATOM      7  C5  UNL d   1      -0.322  -0.264  -0.193  0.00  0.00     0.026 A 
ATOM      8  C6  UNL d   1       0.642  -0.417   0.860  0.00  0.00    -0.082 A 
ATOM      9  C7  UNL d   1       1.987  -0.854   0.821  0.00  0.00     0.045 A 
ENDROOT
TORSDOF 0
ENDMDL
