MODEL 1
REMARK minimizedAffinity 4.1378727
REMARK minimizedRMSD -1
REMARK  0 active torsions:
REMARK  status: ('A' for Active; 'I' for Inactive)
ROOT
ATOM      1  C   UNL d   1      -2.042   0.160   1.714  0.00  0.00    -0.002 A 
ATOM      2  C1  UNL d   1      -0.869   0.051   0.980  0.00  0.00     0.010 A 
ATOM      3  C2  UNL d   1       0.315  -0.366   1.591  0.00  0.00     0.041 A 
ATOM      4  C3  UNL d   1       0.300  -0.676   2.965  0.00  0.00    -0.075 A 
ATOM      5  S   UNL d   1       1.630  -1.208   3.925  0.00  0.00     0.015 SA
ATOM      6  C4  UNL d   1       0.673  -1.302   5.332  0.00  0.00     0.022 A 
ATOM      7  C5  UNL d   1      -0.632  -0.941   5.094  0.00  0.00     0.026 A 
ATOM      8  C6  UNL d   1      -0.868  -0.574   3.725  0.00  0.00    -0.082 A 
ATOM      9  C7  UNL d   1      -2.052  -0.148   3.077  0.00  0.00     0.045 A 
ENDROOT
TORSDOF 0
ENDMDL
