MODEL 1
REMARK minimizedAffinity -2.86525798
REMARK minimizedRMSD -1
REMARK  2 active torsions:
REMARK  status: ('A' for Active; 'I' for Inactive)
REMARK    1  A    between atoms: C1_2  and  C2_3 
REMARK    2  A    between atoms: C2_3  and  C3_4 
ROOT
ATOM      1  C3  UNL d   1      -0.874   0.567   1.548  0.00  0.00    -0.075 A 
ATOM      2  C4  UNL d   1      -2.043  -0.152   1.838  0.00  0.00     0.002 A 
ATOM      3  C5  UNL d   1      -2.717   0.047   3.043  0.00  0.00     0.002 A 
ATOM      4  C6  UNL d   1      -2.226   0.957   3.977  0.00  0.00    -0.004 A 
ATOM      5  C7  UNL d   1      -1.056   1.664   3.707  0.00  0.00     0.002 A 
ATOM      6  C8  UNL d   1      -0.383   1.471   2.500  0.00  0.00     0.002 A 
ENDROOT
BRANCH   1   7
ATOM      7  C2  UNL d   1      -0.157   0.379   0.233  0.00  0.00     0.056 C 
BRANCH   7   8
ATOM      8  C1  UNL d   1      -0.158  -1.066  -0.277  0.00  0.00     0.007 C 
ATOM      9  C   UNL d   1       1.178  -1.771  -0.085  0.00  0.00     0.009 C 
ENDBRANCH   7   8
ENDBRANCH   1   7
TORSDOF 2
ENDMDL
