MODEL 1
REMARK minimizedAffinity -2.02773046
REMARK minimizedRMSD -1
REMARK  2 active torsions:
REMARK  status: ('A' for Active; 'I' for Inactive)
REMARK    1  A    between atoms: C1_2  and  C2_3 
REMARK    2  A    between atoms: C2_3  and  C3_4 
ROOT
ATOM      1  C3  UNL d   1      -1.456   0.344   1.412  0.00  0.00    -0.075 A 
ATOM      2  C4  UNL d   1      -0.794   1.278   2.221  0.00  0.00     0.002 A 
ATOM      3  C5  UNL d   1      -1.332   1.657   3.452  0.00  0.00     0.002 A 
ATOM      4  C6  UNL d   1      -2.541   1.115   3.883  0.00  0.00    -0.004 A 
ATOM      5  C7  UNL d   1      -3.216   0.198   3.079  0.00  0.00     0.002 A 
ATOM      6  C8  UNL d   1      -2.677  -0.185   1.849  0.00  0.00     0.002 A 
ENDROOT
BRANCH   1   7
ATOM      7  C2  UNL d   1      -0.863  -0.092   0.093  0.00  0.00     0.056 C 
BRANCH   7   8
ATOM      8  C1  UNL d   1      -0.135  -1.439   0.151  0.00  0.00     0.007 C 
ATOM      9  C   UNL d   1       1.060  -1.516  -0.789  0.00  0.00     0.009 C 
ENDBRANCH   7   8
ENDBRANCH   1   7
TORSDOF 2
ENDMDL
