MODEL 1
REMARK minimizedAffinity -3.98619676
REMARK minimizedRMSD -1
REMARK  2 active torsions:
REMARK  status: ('A' for Active; 'I' for Inactive)
REMARK    1  A    between atoms: C1_2  and  C2_3 
REMARK    2  A    between atoms: C2_3  and  C3_4 
ROOT
ATOM      1  C3  UNL d   1      -0.501  -0.245   0.214  0.00  0.00    -0.075 A 
ATOM      2  C4  UNL d   1      -0.068   0.541  -0.863  0.00  0.00     0.002 A 
ATOM      3  C5  UNL d   1       0.921   0.073  -1.729  0.00  0.00     0.002 A 
ATOM      4  C6  UNL d   1       1.495  -1.179  -1.523  0.00  0.00    -0.004 A 
ATOM      5  C7  UNL d   1       1.085  -1.961  -0.446  0.00  0.00     0.002 A 
ATOM      6  C8  UNL d   1       0.092  -1.498   0.419  0.00  0.00     0.002 A 
ENDROOT
BRANCH   1   7
ATOM      7  C2  UNL d   1      -1.592   0.243   1.138  0.00  0.00     0.056 C 
BRANCH   7   8
ATOM      8  C1  UNL d   1      -1.087   1.111   2.295  0.00  0.00     0.007 C 
ATOM      9  C   UNL d   1      -1.954   1.011   3.543  0.00  0.00     0.009 C 
ENDBRANCH   7   8
ENDBRANCH   1   7
TORSDOF 2
ENDMDL
