MODEL 1
REMARK minimizedAffinity -3.61329079
REMARK minimizedRMSD -1
REMARK  2 active torsions:
REMARK  status: ('A' for Active; 'I' for Inactive)
REMARK    1  A    between atoms: C1_2  and  C2_3 
REMARK    2  A    between atoms: C2_3  and  C3_4 
ROOT
ATOM      1  C3  UNL d   1       1.430   0.460  -1.970  0.00  0.00    -0.075 A 
ATOM      2  C4  UNL d   1       1.923  -0.852  -1.913  0.00  0.00     0.002 A 
ATOM      3  C5  UNL d   1       1.492  -1.728  -0.916  0.00  0.00     0.002 A 
ATOM      4  C6  UNL d   1       0.574  -1.301   0.041  0.00  0.00    -0.004 A 
ATOM      5  C7  UNL d   1       0.090   0.005   0.004  0.00  0.00     0.002 A 
ATOM      6  C8  UNL d   1       0.516   0.882  -0.995  0.00  0.00     0.002 A 
ENDROOT
BRANCH   1   7
ATOM      7  C2  UNL d   1       1.870   1.403  -3.064  0.00  0.00     0.056 C 
BRANCH   7   8
ATOM      8  C1  UNL d   1       1.196   1.148  -4.416  0.00  0.00     0.007 C 
ATOM      9  C   UNL d   1       1.326   2.318  -5.382  0.00  0.00     0.009 C 
ENDBRANCH   7   8
ENDBRANCH   1   7
TORSDOF 2
ENDMDL
