MODEL 1
REMARK minimizedAffinity -3.45598197
REMARK minimizedRMSD -1
REMARK  2 active torsions:
REMARK  status: ('A' for Active; 'I' for Inactive)
REMARK    1  A    between atoms: C1_2  and  C2_3 
REMARK    2  A    between atoms: C2_3  and  C3_4 
ROOT
ATOM      1  C3  UNL d   1      -0.571   0.307   0.187  0.00  0.00    -0.075 A 
ATOM      2  C4  UNL d   1      -0.151  -1.019   0.368  0.00  0.00     0.002 A 
ATOM      3  C5  UNL d   1       0.686  -1.631  -0.566  0.00  0.00     0.002 A 
ATOM      4  C6  UNL d   1       1.105  -0.930  -1.695  0.00  0.00    -0.004 A 
ATOM      5  C7  UNL d   1       0.680   0.382  -1.893  0.00  0.00     0.002 A 
ATOM      6  C8  UNL d   1      -0.154   0.998  -0.959  0.00  0.00     0.002 A 
ENDROOT
BRANCH   1   7
ATOM      7  C2  UNL d   1      -1.453   0.984   1.208  0.00  0.00     0.056 C 
BRANCH   7   8
ATOM      8  C1  UNL d   1      -2.070   0.026   2.233  0.00  0.00     0.007 C 
ATOM      9  C   UNL d   1      -2.179   0.629   3.628  0.00  0.00     0.009 C 
ENDBRANCH   7   8
ENDBRANCH   1   7
TORSDOF 2
ENDMDL
