MODEL 1
REMARK minimizedAffinity -4.12843752
REMARK minimizedRMSD -1
REMARK  2 active torsions:
REMARK  status: ('A' for Active; 'I' for Inactive)
REMARK    1  A    between atoms: C1_2  and  C2_3 
REMARK    2  A    between atoms: C2_3  and  C3_4 
ROOT
ATOM      1  C3  UNL d   1       1.314  -0.771  -1.041  0.00  0.00    -0.075 A 
ATOM      2  C4  UNL d   1       0.663  -1.435   0.009  0.00  0.00     0.002 A 
ATOM      3  C5  UNL d   1      -0.385  -0.820   0.695  0.00  0.00     0.002 A 
ATOM      4  C6  UNL d   1      -0.786   0.468   0.350  0.00  0.00    -0.004 A 
ATOM      5  C7  UNL d   1      -0.136   1.145  -0.680  0.00  0.00     0.002 A 
ATOM      6  C8  UNL d   1       0.910   0.530  -1.372  0.00  0.00     0.002 A 
ENDROOT
BRANCH   1   7
ATOM      7  C2  UNL d   1       2.428  -1.442  -1.807  0.00  0.00     0.056 C 
BRANCH   7   8
ATOM      8  C1  UNL d   1       2.992  -0.598  -2.955  0.00  0.00     0.007 C 
ATOM      9  C   UNL d   1       4.462  -0.243  -2.773  0.00  0.00     0.009 C 
ENDBRANCH   7   8
ENDBRANCH   1   7
TORSDOF 2
ENDMDL
