MODEL 1
REMARK minimizedAffinity -3.35567045
REMARK minimizedRMSD -1
REMARK  2 active torsions:
REMARK  status: ('A' for Active; 'I' for Inactive)
REMARK    1  A    between atoms: C1_2  and  C2_3 
REMARK    2  A    between atoms: C2_3  and  C3_4 
ROOT
ATOM      1  C3  UNL d   1      -0.049  -0.332  -0.023  0.00  0.00    -0.075 A 
ATOM      2  C4  UNL d   1       0.880   0.088  -0.986  0.00  0.00     0.002 A 
ATOM      3  C5  UNL d   1       1.977  -0.712  -1.308  0.00  0.00     0.002 A 
ATOM      4  C6  UNL d   1       2.165  -1.933  -0.664  0.00  0.00    -0.004 A 
ATOM      5  C7  UNL d   1       1.258  -2.352   0.306  0.00  0.00     0.002 A 
ATOM      6  C8  UNL d   1       0.157  -1.556   0.627  0.00  0.00     0.002 A 
ENDROOT
BRANCH   1   7
ATOM      7  C2  UNL d   1      -1.254   0.515   0.308  0.00  0.00     0.056 C 
BRANCH   7   8
ATOM      8  C1  UNL d   1      -2.158  -0.082   1.393  0.00  0.00     0.007 C 
ATOM      9  C   UNL d   1      -2.378   0.854   2.573  0.00  0.00     0.009 C 
ENDBRANCH   7   8
ENDBRANCH   1   7
TORSDOF 2
ENDMDL
