MODEL 1
REMARK minimizedAffinity 8.08546352
REMARK minimizedRMSD -1
REMARK  2 active torsions:
REMARK  status: ('A' for Active; 'I' for Inactive)
REMARK    1  A    between atoms: C1_2  and  C2_3 
REMARK    2  A    between atoms: C2_3  and  C3_4 
ROOT
ATOM      1  C3  UNL d   1      -4.576  -2.157   3.379  0.00  0.00    -0.075 A 
ATOM      2  C4  UNL d   1      -4.019  -2.164   4.666  0.00  0.00     0.002 A 
ATOM      3  C5  UNL d   1      -2.900  -1.384   4.958  0.00  0.00     0.002 A 
ATOM      4  C6  UNL d   1      -2.319  -0.596   3.966  0.00  0.00    -0.004 A 
ATOM      5  C7  UNL d   1      -2.854  -0.595   2.680  0.00  0.00     0.002 A 
ATOM      6  C8  UNL d   1      -3.976  -1.371   2.386  0.00  0.00     0.002 A 
ENDROOT
BRANCH   1   7
ATOM      7  C2  UNL d   1      -5.805  -2.977   3.064  0.00  0.00     0.056 C 
BRANCH   7   8
ATOM      8  C1  UNL d   1      -5.771  -4.397   3.638  0.00  0.00     0.007 C 
ATOM      9  C   UNL d   1      -5.239  -5.430   2.653  0.00  0.00     0.009 C 
ENDBRANCH   7   8
ENDBRANCH   1   7
TORSDOF 2
ENDMDL
