MODEL 1
REMARK minimizedAffinity -5.60446882
REMARK minimizedRMSD -1
REMARK  2 active torsions:
REMARK  status: ('A' for Active; 'I' for Inactive)
REMARK    1  A    between atoms: C1_2  and  C2_3 
REMARK    2  A    between atoms: C2_3  and  C3_4 
ROOT
ATOM      1  C3  UNL d   1      -0.458   0.133  -0.256  0.00  0.00    -0.075 A 
ATOM      2  C4  UNL d   1       0.033  -1.179  -0.321  0.00  0.00     0.002 A 
ATOM      3  C5  UNL d   1       1.135  -1.485  -1.120  0.00  0.00     0.002 A 
ATOM      4  C6  UNL d   1       1.753  -0.488  -1.871  0.00  0.00    -0.004 A 
ATOM      5  C7  UNL d   1       1.264   0.816  -1.827  0.00  0.00     0.002 A 
ATOM      6  C8  UNL d   1       0.164   1.126  -1.025  0.00  0.00     0.002 A 
ENDROOT
BRANCH   1   7
ATOM      7  C2  UNL d   1      -1.631   0.476   0.630  0.00  0.00     0.056 C 
BRANCH   7   8
ATOM      8  C1  UNL d   1      -1.333   1.565   1.666  0.00  0.00     0.007 C 
ATOM      9  C   UNL d   1      -2.179   1.442   2.926  0.00  0.00     0.009 C 
ENDBRANCH   7   8
ENDBRANCH   1   7
TORSDOF 2
ENDMDL
