MODEL 1
REMARK minimizedAffinity -2.75236058
REMARK minimizedRMSD -1
REMARK  2 active torsions:
REMARK  status: ('A' for Active; 'I' for Inactive)
REMARK    1  A    between atoms: C1_2  and  C2_3 
REMARK    2  A    between atoms: C2_3  and  C3_4 
ROOT
ATOM      1  C3  UNL d   1      -0.960   0.314   0.215  0.00  0.00    -0.075 A 
ATOM      2  C4  UNL d   1      -0.146  -0.727  -0.254  0.00  0.00     0.002 A 
ATOM      3  C5  UNL d   1       0.587  -0.578  -1.431  0.00  0.00     0.002 A 
ATOM      4  C6  UNL d   1       0.507   0.606  -2.160  0.00  0.00    -0.004 A 
ATOM      5  C7  UNL d   1      -0.312   1.641  -1.713  0.00  0.00     0.002 A 
ATOM      6  C8  UNL d   1      -1.043   1.497  -0.532  0.00  0.00     0.002 A 
ENDROOT
BRANCH   1   7
ATOM      7  C2  UNL d   1      -1.733   0.170   1.504  0.00  0.00     0.056 C 
BRANCH   7   8
ATOM      8  C1  UNL d   1      -1.542   1.337   2.479  0.00  0.00     0.007 C 
ATOM      9  C   UNL d   1      -2.300   1.157   3.787  0.00  0.00     0.009 C 
ENDBRANCH   7   8
ENDBRANCH   1   7
TORSDOF 2
ENDMDL
