MODEL 1
REMARK minimizedAffinity -3.15762615
REMARK minimizedRMSD -1
REMARK  2 active torsions:
REMARK  status: ('A' for Active; 'I' for Inactive)
REMARK    1  A    between atoms: C1_2  and  C2_3 
REMARK    2  A    between atoms: C2_3  and  C3_4 
ROOT
ATOM      1  C3  UNL d   1      -0.412   0.042   0.223  0.00  0.00    -0.075 A 
ATOM      2  C4  UNL d   1       0.368  -1.114   0.070  0.00  0.00     0.002 A 
ATOM      3  C5  UNL d   1       1.324  -1.195  -0.943  0.00  0.00     0.002 A 
ATOM      4  C6  UNL d   1       1.505  -0.128  -1.820  0.00  0.00    -0.004 A 
ATOM      5  C7  UNL d   1       0.725   1.018  -1.689  0.00  0.00     0.002 A 
ATOM      6  C8  UNL d   1      -0.230   1.104  -0.673  0.00  0.00     0.002 A 
ENDROOT
BRANCH   1   7
ATOM      7  C2  UNL d   1      -1.428   0.147   1.335  0.00  0.00     0.056 C 
BRANCH   7   8
ATOM      8  C1  UNL d   1      -1.064   1.170   2.417  0.00  0.00     0.007 C 
ATOM      9  C   UNL d   1      -1.484   0.739   3.816  0.00  0.00     0.009 C 
ENDBRANCH   7   8
ENDBRANCH   1   7
TORSDOF 2
ENDMDL
