MODEL 1
REMARK minimizedAffinity -4.9916153
REMARK minimizedRMSD -1
REMARK  2 active torsions:
REMARK  status: ('A' for Active; 'I' for Inactive)
REMARK    1  A    between atoms: C1_2  and  C2_3 
REMARK    2  A    between atoms: C2_3  and  C3_4 
ROOT
ATOM      1  C3  UNL d   1       0.766   0.886  -0.818  0.00  0.00    -0.075 A 
ATOM      2  C4  UNL d   1       1.476  -0.265  -0.445  0.00  0.00     0.002 A 
ATOM      3  C5  UNL d   1       2.747  -0.514  -0.965  0.00  0.00     0.002 A 
ATOM      4  C6  UNL d   1       3.319   0.377  -1.870  0.00  0.00    -0.004 A 
ATOM      5  C7  UNL d   1       2.616   1.515  -2.260  0.00  0.00     0.002 A 
ATOM      6  C8  UNL d   1       1.346   1.769  -1.739  0.00  0.00     0.002 A 
ENDROOT
BRANCH   1   7
ATOM      7  C2  UNL d   1      -0.597   1.175  -0.237  0.00  0.00     0.056 C 
BRANCH   7   8
ATOM      8  C1  UNL d   1      -1.284  -0.047   0.381  0.00  0.00     0.007 C 
ATOM      9  C   UNL d   1      -2.115   0.290   1.612  0.00  0.00     0.009 C 
ENDBRANCH   7   8
ENDBRANCH   1   7
TORSDOF 2
ENDMDL
