MODEL 1
REMARK minimizedAffinity -4.31195736
REMARK minimizedRMSD -1
REMARK  2 active torsions:
REMARK  status: ('A' for Active; 'I' for Inactive)
REMARK    1  A    between atoms: C1_2  and  C2_3 
REMARK    2  A    between atoms: C2_3  and  C3_4 
ROOT
ATOM      1  C3  UNL d   1      -0.806   0.171   0.301  0.00  0.00    -0.075 A 
ATOM      2  C4  UNL d   1       0.177  -0.829   0.262  0.00  0.00     0.002 A 
ATOM      3  C5  UNL d   1       1.206  -0.774  -0.678  0.00  0.00     0.002 A 
ATOM      4  C6  UNL d   1       1.261   0.273  -1.595  0.00  0.00    -0.004 A 
ATOM      5  C7  UNL d   1       0.281   1.263  -1.576  0.00  0.00     0.002 A 
ATOM      6  C8  UNL d   1      -0.748   1.213  -0.634  0.00  0.00     0.002 A 
ENDROOT
BRANCH   1   7
ATOM      7  C2  UNL d   1      -1.906   0.133   1.335  0.00  0.00     0.056 C 
BRANCH   7   8
ATOM      8  C1  UNL d   1      -1.660   1.047   2.540  0.00  0.00     0.007 C 
ATOM      9  C   UNL d   1      -2.143   0.448   3.855  0.00  0.00     0.009 C 
ENDBRANCH   7   8
ENDBRANCH   1   7
TORSDOF 2
ENDMDL
