MODEL 1
REMARK minimizedAffinity -4.59022427
REMARK minimizedRMSD -1
REMARK  2 active torsions:
REMARK  status: ('A' for Active; 'I' for Inactive)
REMARK    1  A    between atoms: C1_2  and  C2_3 
REMARK    2  A    between atoms: C2_3  and  C3_4 
ROOT
ATOM      1  C3  UNL d   1       2.226   0.301  -2.116  0.00  0.00    -0.075 A 
ATOM      2  C4  UNL d   1       3.160  -0.657  -2.538  0.00  0.00     0.002 A 
ATOM      3  C5  UNL d   1       3.945  -0.431  -3.669  0.00  0.00     0.002 A 
ATOM      4  C6  UNL d   1       3.800   0.747  -4.397  0.00  0.00    -0.004 A 
ATOM      5  C7  UNL d   1       2.864   1.698  -3.997  0.00  0.00     0.002 A 
ATOM      6  C8  UNL d   1       2.080   1.477  -2.863  0.00  0.00     0.002 A 
ENDROOT
BRANCH   1   7
ATOM      7  C2  UNL d   1       1.395   0.075  -0.876  0.00  0.00     0.056 C 
BRANCH   7   8
ATOM      8  C1  UNL d   1       0.301   1.127  -0.659  0.00  0.00     0.007 C 
ATOM      9  C   UNL d   1       0.581   2.049   0.521  0.00  0.00     0.009 C 
ENDBRANCH   7   8
ENDBRANCH   1   7
TORSDOF 2
ENDMDL
