MODEL 1
REMARK minimizedAffinity -3.25559545
REMARK minimizedRMSD -1
REMARK  0 active torsions:
REMARK  status: ('A' for Active; 'I' for Inactive)
ROOT
ATOM      1  C   UNL d   1      -5.971  -4.473  -2.524  0.00  0.00     0.172 C 
ATOM      2  N   UNL d   1      -5.281  -4.888  -3.722  0.00  0.00    -0.070 N 
ATOM      3  C1  UNL d   1      -4.393  -5.926  -3.814  0.00  0.00    -0.004 A 
ATOM      4  C2  UNL d   1      -3.959  -5.996  -5.120  0.00  0.00    -0.047 A 
ATOM      5  C3  UNL d   1      -4.608  -4.964  -5.838  0.00  0.00    -0.047 A 
ATOM      6  C4  UNL d   1      -5.420  -4.293  -4.949  0.00  0.00    -0.004 A 
ENDROOT
TORSDOF 0
ENDMDL
