MODEL 1
REMARK minimizedAffinity -2.4229238
REMARK minimizedRMSD -1
REMARK  0 active torsions:
REMARK  status: ('A' for Active; 'I' for Inactive)
ROOT
ATOM      1  C   UNL d   1      -4.862  -4.489  -2.548  0.00  0.00     0.172 C 
ATOM      2  N   UNL d   1      -5.264  -4.761  -3.908  0.00  0.00    -0.070 N 
ATOM      3  C1  UNL d   1      -5.724  -3.835  -4.806  0.00  0.00    -0.004 A 
ATOM      4  C2  UNL d   1      -5.998  -4.491  -5.986  0.00  0.00    -0.047 A 
ATOM      5  C3  UNL d   1      -5.694  -5.859  -5.791  0.00  0.00    -0.047 A 
ATOM      6  C4  UNL d   1      -5.241  -5.999  -4.496  0.00  0.00    -0.004 A 
ENDROOT
TORSDOF 0
ENDMDL
