MODEL 1
REMARK minimizedAffinity -1.32773089
REMARK minimizedRMSD -1
REMARK  0 active torsions:
REMARK  status: ('A' for Active; 'I' for Inactive)
ROOT
ATOM      1  C   UNL d   1       4.029  -1.884  -3.298  0.00  0.00     0.172 C 
ATOM      2  N   UNL d   1       4.617  -1.122  -4.374  0.00  0.00    -0.070 N 
ATOM      3  C1  UNL d   1       4.130   0.055  -4.878  0.00  0.00    -0.004 A 
ATOM      4  C2  UNL d   1       4.972   0.461  -5.890  0.00  0.00    -0.047 A 
ATOM      5  C3  UNL d   1       6.000  -0.505  -6.000  0.00  0.00    -0.047 A 
ATOM      6  C4  UNL d   1       5.755  -1.474  -5.050  0.00  0.00    -0.004 A 
ENDROOT
TORSDOF 0
ENDMDL
