MODEL 1
REMARK minimizedAffinity -3.17161703
REMARK minimizedRMSD -1
REMARK  0 active torsions:
REMARK  status: ('A' for Active; 'I' for Inactive)
ROOT
ATOM      1  C   UNL d   1      -5.622  -5.944  -5.623  0.00  0.00     0.172 C 
ATOM      2  N   UNL d   1      -5.311  -5.407  -4.319  0.00  0.00    -0.070 N 
ATOM      3  C1  UNL d   1      -4.506  -5.999  -3.383  0.00  0.00    -0.004 A 
ATOM      4  C2  UNL d   1      -4.462  -5.173  -2.280  0.00  0.00    -0.047 A 
ATOM      5  C3  UNL d   1      -5.270  -4.046  -2.563  0.00  0.00    -0.047 A 
ATOM      6  C4  UNL d   1      -5.783  -4.217  -3.832  0.00  0.00    -0.004 A 
ENDROOT
TORSDOF 0
ENDMDL
