MODEL 1
REMARK minimizedAffinity -2.64536524
REMARK minimizedRMSD -1
REMARK  0 active torsions:
REMARK  status: ('A' for Active; 'I' for Inactive)
ROOT
ATOM      1  C   UNL d   1      -4.935  -4.920  -5.935  0.00  0.00     0.172 C 
ATOM      2  N   UNL d   1      -5.196  -5.026  -4.519  0.00  0.00    -0.070 N 
ATOM      3  C1  UNL d   1      -4.689  -5.986  -3.684  0.00  0.00    -0.004 A 
ATOM      4  C2  UNL d   1      -5.173  -5.741  -2.417  0.00  0.00    -0.047 A 
ATOM      5  C3  UNL d   1      -6.000  -4.596  -2.493  0.00  0.00    -0.047 A 
ATOM      6  C4  UNL d   1      -5.997  -4.174  -3.806  0.00  0.00    -0.004 A 
ENDROOT
TORSDOF 0
ENDMDL
