MODEL 1
REMARK minimizedAffinity -0.418738037
REMARK minimizedRMSD -1
REMARK  0 active torsions:
REMARK  status: ('A' for Active; 'I' for Inactive)
ROOT
ATOM      1  C   UNL d   1       4.359  -2.101  -2.988  0.00  0.00     0.172 C 
ATOM      2  N   UNL d   1       4.785  -1.458  -4.209  0.00  0.00    -0.070 N 
ATOM      3  C1  UNL d   1       4.111  -0.461  -4.863  0.00  0.00    -0.004 A 
ATOM      4  C2  UNL d   1       4.843  -0.120  -5.980  0.00  0.00    -0.047 A 
ATOM      5  C3  UNL d   1       5.996  -0.940  -5.997  0.00  0.00    -0.047 A 
ATOM      6  C4  UNL d   1       5.935  -1.758  -4.890  0.00  0.00    -0.004 A 
ENDROOT
TORSDOF 0
ENDMDL
