MODEL 1
REMARK minimizedAffinity -2.20865345
REMARK minimizedRMSD -1
REMARK  0 active torsions:
REMARK  status: ('A' for Active; 'I' for Inactive)
ROOT
ATOM      1  C   UNL d   1      -6.000  -3.314  -5.529  0.00  0.00     0.172 C 
ATOM      2  N   UNL d   1      -5.640  -4.181  -4.432  0.00  0.00    -0.070 N 
ATOM      3  C1  UNL d   1      -5.627  -5.549  -4.467  0.00  0.00    -0.004 A 
ATOM      4  C2  UNL d   1      -5.229  -6.000  -3.226  0.00  0.00    -0.047 A 
ATOM      5  C3  UNL d   1      -4.997  -4.862  -2.418  0.00  0.00    -0.047 A 
ATOM      6  C4  UNL d   1      -5.259  -3.749  -3.189  0.00  0.00    -0.004 A 
ENDROOT
TORSDOF 0
ENDMDL
