MODEL 1
REMARK minimizedAffinity -2.53491664
REMARK minimizedRMSD -1
REMARK  0 active torsions:
REMARK  status: ('A' for Active; 'I' for Inactive)
ROOT
ATOM      1  C   UNL d   1       4.343  -1.124  -3.118  0.00  0.00     0.172 C 
ATOM      2  N   UNL d   1       4.661  -0.327  -4.280  0.00  0.00    -0.070 N 
ATOM      3  C1  UNL d   1       3.830   0.584  -4.875  0.00  0.00    -0.004 A 
ATOM      4  C2  UNL d   1       4.501   1.130  -5.948  0.00  0.00    -0.047 A 
ATOM      5  C3  UNL d   1       5.779   0.525  -6.000  0.00  0.00    -0.047 A 
ATOM      6  C4  UNL d   1       5.851  -0.373  -4.956  0.00  0.00    -0.004 A 
ENDROOT
TORSDOF 0
ENDMDL
