MODEL 1
REMARK minimizedAffinity -1.90115511
REMARK minimizedRMSD -1
REMARK  0 active torsions:
REMARK  status: ('A' for Active; 'I' for Inactive)
ROOT
ATOM      1  C   UNL d   1       6.000  -0.810  -6.000  0.00  0.00     0.172 C 
ATOM      2  N   UNL d   1       5.457  -0.096  -4.868  0.00  0.00    -0.070 N 
ATOM      3  C1  UNL d   1       5.474  -0.528  -3.569  0.00  0.00    -0.004 A 
ATOM      4  C2  UNL d   1       4.861   0.434  -2.796  0.00  0.00    -0.047 A 
ATOM      5  C3  UNL d   1       4.461   1.480  -3.661  0.00  0.00    -0.047 A 
ATOM      6  C4  UNL d   1       4.842   1.126  -4.938  0.00  0.00    -0.004 A 
ENDROOT
TORSDOF 0
ENDMDL
