MODEL 1
REMARK minimizedAffinity 1.82764173
REMARK minimizedRMSD -1
REMARK  0 active torsions:
REMARK  status: ('A' for Active; 'I' for Inactive)
ROOT
ATOM      1  C   UNL d   1       0.239  -2.307  -1.134  0.00  0.00     0.023 A 
ATOM      2  C1  UNL d   1      -0.739  -1.334  -1.338  0.00  0.00     0.003 A 
ATOM      3  C2  UNL d   1      -0.559  -0.045  -0.833  0.00  0.00     0.048 A 
ATOM      4  C3  UNL d   1       0.602   0.265  -0.126  0.00  0.00     0.023 A 
ATOM      5  C4  UNL d   1       1.584  -0.706   0.081  0.00  0.00     0.048 A 
ATOM      6  C5  UNL d   1       1.399  -1.994  -0.425  0.00  0.00     0.003 A 
ATOM      7  I   UNL d   1       0.872   2.184   0.627  0.00  0.00    -0.146 I 
ENDROOT
TORSDOF 0
ENDMDL
