MODEL 1
REMARK minimizedAffinity 6.89433479
REMARK minimizedRMSD -1
REMARK  0 active torsions:
REMARK  status: ('A' for Active; 'I' for Inactive)
ROOT
ATOM      1  C   UNL d   1      -1.615   0.422  -0.950  0.00  0.00     0.023 A 
ATOM      2  C1  UNL d   1      -1.544  -0.920  -1.323  0.00  0.00     0.003 A 
ATOM      3  C2  UNL d   1      -0.406  -1.670  -1.020  0.00  0.00     0.048 A 
ATOM      4  C3  UNL d   1       0.657  -1.072  -0.344  0.00  0.00     0.023 A 
ATOM      5  C4  UNL d   1       0.590   0.270   0.032  0.00  0.00     0.048 A 
ATOM      6  C5  UNL d   1      -0.550   1.017  -0.274  0.00  0.00     0.003 A 
ATOM      7  I   UNL d   1       2.352  -2.187   0.108  0.00  0.00    -0.146 I 
ENDROOT
TORSDOF 0
ENDMDL
