MODEL 1
REMARK minimizedAffinity -1.49725461
REMARK minimizedRMSD -1
REMARK  0 active torsions:
REMARK  status: ('A' for Active; 'I' for Inactive)
ROOT
ATOM      1  C   UNL d   1       3.048  -2.327  -2.115  0.00  0.00     0.023 A 
ATOM      2  C1  UNL d   1       1.975  -2.550  -1.252  0.00  0.00     0.003 A 
ATOM      3  C2  UNL d   1       1.609  -1.572  -0.324  0.00  0.00     0.048 A 
ATOM      4  C3  UNL d   1       2.320  -0.373  -0.266  0.00  0.00     0.023 A 
ATOM      5  C4  UNL d   1       3.393  -0.146  -1.129  0.00  0.00     0.048 A 
ATOM      6  C5  UNL d   1       3.756  -1.127  -2.054  0.00  0.00     0.003 A 
ATOM      7  I   UNL d   1       1.777   1.084   1.113  0.00  0.00    -0.146 I 
ENDROOT
TORSDOF 0
ENDMDL
