MODEL 1
REMARK minimizedAffinity 4.13919258
REMARK minimizedRMSD -1
REMARK  0 active torsions:
REMARK  status: ('A' for Active; 'I' for Inactive)
ROOT
ATOM      1  C   UNL d   1       0.668  -2.063  -0.069  0.00  0.00     0.023 A 
ATOM      2  C1  UNL d   1       1.914  -2.584  -0.423  0.00  0.00     0.003 A 
ATOM      3  C2  UNL d   1       2.987  -1.725  -0.668  0.00  0.00     0.048 A 
ATOM      4  C3  UNL d   1       2.808  -0.346  -0.558  0.00  0.00     0.023 A 
ATOM      5  C4  UNL d   1       1.565   0.179  -0.204  0.00  0.00     0.048 A 
ATOM      6  C5  UNL d   1       0.494  -0.683   0.040  0.00  0.00     0.003 A 
ATOM      7  I   UNL d   1       4.404   0.934  -0.923  0.00  0.00    -0.146 I 
ENDROOT
TORSDOF 0
ENDMDL
