MODEL 1
REMARK minimizedAffinity 8.47216702
REMARK minimizedRMSD -1
REMARK  0 active torsions:
REMARK  status: ('A' for Active; 'I' for Inactive)
ROOT
ATOM      1  C   UNL d   1       1.292   0.763   4.332  0.00  0.00     0.023 A 
ATOM      2  C1  UNL d   1       1.117   1.525   3.177  0.00  0.00     0.003 A 
ATOM      3  C2  UNL d   1       1.029   0.899   1.932  0.00  0.00     0.048 A 
ATOM      4  C3  UNL d   1       1.116  -0.490   1.849  0.00  0.00     0.023 A 
ATOM      5  C4  UNL d   1       1.290  -1.257   3.002  0.00  0.00     0.048 A 
ATOM      6  C5  UNL d   1       1.379  -0.627   4.245  0.00  0.00     0.003 A 
ATOM      7  I   UNL d   1       0.985  -1.425  -0.002  0.00  0.00    -0.146 I 
ENDROOT
TORSDOF 0
ENDMDL
