MODEL 1
REMARK minimizedAffinity 3.49482942
REMARK minimizedRMSD -1
REMARK  0 active torsions:
REMARK  status: ('A' for Active; 'I' for Inactive)
ROOT
ATOM      1  C   UNL d   1      -0.255  -2.703  -1.422  0.00  0.00     0.023 A 
ATOM      2  C1  UNL d   1      -1.017  -1.552  -1.621  0.00  0.00     0.003 A 
ATOM      3  C2  UNL d   1      -0.552  -0.317  -1.164  0.00  0.00     0.048 A 
ATOM      4  C3  UNL d   1       0.676  -0.241  -0.508  0.00  0.00     0.023 A 
ATOM      5  C4  UNL d   1       1.443  -1.390  -0.307  0.00  0.00     0.048 A 
ATOM      6  C5  UNL d   1       0.973  -2.622  -0.765  0.00  0.00     0.003 A 
ATOM      7  I   UNL d   1       1.370   1.596   0.174  0.00  0.00    -0.146 I 
ENDROOT
TORSDOF 0
ENDMDL
