MODEL 1
REMARK minimizedAffinity -0.868016064
REMARK minimizedRMSD -1
REMARK  0 active torsions:
REMARK  status: ('A' for Active; 'I' for Inactive)
ROOT
ATOM      1  C   UNL d   1       4.472  -0.951  -1.191  0.00  0.00     0.023 A 
ATOM      2  C1  UNL d   1       3.327  -1.678  -1.518  0.00  0.00     0.003 A 
ATOM      3  C2  UNL d   1       2.062  -1.131  -1.287  0.00  0.00     0.048 A 
ATOM      4  C3  UNL d   1       1.951   0.143  -0.731  0.00  0.00     0.023 A 
ATOM      5  C4  UNL d   1       3.094   0.874  -0.403  0.00  0.00     0.048 A 
ATOM      6  C5  UNL d   1       4.356   0.322  -0.634  0.00  0.00     0.003 A 
ATOM      7  I   UNL d   1       0.070   0.959  -0.388  0.00  0.00    -0.146 I 
ENDROOT
TORSDOF 0
ENDMDL
