MODEL 1
REMARK minimizedAffinity -5.29607344
REMARK minimizedRMSD -1
REMARK  0 active torsions:
REMARK  status: ('A' for Active; 'I' for Inactive)
ROOT
ATOM      1  C   UNL d   1       0.209  -2.572  -2.885  0.00  0.00     0.077 C 
ATOM      2  C1  UNL d   1       0.085  -2.115  -1.461  0.00  0.00    -0.074 A 
ATOM      3  C2  UNL d   1      -0.303  -3.003  -0.453  0.00  0.00    -0.005 A 
ATOM      4  C3  UNL d   1      -0.404  -2.566   0.868  0.00  0.00     0.006 A 
ATOM      5  C4  UNL d   1      -0.119  -1.239   1.193  0.00  0.00    -0.005 A 
ATOM      6  C5  UNL d   1       0.271  -0.337   0.198  0.00  0.00    -0.074 A 
ATOM      7  C6  UNL d   1       0.591   1.090   0.532  0.00  0.00     0.077 C 
ATOM      8  C7  UNL d   1       0.378  -0.786  -1.126  0.00  0.00    -0.001 A 
ENDROOT
TORSDOF 0
ENDMDL
