MODEL 1
REMARK minimizedAffinity -3.95982838
REMARK minimizedRMSD -1
REMARK  0 active torsions:
REMARK  status: ('A' for Active; 'I' for Inactive)
ROOT
ATOM      1  C   UNL d   1       0.035  -4.729  -0.470  0.00  0.00     0.077 C 
ATOM      2  C1  UNL d   1       0.080  -3.264  -0.787  0.00  0.00    -0.074 A 
ATOM      3  C2  UNL d   1       0.133  -2.816  -2.110  0.00  0.00    -0.005 A 
ATOM      4  C3  UNL d   1       0.164  -1.449  -2.389  0.00  0.00     0.006 A 
ATOM      5  C4  UNL d   1       0.143  -0.519  -1.349  0.00  0.00    -0.005 A 
ATOM      6  C5  UNL d   1       0.089  -0.949  -0.020  0.00  0.00    -0.074 A 
ATOM      7  C6  UNL d   1       0.056   0.038   1.110  0.00  0.00     0.077 C 
ATOM      8  C7  UNL d   1       0.051  -2.323   0.252  0.00  0.00    -0.001 A 
ENDROOT
TORSDOF 0
ENDMDL
