MODEL 1
REMARK minimizedAffinity -3.85563684
REMARK minimizedRMSD -1
REMARK  0 active torsions:
REMARK  status: ('A' for Active; 'I' for Inactive)
ROOT
ATOM      1  C   UNL d   1       0.064  -3.415   0.897  0.00  0.00     0.077 C 
ATOM      2  C1  UNL d   1       0.091  -1.976   0.477  0.00  0.00    -0.074 A 
ATOM      3  C2  UNL d   1       0.023  -0.949   1.424  0.00  0.00    -0.005 A 
ATOM      4  C3  UNL d   1       0.058   0.385   1.018  0.00  0.00     0.006 A 
ATOM      5  C4  UNL d   1       0.162   0.705  -0.336  0.00  0.00    -0.005 A 
ATOM      6  C5  UNL d   1       0.233  -0.308  -1.297  0.00  0.00    -0.074 A 
ATOM      7  C6  UNL d   1       0.355   0.019  -2.756  0.00  0.00     0.077 C 
ATOM      8  C7  UNL d   1       0.204  -1.646  -0.881  0.00  0.00    -0.001 A 
ENDROOT
TORSDOF 0
ENDMDL
