MODEL 1
REMARK minimizedAffinity -4.26854563
REMARK minimizedRMSD -1
REMARK  0 active torsions:
REMARK  status: ('A' for Active; 'I' for Inactive)
ROOT
ATOM      1  C   UNL d   1      -0.317  -3.331   0.469  0.00  0.00     0.077 C 
ATOM      2  C1  UNL d   1      -0.274  -1.859   0.185  0.00  0.00    -0.074 A 
ATOM      3  C2  UNL d   1      -0.439  -0.923   1.211  0.00  0.00    -0.005 A 
ATOM      4  C3  UNL d   1      -0.387   0.443   0.933  0.00  0.00     0.006 A 
ATOM      5  C4  UNL d   1      -0.171   0.886  -0.372  0.00  0.00    -0.005 A 
ATOM      6  C5  UNL d   1      -0.003  -0.034  -1.411  0.00  0.00    -0.074 A 
ATOM      7  C6  UNL d   1       0.240   0.425  -2.818  0.00  0.00     0.077 C 
ATOM      8  C7  UNL d   1      -0.049  -1.405  -1.123  0.00  0.00    -0.001 A 
ENDROOT
TORSDOF 0
ENDMDL
