MODEL 1
REMARK minimizedAffinity -4.37476873
REMARK minimizedRMSD -1
REMARK  0 active torsions:
REMARK  status: ('A' for Active; 'I' for Inactive)
ROOT
ATOM      1  C   UNL d   1      -1.437  -1.700   1.942  0.00  0.00     0.077 C 
ATOM      2  C1  UNL d   1      -0.512  -1.115   0.917  0.00  0.00    -0.074 A 
ATOM      3  C2  UNL d   1       0.061  -1.916  -0.076  0.00  0.00    -0.005 A 
ATOM      4  C3  UNL d   1       0.912  -1.356  -1.028  0.00  0.00     0.006 A 
ATOM      5  C4  UNL d   1       1.198   0.009  -0.998  0.00  0.00    -0.005 A 
ATOM      6  C5  UNL d   1       0.634   0.827  -0.014  0.00  0.00    -0.074 A 
ATOM      7  C6  UNL d   1       0.923   2.298   0.027  0.00  0.00     0.077 C 
ATOM      8  C7  UNL d   1      -0.226   0.258   0.936  0.00  0.00    -0.001 A 
ENDROOT
TORSDOF 0
ENDMDL
