MODEL 1
REMARK minimizedAffinity -4.15296841
REMARK minimizedRMSD -1
REMARK  0 active torsions:
REMARK  status: ('A' for Active; 'I' for Inactive)
ROOT
ATOM      1  C   UNL d   1       0.413   0.770  -2.644  0.00  0.00     0.077 C 
ATOM      2  C1  UNL d   1       0.083   0.112  -1.337  0.00  0.00    -0.074 A 
ATOM      3  C2  UNL d   1      -0.464   0.846  -0.280  0.00  0.00    -0.005 A 
ATOM      4  C3  UNL d   1      -0.775   0.219   0.926  0.00  0.00     0.006 A 
ATOM      5  C4  UNL d   1      -0.542  -1.147   1.088  0.00  0.00    -0.005 A 
ATOM      6  C5  UNL d   1       0.004  -1.899   0.042  0.00  0.00    -0.074 A 
ATOM      7  C6  UNL d   1       0.252  -3.370   0.196  0.00  0.00     0.077 C 
ATOM      8  C7  UNL d   1       0.307  -1.262  -1.169  0.00  0.00    -0.001 A 
ENDROOT
TORSDOF 0
ENDMDL
