MODEL 1
REMARK minimizedAffinity -5.23687267
REMARK minimizedRMSD -1
REMARK  0 active torsions:
REMARK  status: ('A' for Active; 'I' for Inactive)
ROOT
ATOM      1  C   UNL d   1       0.096   0.873  -1.904  0.00  0.00     0.077 C 
ATOM      2  C1  UNL d   1       0.044   0.021  -0.671  0.00  0.00    -0.074 A 
ATOM      3  C2  UNL d   1       0.041   0.598   0.603  0.00  0.00    -0.005 A 
ATOM      4  C3  UNL d   1      -0.017  -0.207   1.740  0.00  0.00     0.006 A 
ATOM      5  C4  UNL d   1      -0.072  -1.596   1.616  0.00  0.00    -0.005 A 
ATOM      6  C5  UNL d   1      -0.069  -2.191   0.351  0.00  0.00    -0.074 A 
ATOM      7  C6  UNL d   1      -0.137  -3.682   0.199  0.00  0.00     0.077 C 
ATOM      8  C7  UNL d   1      -0.018  -1.375  -0.788  0.00  0.00    -0.001 A 
ENDROOT
TORSDOF 0
ENDMDL
