MODEL 1
REMARK minimizedAffinity 0.873950243
REMARK minimizedRMSD -1
REMARK  0 active torsions:
REMARK  status: ('A' for Active; 'I' for Inactive)
ROOT
ATOM      1  C   UNL d   1      -0.907  -0.666   2.878  0.00  0.00     0.077 C 
ATOM      2  C1  UNL d   1      -0.532  -0.172   1.513  0.00  0.00    -0.074 A 
ATOM      3  C2  UNL d   1      -0.894  -0.885   0.365  0.00  0.00    -0.005 A 
ATOM      4  C3  UNL d   1      -0.547  -0.407  -0.898  0.00  0.00     0.006 A 
ATOM      5  C4  UNL d   1       0.165   0.786  -1.027  0.00  0.00    -0.005 A 
ATOM      6  C5  UNL d   1       0.536   1.513   0.108  0.00  0.00    -0.074 A 
ATOM      7  C6  UNL d   1       1.292   2.802  -0.013  0.00  0.00     0.077 C 
ATOM      8  C7  UNL d   1       0.177   1.030   1.374  0.00  0.00    -0.001 A 
ENDROOT
TORSDOF 0
ENDMDL
