MODEL 1
REMARK minimizedAffinity -1.39326084
REMARK minimizedRMSD -1
REMARK  0 active torsions:
REMARK  status: ('A' for Active; 'I' for Inactive)
ROOT
ATOM      1  C   UNL d   1       0.538  -1.940   0.858  0.00  0.00     0.077 C 
ATOM      2  C1  UNL d   1       0.649  -0.504   0.440  0.00  0.00    -0.074 A 
ATOM      3  C2  UNL d   1      -0.109  -0.004  -0.624  0.00  0.00    -0.005 A 
ATOM      4  C3  UNL d   1      -0.002   1.337  -0.994  0.00  0.00     0.006 A 
ATOM      5  C4  UNL d   1       0.862   2.189  -0.306  0.00  0.00    -0.005 A 
ATOM      6  C5  UNL d   1       1.627   1.708   0.761  0.00  0.00    -0.074 A 
ATOM      7  C6  UNL d   1       2.553   2.613   1.517  0.00  0.00     0.077 C 
ATOM      8  C7  UNL d   1       1.509   0.361   1.132  0.00  0.00    -0.001 A 
ENDROOT
TORSDOF 0
ENDMDL
