MODEL 1
REMARK minimizedAffinity -6.34268427
REMARK minimizedRMSD -1
REMARK  0 active torsions:
REMARK  status: ('A' for Active; 'I' for Inactive)
ROOT
ATOM      1  C   UNL d   1       0.669   1.450  -0.029  0.00  0.00     0.077 C 
ATOM      2  C1  UNL d   1       0.219   0.025   0.094  0.00  0.00    -0.074 A 
ATOM      3  C2  UNL d   1      -0.246  -0.480   1.313  0.00  0.00    -0.005 A 
ATOM      4  C3  UNL d   1      -0.671  -1.805   1.410  0.00  0.00     0.006 A 
ATOM      5  C4  UNL d   1      -0.635  -2.638   0.291  0.00  0.00    -0.005 A 
ATOM      6  C5  UNL d   1      -0.174  -2.151  -0.937  0.00  0.00    -0.074 A 
ATOM      7  C6  UNL d   1      -0.138  -3.030  -2.151  0.00  0.00     0.077 C 
ATOM      8  C7  UNL d   1       0.245  -0.816  -1.028  0.00  0.00    -0.001 A 
ENDROOT
TORSDOF 0
ENDMDL
