MODEL 1
REMARK minimizedAffinity -2.14394188
REMARK minimizedRMSD -1
REMARK  0 active torsions:
REMARK  status: ('A' for Active; 'I' for Inactive)
ROOT
ATOM      1  C   UNL d   1       0.568   2.637   0.463  0.00  0.00     0.077 C 
ATOM      2  C1  UNL d   1       0.411   1.290  -0.177  0.00  0.00    -0.074 A 
ATOM      3  C2  UNL d   1       0.305   1.162  -1.566  0.00  0.00    -0.005 A 
ATOM      4  C3  UNL d   1       0.169  -0.098  -2.148  0.00  0.00     0.006 A 
ATOM      5  C4  UNL d   1       0.138  -1.241  -1.349  0.00  0.00    -0.005 A 
ATOM      6  C5  UNL d   1       0.244  -1.133   0.041  0.00  0.00    -0.074 A 
ATOM      7  C6  UNL d   1       0.222  -2.353   0.914  0.00  0.00     0.077 C 
ATOM      8  C7  UNL d   1       0.387   0.136   0.618  0.00  0.00    -0.001 A 
ENDROOT
TORSDOF 0
ENDMDL
