MODEL 1
REMARK minimizedAffinity -4.09375334
REMARK minimizedRMSD -1
REMARK  0 active torsions:
REMARK  status: ('A' for Active; 'I' for Inactive)
ROOT
ATOM      1  C   UNL d   1      -0.122  -3.631   0.355  0.00  0.00     0.077 C 
ATOM      2  C1  UNL d   1      -0.169  -2.137   0.472  0.00  0.00    -0.074 A 
ATOM      3  C2  UNL d   1      -0.484  -1.520   1.688  0.00  0.00    -0.005 A 
ATOM      4  C3  UNL d   1      -0.515  -0.129   1.783  0.00  0.00     0.006 A 
ATOM      5  C4  UNL d   1      -0.231   0.658   0.667  0.00  0.00    -0.005 A 
ATOM      6  C5  UNL d   1       0.087   0.060  -0.556  0.00  0.00    -0.074 A 
ATOM      7  C6  UNL d   1       0.404   0.892  -1.763  0.00  0.00     0.077 C 
ATOM      8  C7  UNL d   1       0.122  -1.339  -0.643  0.00  0.00    -0.001 A 
ENDROOT
TORSDOF 0
ENDMDL
