MODEL 1
REMARK minimizedAffinity -3.99903941
REMARK minimizedRMSD -1
REMARK  0 active torsions:
REMARK  status: ('A' for Active; 'I' for Inactive)
ROOT
ATOM      1  C   UNL d   1       0.370  -1.489  -2.453  0.00  0.00     0.077 C 
ATOM      2  C1  UNL d   1       0.140  -0.944  -1.075  0.00  0.00    -0.074 A 
ATOM      3  C2  UNL d   1      -0.314  -1.769  -0.041  0.00  0.00    -0.005 A 
ATOM      4  C3  UNL d   1      -0.514  -1.249   1.238  0.00  0.00     0.006 A 
ATOM      5  C4  UNL d   1      -0.263   0.099   1.495  0.00  0.00    -0.005 A 
ATOM      6  C5  UNL d   1       0.193   0.939   0.475  0.00  0.00    -0.074 A 
ATOM      7  C6  UNL d   1       0.477   2.388   0.737  0.00  0.00     0.077 C 
ATOM      8  C7  UNL d   1       0.398   0.408  -0.806  0.00  0.00    -0.001 A 
ENDROOT
TORSDOF 0
ENDMDL
