MODEL 1
REMARK minimizedAffinity -4.21813107
REMARK minimizedRMSD -1
REMARK  0 active torsions:
REMARK  status: ('A' for Active; 'I' for Inactive)
ROOT
ATOM      1  C   UNL d   1       0.258   1.330  -1.218  0.00  0.00     0.077 C 
ATOM      2  C1  UNL d   1       0.326   0.301  -0.129  0.00  0.00    -0.074 A 
ATOM      3  C2  UNL d   1       0.601   0.669   1.192  0.00  0.00    -0.005 A 
ATOM      4  C3  UNL d   1       0.652  -0.298   2.195  0.00  0.00     0.006 A 
ATOM      5  C4  UNL d   1       0.429  -1.641   1.889  0.00  0.00    -0.005 A 
ATOM      6  C5  UNL d   1       0.153  -2.028   0.573  0.00  0.00    -0.074 A 
ATOM      7  C6  UNL d   1      -0.098  -3.466   0.228  0.00  0.00     0.077 C 
ATOM      8  C7  UNL d   1       0.096  -1.049  -0.428  0.00  0.00    -0.001 A 
ENDROOT
TORSDOF 0
ENDMDL
