MODEL 1
REMARK minimizedAffinity -4.24727488
REMARK minimizedRMSD -1
REMARK  0 active torsions:
REMARK  status: ('A' for Active; 'I' for Inactive)
ROOT
ATOM      1  C   UNL d   1      -0.003  -2.983   1.118  0.00  0.00     0.077 C 
ATOM      2  C1  UNL d   1       0.247  -1.782   0.255  0.00  0.00    -0.074 A 
ATOM      3  C2  UNL d   1       0.205  -1.878  -1.139  0.00  0.00    -0.005 A 
ATOM      4  C3  UNL d   1       0.430  -0.750  -1.929  0.00  0.00     0.006 A 
ATOM      5  C4  UNL d   1       0.701   0.482  -1.333  0.00  0.00    -0.005 A 
ATOM      6  C5  UNL d   1       0.746   0.597   0.060  0.00  0.00    -0.074 A 
ATOM      7  C6  UNL d   1       1.026   1.917   0.716  0.00  0.00     0.077 C 
ATOM      8  C7  UNL d   1       0.512  -0.539   0.846  0.00  0.00    -0.001 A 
ENDROOT
TORSDOF 0
ENDMDL
