MODEL 1
REMARK minimizedAffinity -2.27904773
REMARK minimizedRMSD -1
REMARK  0 active torsions:
REMARK  status: ('A' for Active; 'I' for Inactive)
ROOT
ATOM      1  C   UNL d   1       0.049  -1.130  -2.478  0.00  0.00     0.077 C 
ATOM      2  C1  UNL d   1      -0.090  -1.564  -1.049  0.00  0.00    -0.074 A 
ATOM      3  C2  UNL d   1       0.117  -2.897  -0.679  0.00  0.00    -0.005 A 
ATOM      4  C3  UNL d   1      -0.006  -3.284   0.655  0.00  0.00     0.006 A 
ATOM      5  C4  UNL d   1      -0.337  -2.344   1.632  0.00  0.00    -0.005 A 
ATOM      6  C5  UNL d   1      -0.547  -1.007   1.281  0.00  0.00    -0.074 A 
ATOM      7  C6  UNL d   1      -0.894   0.018   2.320  0.00  0.00     0.077 C 
ATOM      8  C7  UNL d   1      -0.415  -0.624  -0.061  0.00  0.00    -0.001 A 
ENDROOT
TORSDOF 0
ENDMDL
