MODEL 1
REMARK minimizedAffinity 1.93446457
REMARK minimizedRMSD -1
REMARK  0 active torsions:
REMARK  status: ('A' for Active; 'I' for Inactive)
ROOT
ATOM      1  C   UNL d   1      -0.307   2.840   0.191  0.00  0.00     0.172 C 
ATOM      2  N   UNL d   1      -0.156   1.811   1.193  0.00  0.00    -0.070 N 
ATOM      3  C1  UNL d   1      -0.883   1.710   2.349  0.00  0.00    -0.004 A 
ATOM      4  C2  UNL d   1      -0.438   0.598   3.031  0.00  0.00    -0.047 A 
ATOM      5  C3  UNL d   1       0.592   0.011   2.259  0.00  0.00    -0.047 A 
ATOM      6  C4  UNL d   1       0.746   0.782   1.126  0.00  0.00    -0.004 A 
ENDROOT
TORSDOF 0
ENDMDL
