MODEL 1
REMARK minimizedAffinity -0.581228852
REMARK minimizedRMSD -1
REMARK  0 active torsions:
REMARK  status: ('A' for Active; 'I' for Inactive)
ROOT
ATOM      1  C   UNL d   1      -2.510   2.895  -2.827  0.00  0.00     0.172 C 
ATOM      2  N   UNL d   1      -1.330   2.880  -1.994  0.00  0.00    -0.070 N 
ATOM      3  C1  UNL d   1      -0.078   3.282  -2.377  0.00  0.00    -0.004 A 
ATOM      4  C2  UNL d   1       0.766   3.113  -1.301  0.00  0.00    -0.047 A 
ATOM      5  C3  UNL d   1      -0.005   2.592  -0.235  0.00  0.00    -0.047 A 
ATOM      6  C4  UNL d   1      -1.299   2.457  -0.692  0.00  0.00    -0.004 A 
ENDROOT
TORSDOF 0
ENDMDL
