MODEL 1
REMARK minimizedAffinity 9.22365475
REMARK minimizedRMSD -1
REMARK  0 active torsions:
REMARK  status: ('A' for Active; 'I' for Inactive)
ROOT
ATOM      1  C   UNL d   1       1.791  -5.920  -6.000  0.00  0.00     0.172 C 
ATOM      2  N   UNL d   1       3.054  -5.813  -5.309  0.00  0.00    -0.070 N 
ATOM      3  C1  UNL d   1       4.289  -5.999  -5.870  0.00  0.00    -0.004 A 
ATOM      4  C2  UNL d   1       5.233  -5.807  -4.884  0.00  0.00    -0.047 A 
ATOM      5  C3  UNL d   1       4.542  -5.496  -3.690  0.00  0.00    -0.047 A 
ATOM      6  C4  UNL d   1       3.194  -5.506  -3.981  0.00  0.00    -0.004 A 
ENDROOT
TORSDOF 0
ENDMDL
