MODEL 1
REMARK minimizedAffinity 2.01131129
REMARK minimizedRMSD -1
REMARK  0 active torsions:
REMARK  status: ('A' for Active; 'I' for Inactive)
ROOT
ATOM      1  C   UNL d   1      -3.023   1.863  -2.927  0.00  0.00     0.172 C 
ATOM      2  N   UNL d   1      -1.963   2.114  -1.979  0.00  0.00    -0.070 N 
ATOM      3  C1  UNL d   1      -0.879   2.925  -2.189  0.00  0.00    -0.004 A 
ATOM      4  C2  UNL d   1      -0.106   2.899  -1.049  0.00  0.00    -0.047 A 
ATOM      5  C3  UNL d   1      -0.746   2.042  -0.122  0.00  0.00    -0.047 A 
ATOM      6  C4  UNL d   1      -1.894   1.570  -0.724  0.00  0.00    -0.004 A 
ENDROOT
TORSDOF 0
ENDMDL
