MODEL 1
REMARK minimizedAffinity 7.87669516
REMARK minimizedRMSD -1
REMARK  0 active torsions:
REMARK  status: ('A' for Active; 'I' for Inactive)
ROOT
ATOM      1  C   UNL d   1      -2.150   4.826  -4.495  0.00  0.00     0.172 C 
ATOM      2  N   UNL d   1      -2.197   3.665  -3.638  0.00  0.00    -0.070 N 
ATOM      3  C1  UNL d   1      -3.332   3.093  -3.129  0.00  0.00    -0.004 A 
ATOM      4  C2  UNL d   1      -2.954   2.011  -2.365  0.00  0.00    -0.047 A 
ATOM      5  C3  UNL d   1      -1.542   1.930  -2.416  0.00  0.00    -0.047 A 
ATOM      6  C4  UNL d   1      -1.099   2.965  -3.211  0.00  0.00    -0.004 A 
ENDROOT
TORSDOF 0
ENDMDL
