MODEL 1
REMARK minimizedAffinity 2.5093863
REMARK minimizedRMSD -1
REMARK  0 active torsions:
REMARK  status: ('A' for Active; 'I' for Inactive)
ROOT
ATOM      1  C   UNL d   1      -0.938   2.370  -1.858  0.00  0.00     0.172 C 
ATOM      2  N   UNL d   1      -1.287   0.981  -1.672  0.00  0.00    -0.070 N 
ATOM      3  C1  UNL d   1      -0.421  -0.077  -1.753  0.00  0.00    -0.004 A 
ATOM      4  C2  UNL d   1      -1.138  -1.229  -1.514  0.00  0.00    -0.047 A 
ATOM      5  C3  UNL d   1      -2.482  -0.850  -1.282  0.00  0.00    -0.047 A 
ATOM      6  C4  UNL d   1      -2.546   0.523  -1.386  0.00  0.00    -0.004 A 
ENDROOT
TORSDOF 0
ENDMDL
