MODEL 1
REMARK minimizedAffinity 3.05063534
REMARK minimizedRMSD -1
REMARK  0 active torsions:
REMARK  status: ('A' for Active; 'I' for Inactive)
ROOT
ATOM      1  C   UNL d   1      -0.633   5.832  -1.979  0.00  0.00     0.172 C 
ATOM      2  N   UNL d   1      -0.470   4.691  -1.109  0.00  0.00    -0.070 N 
ATOM      3  C1  UNL d   1       0.193   3.535  -1.424  0.00  0.00    -0.004 A 
ATOM      4  C2  UNL d   1       0.125   2.698  -0.332  0.00  0.00    -0.047 A 
ATOM      5  C3  UNL d   1      -0.605   3.373   0.675  0.00  0.00    -0.047 A 
ATOM      6  C4  UNL d   1      -0.961   4.605   0.167  0.00  0.00    -0.004 A 
ENDROOT
TORSDOF 0
ENDMDL
