MODEL 1
REMARK minimizedAffinity 9.31651592
REMARK minimizedRMSD -1
REMARK  0 active torsions:
REMARK  status: ('A' for Active; 'I' for Inactive)
ROOT
ATOM      1  C   UNL d   1      -1.483   6.000  -0.377  0.00  0.00     0.172 C 
ATOM      2  N   UNL d   1      -0.799   4.859  -0.938  0.00  0.00    -0.070 N 
ATOM      3  C1  UNL d   1      -0.750   4.533  -2.267  0.00  0.00    -0.004 A 
ATOM      4  C2  UNL d   1      -0.003   3.381  -2.392  0.00  0.00    -0.047 A 
ATOM      5  C3  UNL d   1       0.409   3.001  -1.092  0.00  0.00    -0.047 A 
ATOM      6  C4  UNL d   1      -0.098   3.933  -0.212  0.00  0.00    -0.004 A 
ENDROOT
TORSDOF 0
ENDMDL
