MODEL 1
REMARK minimizedAffinity -0.478439391
REMARK minimizedRMSD -1
REMARK  0 active torsions:
REMARK  status: ('A' for Active; 'I' for Inactive)
ROOT
ATOM      1  C   UNL d   1      -5.982  -3.188   5.096  0.00  0.00     0.172 C 
ATOM      2  N   UNL d   1      -5.761  -1.866   4.557  0.00  0.00    -0.070 N 
ATOM      3  C1  UNL d   1      -5.287  -1.585   3.304  0.00  0.00    -0.004 A 
ATOM      4  C2  UNL d   1      -5.220  -0.214   3.176  0.00  0.00    -0.047 A 
ATOM      5  C3  UNL d   1      -5.668   0.347   4.395  0.00  0.00    -0.047 A 
ATOM      6  C4  UNL d   1      -5.997  -0.698   5.232  0.00  0.00    -0.004 A 
ENDROOT
TORSDOF 0
ENDMDL
