MODEL 1
REMARK minimizedAffinity 2.21287775
REMARK minimizedRMSD -1
REMARK  0 active torsions:
REMARK  status: ('A' for Active; 'I' for Inactive)
ROOT
ATOM      1  C1  BNZ d   1       4.125   4.821   1.667  0.00  0.00     0.000 A 
ATOM      2  C2  BNZ d   1       4.511   5.998   2.251  0.00  0.00     0.000 A 
ATOM      3  C3  BNZ d   1       5.285   6.000   3.378  0.00  0.00     0.000 A 
ATOM      4  C4  BNZ d   1       5.638   4.827   3.942  0.00  0.00     0.000 A 
ATOM      5  C5  BNZ d   1       5.249   3.631   3.370  0.00  0.00     0.000 A 
ATOM      6  C6  BNZ d   1       4.503   3.633   2.214  0.00  0.00     0.000 A 
ENDROOT
TORSDOF 0
ENDMDL
