MODEL 1
REMARK minimizedAffinity 1.31032443
REMARK minimizedRMSD -1
REMARK  0 active torsions:
REMARK  status: ('A' for Active; 'I' for Inactive)
ROOT
ATOM      1  C1  BNZ d   1       3.846   4.073   1.482  0.00  0.00     0.000 A 
ATOM      2  C2  BNZ d   1       4.109   5.410   1.611  0.00  0.00     0.000 A 
ATOM      3  C3  BNZ d   1       5.083   5.853   2.462  0.00  0.00     0.000 A 
ATOM      4  C4  BNZ d   1       5.764   4.962   3.212  0.00  0.00     0.000 A 
ATOM      5  C5  BNZ d   1       5.503   3.611   3.100  0.00  0.00     0.000 A 
ATOM      6  C6  BNZ d   1       4.550   3.166   2.213  0.00  0.00     0.000 A 
ENDROOT
TORSDOF 0
ENDMDL
