MODEL 1
REMARK minimizedAffinity 6.07431793
REMARK minimizedRMSD -1
REMARK  0 active torsions:
REMARK  status: ('A' for Active; 'I' for Inactive)
ROOT
ATOM      1  C1  BNZ d   1       3.750   3.007   5.626  0.00  0.00     0.000 A 
ATOM      2  C2  BNZ d   1       2.596   3.648   5.992  0.00  0.00     0.000 A 
ATOM      3  C3  BNZ d   1       1.400   2.987   6.000  0.00  0.00     0.000 A 
ATOM      4  C4  BNZ d   1       1.352   1.699   5.604  0.00  0.00     0.000 A 
ATOM      5  C5  BNZ d   1       2.505   1.041   5.224  0.00  0.00     0.000 A 
ATOM      6  C6  BNZ d   1       3.713   1.698   5.254  0.00  0.00     0.000 A 
ENDROOT
TORSDOF 0
ENDMDL
