MODEL 1
REMARK minimizedAffinity 8.34505272
REMARK minimizedRMSD -1
REMARK  0 active torsions:
REMARK  status: ('A' for Active; 'I' for Inactive)
ROOT
ATOM      1  C1  BNZ d   1      -5.963   1.300  -0.921  0.00  0.00     0.000 A 
ATOM      2  C2  BNZ d   1      -5.999   2.237   0.077  0.00  0.00     0.000 A 
ATOM      3  C3  BNZ d   1      -5.967   3.572  -0.216  0.00  0.00     0.000 A 
ATOM      4  C4  BNZ d   1      -5.859   3.967  -1.501  0.00  0.00     0.000 A 
ATOM      5  C5  BNZ d   1      -5.812   3.034  -2.517  0.00  0.00     0.000 A 
ATOM      6  C6  BNZ d   1      -5.884   1.692  -2.221  0.00  0.00     0.000 A 
ENDROOT
TORSDOF 0
ENDMDL
