MODEL 1
REMARK minimizedAffinity 4.03397894
REMARK minimizedRMSD -1
REMARK  0 active torsions:
REMARK  status: ('A' for Active; 'I' for Inactive)
ROOT
ATOM      1  C1  BNZ d   1      -1.744   0.317   2.559  0.00  0.00     0.000 A 
ATOM      2  C2  BNZ d   1      -1.637  -1.029   2.786  0.00  0.00     0.000 A 
ATOM      3  C3  BNZ d   1      -0.472  -1.569   3.254  0.00  0.00     0.000 A 
ATOM      4  C4  BNZ d   1       0.595  -0.770   3.458  0.00  0.00     0.000 A 
ATOM      5  C5  BNZ d   1       0.506   0.588   3.225  0.00  0.00     0.000 A 
ATOM      6  C6  BNZ d   1      -0.680   1.134   2.790  0.00  0.00     0.000 A 
ENDROOT
TORSDOF 0
ENDMDL
