MODEL 1
REMARK minimizedAffinity 5.48336077
REMARK minimizedRMSD -1
REMARK  0 active torsions:
REMARK  status: ('A' for Active; 'I' for Inactive)
ROOT
ATOM      1  C1  BNZ d   1       0.957  -1.461   3.429  0.00  0.00     0.000 A 
ATOM      2  C2  BNZ d   1       0.100  -1.116   2.418  0.00  0.00     0.000 A 
ATOM      3  C3  BNZ d   1      -0.263   0.187   2.221  0.00  0.00     0.000 A 
ATOM      4  C4  BNZ d   1       0.199   1.137   3.059  0.00  0.00     0.000 A 
ATOM      5  C5  BNZ d   1       1.055   0.805   4.090  0.00  0.00     0.000 A 
ATOM      6  C6  BNZ d   1       1.449  -0.503   4.261  0.00  0.00     0.000 A 
ENDROOT
TORSDOF 0
ENDMDL
