MODEL 1
REMARK minimizedAffinity 0.928044558
REMARK minimizedRMSD -1
REMARK  1 active torsions:
REMARK  status: ('A' for Active; 'I' for Inactive)
REMARK    1  A    between atoms: N_2  and  C1_3 
ROOT
ATOM      1  C1  UNL d   1       0.263  -2.001   0.874  0.00  0.00     0.143 A 
ATOM      2  C2  UNL d   1       0.882  -2.706  -0.163  0.00  0.00    -0.057 A 
ATOM      3  C3  UNL d   1       0.219  -2.950  -1.372  0.00  0.00     0.033 A 
ATOM      4  C4  UNL d   1      -1.090  -2.516  -1.554  0.00  0.00    -0.042 A 
ATOM      5  C5  UNL d   1      -1.734  -1.835  -0.527  0.00  0.00     0.033 A 
ATOM      6  C6  UNL d   1      -1.064  -1.589   0.675  0.00  0.00    -0.057 A 
ENDROOT
BRANCH   1   7
ATOM      7  N   UNL d   1       0.834  -1.812   2.135  0.00  0.00    -0.732 N 
ATOM      8  C   UNL d   1       2.064  -1.064   2.283  0.00  0.00     0.284 C 
ATOM      9  H3  UNL d   1       0.138  -1.613   2.851  0.00  0.00     0.395 HD
ENDBRANCH   1   7
TORSDOF 1
ENDMDL
