MODEL 1
REMARK minimizedAffinity 2.2813108
REMARK minimizedRMSD -1
REMARK  1 active torsions:
REMARK  status: ('A' for Active; 'I' for Inactive)
REMARK    1  A    between atoms: N_2  and  C1_3 
ROOT
ATOM      1  C1  UNL d   1       2.340  -2.056   3.472  0.00  0.00     0.143 A 
ATOM      2  C2  UNL d   1       1.740  -3.225   3.952  0.00  0.00    -0.057 A 
ATOM      3  C3  UNL d   1       2.451  -4.131   4.748  0.00  0.00     0.033 A 
ATOM      4  C4  UNL d   1       3.787  -3.897   5.056  0.00  0.00    -0.042 A 
ATOM      5  C5  UNL d   1       4.410  -2.754   4.569  0.00  0.00     0.033 A 
ATOM      6  C6  UNL d   1       3.693  -1.849   3.780  0.00  0.00    -0.057 A 
ENDROOT
BRANCH   1   7
ATOM      7  N   UNL d   1       1.716  -1.165   2.595  0.00  0.00    -0.732 N 
ATOM      8  C   UNL d   1       2.475  -0.121   1.941  0.00  0.00     0.284 C 
ATOM      9  H3  UNL d   1       1.037  -1.625   1.992  0.00  0.00     0.395 HD
ENDBRANCH   1   7
TORSDOF 1
ENDMDL
