MODEL 1
REMARK minimizedAffinity 0.837594509
REMARK minimizedRMSD -1
REMARK  1 active torsions:
REMARK  status: ('A' for Active; 'I' for Inactive)
REMARK    1  A    between atoms: N_2  and  C1_3 
ROOT
ATOM      1  C1  UNL d   1       1.187  -0.661   1.872  0.00  0.00     0.143 A 
ATOM      2  C2  UNL d   1       0.172  -0.405   0.944  0.00  0.00    -0.057 A 
ATOM      3  C3  UNL d   1       0.222   0.713   0.102  0.00  0.00     0.033 A 
ATOM      4  C4  UNL d   1       1.278   1.613   0.195  0.00  0.00    -0.042 A 
ATOM      5  C5  UNL d   1       2.286   1.393   1.127  0.00  0.00     0.033 A 
ATOM      6  C6  UNL d   1       2.233   0.271   1.960  0.00  0.00    -0.057 A 
ENDROOT
BRANCH   1   7
ATOM      7  N   UNL d   1       1.146  -1.701   2.803  0.00  0.00    -0.732 N 
ATOM      8  C   UNL d   1       1.939  -1.640   4.013  0.00  0.00     0.284 C 
ATOM      9  H3  UNL d   1       0.204  -2.062   2.941  0.00  0.00     0.395 HD
ENDBRANCH   1   7
TORSDOF 1
ENDMDL
