MODEL 1
REMARK minimizedAffinity -2.08235836
REMARK minimizedRMSD -1
REMARK  1 active torsions:
REMARK  status: ('A' for Active; 'I' for Inactive)
REMARK    1  A    between atoms: N_2  and  C1_3 
ROOT
ATOM      1  C1  UNL d   1       1.233   0.305   0.983  0.00  0.00     0.143 A 
ATOM      2  C2  UNL d   1       2.273   0.903   1.702  0.00  0.00    -0.057 A 
ATOM      3  C3  UNL d   1       2.744   0.345   2.897  0.00  0.00     0.033 A 
ATOM      4  C4  UNL d   1       2.161  -0.809   3.410  0.00  0.00    -0.042 A 
ATOM      5  C5  UNL d   1       1.109  -1.406   2.725  0.00  0.00     0.033 A 
ATOM      6  C6  UNL d   1       0.648  -0.848   1.529  0.00  0.00    -0.057 A 
ENDROOT
BRANCH   1   7
ATOM      7  N   UNL d   1       0.655   0.865  -0.159  0.00  0.00    -0.732 N 
ATOM      8  C   UNL d   1       0.571   2.301  -0.314  0.00  0.00     0.284 C 
ATOM      9  H3  UNL d   1       0.914   0.369  -1.009  0.00  0.00     0.395 HD
ENDBRANCH   1   7
TORSDOF 1
ENDMDL
