MODEL 1
REMARK minimizedAffinity 4.21854305
REMARK minimizedRMSD -1
REMARK  1 active torsions:
REMARK  status: ('A' for Active; 'I' for Inactive)
REMARK    1  A    between atoms: N_2  and  C1_3 
ROOT
ATOM      1  C1  UNL d   1      -0.981  -1.204   0.371  0.00  0.00     0.143 A 
ATOM      2  C2  UNL d   1      -1.206  -1.640  -0.939  0.00  0.00    -0.057 A 
ATOM      3  C3  UNL d   1      -0.851  -2.932  -1.345  0.00  0.00     0.033 A 
ATOM      4  C4  UNL d   1      -0.237  -3.804  -0.453  0.00  0.00    -0.042 A 
ATOM      5  C5  UNL d   1       0.020  -3.383   0.847  0.00  0.00     0.033 A 
ATOM      6  C6  UNL d   1      -0.343  -2.094   1.249  0.00  0.00    -0.057 A 
ENDROOT
BRANCH   1   7
ATOM      7  N   UNL d   1      -1.220   0.101   0.808  0.00  0.00    -0.732 N 
ATOM      8  C   UNL d   1      -0.707   1.233   0.067  0.00  0.00     0.284 C 
ATOM      9  H3  UNL d   1      -2.169   0.227   1.154  0.00  0.00     0.395 HD
ENDBRANCH   1   7
TORSDOF 1
ENDMDL
