MODEL 1
REMARK minimizedAffinity 10.1628056
REMARK minimizedRMSD -1
REMARK  3 active torsions:
REMARK  status: ('A' for Active; 'I' for Inactive)
REMARK    1  A    between atoms: C3'_2  and  C2'_3 
REMARK    2  A    between atoms: C2'_3  and  C1'_4 
REMARK    3  A    between atoms: C1'_4  and  C1_5 
ROOT
ATOM      1  C1  N4B d   1      -4.668   0.677  -1.770  0.00  0.00    -0.075 A 
ATOM      2  C2  N4B d   1      -4.111   0.796  -3.062  0.00  0.00     0.002 A 
ATOM      3  C3  N4B d   1      -3.013   1.596  -3.266  0.00  0.00     0.002 A 
ATOM      4  C4  N4B d   1      -2.469   2.298  -2.201  0.00  0.00    -0.004 A 
ATOM      5  C5  N4B d   1      -2.997   2.157  -0.951  0.00  0.00     0.002 A 
ATOM      6  C6  N4B d   1      -4.098   1.354  -0.731  0.00  0.00     0.002 A 
ENDROOT
BRANCH   1   7
ATOM      7  C1' N4B d   1      -5.920  -0.117  -1.515  0.00  0.00     0.057 C 
BRANCH   7   8
ATOM      8  C2' N4B d   1      -5.757  -1.512  -2.110  0.00  0.00     0.009 C 
BRANCH   8   9
ATOM      9  C3' N4B d   1      -6.000  -2.601  -1.079  0.00  0.00     0.004 C 
ATOM     10  C4' N4B d   1      -4.749  -3.342  -0.712  0.00  0.00     0.003 C 
ENDBRANCH   8   9
ENDBRANCH   7   8
ENDBRANCH   1   7
TORSDOF 3
ENDMDL
