MODEL 1
REMARK minimizedAffinity 11.0794153
REMARK minimizedRMSD -1
REMARK  3 active torsions:
REMARK  status: ('A' for Active; 'I' for Inactive)
REMARK    1  A    between atoms: C3'_2  and  C2'_3 
REMARK    2  A    between atoms: C2'_3  and  C1'_4 
REMARK    3  A    between atoms: C1'_4  and  C1_5 
ROOT
ATOM      1  C1  N4B d   1       4.412   0.027  -3.932  0.00  0.00    -0.075 A 
ATOM      2  C2  N4B d   1       3.636   1.207  -3.976  0.00  0.00     0.002 A 
ATOM      3  C3  N4B d   1       3.795   2.095  -5.011  0.00  0.00     0.002 A 
ATOM      4  C4  N4B d   1       4.733   1.835  -6.000  0.00  0.00    -0.004 A 
ATOM      5  C5  N4B d   1       5.459   0.681  -5.964  0.00  0.00     0.002 A 
ATOM      6  C6  N4B d   1       5.307  -0.222  -4.931  0.00  0.00     0.002 A 
ENDROOT
BRANCH   1   7
ATOM      7  C1' N4B d   1       4.334  -0.931  -2.776  0.00  0.00     0.057 C 
BRANCH   7   8
ATOM      8  C2' N4B d   1       3.449  -0.332  -1.687  0.00  0.00     0.009 C 
BRANCH   8   9
ATOM      9  C3' N4B d   1       2.640  -1.395  -0.963  0.00  0.00     0.004 C 
ATOM     10  C4' N4B d   1       2.255  -0.985   0.427  0.00  0.00     0.003 C 
ENDBRANCH   8   9
ENDBRANCH   7   8
ENDBRANCH   1   7
TORSDOF 3
ENDMDL
