MODEL 1
REMARK minimizedAffinity 1.39981663
REMARK minimizedRMSD -1
REMARK  3 active torsions:
REMARK  status: ('A' for Active; 'I' for Inactive)
REMARK    1  A    between atoms: C3'_2  and  C2'_3 
REMARK    2  A    between atoms: C2'_3  and  C1'_4 
REMARK    3  A    between atoms: C1'_4  and  C1_5 
ROOT
ATOM      1  C1  N4B d   1       4.593  -1.675  -3.895  0.00  0.00    -0.075 A 
ATOM      2  C2  N4B d   1       5.699  -1.914  -4.740  0.00  0.00     0.002 A 
ATOM      3  C3  N4B d   1       5.969  -1.056  -5.777  0.00  0.00     0.002 A 
ATOM      4  C4  N4B d   1       5.139   0.033  -5.999  0.00  0.00    -0.004 A 
ATOM      5  C5  N4B d   1       4.088   0.271  -5.163  0.00  0.00     0.002 A 
ATOM      6  C6  N4B d   1       3.808  -0.581  -4.114  0.00  0.00     0.002 A 
ENDROOT
BRANCH   1   7
ATOM      7  C1' N4B d   1       4.208  -2.633  -2.800  0.00  0.00     0.057 C 
BRANCH   7   8
ATOM      8  C2' N4B d   1       3.287  -1.922  -1.814  0.00  0.00     0.009 C 
BRANCH   8   9
ATOM      9  C3' N4B d   1       4.018  -1.517  -0.545  0.00  0.00     0.004 C 
ATOM     10  C4' N4B d   1       3.087  -1.237   0.597  0.00  0.00     0.003 C 
ENDBRANCH   8   9
ENDBRANCH   7   8
ENDBRANCH   1   7
TORSDOF 3
ENDMDL
