MODEL 1
REMARK minimizedAffinity 10.8504925
REMARK minimizedRMSD -1
REMARK  3 active torsions:
REMARK  status: ('A' for Active; 'I' for Inactive)
REMARK    1  A    between atoms: C3'_2  and  C2'_3 
REMARK    2  A    between atoms: C2'_3  and  C1'_4 
REMARK    3  A    between atoms: C1'_4  and  C1_5 
ROOT
ATOM      1  C1  N4B d   1      -4.012   1.759  -2.268  0.00  0.00    -0.075 A 
ATOM      2  C2  N4B d   1      -3.304   2.250  -1.149  0.00  0.00     0.002 A 
ATOM      3  C3  N4B d   1      -3.924   3.094  -0.260  0.00  0.00     0.002 A 
ATOM      4  C4  N4B d   1      -5.239   3.475  -0.480  0.00  0.00    -0.004 A 
ATOM      5  C5  N4B d   1      -5.924   2.977  -1.550  0.00  0.00     0.002 A 
ATOM      6  C6  N4B d   1      -5.315   2.124  -2.448  0.00  0.00     0.002 A 
ENDROOT
BRANCH   1   7
ATOM      7  C1' N4B d   1      -3.351   0.903  -3.313  0.00  0.00     0.057 C 
BRANCH   7   8
ATOM      8  C2' N4B d   1      -4.277  -0.256  -3.671  0.00  0.00     0.009 C 
BRANCH   8   9
ATOM      9  C3' N4B d   1      -3.552  -1.346  -4.440  0.00  0.00     0.004 C 
ATOM     10  C4' N4B d   1      -4.473  -2.427  -4.923  0.00  0.00     0.003 C 
ENDBRANCH   8   9
ENDBRANCH   7   8
ENDBRANCH   1   7
TORSDOF 3
ENDMDL
