MODEL 1
REMARK minimizedAffinity 14.2980499
REMARK minimizedRMSD -1
REMARK  3 active torsions:
REMARK  status: ('A' for Active; 'I' for Inactive)
REMARK    1  A    between atoms: C3'_2  and  C2'_3 
REMARK    2  A    between atoms: C2'_3  and  C1'_4 
REMARK    3  A    between atoms: C1'_4  and  C1_5 
ROOT
ATOM      1  C1  N4B d   1       2.128  -5.676   4.879  0.00  0.00    -0.075 A 
ATOM      2  C2  N4B d   1       1.301  -5.992   5.979  0.00  0.00     0.002 A 
ATOM      3  C3  N4B d   1      -0.065  -5.962   5.842  0.00  0.00     0.002 A 
ATOM      4  C4  N4B d   1      -0.625  -5.603   4.625  0.00  0.00    -0.004 A 
ATOM      5  C5  N4B d   1       0.181  -5.324   3.560  0.00  0.00     0.002 A 
ATOM      6  C6  N4B d   1       1.555  -5.354   3.682  0.00  0.00     0.002 A 
ENDROOT
BRANCH   1   7
ATOM      7  C1' N4B d   1       3.625  -5.611   5.004  0.00  0.00     0.057 C 
BRANCH   7   8
ATOM      8  C2' N4B d   1       4.005  -4.401   5.851  0.00  0.00     0.009 C 
BRANCH   8   9
ATOM      9  C3' N4B d   1       5.430  -3.945   5.585  0.00  0.00     0.004 C 
ATOM     10  C4' N4B d   1       5.947  -4.405   4.254  0.00  0.00     0.003 C 
ENDBRANCH   8   9
ENDBRANCH   7   8
ENDBRANCH   1   7
TORSDOF 3
ENDMDL
