MODEL 1
REMARK minimizedAffinity -3.92810488
REMARK minimizedRMSD -1
REMARK  1 active torsions:
REMARK  status: ('A' for Active; 'I' for Inactive)
REMARK    1  A    between atoms: C3_4  and  O_7 
ROOT
ATOM      1  C   UNL d   1       0.716  -0.273  -0.881  0.00  0.00    -0.033 A 
ATOM      2  C1  UNL d   1      -0.067   0.756  -1.406  0.00  0.00     0.039 A 
ATOM      3  C2  UNL d   1      -0.748   1.625  -0.551  0.00  0.00    -0.080 A 
ATOM      4  C3  UNL d   1      -0.637   1.453   0.826  0.00  0.00     0.150 A 
ATOM      5  C4  UNL d   1       0.144   0.432   1.357  0.00  0.00    -0.007 A 
ATOM      6  C5  UNL d   1       0.822  -0.434   0.501  0.00  0.00     0.039 A 
ENDROOT
BRANCH   4   7
ATOM      7  O   UNL d   1      -1.287   2.273   1.701  0.00  0.00    -0.526 OA
ATOM      8  H5  UNL d   1      -1.811   2.913   1.191  0.00  0.00     0.418 HD
ENDBRANCH   4   7
TORSDOF 1
ENDMDL
