MODEL 1
REMARK minimizedAffinity -0.578132033
REMARK minimizedRMSD -1
REMARK  1 active torsions:
REMARK  status: ('A' for Active; 'I' for Inactive)
REMARK    1  A    between atoms: C3_4  and  O_7 
ROOT
ATOM      1  C   UNL d   1       0.020   0.378   1.687  0.00  0.00    -0.033 A 
ATOM      2  C1  UNL d   1       0.032   1.763   1.507  0.00  0.00     0.039 A 
ATOM      3  C2  UNL d   1       0.021   2.301   0.219  0.00  0.00    -0.080 A 
ATOM      4  C3  UNL d   1      -0.002   1.446  -0.879  0.00  0.00     0.150 A 
ATOM      5  C4  UNL d   1      -0.018   0.065  -0.707  0.00  0.00    -0.007 A 
ATOM      6  C5  UNL d   1      -0.006  -0.470   0.580  0.00  0.00     0.039 A 
ENDROOT
BRANCH   4   7
ATOM      7  O   UNL d   1      -0.008   1.924  -2.155  0.00  0.00    -0.526 OA
ATOM      8  H5  UNL d   1       0.033   2.895  -2.120  0.00  0.00     0.418 HD
ENDBRANCH   4   7
TORSDOF 1
ENDMDL
