MODEL 1
REMARK minimizedAffinity -3.09528351
REMARK minimizedRMSD -1
REMARK  1 active torsions:
REMARK  status: ('A' for Active; 'I' for Inactive)
REMARK    1  A    between atoms: C3_4  and  O_7 
ROOT
ATOM      1  C   UNL d   1      -1.071  -4.390  -1.808  0.00  0.00    -0.033 A 
ATOM      2  C1  UNL d   1      -0.183  -4.220  -0.743  0.00  0.00     0.039 A 
ATOM      3  C2  UNL d   1       0.196  -2.936  -0.347  0.00  0.00    -0.080 A 
ATOM      4  C3  UNL d   1      -0.319  -1.832  -1.021  0.00  0.00     0.150 A 
ATOM      5  C4  UNL d   1      -1.207  -1.994  -2.080  0.00  0.00    -0.007 A 
ATOM      6  C5  UNL d   1      -1.584  -3.277  -2.475  0.00  0.00     0.039 A 
ENDROOT
BRANCH   4   7
ATOM      7  O   UNL d   1       0.025  -0.560  -0.673  0.00  0.00    -0.526 OA
ATOM      8  H5  UNL d   1       0.667  -0.603   0.055  0.00  0.00     0.418 HD
ENDBRANCH   4   7
TORSDOF 1
ENDMDL
