MODEL 1
REMARK minimizedAffinity -5.13834476
REMARK minimizedRMSD -1
REMARK  1 active torsions:
REMARK  status: ('A' for Active; 'I' for Inactive)
REMARK    1  A    between atoms: C3_4  and  O_7 
ROOT
ATOM      1  C   UNL d   1      -1.206   2.473   1.016  0.00  0.00    -0.033 A 
ATOM      2  C1  UNL d   1      -1.535   1.373   1.811  0.00  0.00     0.039 A 
ATOM      3  C2  UNL d   1      -1.348   0.077   1.325  0.00  0.00    -0.080 A 
ATOM      4  C3  UNL d   1      -0.832  -0.104   0.045  0.00  0.00     0.150 A 
ATOM      5  C4  UNL d   1      -0.498   0.987  -0.751  0.00  0.00    -0.007 A 
ATOM      6  C5  UNL d   1      -0.686   2.280  -0.264  0.00  0.00     0.039 A 
ENDROOT
BRANCH   4   7
ATOM      7  O   UNL d   1      -0.636  -1.350  -0.475  0.00  0.00    -0.526 OA
ATOM      8  H5  UNL d   1      -0.938  -2.005   0.176  0.00  0.00     0.418 HD
ENDBRANCH   4   7
TORSDOF 1
ENDMDL
