MODEL 1
REMARK minimizedAffinity 2.25060844
REMARK minimizedRMSD -1
REMARK  1 active torsions:
REMARK  status: ('A' for Active; 'I' for Inactive)
REMARK    1  A    between atoms: C3_4  and  O_7 
ROOT
ATOM      1  C   UNL d   1      -1.489  -1.739  -2.773  0.00  0.00    -0.033 A 
ATOM      2  C1  UNL d   1      -1.950  -2.987  -3.195  0.00  0.00     0.039 A 
ATOM      3  C2  UNL d   1      -1.345  -4.153  -2.721  0.00  0.00    -0.080 A 
ATOM      4  C3  UNL d   1      -0.283  -4.057  -1.826  0.00  0.00     0.150 A 
ATOM      5  C4  UNL d   1       0.178  -2.816  -1.398  0.00  0.00    -0.007 A 
ATOM      6  C5  UNL d   1      -0.426  -1.653  -1.874  0.00  0.00     0.039 A 
ENDROOT
BRANCH   4   7
ATOM      7  O   UNL d   1       0.341  -5.167  -1.339  0.00  0.00    -0.526 OA
ATOM      8  H5  UNL d   1      -0.065  -5.951  -1.744  0.00  0.00     0.418 HD
ENDBRANCH   4   7
TORSDOF 1
ENDMDL
