MODEL 1
REMARK minimizedAffinity 1.20276451
REMARK minimizedRMSD -1
REMARK  1 active torsions:
REMARK  status: ('A' for Active; 'I' for Inactive)
REMARK    1  A    between atoms: C3_4  and  O_7 
ROOT
ATOM      1  C   UNL d   1       3.490  -4.963  -2.826  0.00  0.00    -0.033 A 
ATOM      2  C1  UNL d   1       4.385  -4.388  -3.729  0.00  0.00     0.039 A 
ATOM      3  C2  UNL d   1       5.239  -3.364  -3.313  0.00  0.00    -0.080 A 
ATOM      4  C3  UNL d   1       5.187  -2.926  -1.992  0.00  0.00     0.150 A 
ATOM      5  C4  UNL d   1       4.300  -3.498  -1.086  0.00  0.00    -0.007 A 
ATOM      6  C5  UNL d   1       3.448  -4.519  -1.504  0.00  0.00     0.039 A 
ENDROOT
BRANCH   4   7
ATOM      7  O   UNL d   1       5.997  -1.927  -1.541  0.00  0.00    -0.526 OA
ATOM      8  H5  UNL d   1       6.536  -1.609  -2.284  0.00  0.00     0.418 HD
ENDBRANCH   4   7
TORSDOF 1
ENDMDL
