MODEL 1
REMARK minimizedAffinity 2.52484226
REMARK minimizedRMSD -1
REMARK  1 active torsions:
REMARK  status: ('A' for Active; 'I' for Inactive)
REMARK    1  A    between atoms: C3_4  and  O_7 
ROOT
ATOM      1  C   UNL d   1      -0.591   1.924   2.719  0.00  0.00    -0.033 A 
ATOM      2  C1  UNL d   1      -1.630   2.736   2.262  0.00  0.00     0.039 A 
ATOM      3  C2  UNL d   1      -1.715   3.069   0.909  0.00  0.00    -0.080 A 
ATOM      4  C3  UNL d   1      -0.756   2.584   0.024  0.00  0.00     0.150 A 
ATOM      5  C4  UNL d   1       0.280   1.771   0.472  0.00  0.00    -0.007 A 
ATOM      6  C5  UNL d   1       0.364   1.440   1.824  0.00  0.00     0.039 A 
ENDROOT
BRANCH   4   7
ATOM      7  O   UNL d   1      -0.795   2.886  -1.304  0.00  0.00    -0.526 OA
ATOM      8  H5  UNL d   1      -1.548   3.479  -1.463  0.00  0.00     0.418 HD
ENDBRANCH   4   7
TORSDOF 1
ENDMDL
