MODEL 1
REMARK minimizedAffinity -0.48379752
REMARK minimizedRMSD -1
REMARK  1 active torsions:
REMARK  status: ('A' for Active; 'I' for Inactive)
REMARK    1  A    between atoms: C1_2  and  C2_3 
ROOT
ATOM      1  C2  UNL d   1       2.278   0.215   2.450  0.00  0.00    -0.077 A 
ATOM      2  C3  UNL d   1       1.703   0.431   3.710  0.00  0.00     0.002 A 
ATOM      3  C4  UNL d   1       1.083  -0.618   4.393  0.00  0.00     0.002 A 
ATOM      4  C5  UNL d   1       1.037  -1.889   3.825  0.00  0.00    -0.004 A 
ATOM      5  C6  UNL d   1       1.605  -2.114   2.572  0.00  0.00     0.002 A 
ATOM      6  C7  UNL d   1       2.223  -1.066   1.888  0.00  0.00     0.002 A 
ENDROOT
BRANCH   1   7
ATOM      7  C1  UNL d   1       2.990   1.334   1.734  0.00  0.00     0.055 C 
ATOM      8  C   UNL d   1       3.842   0.804   0.590  0.00  0.00     0.019 C 
ENDBRANCH   1   7
TORSDOF 1
ENDMDL
