MODEL 1
REMARK minimizedAffinity 1.64187777
REMARK minimizedRMSD -1
REMARK  1 active torsions:
REMARK  status: ('A' for Active; 'I' for Inactive)
REMARK    1  A    between atoms: C1_2  and  C2_3 
ROOT
ATOM      1  C2  UNL d   1       3.624  -5.966  -3.192  0.00  0.00    -0.077 A 
ATOM      2  C3  UNL d   1       2.223  -5.982  -3.184  0.00  0.00     0.002 A 
ATOM      3  C4  UNL d   1       1.509  -5.996  -4.384  0.00  0.00     0.002 A 
ATOM      4  C5  UNL d   1       2.189  -6.000  -5.600  0.00  0.00    -0.004 A 
ATOM      5  C6  UNL d   1       3.583  -5.982  -5.619  0.00  0.00     0.002 A 
ATOM      6  C7  UNL d   1       4.298  -5.966  -4.420  0.00  0.00     0.002 A 
ENDROOT
BRANCH   1   7
ATOM      7  C1  UNL d   1       4.396  -6.000  -1.899  0.00  0.00     0.055 C 
ATOM      8  C   UNL d   1       3.465  -5.938  -0.697  0.00  0.00     0.019 C 
ENDBRANCH   1   7
TORSDOF 1
ENDMDL
