MODEL 1
REMARK minimizedAffinity -2.72481751
REMARK minimizedRMSD -1
REMARK  1 active torsions:
REMARK  status: ('A' for Active; 'I' for Inactive)
REMARK    1  A    between atoms: C1_2  and  C2_3 
ROOT
ATOM      1  C2  UNL d   1       3.340  -5.794  -4.816  0.00  0.00    -0.077 A 
ATOM      2  C3  UNL d   1       2.817  -5.899  -3.519  0.00  0.00     0.002 A 
ATOM      3  C4  UNL d   1       3.671  -5.997  -2.419  0.00  0.00     0.002 A 
ATOM      4  C5  UNL d   1       5.052  -5.989  -2.604  0.00  0.00    -0.004 A 
ATOM      5  C6  UNL d   1       5.582  -5.888  -3.890  0.00  0.00     0.002 A 
ATOM      6  C7  UNL d   1       4.730  -5.790  -4.991  0.00  0.00     0.002 A 
ENDROOT
BRANCH   1   7
ATOM      7  C1  UNL d   1       2.421  -5.638  -5.999  0.00  0.00     0.055 C 
ATOM      8  C   UNL d   1       0.987  -5.999  -5.638  0.00  0.00     0.019 C 
ENDBRANCH   1   7
TORSDOF 1
ENDMDL
