MODEL 1
REMARK minimizedAffinity 2.57706475
REMARK minimizedRMSD -1
REMARK  1 active torsions:
REMARK  status: ('A' for Active; 'I' for Inactive)
REMARK    1  A    between atoms: C1_2  and  C2_3 
ROOT
ATOM      1  C2  UNL d   1       3.293  -5.996   0.433  0.00  0.00    -0.077 A 
ATOM      2  C3  UNL d   1       4.668  -6.000   0.702  0.00  0.00     0.002 A 
ATOM      3  C4  UNL d   1       5.593  -5.999  -0.344  0.00  0.00     0.002 A 
ATOM      4  C5  UNL d   1       5.152  -5.990  -1.665  0.00  0.00    -0.004 A 
ATOM      5  C6  UNL d   1       3.786  -5.989  -1.944  0.00  0.00     0.002 A 
ATOM      6  C7  UNL d   1       2.861  -5.991  -0.900  0.00  0.00     0.002 A 
ENDROOT
BRANCH   1   7
ATOM      7  C1  UNL d   1       2.294  -5.948   1.560  0.00  0.00     0.055 C 
ATOM      8  C   UNL d   1       2.272  -4.577   2.220  0.00  0.00     0.019 C 
ENDBRANCH   1   7
TORSDOF 1
ENDMDL
