MODEL 1
REMARK minimizedAffinity 3.89562225
REMARK minimizedRMSD -1
REMARK  1 active torsions:
REMARK  status: ('A' for Active; 'I' for Inactive)
REMARK    1  A    between atoms: C1_2  and  C2_3 
ROOT
ATOM      1  C2  UNL d   1       3.760  -5.920  -2.166  0.00  0.00    -0.077 A 
ATOM      2  C3  UNL d   1       2.432  -5.907  -2.615  0.00  0.00     0.002 A 
ATOM      3  C4  UNL d   1       2.148  -5.935  -3.982  0.00  0.00     0.002 A 
ATOM      4  C5  UNL d   1       3.186  -5.980  -4.910  0.00  0.00    -0.004 A 
ATOM      5  C6  UNL d   1       4.510  -5.992  -4.473  0.00  0.00     0.002 A 
ATOM      6  C7  UNL d   1       4.796  -5.963  -3.107  0.00  0.00     0.002 A 
ENDROOT
BRANCH   1   7
ATOM      7  C1  UNL d   1       4.067  -5.940  -0.691  0.00  0.00     0.055 C 
ATOM      8  C   UNL d   1       2.792  -5.956   0.140  0.00  0.00     0.019 C 
ENDBRANCH   1   7
TORSDOF 1
ENDMDL
