MODEL 1
REMARK minimizedAffinity 0.373788089
REMARK minimizedRMSD -1
REMARK  1 active torsions:
REMARK  status: ('A' for Active; 'I' for Inactive)
REMARK    1  A    between atoms: C1_2  and  C2_3 
ROOT
ATOM      1  C2  UNL d   1       3.105  -5.928  -1.534  0.00  0.00    -0.077 A 
ATOM      2  C3  UNL d   1       1.819  -6.000  -2.089  0.00  0.00     0.002 A 
ATOM      3  C4  UNL d   1       1.647  -5.979  -3.475  0.00  0.00     0.002 A 
ATOM      4  C5  UNL d   1       2.754  -5.890  -4.315  0.00  0.00    -0.004 A 
ATOM      5  C6  UNL d   1       4.036  -5.816  -3.773  0.00  0.00     0.002 A 
ATOM      6  C7  UNL d   1       4.211  -5.836  -2.388  0.00  0.00     0.002 A 
ENDROOT
BRANCH   1   7
ATOM      7  C1  UNL d   1       3.297  -6.000  -0.042  0.00  0.00     0.055 C 
ATOM      8  C   UNL d   1       1.964  -5.949   0.691  0.00  0.00     0.019 C 
ENDBRANCH   1   7
TORSDOF 1
ENDMDL
