MODEL 1
REMARK minimizedAffinity 5.20687819
REMARK minimizedRMSD -1
REMARK  2 active torsions:
REMARK  status: ('A' for Active; 'I' for Inactive)
REMARK    1  A    between atoms: C1_2  and  C2_3 
REMARK    2  A    between atoms: C2_3  and  C3_4 
ROOT
ATOM      1  C3  UNL d   1      -0.792   3.678  -0.683  0.00  0.00    -0.075 A 
ATOM      2  C4  UNL d   1      -1.019   4.946  -1.239  0.00  0.00     0.002 A 
ATOM      3  C5  UNL d   1       0.037   5.839  -1.421  0.00  0.00     0.002 A 
ATOM      4  C6  UNL d   1       1.329   5.481  -1.041  0.00  0.00    -0.004 A 
ATOM      5  C7  UNL d   1       1.563   4.231  -0.472  0.00  0.00     0.002 A 
ATOM      6  C8  UNL d   1       0.509   3.334  -0.293  0.00  0.00     0.002 A 
ENDROOT
BRANCH   1   7
ATOM      7  C2  UNL d   1      -1.926   2.696  -0.511  0.00  0.00     0.056 C 
BRANCH   7   8
ATOM      8  C1  UNL d   1      -2.599   2.283  -1.824  0.00  0.00     0.007 C 
ATOM      9  C   UNL d   1      -1.675   1.509  -2.755  0.00  0.00     0.009 C 
ENDBRANCH   7   8
ENDBRANCH   1   7
TORSDOF 2
ENDMDL
