MODEL 1
REMARK minimizedAffinity 3.23209548
REMARK minimizedRMSD -1
REMARK  2 active torsions:
REMARK  status: ('A' for Active; 'I' for Inactive)
REMARK    1  A    between atoms: C1_2  and  C2_3 
REMARK    2  A    between atoms: C2_3  and  C3_4 
ROOT
ATOM      1  C3  UNL d   1       0.749   1.045  -0.148  0.00  0.00    -0.075 A 
ATOM      2  C4  UNL d   1       1.133   0.610   1.129  0.00  0.00     0.002 A 
ATOM      3  C5  UNL d   1       1.796  -0.606   1.294  0.00  0.00     0.002 A 
ATOM      4  C6  UNL d   1       2.074  -1.407   0.188  0.00  0.00    -0.004 A 
ATOM      5  C7  UNL d   1       1.682  -0.993  -1.083  0.00  0.00     0.002 A 
ATOM      6  C8  UNL d   1       1.023   0.226  -1.251  0.00  0.00     0.002 A 
ENDROOT
BRANCH   1   7
ATOM      7  C2  UNL d   1       0.057   2.374  -0.336  0.00  0.00     0.056 C 
BRANCH   7   8
ATOM      8  C1  UNL d   1       0.871   3.575   0.156  0.00  0.00     0.007 C 
ATOM      9  C   UNL d   1       1.068   4.645  -0.910  0.00  0.00     0.009 C 
ENDBRANCH   7   8
ENDBRANCH   1   7
TORSDOF 2
ENDMDL
