MODEL 1
REMARK minimizedAffinity 1.11209667
REMARK minimizedRMSD -1
REMARK  2 active torsions:
REMARK  status: ('A' for Active; 'I' for Inactive)
REMARK    1  A    between atoms: C1_2  and  C2_3 
REMARK    2  A    between atoms: C2_3  and  C3_4 
ROOT
ATOM      1  C3  UNL d   1       0.554   0.267  -1.620  0.00  0.00    -0.075 A 
ATOM      2  C4  UNL d   1       0.151   1.565  -1.273  0.00  0.00     0.002 A 
ATOM      3  C5  UNL d   1       0.434   2.080  -0.008  0.00  0.00     0.002 A 
ATOM      4  C6  UNL d   1       1.112   1.302   0.928  0.00  0.00    -0.004 A 
ATOM      5  C7  UNL d   1       1.503   0.006   0.600  0.00  0.00     0.002 A 
ATOM      6  C8  UNL d   1       1.225  -0.510  -0.667  0.00  0.00     0.002 A 
ENDROOT
BRANCH   1   7
ATOM      7  C2  UNL d   1       0.277  -0.285  -2.998  0.00  0.00     0.056 C 
BRANCH   7   8
ATOM      8  C1  UNL d   1      -1.059   0.170  -3.596  0.00  0.00     0.007 C 
ATOM      9  C   UNL d   1      -1.958  -0.988  -4.008  0.00  0.00     0.009 C 
ENDBRANCH   7   8
ENDBRANCH   1   7
TORSDOF 2
ENDMDL
