MODEL 1
REMARK minimizedAffinity 7.20826387
REMARK minimizedRMSD -1
REMARK  2 active torsions:
REMARK  status: ('A' for Active; 'I' for Inactive)
REMARK    1  A    between atoms: C1_2  and  C2_3 
REMARK    2  A    between atoms: C2_3  and  C3_4 
ROOT
ATOM      1  C3  UNL d   1      -2.870   3.067  -4.836  0.00  0.00    -0.075 A 
ATOM      2  C4  UNL d   1      -1.831   3.979  -5.069  0.00  0.00     0.002 A 
ATOM      3  C5  UNL d   1      -2.077   5.352  -5.056  0.00  0.00     0.002 A 
ATOM      4  C6  UNL d   1      -3.364   5.830  -4.820  0.00  0.00    -0.004 A 
ATOM      5  C7  UNL d   1      -4.407   4.933  -4.603  0.00  0.00     0.002 A 
ATOM      6  C8  UNL d   1      -4.163   3.558  -4.611  0.00  0.00     0.002 A 
ENDROOT
BRANCH   1   7
ATOM      7  C2  UNL d   1      -2.605   1.580  -4.820  0.00  0.00     0.056 C 
BRANCH   7   8
ATOM      8  C1  UNL d   1      -1.519   1.151  -3.827  0.00  0.00     0.007 C 
ATOM      9  C   UNL d   1      -0.250   0.652  -4.505  0.00  0.00     0.009 C 
ENDBRANCH   7   8
ENDBRANCH   1   7
TORSDOF 2
ENDMDL
