MODEL 1
REMARK minimizedAffinity 8.66135025
REMARK minimizedRMSD -1
REMARK  2 active torsions:
REMARK  status: ('A' for Active; 'I' for Inactive)
REMARK    1  A    between atoms: C1_2  and  C2_3 
REMARK    2  A    between atoms: C2_3  and  C3_4 
ROOT
ATOM      1  C3  UNL d   1       1.279   3.596   0.057  0.00  0.00    -0.075 A 
ATOM      2  C4  UNL d   1      -0.019   4.044  -0.229  0.00  0.00     0.002 A 
ATOM      3  C5  UNL d   1      -0.219   5.236  -0.926  0.00  0.00     0.002 A 
ATOM      4  C6  UNL d   1       0.873   5.999  -1.335  0.00  0.00    -0.004 A 
ATOM      5  C7  UNL d   1       2.166   5.571  -1.041  0.00  0.00     0.002 A 
ATOM      6  C8  UNL d   1       2.369   4.377  -0.348  0.00  0.00     0.002 A 
ENDROOT
BRANCH   1   7
ATOM      7  C2  UNL d   1       1.502   2.291   0.785  0.00  0.00     0.056 C 
BRANCH   7   8
ATOM      8  C1  UNL d   1       0.553   1.167   0.355  0.00  0.00     0.007 C 
ATOM      9  C   UNL d   1       1.039   0.407  -0.872  0.00  0.00     0.009 C 
ENDBRANCH   7   8
ENDBRANCH   1   7
TORSDOF 2
ENDMDL
