MODEL 1
REMARK minimizedAffinity -0.772386789
REMARK minimizedRMSD -1
REMARK  2 active torsions:
REMARK  status: ('A' for Active; 'I' for Inactive)
REMARK    1  A    between atoms: C1_2  and  C2_3 
REMARK    2  A    between atoms: C2_3  and  C3_4 
ROOT
ATOM      1  C3  UNL d   1      -4.929   2.770  -5.387  0.00  0.00    -0.075 A 
ATOM      2  C4  UNL d   1      -3.944   3.127  -4.455  0.00  0.00     0.002 A 
ATOM      3  C5  UNL d   1      -3.731   4.466  -4.126  0.00  0.00     0.002 A 
ATOM      4  C6  UNL d   1      -4.491   5.464  -4.732  0.00  0.00    -0.004 A 
ATOM      5  C7  UNL d   1      -5.461   5.123  -5.672  0.00  0.00     0.002 A 
ATOM      6  C8  UNL d   1      -5.679   3.783  -5.999  0.00  0.00     0.002 A 
ENDROOT
BRANCH   1   7
ATOM      7  C2  UNL d   1      -5.184   1.321  -5.725  0.00  0.00     0.056 C 
BRANCH   7   8
ATOM      8  C1  UNL d   1      -5.898   0.539  -4.618  0.00  0.00     0.007 C 
ATOM      9  C   UNL d   1      -5.554   1.030  -3.218  0.00  0.00     0.009 C 
ENDBRANCH   7   8
ENDBRANCH   1   7
TORSDOF 2
ENDMDL
