MODEL 1
REMARK minimizedAffinity 0.172618851
REMARK minimizedRMSD -1
REMARK  2 active torsions:
REMARK  status: ('A' for Active; 'I' for Inactive)
REMARK    1  A    between atoms: C1_2  and  C2_3 
REMARK    2  A    between atoms: C2_3  and  C3_4 
ROOT
ATOM      1  C3  UNL d   1      -5.244   2.772  -4.900  0.00  0.00    -0.075 A 
ATOM      2  C4  UNL d   1      -5.922   3.844  -5.498  0.00  0.00     0.002 A 
ATOM      3  C5  UNL d   1      -5.216   4.938  -5.999  0.00  0.00     0.002 A 
ATOM      4  C6  UNL d   1      -3.827   4.980  -5.899  0.00  0.00    -0.004 A 
ATOM      5  C7  UNL d   1      -3.144   3.928  -5.291  0.00  0.00     0.002 A 
ATOM      6  C8  UNL d   1      -3.848   2.830  -4.794  0.00  0.00     0.002 A 
ENDROOT
BRANCH   1   7
ATOM      7  C2  UNL d   1      -5.999   1.571  -4.383  0.00  0.00     0.056 C 
BRANCH   7   8
ATOM      8  C1  UNL d   1      -5.999   1.444  -2.856  0.00  0.00     0.007 C 
ATOM      9  C   UNL d   1      -5.143   0.291  -2.350  0.00  0.00     0.009 C 
ENDBRANCH   7   8
ENDBRANCH   1   7
TORSDOF 2
ENDMDL
