MODEL 1
REMARK minimizedAffinity 9.48155689
REMARK minimizedRMSD -1
REMARK  2 active torsions:
REMARK  status: ('A' for Active; 'I' for Inactive)
REMARK    1  A    between atoms: C1_2  and  C2_3 
REMARK    2  A    between atoms: C2_3  and  C3_4 
ROOT
ATOM      1  C3  UNL d   1       0.744   2.414  -0.005  0.00  0.00    -0.075 A 
ATOM      2  C4  UNL d   1       1.200   1.936   1.233  0.00  0.00     0.002 A 
ATOM      3  C5  UNL d   1       1.599   0.607   1.375  0.00  0.00     0.002 A 
ATOM      4  C6  UNL d   1       1.539  -0.262   0.288  0.00  0.00    -0.004 A 
ATOM      5  C7  UNL d   1       1.072   0.198  -0.941  0.00  0.00     0.002 A 
ATOM      6  C8  UNL d   1       0.676   1.528  -1.088  0.00  0.00     0.002 A 
ENDROOT
BRANCH   1   7
ATOM      7  C2  UNL d   1       0.339   3.859  -0.173  0.00  0.00     0.056 C 
BRANCH   7   8
ATOM      8  C1  UNL d   1       1.471   4.773  -0.653  0.00  0.00     0.007 C 
ATOM      9  C   UNL d   1       0.974   5.999  -1.407  0.00  0.00     0.009 C 
ENDBRANCH   7   8
ENDBRANCH   1   7
TORSDOF 2
ENDMDL
