MODEL 1
REMARK minimizedAffinity 12.5642357
REMARK minimizedRMSD -1
REMARK  2 active torsions:
REMARK  status: ('A' for Active; 'I' for Inactive)
REMARK    1  A    between atoms: C1_2  and  C2_3 
REMARK    2  A    between atoms: C2_3  and  C3_4 
ROOT
ATOM      1  C3  UNL d   1       0.771   1.774   0.181  0.00  0.00    -0.075 A 
ATOM      2  C4  UNL d   1       0.883   1.252  -1.116  0.00  0.00     0.002 A 
ATOM      3  C5  UNL d   1       1.630   0.097  -1.352  0.00  0.00     0.002 A 
ATOM      4  C6  UNL d   1       2.281  -0.542  -0.300  0.00  0.00    -0.004 A 
ATOM      5  C7  UNL d   1       2.190  -0.023   0.990  0.00  0.00     0.002 A 
ATOM      6  C8  UNL d   1       1.440   1.130   1.230  0.00  0.00     0.002 A 
ENDROOT
BRANCH   1   7
ATOM      7  C2  UNL d   1      -0.060   3.006   0.448  0.00  0.00     0.056 C 
BRANCH   7   8
ATOM      8  C1  UNL d   1      -1.445   2.979  -0.209  0.00  0.00     0.007 C 
ATOM      9  C   UNL d   1      -2.582   2.838   0.793  0.00  0.00     0.009 C 
ENDBRANCH   7   8
ENDBRANCH   1   7
TORSDOF 2
ENDMDL
