MODEL 1
REMARK minimizedAffinity 0.564301133
REMARK minimizedRMSD -1
REMARK  1 active torsions:
REMARK  status: ('A' for Active; 'I' for Inactive)
REMARK    1  A    between atoms: C1_2  and  C2_3 
ROOT
ATOM      1  C2  UNL d   1      -0.130   1.605   1.491  0.00  0.00    -0.081 A 
ATOM      2  C3  UNL d   1      -0.695   0.380   1.865  0.00  0.00     0.006 A 
ATOM      3  C4  UNL d   1      -1.939   0.338   2.499  0.00  0.00     0.002 A 
ATOM      4  C5  UNL d   1      -2.642   1.519   2.761  0.00  0.00    -0.080 A 
ATOM      5  C6  UNL d   1      -3.993   1.487   3.413  0.00  0.00     0.076 C 
ATOM      6  C7  UNL d   1      -2.069   2.744   2.402  0.00  0.00     0.002 A 
ATOM      7  C8  UNL d   1      -0.825   2.786   1.770  0.00  0.00     0.006 A 
ENDROOT
BRANCH   1   8
ATOM      8  C1  UNL d   1       1.182   1.649   0.750  0.00  0.00     0.054 C 
ATOM      9  C   UNL d   1       1.639   3.082   0.519  0.00  0.00     0.018 C 
ENDBRANCH   1   8
TORSDOF 1
ENDMDL
