MODEL 1
REMARK minimizedAffinity 6.69680023
REMARK minimizedRMSD -1
REMARK  1 active torsions:
REMARK  status: ('A' for Active; 'I' for Inactive)
REMARK    1  A    between atoms: C1_2  and  C2_3 
ROOT
ATOM      1  C2  UNL d   1      -3.465  -1.985  -3.373  0.00  0.00    -0.081 A 
ATOM      2  C3  UNL d   1      -3.551  -3.075  -2.499  0.00  0.00     0.006 A 
ATOM      3  C4  UNL d   1      -4.152  -2.933  -1.246  0.00  0.00     0.002 A 
ATOM      4  C5  UNL d   1      -4.685  -1.702  -0.850  0.00  0.00    -0.080 A 
ATOM      5  C6  UNL d   1      -5.360  -1.544   0.480  0.00  0.00     0.076 C 
ATOM      6  C7  UNL d   1      -4.584  -0.608  -1.716  0.00  0.00     0.002 A 
ATOM      7  C8  UNL d   1      -3.982  -0.749  -2.968  0.00  0.00     0.006 A 
ENDROOT
BRANCH   1   8
ATOM      8  C1  UNL d   1      -2.875  -2.151  -4.750  0.00  0.00     0.054 C 
ATOM      9  C   UNL d   1      -3.841  -2.865  -5.684  0.00  0.00     0.018 C 
ENDBRANCH   1   8
TORSDOF 1
ENDMDL
