MODEL 1
REMARK minimizedAffinity -3.41359901
REMARK minimizedRMSD -1
REMARK  1 active torsions:
REMARK  status: ('A' for Active; 'I' for Inactive)
REMARK    1  A    between atoms: C1_2  and  C2_3 
ROOT
ATOM      1  C2  UNL d   1      -1.447   2.822   1.650  0.00  0.00    -0.081 A 
ATOM      2  C3  UNL d   1      -0.289   2.049   1.498  0.00  0.00     0.006 A 
ATOM      3  C4  UNL d   1      -0.261   0.723   1.936  0.00  0.00     0.002 A 
ATOM      4  C5  UNL d   1      -1.392   0.146   2.525  0.00  0.00    -0.080 A 
ATOM      5  C6  UNL d   1      -1.385  -1.286   2.972  0.00  0.00     0.076 C 
ATOM      6  C7  UNL d   1      -2.543   0.923   2.692  0.00  0.00     0.002 A 
ATOM      7  C8  UNL d   1      -2.571   2.250   2.255  0.00  0.00     0.006 A 
ENDROOT
BRANCH   1   8
ATOM      8  C1  UNL d   1      -1.502   4.233   1.120  0.00  0.00     0.054 C 
ATOM      9  C   UNL d   1      -2.774   4.474   0.320  0.00  0.00     0.018 C 
ENDBRANCH   1   8
TORSDOF 1
ENDMDL
