MODEL 1
REMARK minimizedAffinity 8.96216583
REMARK minimizedRMSD -1
REMARK  1 active torsions:
REMARK  status: ('A' for Active; 'I' for Inactive)
REMARK    1  A    between atoms: C1_2  and  C2_3 
ROOT
ATOM      1  C2  UNL d   1      -4.583   1.718   3.905  0.00  0.00    -0.081 A 
ATOM      2  C3  UNL d   1      -3.743   0.624   3.664  0.00  0.00     0.006 A 
ATOM      3  C4  UNL d   1      -2.613   0.764   2.855  0.00  0.00     0.002 A 
ATOM      4  C5  UNL d   1      -2.300   2.000   2.280  0.00  0.00    -0.080 A 
ATOM      5  C6  UNL d   1      -1.073   2.171   1.435  0.00  0.00     0.076 C 
ATOM      6  C7  UNL d   1      -3.148   3.089   2.507  0.00  0.00     0.002 A 
ATOM      7  C8  UNL d   1      -4.279   2.950   3.315  0.00  0.00     0.006 A 
ENDROOT
BRANCH   1   8
ATOM      8  C1  UNL d   1      -5.767   1.587   4.829  0.00  0.00     0.054 C 
ATOM      9  C   UNL d   1      -5.683   2.579   5.980  0.00  0.00     0.018 C 
ENDBRANCH   1   8
TORSDOF 1
ENDMDL
