MODEL 1
REMARK minimizedAffinity -0.303802729
REMARK minimizedRMSD -1
REMARK  1 active torsions:
REMARK  status: ('A' for Active; 'I' for Inactive)
REMARK    1  A    between atoms: C1_2  and  C2_3 
ROOT
ATOM      1  C2  UNL d   1      -2.509   1.052   2.521  0.00  0.00    -0.081 A 
ATOM      2  C3  UNL d   1      -2.081  -0.114   1.874  0.00  0.00     0.006 A 
ATOM      3  C4  UNL d   1      -0.875  -0.131   1.169  0.00  0.00     0.002 A 
ATOM      4  C5  UNL d   1      -0.074   1.014   1.105  0.00  0.00    -0.080 A 
ATOM      5  C6  UNL d   1       1.237   1.000   0.377  0.00  0.00     0.076 C 
ATOM      6  C7  UNL d   1      -0.509   2.184   1.737  0.00  0.00     0.002 A 
ATOM      7  C8  UNL d   1      -1.715   2.202   2.441  0.00  0.00     0.006 A 
ENDROOT
BRANCH   1   8
ATOM      8  C1  UNL d   1      -3.776   1.055   3.336  0.00  0.00     0.054 C 
ATOM      9  C   UNL d   1      -3.914   2.340   4.140  0.00  0.00     0.018 C 
ENDBRANCH   1   8
TORSDOF 1
ENDMDL
