MODEL 1
REMARK minimizedAffinity 6.92751694
REMARK minimizedRMSD -1
REMARK  1 active torsions:
REMARK  status: ('A' for Active; 'I' for Inactive)
REMARK    1  A    between atoms: C1_2  and  C2_3 
ROOT
ATOM      1  C2  UNL d   1      -2.150   1.171   2.359  0.00  0.00    -0.081 A 
ATOM      2  C3  UNL d   1      -2.293   2.180   1.399  0.00  0.00     0.006 A 
ATOM      3  C4  UNL d   1      -1.189   2.620   0.665  0.00  0.00     0.002 A 
ATOM      4  C5  UNL d   1       0.073   2.054   0.872  0.00  0.00    -0.080 A 
ATOM      5  C6  UNL d   1       1.260   2.496   0.069  0.00  0.00     0.076 C 
ATOM      6  C7  UNL d   1       0.219   1.058   1.844  0.00  0.00     0.002 A 
ATOM      7  C8  UNL d   1      -0.884   0.618   2.579  0.00  0.00     0.006 A 
ENDROOT
BRANCH   1   8
ATOM      8  C1  UNL d   1      -3.351   0.650   3.107  0.00  0.00     0.054 C 
ATOM      9  C   UNL d   1      -4.195   1.788   3.661  0.00  0.00     0.018 C 
ENDBRANCH   1   8
TORSDOF 1
ENDMDL
