MODEL 1
REMARK minimizedAffinity 3.99435973
REMARK minimizedRMSD -1
REMARK  1 active torsions:
REMARK  status: ('A' for Active; 'I' for Inactive)
REMARK    1  A    between atoms: C1_2  and  C2_3 
ROOT
ATOM      1  C2  UNL d   1      -3.305   0.977   3.223  0.00  0.00    -0.081 A 
ATOM      2  C3  UNL d   1      -2.422  -0.073   2.942  0.00  0.00     0.006 A 
ATOM      3  C4  UNL d   1      -1.246   0.164   2.225  0.00  0.00     0.002 A 
ATOM      4  C5  UNL d   1      -0.930   1.454   1.786  0.00  0.00    -0.080 A 
ATOM      5  C6  UNL d   1       0.344   1.727   1.042  0.00  0.00     0.076 C 
ATOM      6  C7  UNL d   1      -1.821   2.499   2.052  0.00  0.00     0.002 A 
ATOM      7  C8  UNL d   1      -2.997   2.263   2.767  0.00  0.00     0.006 A 
ENDROOT
BRANCH   1   8
ATOM      8  C1  UNL d   1      -4.541   0.737   4.051  0.00  0.00     0.054 C 
ATOM      9  C   UNL d   1      -4.860   1.938   4.930  0.00  0.00     0.018 C 
ENDBRANCH   1   8
TORSDOF 1
ENDMDL
