MODEL 1
REMARK minimizedAffinity 7.89519835
REMARK minimizedRMSD -1
REMARK  1 active torsions:
REMARK  status: ('A' for Active; 'I' for Inactive)
REMARK    1  A    between atoms: C1_2  and  C2_3 
ROOT
ATOM      1  C2  UNL d   1      -1.049  -0.668   2.705  0.00  0.00    -0.081 A 
ATOM      2  C3  UNL d   1      -1.624   0.491   2.171  0.00  0.00     0.006 A 
ATOM      3  C4  UNL d   1      -0.819   1.490   1.618  0.00  0.00     0.002 A 
ATOM      4  C5  UNL d   1       0.572   1.344   1.583  0.00  0.00    -0.080 A 
ATOM      5  C6  UNL d   1       1.445   2.395   0.965  0.00  0.00     0.076 C 
ATOM      6  C7  UNL d   1       1.147   0.193   2.132  0.00  0.00     0.002 A 
ATOM      7  C8  UNL d   1       0.343  -0.806   2.686  0.00  0.00     0.006 A 
ENDROOT
BRANCH   1   8
ATOM      8  C1  UNL d   1      -1.917  -1.776   3.244  0.00  0.00     0.054 C 
ATOM      9  C   UNL d   1      -3.377  -1.351   3.313  0.00  0.00     0.018 C 
ENDBRANCH   1   8
TORSDOF 1
ENDMDL
