MODEL 1
REMARK minimizedAffinity 6.69192743
REMARK minimizedRMSD -1
REMARK  1 active torsions:
REMARK  status: ('A' for Active; 'I' for Inactive)
REMARK    1  A    between atoms: C1_2  and  C2_3 
ROOT
ATOM      1  C2  UNL d   1      -1.249   1.838   1.653  0.00  0.00    -0.081 A 
ATOM      2  C3  UNL d   1      -1.282   0.457   1.882  0.00  0.00     0.006 A 
ATOM      3  C4  UNL d   1      -0.129  -0.315   1.720  0.00  0.00     0.002 A 
ATOM      4  C5  UNL d   1       1.076   0.281   1.333  0.00  0.00    -0.080 A 
ATOM      5  C6  UNL d   1       2.328  -0.532   1.185  0.00  0.00     0.076 C 
ATOM      6  C7  UNL d   1       1.105   1.658   1.087  0.00  0.00     0.002 A 
ATOM      7  C8  UNL d   1      -0.048   2.430   1.248  0.00  0.00     0.006 A 
ENDROOT
BRANCH   1   8
ATOM      8  C1  UNL d   1      -2.474   2.684   1.889  0.00  0.00     0.054 C 
ATOM      9  C   UNL d   1      -3.240   2.216   3.119  0.00  0.00     0.018 C 
ENDBRANCH   1   8
TORSDOF 1
ENDMDL
