MODEL 1
REMARK minimizedAffinity 5.25286961
REMARK minimizedRMSD -1
REMARK  1 active torsions:
REMARK  status: ('A' for Active; 'I' for Inactive)
REMARK    1  A    between atoms: C1_2  and  C2_3 
ROOT
ATOM      1  C2  UNL d   1      -1.677   1.767   1.963  0.00  0.00    -0.081 A 
ATOM      2  C3  UNL d   1      -1.649   0.387   2.195  0.00  0.00     0.006 A 
ATOM      3  C4  UNL d   1      -0.477  -0.343   1.986  0.00  0.00     0.002 A 
ATOM      4  C5  UNL d   1       0.689   0.296   1.549  0.00  0.00    -0.080 A 
ATOM      5  C6  UNL d   1       1.962  -0.471   1.350  0.00  0.00     0.076 C 
ATOM      6  C7  UNL d   1       0.657   1.672   1.301  0.00  0.00     0.002 A 
ATOM      7  C8  UNL d   1      -0.516   2.402   1.509  0.00  0.00     0.006 A 
ENDROOT
BRANCH   1   8
ATOM      8  C1  UNL d   1      -2.922   2.568   2.250  0.00  0.00     0.054 C 
ATOM      9  C   UNL d   1      -3.752   1.924   3.351  0.00  0.00     0.018 C 
ENDBRANCH   1   8
TORSDOF 1
ENDMDL
