MODEL 1
REMARK minimizedAffinity 1.42603743
REMARK minimizedRMSD -1
REMARK  1 active torsions:
REMARK  status: ('A' for Active; 'I' for Inactive)
REMARK    1  A    between atoms: C1_2  and  C2_3 
ROOT
ATOM      1  C2  UNL d   1      -2.580   1.898   3.275  0.00  0.00    -0.081 A 
ATOM      2  C3  UNL d   1      -2.655   2.796   2.203  0.00  0.00     0.006 A 
ATOM      3  C4  UNL d   1      -1.499   3.179   1.518  0.00  0.00     0.002 A 
ATOM      4  C5  UNL d   1      -0.252   2.666   1.889  0.00  0.00    -0.080 A 
ATOM      5  C6  UNL d   1       0.993   3.045   1.143  0.00  0.00     0.076 C 
ATOM      6  C7  UNL d   1      -0.175   1.783   2.971  0.00  0.00     0.002 A 
ATOM      7  C8  UNL d   1      -1.330   1.400   3.657  0.00  0.00     0.006 A 
ENDROOT
BRANCH   1   8
ATOM      8  C1  UNL d   1      -3.832   1.433   3.974  0.00  0.00     0.054 C 
ATOM      9  C   UNL d   1      -4.163   2.321   5.165  0.00  0.00     0.018 C 
ENDBRANCH   1   8
TORSDOF 1
ENDMDL
