MODEL 1
REMARK minimizedAffinity -1.56579602
REMARK minimizedRMSD -1
REMARK  0 active torsions:
REMARK  status: ('A' for Active; 'I' for Inactive)
ROOT
ATOM      1  C   UNL d   1      -0.498  -1.343   3.046  0.00  0.00     0.023 A 
ATOM      2  C1  UNL d   1       0.637  -0.777   2.465  0.00  0.00     0.003 A 
ATOM      3  C2  UNL d   1       0.558  -0.194   1.199  0.00  0.00     0.048 A 
ATOM      4  C3  UNL d   1      -0.660  -0.180   0.519  0.00  0.00     0.023 A 
ATOM      5  C4  UNL d   1      -1.798  -0.744   1.096  0.00  0.00     0.048 A 
ATOM      6  C5  UNL d   1      -1.714  -1.327   2.362  0.00  0.00     0.003 A 
ATOM      7  I   UNL d   1      -0.780   0.687  -1.366  0.00  0.00    -0.146 I 
ENDROOT
TORSDOF 0
ENDMDL
