MODEL 1
REMARK minimizedAffinity -2.92921901
REMARK minimizedRMSD -1
REMARK  0 active torsions:
REMARK  status: ('A' for Active; 'I' for Inactive)
ROOT
ATOM      1  C   UNL d   1       1.982  -1.816   2.449  0.00  0.00     0.023 A 
ATOM      2  C1  UNL d   1       2.406  -1.893   1.122  0.00  0.00     0.003 A 
ATOM      3  C2  UNL d   1       1.710  -1.208   0.124  0.00  0.00     0.048 A 
ATOM      4  C3  UNL d   1       0.591  -0.446   0.460  0.00  0.00     0.023 A 
ATOM      5  C4  UNL d   1       0.164  -0.365   1.786  0.00  0.00     0.048 A 
ATOM      6  C5  UNL d   1       0.863  -1.053   2.780  0.00  0.00     0.003 A 
ATOM      7  I   UNL d   1      -0.447   0.575  -1.023  0.00  0.00    -0.146 I 
ENDROOT
TORSDOF 0
ENDMDL
