MODEL 1
REMARK minimizedAffinity -3.15730977
REMARK minimizedRMSD -1
REMARK  0 active torsions:
REMARK  status: ('A' for Active; 'I' for Inactive)
ROOT
ATOM      1  C   UNL d   1       2.003  -1.699   2.523  0.00  0.00     0.023 A 
ATOM      2  C1  UNL d   1       2.457  -1.881   1.217  0.00  0.00     0.003 A 
ATOM      3  C2  UNL d   1       1.813  -1.239   0.157  0.00  0.00     0.048 A 
ATOM      4  C3  UNL d   1       0.717  -0.415   0.411  0.00  0.00     0.023 A 
ATOM      5  C4  UNL d   1       0.260  -0.229   1.717  0.00  0.00     0.048 A 
ATOM      6  C5  UNL d   1       0.906  -0.874   2.773  0.00  0.00     0.003 A 
ATOM      7  I   UNL d   1      -0.243   0.542  -1.165  0.00  0.00    -0.146 I 
ENDROOT
TORSDOF 0
ENDMDL
