MODEL 1
REMARK minimizedAffinity -5.11574841
REMARK minimizedRMSD -1
REMARK  0 active torsions:
REMARK  status: ('A' for Active; 'I' for Inactive)
ROOT
ATOM      1  C   UNL d   1       2.186  -1.676   2.083  0.00  0.00     0.023 A 
ATOM      2  C1  UNL d   1       2.583  -1.796   0.751  0.00  0.00     0.003 A 
ATOM      3  C2  UNL d   1       1.792  -1.258  -0.266  0.00  0.00     0.048 A 
ATOM      4  C3  UNL d   1       0.605  -0.600   0.056  0.00  0.00     0.023 A 
ATOM      5  C4  UNL d   1       0.205  -0.476   1.387  0.00  0.00     0.048 A 
ATOM      6  C5  UNL d   1       0.999  -1.016   2.401  0.00  0.00     0.003 A 
ATOM      7  I   UNL d   1      -0.574   0.203  -1.456  0.00  0.00    -0.146 I 
ENDROOT
TORSDOF 0
ENDMDL
