MODEL 1
REMARK minimizedAffinity -5.5071516
REMARK minimizedRMSD -1
REMARK  0 active torsions:
REMARK  status: ('A' for Active; 'I' for Inactive)
ROOT
ATOM      1  C   UNL d   1       1.402  -1.123   2.861  0.00  0.00     0.023 A 
ATOM      2  C1  UNL d   1       0.122  -0.578   2.758  0.00  0.00     0.003 A 
ATOM      3  C2  UNL d   1      -0.356  -0.147   1.519  0.00  0.00     0.048 A 
ATOM      4  C3  UNL d   1       0.450  -0.265   0.387  0.00  0.00     0.023 A 
ATOM      5  C4  UNL d   1       1.731  -0.811   0.486  0.00  0.00     0.048 A 
ATOM      6  C5  UNL d   1       2.205  -1.239   1.727  0.00  0.00     0.003 A 
ATOM      7  I   UNL d   1      -0.261   0.375  -1.458  0.00  0.00    -0.146 I 
ENDROOT
TORSDOF 0
ENDMDL
