MODEL 1
REMARK minimizedAffinity -2.65871072
REMARK minimizedRMSD -1
REMARK  0 active torsions:
REMARK  status: ('A' for Active; 'I' for Inactive)
ROOT
ATOM      1  C   UNL d   1       2.532  -1.618   2.364  0.00  0.00     0.023 A 
ATOM      2  C1  UNL d   1       1.473  -0.791   2.738  0.00  0.00     0.003 A 
ATOM      3  C2  UNL d   1       0.710  -0.146   1.762  0.00  0.00     0.048 A 
ATOM      4  C3  UNL d   1       1.012  -0.334   0.414  0.00  0.00     0.023 A 
ATOM      5  C4  UNL d   1       2.070  -1.161   0.035  0.00  0.00     0.048 A 
ATOM      6  C5  UNL d   1       2.830  -1.802   1.014  0.00  0.00     0.003 A 
ATOM      7  I   UNL d   1      -0.122   0.625  -1.041  0.00  0.00    -0.146 I 
ENDROOT
TORSDOF 0
ENDMDL
