MODEL 1
REMARK minimizedAffinity -4.9607954
REMARK minimizedRMSD -1
REMARK  0 active torsions:
REMARK  status: ('A' for Active; 'I' for Inactive)
ROOT
ATOM      1  C   UNL d   1       1.500  -1.117   2.846  0.00  0.00     0.023 A 
ATOM      2  C1  UNL d   1       2.102  -1.374   1.614  0.00  0.00     0.003 A 
ATOM      3  C2  UNL d   1       1.541  -0.864   0.442  0.00  0.00     0.048 A 
ATOM      4  C3  UNL d   1       0.378  -0.097   0.508  0.00  0.00     0.023 A 
ATOM      5  C4  UNL d   1      -0.227   0.163   1.739  0.00  0.00     0.048 A 
ATOM      6  C5  UNL d   1       0.337  -0.350   2.908  0.00  0.00     0.003 A 
ATOM      7  I   UNL d   1      -0.458   0.663  -1.236  0.00  0.00    -0.146 I 
ENDROOT
TORSDOF 0
ENDMDL
