MODEL 1
REMARK minimizedAffinity -4.08889627
REMARK minimizedRMSD -1
REMARK  0 active torsions:
REMARK  status: ('A' for Active; 'I' for Inactive)
ROOT
ATOM      1  C   UNL d   1       1.047  -1.350   2.687  0.00  0.00     0.023 A 
ATOM      2  C1  UNL d   1      -0.235  -0.801   2.651  0.00  0.00     0.003 A 
ATOM      3  C2  UNL d   1      -0.685  -0.151   1.500  0.00  0.00     0.048 A 
ATOM      4  C3  UNL d   1       0.151  -0.054   0.388  0.00  0.00     0.023 A 
ATOM      5  C4  UNL d   1       1.434  -0.603   0.419  0.00  0.00     0.048 A 
ATOM      6  C5  UNL d   1       1.881  -1.251   1.573  0.00  0.00     0.003 A 
ATOM      7  I   UNL d   1      -0.517   0.912  -1.326  0.00  0.00    -0.146 I 
ENDROOT
TORSDOF 0
ENDMDL
