MODEL 1
REMARK minimizedAffinity -4.43297911
REMARK minimizedRMSD -1
REMARK  0 active torsions:
REMARK  status: ('A' for Active; 'I' for Inactive)
ROOT
ATOM      1  C   UNL d   1       0.111   0.012  -1.505  0.00  0.00     0.023 A 
ATOM      2  C1  UNL d   1       1.248  -0.783  -1.365  0.00  0.00     0.003 A 
ATOM      3  C2  UNL d   1       1.631  -1.240  -0.102  0.00  0.00     0.048 A 
ATOM      4  C3  UNL d   1       0.871  -0.900   1.016  0.00  0.00     0.023 A 
ATOM      5  C4  UNL d   1      -0.268  -0.105   0.881  0.00  0.00     0.048 A 
ATOM      6  C5  UNL d   1      -0.647   0.351  -0.383  0.00  0.00     0.003 A 
ATOM      7  I   UNL d   1       1.439  -1.579   2.896  0.00  0.00    -0.146 I 
ENDROOT
TORSDOF 0
ENDMDL
