MODEL 1
REMARK minimizedAffinity -5.40897417
REMARK minimizedRMSD -1
REMARK  0 active torsions:
REMARK  status: ('A' for Active; 'I' for Inactive)
ROOT
ATOM      1  C   UNL d   1       1.985  -1.403   2.954  0.00  0.00     0.023 A 
ATOM      2  C1  UNL d   1       0.953  -0.478   3.114  0.00  0.00     0.003 A 
ATOM      3  C2  UNL d   1       0.279   0.018   1.996  0.00  0.00     0.048 A 
ATOM      4  C3  UNL d   1       0.640  -0.417   0.722  0.00  0.00     0.023 A 
ATOM      5  C4  UNL d   1       1.672  -1.343   0.557  0.00  0.00     0.048 A 
ATOM      6  C5  UNL d   1       2.344  -1.835   1.677  0.00  0.00     0.003 A 
ATOM      7  I   UNL d   1      -0.362   0.320  -0.943  0.00  0.00    -0.146 I 
ENDROOT
TORSDOF 0
ENDMDL
