MODEL 1
REMARK minimizedAffinity -3.62181807
REMARK minimizedRMSD -1
REMARK  0 active torsions:
REMARK  status: ('A' for Active; 'I' for Inactive)
ROOT
ATOM      1  C   UNL d   1       2.143  -1.183   2.881  0.00  0.00     0.023 A 
ATOM      2  C1  UNL d   1       1.156  -0.234   3.150  0.00  0.00     0.003 A 
ATOM      3  C2  UNL d   1       0.373   0.274   2.112  0.00  0.00     0.048 A 
ATOM      4  C3  UNL d   1       0.581  -0.172   0.807  0.00  0.00     0.023 A 
ATOM      5  C4  UNL d   1       1.566  -1.122   0.534  0.00  0.00     0.048 A 
ATOM      6  C5  UNL d   1       2.347  -1.627   1.575  0.00  0.00     0.003 A 
ATOM      7  I   UNL d   1      -0.584   0.582  -0.740  0.00  0.00    -0.146 I 
ENDROOT
TORSDOF 0
ENDMDL
