MODEL 1
REMARK minimizedAffinity 14.2141609
REMARK minimizedRMSD -1
REMARK  0 active torsions:
REMARK  status: ('A' for Active; 'I' for Inactive)
ROOT
ATOM      1  O1  BZF d   1       1.066  -2.392   0.235  0.00  0.00    -0.204 OA
ATOM      2  C2  BZF d   1       2.171  -1.576   0.380  0.00  0.00     0.174 A 
ATOM      3  C3  BZF d   1       3.303  -2.308   0.434  0.00  0.00    -0.012 A 
ATOM      4  C3A BZF d   1       2.886  -3.661   0.223  0.00  0.00    -0.107 A 
ATOM      5  C4  BZF d   1       3.555  -4.849   0.151  0.00  0.00     0.055 A 
ATOM      6  C5  BZF d   1       2.846  -5.999   0.008  0.00  0.00    -0.016 A 
ATOM      7  C6  BZF d   1       1.468  -5.998  -0.061  0.00  0.00     0.022 A 
ATOM      8  C7  BZF d   1       0.760  -4.844   0.001  0.00  0.00     0.029 A 
ATOM      9  C7A BZF d   1       1.476  -3.677   0.112  0.00  0.00     0.058 A 
ENDROOT
TORSDOF 0
ENDMDL
