MODEL 1
REMARK minimizedAffinity 8.15735912
REMARK minimizedRMSD -1
REMARK  0 active torsions:
REMARK  status: ('A' for Active; 'I' for Inactive)
ROOT
ATOM      1  O1  BZF d   1       0.851  -4.558   0.454  0.00  0.00    -0.204 OA
ATOM      2  C2  BZF d   1       2.155  -4.977   0.272  0.00  0.00     0.174 A 
ATOM      3  C3  BZF d   1       3.023  -4.002   0.611  0.00  0.00    -0.012 A 
ATOM      4  C3A BZF d   1       2.212  -2.937   1.118  0.00  0.00    -0.107 A 
ATOM      5  C4  BZF d   1       2.496  -1.702   1.626  0.00  0.00     0.055 A 
ATOM      6  C5  BZF d   1       1.472  -0.875   1.964  0.00  0.00    -0.016 A 
ATOM      7  C6  BZF d   1       0.154  -1.249   1.802  0.00  0.00     0.022 A 
ATOM      8  C7  BZF d   1      -0.177  -2.466   1.306  0.00  0.00     0.029 A 
ATOM      9  C7A BZF d   1       0.856  -3.316   0.995  0.00  0.00     0.058 A 
ENDROOT
TORSDOF 0
ENDMDL
