MODEL 1
REMARK minimizedAffinity 5.38409901
REMARK minimizedRMSD -1
REMARK  0 active torsions:
REMARK  status: ('A' for Active; 'I' for Inactive)
ROOT
ATOM      1  O1  BZF d   1       0.638  -2.327   0.869  0.00  0.00    -0.204 OA
ATOM      2  C2  BZF d   1       0.895  -1.185   1.604  0.00  0.00     0.174 A 
ATOM      3  C3  BZF d   1       2.149  -1.207   2.099  0.00  0.00    -0.012 A 
ATOM      4  C3A BZF d   1       2.742  -2.396   1.568  0.00  0.00    -0.107 A 
ATOM      5  C4  BZF d   1       3.980  -2.960   1.686  0.00  0.00     0.055 A 
ATOM      6  C5  BZF d   1       4.215  -4.164   1.101  0.00  0.00    -0.016 A 
ATOM      7  C6  BZF d   1       3.236  -4.833   0.397  0.00  0.00     0.022 A 
ATOM      8  C7  BZF d   1       1.994  -4.311   0.249  0.00  0.00     0.029 A 
ATOM      9  C7A BZF d   1       1.763  -3.079   0.810  0.00  0.00     0.058 A 
ENDROOT
TORSDOF 0
ENDMDL
