MODEL 1
REMARK minimizedAffinity 4.2853632
REMARK minimizedRMSD -1
REMARK  0 active torsions:
REMARK  status: ('A' for Active; 'I' for Inactive)
ROOT
ATOM      1  O1  BZF d   1      -0.502   5.999  -6.000  0.00  0.00    -0.204 OA
ATOM      2  C2  BZF d   1       0.660   5.300  -5.731  0.00  0.00     0.174 A 
ATOM      3  C3  BZF d   1       0.468   4.422  -4.725  0.00  0.00    -0.012 A 
ATOM      4  C3A BZF d   1      -0.923   4.517  -4.404  0.00  0.00    -0.107 A 
ATOM      5  C4  BZF d   1      -1.722   3.881  -3.497  0.00  0.00     0.055 A 
ATOM      6  C5  BZF d   1      -3.024   4.256  -3.386  0.00  0.00    -0.016 A 
ATOM      7  C6  BZF d   1      -3.557   5.265  -4.161  0.00  0.00     0.022 A 
ATOM      8  C7  BZF d   1      -2.805   5.921  -5.078  0.00  0.00     0.029 A 
ATOM      9  C7A BZF d   1      -1.498   5.522  -5.215  0.00  0.00     0.058 A 
ENDROOT
TORSDOF 0
ENDMDL
