MODEL 1
REMARK minimizedAffinity 18.5801105
REMARK minimizedRMSD -1
REMARK  0 active torsions:
REMARK  status: ('A' for Active; 'I' for Inactive)
ROOT
ATOM      1  O1  BZF d   1      -4.103  -1.912  -1.505  0.00  0.00    -0.204 OA
ATOM      2  C2  BZF d   1      -3.775  -0.675  -0.983  0.00  0.00     0.174 A 
ATOM      3  C3  BZF d   1      -4.164   0.313  -1.815  0.00  0.00    -0.012 A 
ATOM      4  C3A BZF d   1      -4.856  -0.344  -2.882  0.00  0.00    -0.107 A 
ATOM      5  C4  BZF d   1      -5.488   0.104  -4.006  0.00  0.00     0.055 A 
ATOM      6  C5  BZF d   1      -5.999  -0.801  -4.881  0.00  0.00    -0.016 A 
ATOM      7  C6  BZF d   1      -5.892  -2.160  -4.666  0.00  0.00     0.022 A 
ATOM      8  C7  BZF d   1      -5.278  -2.651  -3.562  0.00  0.00     0.029 A 
ATOM      9  C7A BZF d   1      -4.789  -1.739  -2.660  0.00  0.00     0.058 A 
ENDROOT
TORSDOF 0
ENDMDL
