MODEL 1
REMARK minimizedAffinity 7.46789122
REMARK minimizedRMSD -1
REMARK  0 active torsions:
REMARK  status: ('A' for Active; 'I' for Inactive)
ROOT
ATOM      1  O1  BZF d   1       3.995  -1.363   4.970  0.00  0.00    -0.204 OA
ATOM      2  C2  BZF d   1       5.096  -2.115   4.610  0.00  0.00     0.174 A 
ATOM      3  C3  BZF d   1       4.958  -2.596   3.358  0.00  0.00    -0.012 A 
ATOM      4  C3A BZF d   1       3.734  -2.037   2.873  0.00  0.00    -0.107 A 
ATOM      5  C4  BZF d   1       3.064  -2.131   1.687  0.00  0.00     0.055 A 
ATOM      6  C5  BZF d   1       1.856  -1.521   1.561  0.00  0.00    -0.016 A 
ATOM      7  C6  BZF d   1       1.287  -0.815   2.600  0.00  0.00     0.022 A 
ATOM      8  C7  BZF d   1       1.916  -0.690   3.794  0.00  0.00     0.029 A 
ATOM      9  C7A BZF d   1       3.152  -1.277   3.914  0.00  0.00     0.058 A 
ENDROOT
TORSDOF 0
ENDMDL
