MODEL 1
REMARK minimizedAffinity 17.8242435
REMARK minimizedRMSD -1
REMARK  0 active torsions:
REMARK  status: ('A' for Active; 'I' for Inactive)
ROOT
ATOM      1  O1  BZF d   1       2.918  -2.963   1.518  0.00  0.00    -0.204 OA
ATOM      2  C2  BZF d   1       1.711  -2.642   0.927  0.00  0.00     0.174 A 
ATOM      3  C3  BZF d   1       1.879  -1.697  -0.021  0.00  0.00    -0.012 A 
ATOM      4  C3A BZF d   1       3.291  -1.477  -0.086  0.00  0.00    -0.107 A 
ATOM      5  C4  BZF d   1       4.080  -0.664  -0.850  0.00  0.00     0.055 A 
ATOM      6  C5  BZF d   1       5.418  -0.633  -0.616  0.00  0.00    -0.016 A 
ATOM      7  C6  BZF d   1       6.000  -1.396   0.376  0.00  0.00     0.022 A 
ATOM      8  C7  BZF d   1       5.259  -2.221   1.155  0.00  0.00     0.029 A 
ATOM      9  C7A BZF d   1       3.911  -2.280   0.899  0.00  0.00     0.058 A 
ENDROOT
TORSDOF 0
ENDMDL
