MODEL 1
REMARK minimizedAffinity 14.2074165
REMARK minimizedRMSD -1
REMARK  0 active torsions:
REMARK  status: ('A' for Active; 'I' for Inactive)
ROOT
ATOM      1  O1  BZF d   1      -2.439   0.690   4.150  0.00  0.00    -0.204 OA
ATOM      2  C2  BZF d   1      -1.986  -0.011   3.049  0.00  0.00     0.174 A 
ATOM      3  C3  BZF d   1      -2.909  -0.004   2.065  0.00  0.00    -0.012 A 
ATOM      4  C3A BZF d   1      -3.969   0.826   2.549  0.00  0.00    -0.107 A 
ATOM      5  C4  BZF d   1      -5.161   1.231   2.019  0.00  0.00     0.055 A 
ATOM      6  C5  BZF d   1      -6.000   1.982   2.780  0.00  0.00    -0.016 A 
ATOM      7  C6  BZF d   1      -5.682   2.341   4.073  0.00  0.00     0.022 A 
ATOM      8  C7  BZF d   1      -4.510   1.967   4.640  0.00  0.00     0.029 A 
ATOM      9  C7A BZF d   1      -3.645   1.236   3.863  0.00  0.00     0.058 A 
ENDROOT
TORSDOF 0
ENDMDL
