MODEL 1
REMARK minimizedAffinity 13.5017643
REMARK minimizedRMSD -1
REMARK  0 active torsions:
REMARK  status: ('A' for Active; 'I' for Inactive)
ROOT
ATOM      1  O1  BZF d   1      -1.637   0.310   3.913  0.00  0.00    -0.204 OA
ATOM      2  C2  BZF d   1      -1.296  -0.638   2.968  0.00  0.00     0.174 A 
ATOM      3  C3  BZF d   1      -2.255  -0.740   2.025  0.00  0.00    -0.012 A 
ATOM      4  C3A BZF d   1      -3.215   0.269   2.355  0.00  0.00    -0.107 A 
ATOM      5  C4  BZF d   1      -4.388   0.672   1.782  0.00  0.00     0.055 A 
ATOM      6  C5  BZF d   1      -5.124   1.637   2.393  0.00  0.00    -0.016 A 
ATOM      7  C6  BZF d   1      -4.721   2.215   3.579  0.00  0.00     0.022 A 
ATOM      8  C7  BZF d   1      -3.563   1.852   4.182  0.00  0.00     0.029 A 
ATOM      9  C7A BZF d   1      -2.801   0.900   3.550  0.00  0.00     0.058 A 
ENDROOT
TORSDOF 0
ENDMDL
