MODEL 1
REMARK minimizedAffinity 7.69576359
REMARK minimizedRMSD -1
REMARK  0 active torsions:
REMARK  status: ('A' for Active; 'I' for Inactive)
ROOT
ATOM      1  O1  BZF d   1       2.935  -1.904   1.536  0.00  0.00    -0.204 OA
ATOM      2  C2  BZF d   1       2.924  -2.638   0.365  0.00  0.00     0.174 A 
ATOM      3  C3  BZF d   1       1.659  -2.896  -0.025  0.00  0.00    -0.012 A 
ATOM      4  C3A BZF d   1       0.827  -2.207   0.913  0.00  0.00    -0.107 A 
ATOM      5  C4  BZF d   1      -0.525  -2.070   1.045  0.00  0.00     0.055 A 
ATOM      6  C5  BZF d   1      -1.019  -1.391   2.113  0.00  0.00    -0.016 A 
ATOM      7  C6  BZF d   1      -0.191  -0.842   3.070  0.00  0.00     0.022 A 
ATOM      8  C7  BZF d   1       1.157  -0.947   2.979  0.00  0.00     0.029 A 
ATOM      9  C7A BZF d   1       1.660  -1.604   1.883  0.00  0.00     0.058 A 
ENDROOT
TORSDOF 0
ENDMDL
