MODEL 1
REMARK minimizedAffinity 12.6553679
REMARK minimizedRMSD -1
REMARK  0 active torsions:
REMARK  status: ('A' for Active; 'I' for Inactive)
ROOT
ATOM      1  C2' OXE d   1       5.331   3.113   1.138  0.00  0.00     0.078 C 
ATOM      2  C1' OXE d   1       3.504   2.474   3.172  0.00  0.00     0.078 C 
ATOM      3  C1  OXE d   1       4.325   3.729   3.333  0.00  0.00    -0.078 A 
ATOM      4  C2  OXE d   1       5.250   4.009   2.356  0.00  0.00    -0.078 A 
ATOM      5  C3  OXE d   1       5.995   5.182   2.428  0.00  0.00     0.003 A 
ATOM      6  C4  OXE d   1       5.922   6.000   3.562  0.00  0.00    -0.002 A 
ATOM      7  C5  OXE d   1       5.015   5.711   4.588  0.00  0.00    -0.002 A 
ATOM      8  C6  OXE d   1       4.181   4.605   4.469  0.00  0.00     0.003 A 
ENDROOT
TORSDOF 0
ENDMDL
