MODEL 1
REMARK minimizedAffinity 4.9703784
REMARK minimizedRMSD -1
REMARK  0 active torsions:
REMARK  status: ('A' for Active; 'I' for Inactive)
ROOT
ATOM      1  C2' OXE d   1      -0.098  -0.693   2.085  0.00  0.00     0.078 C 
ATOM      2  C1' OXE d   1       1.870  -2.020   3.584  0.00  0.00     0.078 C 
ATOM      3  C1  OXE d   1       2.186  -0.635   3.078  0.00  0.00    -0.078 A 
ATOM      4  C2  OXE d   1       1.235  -0.011   2.306  0.00  0.00    -0.078 A 
ATOM      5  C3  OXE d   1       1.454   1.289   1.860  0.00  0.00     0.003 A 
ATOM      6  C4  OXE d   1       2.693   1.908   2.061  0.00  0.00    -0.002 A 
ATOM      7  C5  OXE d   1       3.690   1.275   2.811  0.00  0.00    -0.002 A 
ATOM      8  C6  OXE d   1       3.437   0.024   3.361  0.00  0.00     0.003 A 
ENDROOT
TORSDOF 0
ENDMDL
