MODEL 1
REMARK minimizedAffinity 1.10218644
REMARK minimizedRMSD -1
REMARK  0 active torsions:
REMARK  status: ('A' for Active; 'I' for Inactive)
ROOT
ATOM      1  C2' OXE d   1       3.836   2.071   3.364  0.00  0.00     0.078 C 
ATOM      2  C1' OXE d   1       5.741   2.309   1.316  0.00  0.00     0.078 C 
ATOM      3  C1  OXE d   1       5.292   3.571   2.008  0.00  0.00    -0.078 A 
ATOM      4  C2  OXE d   1       4.325   3.451   2.977  0.00  0.00    -0.078 A 
ATOM      5  C3  OXE d   1       3.914   4.577   3.685  0.00  0.00     0.003 A 
ATOM      6  C4  OXE d   1       4.363   5.850   3.314  0.00  0.00    -0.002 A 
ATOM      7  C5  OXE d   1       5.318   5.999   2.303  0.00  0.00    -0.002 A 
ATOM      8  C6  OXE d   1       5.823   4.868   1.671  0.00  0.00     0.003 A 
ENDROOT
TORSDOF 0
ENDMDL
