MODEL 1
REMARK minimizedAffinity 0.459551007
REMARK minimizedRMSD -1
REMARK  0 active torsions:
REMARK  status: ('A' for Active; 'I' for Inactive)
ROOT
ATOM      1  C2' OXE d   1       4.422   2.245   3.461  0.00  0.00     0.078 C 
ATOM      2  C1' OXE d   1       5.998   4.470   4.130  0.00  0.00     0.078 C 
ATOM      3  C1  OXE d   1       5.301   4.478   2.792  0.00  0.00    -0.078 A 
ATOM      4  C2  OXE d   1       4.570   3.365   2.454  0.00  0.00    -0.078 A 
ATOM      5  C3  OXE d   1       3.862   3.344   1.255  0.00  0.00     0.003 A 
ATOM      6  C4  OXE d   1       4.012   4.379   0.325  0.00  0.00    -0.002 A 
ATOM      7  C5  OXE d   1       4.784   5.504   0.633  0.00  0.00    -0.002 A 
ATOM      8  C6  OXE d   1       5.399   5.589   1.877  0.00  0.00     0.003 A 
ENDROOT
TORSDOF 0
ENDMDL
