MODEL 1
REMARK minimizedAffinity 10.5294018
REMARK minimizedRMSD -1
REMARK  0 active torsions:
REMARK  status: ('A' for Active; 'I' for Inactive)
ROOT
ATOM      1  C2' OXE d   1      -5.839   4.856  -1.940  0.00  0.00     0.078 C 
ATOM      2  C1' OXE d   1      -5.008   2.850  -0.161  0.00  0.00     0.078 C 
ATOM      3  C1  OXE d   1      -4.028   3.949  -0.490  0.00  0.00    -0.078 A 
ATOM      4  C2  OXE d   1      -4.427   4.900  -1.398  0.00  0.00    -0.078 A 
ATOM      5  C3  OXE d   1      -3.582   5.966  -1.695  0.00  0.00     0.003 A 
ATOM      6  C4  OXE d   1      -2.274   5.994  -1.197  0.00  0.00    -0.002 A 
ATOM      7  C5  OXE d   1      -1.834   5.012  -0.302  0.00  0.00    -0.002 A 
ATOM      8  C6  OXE d   1      -2.711   4.009   0.094  0.00  0.00     0.003 A 
ENDROOT
TORSDOF 0
ENDMDL
