MODEL 1
REMARK minimizedAffinity 12.3923531
REMARK minimizedRMSD -1
REMARK  0 active torsions:
REMARK  status: ('A' for Active; 'I' for Inactive)
ROOT
ATOM      1  C2' OXE d   1      -0.823   2.355   2.472  0.00  0.00     0.078 C 
ATOM      2  C1' OXE d   1      -2.212  -0.077   2.288  0.00  0.00     0.078 C 
ATOM      3  C1  OXE d   1      -0.753  -0.127   2.667  0.00  0.00    -0.078 A 
ATOM      4  C2  OXE d   1      -0.070   1.064   2.709  0.00  0.00    -0.078 A 
ATOM      5  C3  OXE d   1       1.264   1.080   3.106  0.00  0.00     0.003 A 
ATOM      6  C4  OXE d   1       1.957  -0.119   3.313  0.00  0.00    -0.002 A 
ATOM      7  C5  OXE d   1       1.289  -1.346   3.236  0.00  0.00    -0.002 A 
ATOM      8  C6  OXE d   1      -0.072  -1.365   2.957  0.00  0.00     0.003 A 
ENDROOT
TORSDOF 0
ENDMDL
