MODEL 1
REMARK minimizedAffinity 8.79572773
REMARK minimizedRMSD -1
REMARK  0 active torsions:
REMARK  status: ('A' for Active; 'I' for Inactive)
ROOT
ATOM      1  C2' OXE d   1       2.136  -2.343   4.306  0.00  0.00     0.078 C 
ATOM      2  C1' OXE d   1       2.797   0.328   3.749  0.00  0.00     0.078 C 
ATOM      3  C1  OXE d   1       1.414  -0.147   3.377  0.00  0.00    -0.078 A 
ATOM      4  C2  OXE d   1       1.115  -1.467   3.610  0.00  0.00    -0.078 A 
ATOM      5  C3  OXE d   1      -0.164  -1.944   3.336  0.00  0.00     0.003 A 
ATOM      6  C4  OXE d   1      -1.098  -1.130   2.684  0.00  0.00    -0.002 A 
ATOM      7  C5  OXE d   1      -0.800   0.207   2.401  0.00  0.00    -0.002 A 
ATOM      8  C6  OXE d   1       0.433   0.725   2.779  0.00  0.00     0.003 A 
ENDROOT
TORSDOF 0
ENDMDL
