MODEL 1
REMARK minimizedAffinity 5.02097607
REMARK minimizedRMSD -1
REMARK  0 active torsions:
REMARK  status: ('A' for Active; 'I' for Inactive)
ROOT
ATOM      1  C2' OXE d   1       0.264  -0.020   3.177  0.00  0.00     0.078 C 
ATOM      2  C1' OXE d   1       0.194  -2.575   4.337  0.00  0.00     0.078 C 
ATOM      3  C1  OXE d   1       1.313  -1.649   4.743  0.00  0.00    -0.078 A 
ATOM      4  C2  OXE d   1       1.366  -0.417   4.135  0.00  0.00    -0.078 A 
ATOM      5  C3  OXE d   1       2.346   0.496   4.513  0.00  0.00     0.003 A 
ATOM      6  C4  OXE d   1       3.367   0.117   5.393  0.00  0.00    -0.002 A 
ATOM      7  C5  OXE d   1       3.355  -1.147   5.993  0.00  0.00    -0.002 A 
ATOM      8  C6  OXE d   1       2.313  -2.024   5.711  0.00  0.00     0.003 A 
ENDROOT
TORSDOF 0
ENDMDL
