MODEL 1
REMARK minimizedAffinity 14.5066137
REMARK minimizedRMSD -1
REMARK  0 active torsions:
REMARK  status: ('A' for Active; 'I' for Inactive)
ROOT
ATOM      1  C2' OXE d   1       2.574  -2.488   4.073  0.00  0.00     0.078 C 
ATOM      2  C1' OXE d   1       2.789   0.229   4.745  0.00  0.00     0.078 C 
ATOM      3  C1  OXE d   1       1.899  -0.141   3.585  0.00  0.00    -0.078 A 
ATOM      4  C2  OXE d   1       1.836  -1.468   3.234  0.00  0.00    -0.078 A 
ATOM      5  C3  OXE d   1       0.987  -1.870   2.207  0.00  0.00     0.003 A 
ATOM      6  C4  OXE d   1       0.315  -0.919   1.429  0.00  0.00    -0.002 A 
ATOM      7  C5  OXE d   1       0.397   0.442   1.745  0.00  0.00    -0.002 A 
ATOM      8  C6  OXE d   1       1.149   0.843   2.844  0.00  0.00     0.003 A 
ENDROOT
TORSDOF 0
ENDMDL
