MODEL 1
REMARK minimizedAffinity 20.7744389
REMARK minimizedRMSD -1
REMARK  0 active torsions:
REMARK  status: ('A' for Active; 'I' for Inactive)
ROOT
ATOM      1  C2' OXE d   1       0.806   0.814   2.240  0.00  0.00     0.078 C 
ATOM      2  C1' OXE d   1      -1.521   2.361   2.509  0.00  0.00     0.078 C 
ATOM      3  C1  OXE d   1      -1.677   0.863   2.442  0.00  0.00    -0.078 A 
ATOM      4  C2  OXE d   1      -0.537   0.116   2.264  0.00  0.00    -0.078 A 
ATOM      5  C3  OXE d   1      -0.618  -1.273   2.251  0.00  0.00     0.003 A 
ATOM      6  C4  OXE d   1      -1.865  -1.911   2.263  0.00  0.00    -0.002 A 
ATOM      7  C5  OXE d   1      -3.041  -1.167   2.405  0.00  0.00    -0.002 A 
ATOM      8  C6  OXE d   1      -2.961   0.215   2.538  0.00  0.00     0.003 A 
ENDROOT
TORSDOF 0
ENDMDL
