MODEL 1
REMARK minimizedAffinity 14.9352493
REMARK minimizedRMSD -1
REMARK  0 active torsions:
REMARK  status: ('A' for Active; 'I' for Inactive)
ROOT
ATOM      1  C2' OXE d   1      -0.740  -1.693  -4.227  0.00  0.00     0.078 C 
ATOM      2  C1' OXE d   1      -1.110  -3.074  -1.812  0.00  0.00     0.078 C 
ATOM      3  C1  OXE d   1      -1.060  -3.883  -3.084  0.00  0.00    -0.078 A 
ATOM      4  C2  OXE d   1      -0.926  -3.194  -4.266  0.00  0.00    -0.078 A 
ATOM      5  C3  OXE d   1      -0.819  -3.895  -5.464  0.00  0.00     0.003 A 
ATOM      6  C4  OXE d   1      -1.002  -5.283  -5.492  0.00  0.00    -0.002 A 
ATOM      7  C5  OXE d   1      -1.180  -6.000  -4.304  0.00  0.00    -0.002 A 
ATOM      8  C6  OXE d   1      -1.169  -5.321  -3.090  0.00  0.00     0.003 A 
ENDROOT
TORSDOF 0
ENDMDL
