MODEL 1
REMARK minimizedAffinity 13.1633425
REMARK minimizedRMSD -1
REMARK  2 active torsions:
REMARK  status: ('A' for Active; 'I' for Inactive)
REMARK    1  A    between atoms: C2'_3  and  C1'_4 
REMARK    2  A    between atoms: C1'_4  and  C1_5 
ROOT
ATOM      1  C1  I4B d   1       1.708   1.207   1.720  0.00  0.00    -0.075 A 
ATOM      2  C2  I4B d   1       2.851   0.514   2.031  0.00  0.00     0.003 A 
ATOM      3  C3  I4B d   1       3.788   0.194   1.019  0.00  0.00     0.002 A 
ATOM      4  C4  I4B d   1       3.520   0.539  -0.289  0.00  0.00    -0.004 A 
ATOM      5  C5  I4B d   1       2.372   1.262  -0.600  0.00  0.00     0.002 A 
ATOM      6  C6  I4B d   1       1.466   1.609   0.412  0.00  0.00     0.003 A 
ENDROOT
BRANCH   1   7
ATOM      7  C1' I4B d   1       0.723   1.499   2.807  0.00  0.00     0.060 C 
BRANCH   7   8
ATOM      8  C2' I4B d   1       0.935   0.486   3.913  0.00  0.00    -0.013 C 
ATOM      9  C4' I4B d   1       1.156   1.164   5.240  0.00  0.00     0.013 C 
ATOM     10  C3' I4B d   1      -0.267  -0.410   3.957  0.00  0.00     0.013 C 
ENDBRANCH   7   8
ENDBRANCH   1   7
TORSDOF 2
ENDMDL
