MODEL 1
REMARK minimizedAffinity 13.9219189
REMARK minimizedRMSD -1
REMARK  2 active torsions:
REMARK  status: ('A' for Active; 'I' for Inactive)
REMARK    1  A    between atoms: C2'_3  and  C1'_4 
REMARK    2  A    between atoms: C1'_4  and  C1_5 
ROOT
ATOM      1  C1  I4B d   1      -1.718  -3.455   1.963  0.00  0.00    -0.075 A 
ATOM      2  C2  I4B d   1      -3.014  -3.744   1.612  0.00  0.00     0.003 A 
ATOM      3  C3  I4B d   1      -3.554  -5.026   1.872  0.00  0.00     0.002 A 
ATOM      4  C4  I4B d   1      -2.754  -6.000   2.435  0.00  0.00    -0.004 A 
ATOM      5  C5  I4B d   1      -1.448  -5.699   2.811  0.00  0.00     0.002 A 
ATOM      6  C6  I4B d   1      -0.930  -4.415   2.585  0.00  0.00     0.003 A 
ENDROOT
BRANCH   1   7
ATOM      7  C1' I4B d   1      -1.170  -2.101   1.644  0.00  0.00     0.060 C 
BRANCH   7   8
ATOM      8  C2' I4B d   1      -0.473  -1.576   2.883  0.00  0.00    -0.013 C 
ATOM      9  C4' I4B d   1       0.439  -0.425   2.549  0.00  0.00     0.013 C 
ATOM     10  C3' I4B d   1      -1.526  -1.164   3.868  0.00  0.00     0.013 C 
ENDBRANCH   7   8
ENDBRANCH   1   7
TORSDOF 2
ENDMDL
