MODEL 1
REMARK minimizedAffinity 16.148941
REMARK minimizedRMSD -1
REMARK  2 active torsions:
REMARK  status: ('A' for Active; 'I' for Inactive)
REMARK    1  A    between atoms: C2'_3  and  C1'_4 
REMARK    2  A    between atoms: C1'_4  and  C1_5 
ROOT
ATOM      1  C1  I4B d   1      -2.638  -3.803   0.598  0.00  0.00    -0.075 A 
ATOM      2  C2  I4B d   1      -1.566  -3.607   1.433  0.00  0.00     0.003 A 
ATOM      3  C3  I4B d   1      -1.170  -4.624   2.335  0.00  0.00     0.002 A 
ATOM      4  C4  I4B d   1      -1.899  -5.793   2.404  0.00  0.00    -0.004 A 
ATOM      5  C5  I4B d   1      -2.972  -6.000   1.541  0.00  0.00     0.002 A 
ATOM      6  C6  I4B d   1      -3.336  -5.003   0.623  0.00  0.00     0.003 A 
ENDROOT
BRANCH   1   7
ATOM      7  C1' I4B d   1      -3.049  -2.695  -0.319  0.00  0.00     0.060 C 
BRANCH   7   8
ATOM      8  C2' I4B d   1      -3.120  -3.255  -1.725  0.00  0.00    -0.013 C 
ATOM      9  C4' I4B d   1      -4.547  -3.488  -2.148  0.00  0.00     0.013 C 
ATOM     10  C3' I4B d   1      -2.434  -2.288  -2.643  0.00  0.00     0.013 C 
ENDBRANCH   7   8
ENDBRANCH   1   7
TORSDOF 2
ENDMDL
