MODEL 1
REMARK minimizedAffinity 23.299572
REMARK minimizedRMSD -1
REMARK  2 active torsions:
REMARK  status: ('A' for Active; 'I' for Inactive)
REMARK    1  A    between atoms: C2'_3  and  C1'_4 
REMARK    2  A    between atoms: C1'_4  and  C1_5 
ROOT
ATOM      1  C1  I4B d   1      -1.322   1.525   2.971  0.00  0.00    -0.075 A 
ATOM      2  C2  I4B d   1      -1.171   0.160   2.968  0.00  0.00     0.003 A 
ATOM      3  C3  I4B d   1      -0.073  -0.434   2.300  0.00  0.00     0.002 A 
ATOM      4  C4  I4B d   1       0.815   0.365   1.610  0.00  0.00    -0.004 A 
ATOM      5  C5  I4B d   1       0.674   1.749   1.633  0.00  0.00     0.002 A 
ATOM      6  C6  I4B d   1      -0.395   2.334   2.328  0.00  0.00     0.003 A 
ENDROOT
BRANCH   1   7
ATOM      7  C1' I4B d   1      -2.511   2.117   3.658  0.00  0.00     0.060 C 
BRANCH   7   8
ATOM      8  C2' I4B d   1      -3.753   1.451   3.101  0.00  0.00    -0.013 C 
ATOM      9  C4' I4B d   1      -4.627   0.916   4.204  0.00  0.00     0.013 C 
ATOM     10  C3' I4B d   1      -4.486   2.461   2.269  0.00  0.00     0.013 C 
ENDBRANCH   7   8
ENDBRANCH   1   7
TORSDOF 2
ENDMDL
