MODEL 1
REMARK minimizedAffinity 13.6644974
REMARK minimizedRMSD -1
REMARK  2 active torsions:
REMARK  status: ('A' for Active; 'I' for Inactive)
REMARK    1  A    between atoms: C2'_3  and  C1'_4 
REMARK    2  A    between atoms: C1'_4  and  C1_5 
ROOT
ATOM      1  C1  I4B d   1       3.139   1.228  -1.430  0.00  0.00    -0.075 A 
ATOM      2  C2  I4B d   1       1.887   1.583  -0.991  0.00  0.00     0.003 A 
ATOM      3  C3  I4B d   1       1.456   1.215   0.306  0.00  0.00     0.002 A 
ATOM      4  C4  I4B d   1       2.283   0.455   1.108  0.00  0.00    -0.004 A 
ATOM      5  C5  I4B d   1       3.560   0.115   0.670  0.00  0.00     0.002 A 
ATOM      6  C6  I4B d   1       3.996   0.515  -0.602  0.00  0.00     0.003 A 
ENDROOT
BRANCH   1   7
ATOM      7  C1' I4B d   1       3.549   1.604  -2.818  0.00  0.00     0.060 C 
BRANCH   7   8
ATOM      8  C2' I4B d   1       4.764   2.504  -2.717  0.00  0.00    -0.013 C 
ATOM      9  C4' I4B d   1       5.991   1.829  -3.272  0.00  0.00     0.013 C 
ATOM     10  C3' I4B d   1       4.462   3.773  -3.459  0.00  0.00     0.013 C 
ENDBRANCH   7   8
ENDBRANCH   1   7
TORSDOF 2
ENDMDL
