MODEL 1
REMARK minimizedAffinity 19.6945229
REMARK minimizedRMSD -1
REMARK  2 active torsions:
REMARK  status: ('A' for Active; 'I' for Inactive)
REMARK    1  A    between atoms: C2'_3  and  C1'_4 
REMARK    2  A    between atoms: C1'_4  and  C1_5 
ROOT
ATOM      1  C1  I4B d   1       2.889   1.228  -2.222  0.00  0.00    -0.075 A 
ATOM      2  C2  I4B d   1       1.907   1.935  -1.575  0.00  0.00     0.003 A 
ATOM      3  C3  I4B d   1       1.277   1.395  -0.427  0.00  0.00     0.002 A 
ATOM      4  C4  I4B d   1       1.622   0.131   0.005  0.00  0.00    -0.004 A 
ATOM      5  C5  I4B d   1       2.634  -0.576  -0.639  0.00  0.00     0.002 A 
ATOM      6  C6  I4B d   1       3.281  -0.019  -1.752  0.00  0.00     0.003 A 
ENDROOT
BRANCH   1   7
ATOM      7  C1' I4B d   1       3.510   1.815  -3.450  0.00  0.00     0.060 C 
BRANCH   7   8
ATOM      8  C2' I4B d   1       4.800   2.496  -3.040  0.00  0.00    -0.013 C 
ATOM      9  C4' I4B d   1       5.994   1.633  -3.351  0.00  0.00     0.013 C 
ATOM     10  C3' I4B d   1       4.879   3.809  -3.760  0.00  0.00     0.013 C 
ENDBRANCH   7   8
ENDBRANCH   1   7
TORSDOF 2
ENDMDL
