MODEL 1
REMARK minimizedAffinity 12.7810535
REMARK minimizedRMSD -1
REMARK  2 active torsions:
REMARK  status: ('A' for Active; 'I' for Inactive)
REMARK    1  A    between atoms: C2'_3  and  C1'_4 
REMARK    2  A    between atoms: C1'_4  and  C1_5 
ROOT
ATOM      1  C1  I4B d   1      -2.635  -2.716  -0.942  0.00  0.00    -0.075 A 
ATOM      2  C2  I4B d   1      -3.422  -2.399   0.137  0.00  0.00     0.003 A 
ATOM      3  C3  I4B d   1      -2.828  -2.047   1.373  0.00  0.00     0.002 A 
ATOM      4  C4  I4B d   1      -1.454  -2.073   1.499  0.00  0.00    -0.004 A 
ATOM      5  C5  I4B d   1      -0.657  -2.372   0.397  0.00  0.00     0.002 A 
ATOM      6  C6  I4B d   1      -1.251  -2.683  -0.835  0.00  0.00     0.003 A 
ENDROOT
BRANCH   1   7
ATOM      7  C1' I4B d   1      -3.296  -3.116  -2.223  0.00  0.00     0.060 C 
BRANCH   7   8
ATOM      8  C2' I4B d   1      -4.544  -3.904  -1.879  0.00  0.00    -0.013 C 
ATOM      9  C4' I4B d   1      -5.600  -3.745  -2.941  0.00  0.00     0.013 C 
ATOM     10  C3' I4B d   1      -4.152  -5.342  -1.715  0.00  0.00     0.013 C 
ENDBRANCH   7   8
ENDBRANCH   1   7
TORSDOF 2
ENDMDL
