MODEL 1
REMARK minimizedAffinity 22.8849392
REMARK minimizedRMSD -1
REMARK  2 active torsions:
REMARK  status: ('A' for Active; 'I' for Inactive)
REMARK    1  A    between atoms: C2'_3  and  C1'_4 
REMARK    2  A    between atoms: C1'_4  and  C1_5 
ROOT
ATOM      1  C1  I4B d   1      -0.522   0.284   2.232  0.00  0.00    -0.075 A 
ATOM      2  C2  I4B d   1      -0.433  -0.785   1.376  0.00  0.00     0.003 A 
ATOM      3  C3  I4B d   1       0.618  -0.855   0.430  0.00  0.00     0.002 A 
ATOM      4  C4  I4B d   1       1.523   0.183   0.342  0.00  0.00    -0.004 A 
ATOM      5  C5  I4B d   1       1.445   1.255   1.227  0.00  0.00     0.002 A 
ATOM      6  C6  I4B d   1       0.423   1.300   2.186  0.00  0.00     0.003 A 
ENDROOT
BRANCH   1   7
ATOM      7  C1' I4B d   1      -1.665   0.342   3.196  0.00  0.00     0.060 C 
BRANCH   7   8
ATOM      8  C2' I4B d   1      -2.815   1.055   2.515  0.00  0.00    -0.013 C 
ATOM      9  C4' I4B d   1      -4.043   0.185   2.466  0.00  0.00     0.013 C 
ATOM     10  C3' I4B d   1      -3.081   2.326   3.264  0.00  0.00     0.013 C 
ENDBRANCH   7   8
ENDBRANCH   1   7
TORSDOF 2
ENDMDL
