MODEL 1
REMARK minimizedAffinity 17.2758694
REMARK minimizedRMSD -1
REMARK  2 active torsions:
REMARK  status: ('A' for Active; 'I' for Inactive)
REMARK    1  A    between atoms: C2'_3  and  C1'_4 
REMARK    2  A    between atoms: C1'_4  and  C1_5 
ROOT
ATOM      1  C1  I4B d   1       2.495   1.060  -1.056  0.00  0.00    -0.075 A 
ATOM      2  C2  I4B d   1       1.740   2.115  -0.609  0.00  0.00     0.003 A 
ATOM      3  C3  I4B d   1       1.096   2.047   0.651  0.00  0.00     0.002 A 
ATOM      4  C4  I4B d   1       1.192   0.894   1.402  0.00  0.00    -0.004 A 
ATOM      5  C5  I4B d   1       1.977  -0.166   0.957  0.00  0.00     0.002 A 
ATOM      6  C6  I4B d   1       2.643  -0.078  -0.274  0.00  0.00     0.003 A 
ENDROOT
BRANCH   1   7
ATOM      7  C1' I4B d   1       3.134   1.152  -2.405  0.00  0.00     0.060 C 
BRANCH   7   8
ATOM      8  C2' I4B d   1       3.149   2.610  -2.817  0.00  0.00    -0.013 C 
ATOM      9  C4' I4B d   1       4.557   3.117  -2.980  0.00  0.00     0.013 C 
ATOM     10  C3' I4B d   1       2.376   2.738  -4.095  0.00  0.00     0.013 C 
ENDBRANCH   7   8
ENDBRANCH   1   7
TORSDOF 2
ENDMDL
