MODEL 1
REMARK minimizedAffinity 16.8511181
REMARK minimizedRMSD -1
REMARK  2 active torsions:
REMARK  status: ('A' for Active; 'I' for Inactive)
REMARK    1  A    between atoms: C2'_3  and  C1'_4 
REMARK    2  A    between atoms: C1'_4  and  C1_5 
ROOT
ATOM      1  C1  I4B d   1       0.171  -0.794   0.870  0.00  0.00    -0.075 A 
ATOM      2  C2  I4B d   1       0.723   0.258   0.181  0.00  0.00     0.003 A 
ATOM      3  C3  I4B d   1       1.114   1.433   0.868  0.00  0.00     0.002 A 
ATOM      4  C4  I4B d   1       0.890   1.532   2.226  0.00  0.00    -0.004 A 
ATOM      5  C5  I4B d   1       0.352   0.456   2.926  0.00  0.00     0.002 A 
ATOM      6  C6  I4B d   1       0.002  -0.719   2.246  0.00  0.00     0.003 A 
ENDROOT
BRANCH   1   7
ATOM      7  C1' I4B d   1      -0.261  -2.007   0.108  0.00  0.00     0.060 C 
BRANCH   7   8
ATOM      8  C2' I4B d   1      -1.685  -2.330   0.513  0.00  0.00    -0.013 C 
ATOM      9  C4' I4B d   1      -2.587  -2.416  -0.690  0.00  0.00     0.013 C 
ATOM     10  C3' I4B d   1      -1.668  -3.623   1.272  0.00  0.00     0.013 C 
ENDBRANCH   7   8
ENDBRANCH   1   7
TORSDOF 2
ENDMDL
