MODEL 1
REMARK minimizedAffinity 15.1826591
REMARK minimizedRMSD -1
REMARK  2 active torsions:
REMARK  status: ('A' for Active; 'I' for Inactive)
REMARK    1  A    between atoms: C2'_3  and  C1'_4 
REMARK    2  A    between atoms: C1'_4  and  C1_5 
ROOT
ATOM      1  C1  I4B d   1       2.784   0.948  -0.975  0.00  0.00    -0.075 A 
ATOM      2  C2  I4B d   1       1.553   1.428  -0.603  0.00  0.00     0.003 A 
ATOM      3  C3  I4B d   1       1.022   1.116   0.672  0.00  0.00     0.002 A 
ATOM      4  C4  I4B d   1       1.728   0.285   1.517  0.00  0.00    -0.004 A 
ATOM      5  C5  I4B d   1       2.986  -0.182   1.148  0.00  0.00     0.002 A 
ATOM      6  C6  I4B d   1       3.524   0.161  -0.101  0.00  0.00     0.003 A 
ENDROOT
BRANCH   1   7
ATOM      7  C1' I4B d   1       3.301   1.270  -2.341  0.00  0.00     0.060 C 
BRANCH   7   8
ATOM      8  C2' I4B d   1       4.680   1.877  -2.188  0.00  0.00    -0.013 C 
ATOM      9  C4' I4B d   1       5.665   1.239  -3.131  0.00  0.00     0.013 C 
ATOM     10  C3' I4B d   1       4.568   3.352  -2.439  0.00  0.00     0.013 C 
ENDBRANCH   7   8
ENDBRANCH   1   7
TORSDOF 2
ENDMDL
