MODEL 1
REMARK minimizedAffinity 1.35346937
REMARK minimizedRMSD -1
REMARK  1 active torsions:
REMARK  status: ('A' for Active; 'I' for Inactive)
REMARK    1  A    between atoms: C1_2  and  C2_3 
ROOT
ATOM      1  C2  UNL d   1       3.362  -5.974  -3.449  0.00  0.00    -0.076 A 
ATOM      2  C3  UNL d   1       4.759  -5.940  -3.597  0.00  0.00     0.004 A 
ATOM      3  C4  UNL d   1       5.347  -5.941  -4.861  0.00  0.00    -0.003 A 
ATOM      4  C5  UNL d   1       4.546  -5.976  -5.998  0.00  0.00     0.000 A 
ATOM      5  C6  UNL d   1       3.158  -5.992  -5.869  0.00  0.00     0.000 A 
ATOM      6  C7  UNL d   1       2.549  -5.975  -4.603  0.00  0.00    -0.073 A 
ATOM      7  C8  UNL d   1       1.047  -6.000  -4.523  0.00  0.00     0.078 C 
ENDROOT
BRANCH   1   8
ATOM      8  C1  UNL d   1       2.782  -5.998  -2.053  0.00  0.00     0.053 C 
ATOM      9  C   UNL d   1       3.853  -5.924  -0.976  0.00  0.00     0.018 C 
ENDBRANCH   1   8
TORSDOF 1
ENDMDL
