MODEL 1
REMARK minimizedAffinity 8.92150307
REMARK minimizedRMSD -1
REMARK  1 active torsions:
REMARK  status: ('A' for Active; 'I' for Inactive)
REMARK    1  A    between atoms: C1_2  and  C2_3 
ROOT
ATOM      1  C2  UNL d   1      -3.701   2.541  -0.700  0.00  0.00    -0.076 A 
ATOM      2  C3  UNL d   1      -5.028   2.732  -1.125  0.00  0.00     0.004 A 
ATOM      3  C4  UNL d   1      -5.999   3.216  -0.250  0.00  0.00    -0.003 A 
ATOM      4  C5  UNL d   1      -5.659   3.518   1.064  0.00  0.00     0.000 A 
ATOM      5  C6  UNL d   1      -4.345   3.352   1.498  0.00  0.00     0.000 A 
ATOM      6  C7  UNL d   1      -3.350   2.880   0.624  0.00  0.00    -0.073 A 
ATOM      7  C8  UNL d   1      -1.949   2.714   1.148  0.00  0.00     0.078 C 
ENDROOT
BRANCH   1   8
ATOM      8  C1  UNL d   1      -2.697   1.988  -1.685  0.00  0.00     0.053 C 
ATOM      9  C   UNL d   1      -3.178   0.707  -2.349  0.00  0.00     0.018 C 
ENDBRANCH   1   8
TORSDOF 1
ENDMDL
