MODEL 1
REMARK minimizedAffinity 3.39478302
REMARK minimizedRMSD -1
REMARK  1 active torsions:
REMARK  status: ('A' for Active; 'I' for Inactive)
REMARK    1  A    between atoms: C1_2  and  C2_3 
ROOT
ATOM      1  C2  UNL d   1       3.516  -5.605  -3.508  0.00  0.00    -0.076 A 
ATOM      2  C3  UNL d   1       4.876  -5.258  -3.578  0.00  0.00     0.004 A 
ATOM      3  C4  UNL d   1       5.485  -4.984  -4.802  0.00  0.00    -0.003 A 
ATOM      4  C5  UNL d   1       4.742  -5.053  -5.976  0.00  0.00     0.000 A 
ATOM      5  C6  UNL d   1       3.387  -5.379  -5.923  0.00  0.00     0.000 A 
ATOM      6  C7  UNL d   1       2.755  -5.642  -4.696  0.00  0.00    -0.073 A 
ATOM      7  C8  UNL d   1       1.293  -5.994  -4.698  0.00  0.00     0.078 C 
ENDROOT
BRANCH   1   8
ATOM      8  C1  UNL d   1       2.918  -5.917  -2.155  0.00  0.00     0.053 C 
ATOM      9  C   UNL d   1       3.967  -5.991  -1.056  0.00  0.00     0.018 C 
ENDBRANCH   1   8
TORSDOF 1
ENDMDL
