MODEL 1
REMARK minimizedAffinity -0.741016388
REMARK minimizedRMSD -1
REMARK  1 active torsions:
REMARK  status: ('A' for Active; 'I' for Inactive)
REMARK    1  A    between atoms: C1_2  and  C2_3 
ROOT
ATOM      1  C2  UNL d   1       5.330  -3.663  -3.224  0.00  0.00    -0.076 A 
ATOM      2  C3  UNL d   1       5.864  -3.427  -4.503  0.00  0.00     0.004 A 
ATOM      3  C4  UNL d   1       6.000  -4.463  -5.426  0.00  0.00    -0.003 A 
ATOM      4  C5  UNL d   1       5.603  -5.751  -5.085  0.00  0.00     0.000 A 
ATOM      5  C6  UNL d   1       5.055  -6.000  -3.827  0.00  0.00     0.000 A 
ATOM      6  C7  UNL d   1       4.896  -4.963  -2.891  0.00  0.00    -0.073 A 
ATOM      7  C8  UNL d   1       4.305  -5.289  -1.546  0.00  0.00     0.078 C 
ENDROOT
BRANCH   1   8
ATOM      8  C1  UNL d   1       5.233  -2.506  -2.256  0.00  0.00     0.053 C 
ATOM      9  C   UNL d   1       4.151  -1.510  -2.644  0.00  0.00     0.018 C 
ENDBRANCH   1   8
TORSDOF 1
ENDMDL
