MODEL 1
REMARK minimizedAffinity 8.02058887
REMARK minimizedRMSD -1
REMARK  1 active torsions:
REMARK  status: ('A' for Active; 'I' for Inactive)
REMARK    1  A    between atoms: C1_2  and  C2_3 
ROOT
ATOM      1  C2  UNL d   1       1.235  -5.891  -1.099  0.00  0.00    -0.076 A 
ATOM      2  C3  UNL d   1       1.047  -5.836   0.293  0.00  0.00     0.004 A 
ATOM      3  C4  UNL d   1       2.135  -5.781   1.163  0.00  0.00    -0.003 A 
ATOM      4  C5  UNL d   1       3.430  -5.780   0.654  0.00  0.00     0.000 A 
ATOM      5  C6  UNL d   1       3.634  -5.817  -0.725  0.00  0.00     0.000 A 
ATOM      6  C7  UNL d   1       2.548  -5.856  -1.616  0.00  0.00    -0.073 A 
ATOM      7  C8  UNL d   1       2.827  -5.901  -3.093  0.00  0.00     0.078 C 
ENDROOT
BRANCH   1   8
ATOM      8  C1  UNL d   1       0.017  -5.977  -1.991  0.00  0.00     0.053 C 
ATOM      9  C   UNL d   1      -1.284  -5.938  -1.205  0.00  0.00     0.018 C 
ENDBRANCH   1   8
TORSDOF 1
ENDMDL
