MODEL 1
REMARK minimizedAffinity -1.28957903
REMARK minimizedRMSD -1
REMARK  1 active torsions:
REMARK  status: ('A' for Active; 'I' for Inactive)
REMARK    1  A    between atoms: C1_2  and  C2_3 
ROOT
ATOM      1  C2  UNL d   1       3.646  -5.939  -4.639  0.00  0.00    -0.076 A 
ATOM      2  C3  UNL d   1       3.014  -5.923  -5.894  0.00  0.00     0.004 A 
ATOM      3  C4  UNL d   1       1.624  -5.954  -5.998  0.00  0.00    -0.003 A 
ATOM      4  C5  UNL d   1       0.844  -6.000  -4.848  0.00  0.00     0.000 A 
ATOM      5  C6  UNL d   1       1.454  -5.998  -3.594  0.00  0.00     0.000 A 
ATOM      6  C7  UNL d   1       2.853  -5.951  -3.471  0.00  0.00    -0.073 A 
ATOM      7  C8  UNL d   1       3.458  -5.958  -2.094  0.00  0.00     0.078 C 
ENDROOT
BRANCH   1   8
ATOM      8  C1  UNL d   1       5.157  -5.932  -4.589  0.00  0.00     0.053 C 
ATOM      9  C   UNL d   1       5.779  -5.325  -5.837  0.00  0.00     0.018 C 
ENDBRANCH   1   8
TORSDOF 1
ENDMDL
