MODEL 1
REMARK minimizedAffinity -0.795165777
REMARK minimizedRMSD -1
REMARK  1 active torsions:
REMARK  status: ('A' for Active; 'I' for Inactive)
REMARK    1  A    between atoms: C1_2  and  C2_3 
ROOT
ATOM      1  C2  UNL d   1       3.744  -0.063  -4.480  0.00  0.00    -0.076 A 
ATOM      2  C3  UNL d   1       3.188   1.229  -4.496  0.00  0.00     0.004 A 
ATOM      3  C4  UNL d   1       3.770   2.251  -5.244  0.00  0.00    -0.003 A 
ATOM      4  C5  UNL d   1       4.916   1.998  -5.989  0.00  0.00     0.000 A 
ATOM      5  C6  UNL d   1       5.470   0.719  -6.000  0.00  0.00     0.000 A 
ATOM      6  C7  UNL d   1       4.887  -0.327  -5.264  0.00  0.00    -0.073 A 
ATOM      7  C8  UNL d   1       5.531  -1.686  -5.307  0.00  0.00     0.078 C 
ENDROOT
BRANCH   1   8
ATOM      8  C1  UNL d   1       3.085  -1.124  -3.629  0.00  0.00     0.053 C 
ATOM      9  C   UNL d   1       3.729  -1.253  -2.257  0.00  0.00     0.018 C 
ENDBRANCH   1   8
TORSDOF 1
ENDMDL
