MODEL 1
REMARK minimizedAffinity -1.30529642
REMARK minimizedRMSD -1
REMARK  1 active torsions:
REMARK  status: ('A' for Active; 'I' for Inactive)
REMARK    1  A    between atoms: C1_2  and  C2_3 
ROOT
ATOM      1  C2  UNL d   1       3.862  -5.946  -3.557  0.00  0.00    -0.076 A 
ATOM      2  C3  UNL d   1       2.457  -5.978  -3.501  0.00  0.00     0.004 A 
ATOM      3  C4  UNL d   1       1.694  -5.998  -4.667  0.00  0.00    -0.003 A 
ATOM      4  C5  UNL d   1       2.322  -5.988  -5.908  0.00  0.00     0.000 A 
ATOM      5  C6  UNL d   1       3.715  -5.975  -5.981  0.00  0.00     0.000 A 
ATOM      6  C7  UNL d   1       4.499  -5.971  -4.815  0.00  0.00    -0.073 A 
ATOM      7  C8  UNL d   1       5.997  -5.951  -4.954  0.00  0.00     0.078 C 
ENDROOT
BRANCH   1   8
ATOM      8  C1  UNL d   1       4.637  -5.898  -2.259  0.00  0.00     0.053 C 
ATOM      9  C   UNL d   1       3.736  -5.998  -1.038  0.00  0.00     0.018 C 
ENDBRANCH   1   8
TORSDOF 1
ENDMDL
