MODEL 1
REMARK minimizedAffinity 7.17332649
REMARK minimizedRMSD -1
REMARK  1 active torsions:
REMARK  status: ('A' for Active; 'I' for Inactive)
REMARK    1  A    between atoms: C1_2  and  C2_3 
ROOT
ATOM      1  C2  UNL d   1       3.529  -2.982   4.212  0.00  0.00    -0.076 A 
ATOM      2  C3  UNL d   1       3.183  -1.921   3.357  0.00  0.00     0.004 A 
ATOM      3  C4  UNL d   1       1.959  -1.906   2.691  0.00  0.00    -0.003 A 
ATOM      4  C5  UNL d   1       1.059  -2.951   2.870  0.00  0.00     0.000 A 
ATOM      5  C6  UNL d   1       1.378  -4.003   3.729  0.00  0.00     0.000 A 
ATOM      6  C7  UNL d   1       2.601  -4.025   4.420  0.00  0.00    -0.073 A 
ATOM      7  C8  UNL d   1       2.895  -5.188   5.329  0.00  0.00     0.078 C 
ENDROOT
BRANCH   1   8
ATOM      8  C1  UNL d   1       4.882  -2.958   4.886  0.00  0.00     0.053 C 
ATOM      9  C   UNL d   1       6.000  -2.562   3.934  0.00  0.00     0.018 C 
ENDBRANCH   1   8
TORSDOF 1
ENDMDL
