MODEL 1
REMARK minimizedAffinity 2.33339429
REMARK minimizedRMSD -1
REMARK  1 active torsions:
REMARK  status: ('A' for Active; 'I' for Inactive)
REMARK    1  A    between atoms: C1_2  and  C2_3 
ROOT
ATOM      1  C2  UNL d   1      -1.979  -2.968  -1.175  0.00  0.00    -0.076 A 
ATOM      2  C3  UNL d   1      -1.853  -1.646  -1.635  0.00  0.00     0.004 A 
ATOM      3  C4  UNL d   1      -2.632  -1.175  -2.690  0.00  0.00    -0.003 A 
ATOM      4  C5  UNL d   1      -3.552  -2.019  -3.302  0.00  0.00     0.000 A 
ATOM      5  C6  UNL d   1      -3.704  -3.329  -2.848  0.00  0.00     0.000 A 
ATOM      6  C7  UNL d   1      -2.937  -3.814  -1.775  0.00  0.00    -0.073 A 
ATOM      7  C8  UNL d   1      -3.137  -5.237  -1.330  0.00  0.00     0.078 C 
ENDROOT
BRANCH   1   8
ATOM      8  C1  UNL d   1      -1.088  -3.431  -0.046  0.00  0.00     0.053 C 
ATOM      9  C   UNL d   1       0.148  -2.559   0.116  0.00  0.00     0.018 C 
ENDBRANCH   1   8
TORSDOF 1
ENDMDL
