MODEL 1
REMARK minimizedAffinity 3.17588544
REMARK minimizedRMSD -1
REMARK  1 active torsions:
REMARK  status: ('A' for Active; 'I' for Inactive)
REMARK    1  A    between atoms: C1_2  and  C2_3 
ROOT
ATOM      1  C2  UNL d   1       1.548  -3.509   4.572  0.00  0.00    -0.076 A 
ATOM      2  C3  UNL d   1       2.103  -4.532   3.784  0.00  0.00     0.004 A 
ATOM      3  C4  UNL d   1       2.838  -4.237   2.637  0.00  0.00    -0.003 A 
ATOM      4  C5  UNL d   1       3.031  -2.913   2.260  0.00  0.00     0.000 A 
ATOM      5  C6  UNL d   1       2.503  -1.884   3.039  0.00  0.00     0.000 A 
ATOM      6  C7  UNL d   1       1.773  -2.164   4.207  0.00  0.00    -0.073 A 
ATOM      7  C8  UNL d   1       1.221  -1.015   5.006  0.00  0.00     0.078 C 
ENDROOT
BRANCH   1   8
ATOM      8  C1  UNL d   1       0.737  -3.890   5.789  0.00  0.00     0.053 C 
ATOM      9  C   UNL d   1       0.673  -5.396   5.998  0.00  0.00     0.018 C 
ENDBRANCH   1   8
TORSDOF 1
ENDMDL
