MODEL 1
REMARK minimizedAffinity 4.07333374
REMARK minimizedRMSD -1
REMARK  1 active torsions:
REMARK  status: ('A' for Active; 'I' for Inactive)
REMARK    1  A    between atoms: C1_2  and  C2_3 
ROOT
ATOM      1  C2  UNL d   1       1.634  -3.512   4.291  0.00  0.00    -0.076 A 
ATOM      2  C3  UNL d   1       1.099  -2.339   4.852  0.00  0.00     0.004 A 
ATOM      3  C4  UNL d   1       1.186  -1.120   4.183  0.00  0.00    -0.003 A 
ATOM      4  C5  UNL d   1       1.808  -1.053   2.941  0.00  0.00     0.000 A 
ATOM      5  C6  UNL d   1       2.328  -2.210   2.361  0.00  0.00     0.000 A 
ATOM      6  C7  UNL d   1       2.235  -3.450   3.015  0.00  0.00    -0.073 A 
ATOM      7  C8  UNL d   1       2.819  -4.665   2.347  0.00  0.00     0.078 C 
ENDROOT
BRANCH   1   8
ATOM      8  C1  UNL d   1       1.535  -4.801   5.075  0.00  0.00     0.053 C 
ATOM      9  C   UNL d   1       0.327  -4.829   5.999  0.00  0.00     0.018 C 
ENDBRANCH   1   8
TORSDOF 1
ENDMDL
