MODEL 1
REMARK minimizedAffinity 12.214263
REMARK minimizedRMSD -1
REMARK  0 active torsions:
REMARK  status: ('A' for Active; 'I' for Inactive)
ROOT
ATOM      1  C   UNL d   1       5.187  -2.453  -2.951  0.00  0.00     0.020 A 
ATOM      2  C1  UNL d   1       5.992  -2.402  -1.814  0.00  0.00     0.020 A 
ATOM      3  C2  UNL d   1       6.000  -3.471  -0.916  0.00  0.00     0.034 A 
ATOM      4  C3  UNL d   1       5.201  -4.596  -1.153  0.00  0.00     0.017 A 
ATOM      5  C4  UNL d   1       4.393  -4.646  -2.295  0.00  0.00     0.017 A 
ATOM      6  C5  UNL d   1       4.389  -3.572  -3.191  0.00  0.00     0.034 A 
ATOM      7 Cl   UNL d   1       3.381  -5.999  -2.656  0.00  0.00    -0.070 Cl
ATOM      8 Cl1  UNL d   1       5.261  -5.882  -0.001  0.00  0.00    -0.070 Cl
ENDROOT
TORSDOF 0
ENDMDL
