MODEL 1
REMARK minimizedAffinity 10.3566999
REMARK minimizedRMSD -1
REMARK  0 active torsions:
REMARK  status: ('A' for Active; 'I' for Inactive)
ROOT
ATOM      1  C   UNL d   1      -1.461  -0.591  -1.708  0.00  0.00     0.020 A 
ATOM      2  C1  UNL d   1      -1.136  -1.189  -2.925  0.00  0.00     0.020 A 
ATOM      3  C2  UNL d   1      -1.601  -0.637  -4.121  0.00  0.00     0.034 A 
ATOM      4  C3  UNL d   1      -2.394   0.516  -4.102  0.00  0.00     0.017 A 
ATOM      5  C4  UNL d   1      -2.720   1.115  -2.881  0.00  0.00     0.017 A 
ATOM      6  C5  UNL d   1      -2.252   0.559  -1.686  0.00  0.00     0.034 A 
ATOM      7 Cl   UNL d   1      -3.694   2.540  -2.778  0.00  0.00    -0.070 Cl
ATOM      8 Cl1  UNL d   1      -2.934   1.144  -5.619  0.00  0.00    -0.070 Cl
ENDROOT
TORSDOF 0
ENDMDL
