MODEL 1
REMARK minimizedAffinity 6.13519287
REMARK minimizedRMSD -1
REMARK  0 active torsions:
REMARK  status: ('A' for Active; 'I' for Inactive)
ROOT
ATOM      1  C   UNL d   1       1.231  -0.495   3.475  0.00  0.00     0.020 A 
ATOM      2  C1  UNL d   1       2.013  -0.375   2.327  0.00  0.00     0.020 A 
ATOM      3  C2  UNL d   1       1.737   0.628   1.395  0.00  0.00     0.034 A 
ATOM      4  C3  UNL d   1       0.676   1.515   1.610  0.00  0.00     0.017 A 
ATOM      5  C4  UNL d   1      -0.108   1.394   2.762  0.00  0.00     0.017 A 
ATOM      6  C5  UNL d   1       0.173   0.388   3.692  0.00  0.00     0.034 A 
ATOM      7 Cl   UNL d   1      -1.434   2.452   3.096  0.00  0.00    -0.070 Cl
ATOM      8 Cl1  UNL d   1       0.392   2.731   0.416  0.00  0.00    -0.070 Cl
ENDROOT
TORSDOF 0
ENDMDL
