MODEL 1
REMARK minimizedAffinity 12.2013369
REMARK minimizedRMSD -1
REMARK  0 active torsions:
REMARK  status: ('A' for Active; 'I' for Inactive)
ROOT
ATOM      1  C   UNL d   1      -5.998   5.848  -0.733  0.00  0.00     0.020 A 
ATOM      2  C1  UNL d   1      -5.272   6.000   0.448  0.00  0.00     0.020 A 
ATOM      3  C2  UNL d   1      -3.923   5.642   0.488  0.00  0.00     0.034 A 
ATOM      4  C3  UNL d   1      -3.295   5.130  -0.653  0.00  0.00     0.017 A 
ATOM      5  C4  UNL d   1      -4.025   4.978  -1.838  0.00  0.00     0.017 A 
ATOM      6  C5  UNL d   1      -5.376   5.339  -1.873  0.00  0.00     0.034 A 
ATOM      7 Cl   UNL d   1      -3.320   4.354  -3.287  0.00  0.00    -0.070 Cl
ATOM      8 Cl1  UNL d   1      -1.624   4.709  -0.531  0.00  0.00    -0.070 Cl
ENDROOT
TORSDOF 0
ENDMDL
