MODEL 1
REMARK minimizedAffinity 11.5806608
REMARK minimizedRMSD -1
REMARK  0 active torsions:
REMARK  status: ('A' for Active; 'I' for Inactive)
ROOT
ATOM      1  C   UNL d   1       1.032  -0.457   4.143  0.00  0.00     0.020 A 
ATOM      2  C1  UNL d   1       2.066   0.006   3.330  0.00  0.00     0.020 A 
ATOM      3  C2  UNL d   1       1.810   0.976   2.359  0.00  0.00     0.034 A 
ATOM      4  C3  UNL d   1       0.517   1.486   2.196  0.00  0.00     0.017 A 
ATOM      5  C4  UNL d   1      -0.521   1.020   3.012  0.00  0.00     0.017 A 
ATOM      6  C5  UNL d   1      -0.259   0.049   3.984  0.00  0.00     0.034 A 
ATOM      7 Cl   UNL d   1      -2.143   1.601   2.871  0.00  0.00    -0.070 Cl
ATOM      8 Cl1  UNL d   1       0.272   2.683   0.975  0.00  0.00    -0.070 Cl
ENDROOT
TORSDOF 0
ENDMDL
