MODEL 1
REMARK minimizedAffinity 11.5795593
REMARK minimizedRMSD -1
REMARK  0 active torsions:
REMARK  status: ('A' for Active; 'I' for Inactive)
ROOT
ATOM      1  C   UNL d   1       5.600  -2.376  -1.865  0.00  0.00     0.020 A 
ATOM      2  C1  UNL d   1       5.684  -3.542  -1.105  0.00  0.00     0.020 A 
ATOM      3  C2  UNL d   1       4.709  -3.822  -0.146  0.00  0.00     0.034 A 
ATOM      4  C3  UNL d   1       3.645  -2.935   0.056  0.00  0.00     0.017 A 
ATOM      5  C4  UNL d   1       3.562  -1.765  -0.706  0.00  0.00     0.017 A 
ATOM      6  C5  UNL d   1       4.541  -1.489  -1.666  0.00  0.00     0.034 A 
ATOM      7 Cl   UNL d   1       2.280  -0.622  -0.514  0.00  0.00    -0.070 Cl
ATOM      8 Cl1  UNL d   1       2.475  -3.345   1.259  0.00  0.00    -0.070 Cl
ENDROOT
TORSDOF 0
ENDMDL
