MODEL 1
REMARK minimizedAffinity 10.0013695
REMARK minimizedRMSD -1
REMARK  0 active torsions:
REMARK  status: ('A' for Active; 'I' for Inactive)
ROOT
ATOM      1  C   UNL d   1      -0.803   5.939  -0.488  0.00  0.00     0.020 A 
ATOM      2  C1  UNL d   1      -1.488   4.725  -0.488  0.00  0.00     0.020 A 
ATOM      3  C2  UNL d   1      -0.862   3.570  -0.013  0.00  0.00     0.034 A 
ATOM      4  C3  UNL d   1       0.452   3.627   0.465  0.00  0.00     0.017 A 
ATOM      5  C4  UNL d   1       1.139   4.847   0.464  0.00  0.00     0.017 A 
ATOM      6  C5  UNL d   1       0.508   6.000  -0.013  0.00  0.00     0.034 A 
ATOM      7 Cl   UNL d   1       2.763   4.996   1.038  0.00  0.00    -0.070 Cl
ATOM      8 Cl1  UNL d   1       1.164   2.161   1.038  0.00  0.00    -0.070 Cl
ENDROOT
TORSDOF 0
ENDMDL
