MODEL 1
REMARK minimizedAffinity 10.634141
REMARK minimizedRMSD -1
REMARK  0 active torsions:
REMARK  status: ('A' for Active; 'I' for Inactive)
ROOT
ATOM      1  C   UNL d   1       5.419  -2.979  -0.792  0.00  0.00     0.020 A 
ATOM      2  C1  UNL d   1       5.442  -1.633  -1.155  0.00  0.00     0.020 A 
ATOM      3  C2  UNL d   1       4.306  -0.841  -0.972  0.00  0.00     0.034 A 
ATOM      4  C3  UNL d   1       3.143  -1.395  -0.425  0.00  0.00     0.017 A 
ATOM      5  C4  UNL d   1       3.121  -2.746  -0.061  0.00  0.00     0.017 A 
ATOM      6  C5  UNL d   1       4.262  -3.534  -0.246  0.00  0.00     0.034 A 
ATOM      7 Cl   UNL d   1       1.723  -3.501   0.620  0.00  0.00    -0.070 Cl
ATOM      8 Cl1  UNL d   1       1.775  -0.358  -0.227  0.00  0.00    -0.070 Cl
ENDROOT
TORSDOF 0
ENDMDL
