MODEL 1
REMARK minimizedAffinity 7.24420595
REMARK minimizedRMSD -1
REMARK  0 active torsions:
REMARK  status: ('A' for Active; 'I' for Inactive)
ROOT
ATOM      1  C   UNL d   1       1.537  -6.000  -2.115  0.00  0.00     0.020 A 
ATOM      2  C1  UNL d   1       1.441  -5.729  -3.479  0.00  0.00     0.020 A 
ATOM      3  C2  UNL d   1       2.578  -5.349  -4.196  0.00  0.00     0.034 A 
ATOM      4  C3  UNL d   1       3.814  -5.238  -3.550  0.00  0.00     0.017 A 
ATOM      5  C4  UNL d   1       3.909  -5.511  -2.180  0.00  0.00     0.017 A 
ATOM      6  C5  UNL d   1       2.768  -5.891  -1.467  0.00  0.00     0.034 A 
ATOM      7 Cl   UNL d   1       5.400  -5.397  -1.313  0.00  0.00    -0.070 Cl
ATOM      8 Cl1  UNL d   1       5.178  -4.764  -4.499  0.00  0.00    -0.070 Cl
ENDROOT
TORSDOF 0
ENDMDL
