MODEL 1
REMARK minimizedAffinity 5.78170919
REMARK minimizedRMSD -1
REMARK  0 active torsions:
REMARK  status: ('A' for Active; 'I' for Inactive)
ROOT
ATOM      1  C   UNL d   1      -0.313   0.300   1.209  0.00  0.00    -0.002 A 
ATOM      2  C1  UNL d   1      -1.456  -0.478   1.326  0.00  0.00     0.010 A 
ATOM      3  C2  UNL d   1      -1.511  -1.525   2.249  0.00  0.00     0.041 A 
ATOM      4  C3  UNL d   1      -0.388  -1.778   3.061  0.00  0.00    -0.075 A 
ATOM      5  S   UNL d   1      -0.228  -3.006   4.260  0.00  0.00     0.015 SA
ATOM      6  C4  UNL d   1       1.361  -2.526   4.646  0.00  0.00     0.022 A 
ATOM      7  C5  UNL d   1       1.776  -1.457   3.887  0.00  0.00     0.026 A 
ATOM      8  C6  UNL d   1       0.774  -1.008   2.961  0.00  0.00    -0.082 A 
ATOM      9  C7  UNL d   1       0.799   0.046   2.016  0.00  0.00     0.045 A 
ENDROOT
TORSDOF 0
ENDMDL
