MODEL 1
REMARK minimizedAffinity -0.178138778
REMARK minimizedRMSD -1
REMARK  0 active torsions:
REMARK  status: ('A' for Active; 'I' for Inactive)
ROOT
ATOM      1  C   UNL d   1       1.815  -1.333   3.571  0.00  0.00    -0.002 A 
ATOM      2  C1  UNL d   1       1.128  -2.379   4.170  0.00  0.00     0.010 A 
ATOM      3  C2  UNL d   1      -0.213  -2.617   3.862  0.00  0.00     0.041 A 
ATOM      4  C3  UNL d   1      -0.858  -1.778   2.931  0.00  0.00    -0.075 A 
ATOM      5  S   UNL d   1      -2.494  -1.880   2.400  0.00  0.00     0.015 SA
ATOM      6  C4  UNL d   1      -2.320  -0.537   1.364  0.00  0.00     0.022 A 
ATOM      7  C5  UNL d   1      -1.050  -0.012   1.411  0.00  0.00     0.026 A 
ATOM      8  C6  UNL d   1      -0.186  -0.718   2.314  0.00  0.00    -0.082 A 
ATOM      9  C7  UNL d   1       1.172  -0.503   2.648  0.00  0.00     0.045 A 
ENDROOT
TORSDOF 0
ENDMDL
