MODEL 1
REMARK minimizedAffinity 9.491436
REMARK minimizedRMSD -1
REMARK  0 active torsions:
REMARK  status: ('A' for Active; 'I' for Inactive)
ROOT
ATOM      1  C   UNL d   1       2.619  -1.237   4.417  0.00  0.00    -0.002 A 
ATOM      2  C1  UNL d   1       1.845  -2.290   4.881  0.00  0.00     0.010 A 
ATOM      3  C2  UNL d   1       0.552  -2.490   4.395  0.00  0.00     0.041 A 
ATOM      4  C3  UNL d   1       0.045  -1.605   3.423  0.00  0.00    -0.075 A 
ATOM      5  S   UNL d   1      -1.511  -1.654   2.682  0.00  0.00     0.015 SA
ATOM      6  C4  UNL d   1      -1.184  -0.278   1.731  0.00  0.00     0.022 A 
ATOM      7  C5  UNL d   1       0.076   0.220   1.960  0.00  0.00     0.026 A 
ATOM      8  C6  UNL d   1       0.806  -0.537   2.939  0.00  0.00    -0.082 A 
ATOM      9  C7  UNL d   1       2.113  -0.361   3.452  0.00  0.00     0.045 A 
ENDROOT
TORSDOF 0
ENDMDL
