MODEL 1
REMARK minimizedAffinity 6.79165936
REMARK minimizedRMSD -1
REMARK  0 active torsions:
REMARK  status: ('A' for Active; 'I' for Inactive)
ROOT
ATOM      1  C   UNL d   1       1.764  -1.484   3.662  0.00  0.00    -0.002 A 
ATOM      2  C1  UNL d   1       1.132  -2.620   4.149  0.00  0.00     0.010 A 
ATOM      3  C2  UNL d   1      -0.224  -2.841   3.899  0.00  0.00     0.041 A 
ATOM      4  C3  UNL d   1      -0.941  -1.893   3.144  0.00  0.00    -0.075 A 
ATOM      5  S   UNL d   1      -2.609  -1.954   2.713  0.00  0.00     0.015 SA
ATOM      6  C4  UNL d   1      -2.523  -0.474   1.872  0.00  0.00     0.022 A 
ATOM      7  C5  UNL d   1      -1.260   0.067   1.909  0.00  0.00     0.026 A 
ATOM      8  C6  UNL d   1      -0.327  -0.741   2.642  0.00  0.00    -0.082 A 
ATOM      9  C7  UNL d   1       1.048  -0.546   2.913  0.00  0.00     0.045 A 
ENDROOT
TORSDOF 0
ENDMDL
