MODEL 1
REMARK minimizedAffinity 4.55336237
REMARK minimizedRMSD -1
REMARK  0 active torsions:
REMARK  status: ('A' for Active; 'I' for Inactive)
ROOT
ATOM      1  C   UNL d   1      -2.065  -2.245   4.466  0.00  0.00    -0.002 A 
ATOM      2  C1  UNL d   1      -2.531  -1.646   3.305  0.00  0.00     0.010 A 
ATOM      3  C2  UNL d   1      -1.644  -1.044   2.410  0.00  0.00     0.041 A 
ATOM      4  C3  UNL d   1      -0.267  -1.056   2.704  0.00  0.00    -0.075 A 
ATOM      5  S   UNL d   1       1.005  -0.382   1.755  0.00  0.00     0.015 SA
ATOM      6  C4  UNL d   1       2.198  -0.875   2.869  0.00  0.00     0.022 A 
ATOM      7  C5  UNL d   1       1.657  -1.538   3.944  0.00  0.00     0.026 A 
ATOM      8  C6  UNL d   1       0.228  -1.654   3.867  0.00  0.00    -0.082 A 
ATOM      9  C7  UNL d   1      -0.697  -2.255   4.755  0.00  0.00     0.045 A 
ENDROOT
TORSDOF 0
ENDMDL
