MODEL 1
REMARK minimizedAffinity 3.01542711
REMARK minimizedRMSD -1
REMARK  0 active torsions:
REMARK  status: ('A' for Active; 'I' for Inactive)
ROOT
ATOM      1  C   UNL d   1       2.201  -1.474   3.383  0.00  0.00    -0.002 A 
ATOM      2  C1  UNL d   1       1.371  -2.033   4.344  0.00  0.00     0.010 A 
ATOM      3  C2  UNL d   1      -0.017  -1.941   4.224  0.00  0.00     0.041 A 
ATOM      4  C3  UNL d   1      -0.562  -1.273   3.110  0.00  0.00    -0.075 A 
ATOM      5  S   UNL d   1      -2.233  -1.038   2.754  0.00  0.00     0.015 SA
ATOM      6  C4  UNL d   1      -1.883  -0.190   1.317  0.00  0.00     0.022 A 
ATOM      7  C5  UNL d   1      -0.530  -0.080   1.099  0.00  0.00     0.026 A 
ATOM      8  C6  UNL d   1       0.253  -0.703   2.129  0.00  0.00    -0.082 A 
ATOM      9  C7  UNL d   1       1.657  -0.812   2.280  0.00  0.00     0.045 A 
ENDROOT
TORSDOF 0
ENDMDL
