MODEL 1
REMARK minimizedAffinity 0.0149461031
REMARK minimizedRMSD -1
REMARK  0 active torsions:
REMARK  status: ('A' for Active; 'I' for Inactive)
ROOT
ATOM      1  C   UNL d   1       2.993  -1.559   5.376  0.00  0.00    -0.002 A 
ATOM      2  C1  UNL d   1       2.425  -2.804   5.144  0.00  0.00     0.010 A 
ATOM      3  C2  UNL d   1       1.375  -2.947   4.235  0.00  0.00     0.041 A 
ATOM      4  C3  UNL d   1       0.902  -1.808   3.555  0.00  0.00    -0.075 A 
ATOM      5  S   UNL d   1      -0.374  -1.743   2.397  0.00  0.00     0.015 SA
ATOM      6  C4  UNL d   1      -0.194  -0.062   2.182  0.00  0.00     0.022 A 
ATOM      7  C5  UNL d   1       0.810   0.454   2.967  0.00  0.00     0.026 A 
ATOM      8  C6  UNL d   1       1.458  -0.544   3.771  0.00  0.00    -0.082 A 
ATOM      9  C7  UNL d   1       2.521  -0.431   4.699  0.00  0.00     0.045 A 
ENDROOT
TORSDOF 0
ENDMDL
