MODEL 1
REMARK minimizedAffinity 11.757431
REMARK minimizedRMSD -1
REMARK  0 active torsions:
REMARK  status: ('A' for Active; 'I' for Inactive)
ROOT
ATOM      1  C   UNL d   1      -0.922   0.729   1.083  0.00  0.00    -0.002 A 
ATOM      2  C1  UNL d   1      -1.977   0.038   1.659  0.00  0.00     0.010 A 
ATOM      3  C2  UNL d   1      -1.743  -0.919   2.650  0.00  0.00     0.041 A 
ATOM      4  C3  UNL d   1      -0.418  -1.169   3.056  0.00  0.00    -0.075 A 
ATOM      5  S   UNL d   1       0.109  -2.294   4.251  0.00  0.00     0.015 SA
ATOM      6  C4  UNL d   1       1.747  -1.882   4.025  0.00  0.00     0.022 A 
ATOM      7  C5  UNL d   1       1.907  -0.912   3.064  0.00  0.00     0.026 A 
ATOM      8  C6  UNL d   1       0.662  -0.484   2.490  0.00  0.00    -0.082 A 
ATOM      9  C7  UNL d   1       0.392   0.478   1.488  0.00  0.00     0.045 A 
ENDROOT
TORSDOF 0
ENDMDL
