MODEL 1
REMARK minimizedAffinity -0.888216913
REMARK minimizedRMSD -1
REMARK  2 active torsions:
REMARK  status: ('A' for Active; 'I' for Inactive)
REMARK    1  A    between atoms: C1_2  and  C2_3 
REMARK    2  A    between atoms: C2_3  and  C3_4 
ROOT
ATOM      1  C3  UNL d   1       0.622   1.843   0.724  0.00  0.00    -0.075 A 
ATOM      2  C4  UNL d   1       0.616   0.924   1.783  0.00  0.00     0.002 A 
ATOM      3  C5  UNL d   1       0.535  -0.446   1.531  0.00  0.00     0.002 A 
ATOM      4  C6  UNL d   1       0.448  -0.913   0.221  0.00  0.00    -0.004 A 
ATOM      5  C7  UNL d   1       0.436  -0.007  -0.838  0.00  0.00     0.002 A 
ATOM      6  C8  UNL d   1       0.522   1.364  -0.589  0.00  0.00     0.002 A 
ENDROOT
BRANCH   1   7
ATOM      7  C2  UNL d   1       0.739   3.325   0.989  0.00  0.00     0.056 C 
BRANCH   7   8
ATOM      8  C1  UNL d   1       0.476   4.201  -0.241  0.00  0.00     0.007 C 
ATOM      9  C   UNL d   1       1.192   5.544  -0.186  0.00  0.00     0.009 C 
ENDBRANCH   7   8
ENDBRANCH   1   7
TORSDOF 2
ENDMDL
