MODEL 1
REMARK minimizedAffinity 5.49854088
REMARK minimizedRMSD -1
REMARK  2 active torsions:
REMARK  status: ('A' for Active; 'I' for Inactive)
REMARK    1  A    between atoms: C1_2  and  C2_3 
REMARK    2  A    between atoms: C2_3  and  C3_4 
ROOT
ATOM      1  C3  UNL d   1      -0.400   0.195   0.706  0.00  0.00    -0.075 A 
ATOM      2  C4  UNL d   1       0.011  -1.134   0.531  0.00  0.00     0.002 A 
ATOM      3  C5  UNL d   1       1.098  -1.639   1.246  0.00  0.00     0.002 A 
ATOM      4  C6  UNL d   1       1.792  -0.821   2.135  0.00  0.00    -0.004 A 
ATOM      5  C7  UNL d   1       1.403   0.506   2.304  0.00  0.00     0.002 A 
ATOM      6  C8  UNL d   1       0.313   1.013   1.593  0.00  0.00     0.002 A 
ENDROOT
BRANCH   1   7
ATOM      7  C2  UNL d   1      -1.593   0.740  -0.042  0.00  0.00     0.056 C 
BRANCH   7   8
ATOM      8  C1  UNL d   1      -1.397   0.813  -1.560  0.00  0.00     0.007 C 
ATOM      9  C   UNL d   1      -2.293  -0.149  -2.329  0.00  0.00     0.009 C 
ENDBRANCH   7   8
ENDBRANCH   1   7
TORSDOF 2
ENDMDL
