MODEL 1
REMARK minimizedAffinity 4.33951235
REMARK minimizedRMSD -1
REMARK  2 active torsions:
REMARK  status: ('A' for Active; 'I' for Inactive)
REMARK    1  A    between atoms: C1_2  and  C2_3 
REMARK    2  A    between atoms: C2_3  and  C3_4 
ROOT
ATOM      1  C3  UNL d   1      -0.079   0.689   0.474  0.00  0.00    -0.075 A 
ATOM      2  C4  UNL d   1       0.459  -0.560   0.815  0.00  0.00     0.002 A 
ATOM      3  C5  UNL d   1       0.808  -0.844   2.136  0.00  0.00     0.002 A 
ATOM      4  C6  UNL d   1       0.634   0.118   3.128  0.00  0.00    -0.004 A 
ATOM      5  C7  UNL d   1       0.115   1.368   2.797  0.00  0.00     0.002 A 
ATOM      6  C8  UNL d   1      -0.239   1.653   1.478  0.00  0.00     0.002 A 
ENDROOT
BRANCH   1   7
ATOM      7  C2  UNL d   1      -0.487   0.992  -0.948  0.00  0.00     0.056 C 
BRANCH   7   8
ATOM      8  C1  UNL d   1      -1.622   0.107  -1.474  0.00  0.00     0.007 C 
ATOM      9  C   UNL d   1      -2.908   0.878  -1.743  0.00  0.00     0.009 C 
ENDBRANCH   7   8
ENDBRANCH   1   7
TORSDOF 2
ENDMDL
