MODEL 1
REMARK minimizedAffinity -1.07718945
REMARK minimizedRMSD -1
REMARK  2 active torsions:
REMARK  status: ('A' for Active; 'I' for Inactive)
REMARK    1  A    between atoms: C1_2  and  C2_3 
REMARK    2  A    between atoms: C2_3  and  C3_4 
ROOT
ATOM      1  C3  UNL d   1       0.798   2.174   1.087  0.00  0.00    -0.075 A 
ATOM      2  C4  UNL d   1       0.363   2.951   0.003  0.00  0.00     0.002 A 
ATOM      3  C5  UNL d   1       0.664   4.312  -0.059  0.00  0.00     0.002 A 
ATOM      4  C6  UNL d   1       1.393   4.915   0.964  0.00  0.00    -0.004 A 
ATOM      5  C7  UNL d   1       1.816   4.157   2.053  0.00  0.00     0.002 A 
ATOM      6  C8  UNL d   1       1.520   2.794   2.116  0.00  0.00     0.002 A 
ENDROOT
BRANCH   1   7
ATOM      7  C2  UNL d   1       0.501   0.695   1.146  0.00  0.00     0.056 C 
BRANCH   7   8
ATOM      8  C1  UNL d   1       1.750  -0.193   1.130  0.00  0.00     0.007 C 
ATOM      9  C   UNL d   1       2.115  -0.742   2.503  0.00  0.00     0.009 C 
ENDBRANCH   7   8
ENDBRANCH   1   7
TORSDOF 2
ENDMDL
