MODEL 1
REMARK minimizedAffinity -5.08641052
REMARK minimizedRMSD -1
REMARK  2 active torsions:
REMARK  status: ('A' for Active; 'I' for Inactive)
REMARK    1  A    between atoms: C1_2  and  C2_3 
REMARK    2  A    between atoms: C2_3  and  C3_4 
ROOT
ATOM      1  C3  UNL d   1       0.361   2.057   1.455  0.00  0.00    -0.075 A 
ATOM      2  C4  UNL d   1       0.891   1.206   2.436  0.00  0.00     0.002 A 
ATOM      3  C5  UNL d   1       1.444  -0.024   2.082  0.00  0.00     0.002 A 
ATOM      4  C6  UNL d   1       1.465  -0.424   0.748  0.00  0.00    -0.004 A 
ATOM      5  C7  UNL d   1       0.926   0.406  -0.233  0.00  0.00     0.002 A 
ATOM      6  C8  UNL d   1       0.376   1.640   0.118  0.00  0.00     0.002 A 
ENDROOT
BRANCH   1   7
ATOM      7  C2  UNL d   1      -0.213   3.404   1.828  0.00  0.00     0.056 C 
BRANCH   7   8
ATOM      8  C1  UNL d   1      -0.026   4.480   0.754  0.00  0.00     0.007 C 
ATOM      9  C   UNL d   1       1.386   5.050   0.714  0.00  0.00     0.009 C 
ENDBRANCH   7   8
ENDBRANCH   1   7
TORSDOF 2
ENDMDL
