MODEL 1
REMARK minimizedAffinity -2.86970854
REMARK minimizedRMSD -1
REMARK  2 active torsions:
REMARK  status: ('A' for Active; 'I' for Inactive)
REMARK    1  A    between atoms: C1_2  and  C2_3 
REMARK    2  A    between atoms: C2_3  and  C3_4 
ROOT
ATOM      1  C3  UNL d   1       0.281   2.587   0.799  0.00  0.00    -0.075 A 
ATOM      2  C4  UNL d   1       0.347   2.507   2.198  0.00  0.00     0.002 A 
ATOM      3  C5  UNL d   1       0.627   1.293   2.825  0.00  0.00     0.002 A 
ATOM      4  C6  UNL d   1       0.835   0.144   2.065  0.00  0.00    -0.004 A 
ATOM      5  C7  UNL d   1       0.756   0.209   0.676  0.00  0.00     0.002 A 
ATOM      6  C8  UNL d   1       0.479   1.423   0.045  0.00  0.00     0.002 A 
ENDROOT
BRANCH   1   7
ATOM      7  C2  UNL d   1       0.007   3.904   0.113  0.00  0.00     0.056 C 
BRANCH   7   8
ATOM      8  C1  UNL d   1       1.231   4.514  -0.578  0.00  0.00     0.007 C 
ATOM      9  C   UNL d   1       2.454   4.593   0.326  0.00  0.00     0.009 C 
ENDBRANCH   7   8
ENDBRANCH   1   7
TORSDOF 2
ENDMDL
