MODEL 1
REMARK minimizedAffinity 0.404553592
REMARK minimizedRMSD -1
REMARK  2 active torsions:
REMARK  status: ('A' for Active; 'I' for Inactive)
REMARK    1  A    between atoms: C1_2  and  C2_3 
REMARK    2  A    between atoms: C2_3  and  C3_4 
ROOT
ATOM      1  C3  UNL d   1      -2.224   0.014  -1.311  0.00  0.00    -0.075 A 
ATOM      2  C4  UNL d   1      -1.066   0.225  -0.548  0.00  0.00     0.002 A 
ATOM      3  C5  UNL d   1      -1.160   0.569   0.801  0.00  0.00     0.002 A 
ATOM      4  C6  UNL d   1      -2.409   0.716   1.400  0.00  0.00    -0.004 A 
ATOM      5  C7  UNL d   1      -3.566   0.524   0.648  0.00  0.00     0.002 A 
ATOM      6  C8  UNL d   1      -3.475   0.176  -0.701  0.00  0.00     0.002 A 
ENDROOT
BRANCH   1   7
ATOM      7  C2  UNL d   1      -2.129  -0.388  -2.764  0.00  0.00     0.056 C 
BRANCH   7   8
ATOM      8  C1  UNL d   1      -2.663  -1.793  -3.059  0.00  0.00     0.007 C 
ATOM      9  C   UNL d   1      -1.603  -2.878  -2.927  0.00  0.00     0.009 C 
ENDBRANCH   7   8
ENDBRANCH   1   7
TORSDOF 2
ENDMDL
