MODEL 1
REMARK minimizedAffinity 4.08593655
REMARK minimizedRMSD -1
REMARK  0 active torsions:
REMARK  status: ('A' for Active; 'I' for Inactive)
ROOT
ATOM      1  O1  BZF d   1       3.778   2.454   4.660  0.00  0.00    -0.204 OA
ATOM      2  C2  BZF d   1       3.090   2.643   3.477  0.00  0.00     0.174 A 
ATOM      3  C3  BZF d   1       3.299   3.886   2.996  0.00  0.00    -0.012 A 
ATOM      4  C3A BZF d   1       4.244   4.482   3.889  0.00  0.00    -0.107 A 
ATOM      5  C4  BZF d   1       4.856   5.702   3.932  0.00  0.00     0.055 A 
ATOM      6  C5  BZF d   1       5.672   5.996   4.978  0.00  0.00    -0.016 A 
ATOM      7  C6  BZF d   1       5.894   5.096   6.000  0.00  0.00     0.022 A 
ATOM      8  C7  BZF d   1       5.314   3.871   5.999  0.00  0.00     0.029 A 
ATOM      9  C7A BZF d   1       4.515   3.559   4.926  0.00  0.00     0.058 A 
ENDROOT
TORSDOF 0
ENDMDL
