MODEL 1
REMARK minimizedAffinity 8.15569592
REMARK minimizedRMSD -1
REMARK  0 active torsions:
REMARK  status: ('A' for Active; 'I' for Inactive)
ROOT
ATOM      1  O1  BZF d   1       0.526   1.550   2.969  0.00  0.00    -0.204 OA
ATOM      2  C2  BZF d   1       1.144   2.604   3.614  0.00  0.00     0.174 A 
ATOM      3  C3  BZF d   1       2.275   2.960   2.971  0.00  0.00    -0.012 A 
ATOM      4  C3A BZF d   1       2.321   2.134   1.804  0.00  0.00    -0.107 A 
ATOM      5  C4  BZF d   1       3.197   2.030   0.761  0.00  0.00     0.055 A 
ATOM      6  C5  BZF d   1       2.992   1.072  -0.180  0.00  0.00    -0.016 A 
ATOM      7  C6  BZF d   1       1.927   0.198  -0.107  0.00  0.00     0.022 A 
ATOM      8  C7  BZF d   1       1.029   0.266   0.905  0.00  0.00     0.029 A 
ATOM      9  C7A BZF d   1       1.214   1.255   1.840  0.00  0.00     0.058 A 
ENDROOT
TORSDOF 0
ENDMDL
