MODEL 1
REMARK minimizedAffinity 17.4945049
REMARK minimizedRMSD -1
REMARK  0 active torsions:
REMARK  status: ('A' for Active; 'I' for Inactive)
ROOT
ATOM      1  O1  BZF d   1       2.264   3.279   1.561  0.00  0.00    -0.204 OA
ATOM      2  C2  BZF d   1       2.237   3.365   2.940  0.00  0.00     0.174 A 
ATOM      3  C3  BZF d   1       3.169   4.235   3.383  0.00  0.00    -0.012 A 
ATOM      4  C3A BZF d   1       3.755   4.792   2.203  0.00  0.00    -0.107 A 
ATOM      5  C4  BZF d   1       4.729   5.725   1.989  0.00  0.00     0.055 A 
ATOM      6  C5  BZF d   1       5.121   5.991   0.715  0.00  0.00    -0.016 A 
ATOM      7  C6  BZF d   1       4.565   5.339  -0.366  0.00  0.00     0.022 A 
ATOM      8  C7  BZF d   1       3.593   4.409  -0.205  0.00  0.00     0.029 A 
ATOM      9  C7A BZF d   1       3.171   4.162   1.079  0.00  0.00     0.058 A 
ENDROOT
TORSDOF 0
ENDMDL
