MODEL 1
REMARK minimizedAffinity 12.5053959
REMARK minimizedRMSD -1
REMARK  0 active torsions:
REMARK  status: ('A' for Active; 'I' for Inactive)
ROOT
ATOM      1  O1  BZF d   1       1.798   0.220   0.443  0.00  0.00    -0.204 OA
ATOM      2  C2  BZF d   1       2.725   0.807  -0.396  0.00  0.00     0.174 A 
ATOM      3  C3  BZF d   1       3.212   1.942   0.148  0.00  0.00    -0.012 A 
ATOM      4  C3A BZF d   1       2.614   2.023   1.446  0.00  0.00    -0.107 A 
ATOM      5  C4  BZF d   1       2.717   2.918   2.472  0.00  0.00     0.055 A 
ATOM      6  C5  BZF d   1       1.945   2.747   3.577  0.00  0.00    -0.016 A 
ATOM      7  C6  BZF d   1       1.056   1.698   3.687  0.00  0.00     0.022 A 
ATOM      8  C7  BZF d   1       0.923   0.782   2.697  0.00  0.00     0.029 A 
ATOM      9  C7A BZF d   1       1.726   0.933   1.593  0.00  0.00     0.058 A 
ENDROOT
TORSDOF 0
ENDMDL
