MODEL 1
REMARK minimizedAffinity 10.449131
REMARK minimizedRMSD -1
REMARK  0 active torsions:
REMARK  status: ('A' for Active; 'I' for Inactive)
ROOT
ATOM      1  O1  BZF d   1       3.503   0.863  -2.175  0.00  0.00    -0.204 OA
ATOM      2  C2  BZF d   1       2.928  -0.394  -2.179  0.00  0.00     0.174 A 
ATOM      3  C3  BZF d   1       2.291  -0.631  -1.015  0.00  0.00    -0.012 A 
ATOM      4  C3A BZF d   1       2.400   0.586  -0.270  0.00  0.00    -0.107 A 
ATOM      5  C4  BZF d   1       1.952   0.978   0.959  0.00  0.00     0.055 A 
ATOM      6  C5  BZF d   1       2.291   2.209   1.423  0.00  0.00    -0.016 A 
ATOM      7  C6  BZF d   1       3.079   3.071   0.688  0.00  0.00     0.022 A 
ATOM      8  C7  BZF d   1       3.543   2.728  -0.538  0.00  0.00     0.029 A 
ATOM      9  C7A BZF d   1       3.175   1.497  -1.024  0.00  0.00     0.058 A 
ENDROOT
TORSDOF 0
ENDMDL
