MODEL 1
REMARK minimizedAffinity 11.2140417
REMARK minimizedRMSD -1
REMARK  0 active torsions:
REMARK  status: ('A' for Active; 'I' for Inactive)
ROOT
ATOM      1  O1  BZF d   1       5.898   2.515   5.759  0.00  0.00    -0.204 OA
ATOM      2  C2  BZF d   1       5.968   1.538   4.784  0.00  0.00     0.174 A 
ATOM      3  C3  BZF d   1       5.323   1.931   3.666  0.00  0.00    -0.012 A 
ATOM      4  C3A BZF d   1       4.897   3.271   3.929  0.00  0.00    -0.107 A 
ATOM      5  C4  BZF d   1       4.219   4.201   3.194  0.00  0.00     0.055 A 
ATOM      6  C5  BZF d   1       3.898   5.390   3.768  0.00  0.00    -0.016 A 
ATOM      7  C6  BZF d   1       4.233   5.680   5.075  0.00  0.00     0.022 A 
ATOM      8  C7  BZF d   1       4.910   4.791   5.842  0.00  0.00     0.029 A 
ATOM      9  C7A BZF d   1       5.266   3.601   5.253  0.00  0.00     0.058 A 
ENDROOT
TORSDOF 0
ENDMDL
