MODEL 1
REMARK minimizedAffinity 12.0008039
REMARK minimizedRMSD -1
REMARK  0 active torsions:
REMARK  status: ('A' for Active; 'I' for Inactive)
ROOT
ATOM      1  O1  BZF d   1       3.253  -2.297  -0.951  0.00  0.00    -0.204 OA
ATOM      2  C2  BZF d   1       2.364  -2.032  -1.975  0.00  0.00     0.174 A 
ATOM      3  C3  BZF d   1       1.566  -0.992  -1.657  0.00  0.00    -0.012 A 
ATOM      4  C3A BZF d   1       2.044  -0.523  -0.393  0.00  0.00    -0.107 A 
ATOM      5  C4  BZF d   1       1.668   0.497   0.433  0.00  0.00     0.055 A 
ATOM      6  C5  BZF d   1       2.292   0.641   1.632  0.00  0.00    -0.016 A 
ATOM      7  C6  BZF d   1       3.291  -0.220   2.038  0.00  0.00     0.022 A 
ATOM      8  C7  BZF d   1       3.701  -1.244   1.251  0.00  0.00     0.029 A 
ATOM      9  C7A BZF d   1       3.095  -1.371   0.025  0.00  0.00     0.058 A 
ENDROOT
TORSDOF 0
ENDMDL
