MODEL 1
REMARK minimizedAffinity -1.67960632
REMARK minimizedRMSD -1
REMARK  0 active torsions:
REMARK  status: ('A' for Active; 'I' for Inactive)
ROOT
ATOM      1  O1  BZF d   1       1.895  -0.580  -1.428  0.00  0.00    -0.204 OA
ATOM      2  C2  BZF d   1       1.637  -1.641  -0.582  0.00  0.00     0.174 A 
ATOM      3  C3  BZF d   1       2.558  -1.704   0.402  0.00  0.00    -0.012 A 
ATOM      4  C3A BZF d   1       3.393  -0.558   0.209  0.00  0.00    -0.107 A 
ATOM      5  C4  BZF d   1       4.476  -0.062   0.877  0.00  0.00     0.055 A 
ATOM      6  C5  BZF d   1       5.108   1.036   0.387  0.00  0.00    -0.016 A 
ATOM      7  C6  BZF d   1       4.688   1.661  -0.769  0.00  0.00     0.022 A 
ATOM      8  C7  BZF d   1       3.616   1.209  -1.464  0.00  0.00     0.029 A 
ATOM      9  C7A BZF d   1       2.955   0.118  -0.953  0.00  0.00     0.058 A 
ENDROOT
TORSDOF 0
ENDMDL
