MODEL 1
REMARK minimizedAffinity 2.0795753
REMARK minimizedRMSD -1
REMARK  0 active torsions:
REMARK  status: ('A' for Active; 'I' for Inactive)
ROOT
ATOM      1  O1  BZF d   1       2.159  -2.974  -0.420  0.00  0.00    -0.204 OA
ATOM      2  C2  BZF d   1       1.070  -2.893   0.427  0.00  0.00     0.174 A 
ATOM      3  C3  BZF d   1       0.873  -1.622   0.833  0.00  0.00    -0.012 A 
ATOM      4  C3A BZF d   1       1.847  -0.846   0.127  0.00  0.00    -0.107 A 
ATOM      5  C4  BZF d   1       2.142   0.487   0.096  0.00  0.00     0.055 A 
ATOM      6  C5  BZF d   1       3.202   0.911  -0.642  0.00  0.00    -0.016 A 
ATOM      7  C6  BZF d   1       3.989   0.032  -1.355  0.00  0.00     0.022 A 
ATOM      8  C7  BZF d   1       3.732  -1.299  -1.359  0.00  0.00     0.029 A 
ATOM      9  C7A BZF d   1       2.642  -1.728  -0.641  0.00  0.00     0.058 A 
ENDROOT
TORSDOF 0
ENDMDL
