MODEL 1
REMARK minimizedAffinity 6.27073765
REMARK minimizedRMSD -1
REMARK  0 active torsions:
REMARK  status: ('A' for Active; 'I' for Inactive)
ROOT
ATOM      1  O1  BZF d   1       3.350   0.504  -1.979  0.00  0.00    -0.204 OA
ATOM      2  C2  BZF d   1       2.476  -0.129  -1.116  0.00  0.00     0.174 A 
ATOM      3  C3  BZF d   1       2.621   0.339   0.140  0.00  0.00    -0.012 A 
ATOM      4  C3A BZF d   1       3.586   1.390   0.041  0.00  0.00    -0.107 A 
ATOM      5  C4  BZF d   1       4.137   2.248   0.950  0.00  0.00     0.055 A 
ATOM      6  C5  BZF d   1       5.107   3.109   0.543  0.00  0.00    -0.016 A 
ATOM      7  C6  BZF d   1       5.552   3.135  -0.762  0.00  0.00     0.022 A 
ATOM      8  C7  BZF d   1       5.032   2.307  -1.701  0.00  0.00     0.029 A 
ATOM      9  C7A BZF d   1       4.029   1.459  -1.300  0.00  0.00     0.058 A 
ENDROOT
TORSDOF 0
ENDMDL
