MODEL 1
REMARK minimizedAffinity 20.4306335
REMARK minimizedRMSD -1
REMARK  0 active torsions:
REMARK  status: ('A' for Active; 'I' for Inactive)
ROOT
ATOM      1  O1  BZF d   1      -3.691  -0.122  -2.420  0.00  0.00    -0.204 OA
ATOM      2  C2  BZF d   1      -2.387   0.335  -2.419  0.00  0.00     0.174 A 
ATOM      3  C3  BZF d   1      -2.100   0.961  -3.579  0.00  0.00    -0.012 A 
ATOM      4  C3A BZF d   1      -3.326   0.971  -4.315  0.00  0.00    -0.107 A 
ATOM      5  C4  BZF d   1      -3.684   1.466  -5.537  0.00  0.00     0.055 A 
ATOM      6  C5  BZF d   1      -4.944   1.246  -5.996  0.00  0.00    -0.016 A 
ATOM      7  C6  BZF d   1      -5.869   0.532  -5.263  0.00  0.00     0.022 A 
ATOM      8  C7  BZF d   1      -5.562   0.026  -4.043  0.00  0.00     0.029 A 
ATOM      9  C7A BZF d   1      -4.300   0.275  -3.563  0.00  0.00     0.058 A 
ENDROOT
TORSDOF 0
ENDMDL
