MODEL 1
REMARK minimizedAffinity -3.74513793
REMARK minimizedRMSD -1
REMARK  1 active torsions:
REMARK  status: ('A' for Active; 'I' for Inactive)
REMARK    1  A    between atoms: C1_2  and  C2_3 
ROOT
ATOM      1  C2  UNL d   1      -0.668   0.398  -0.338  0.00  0.00    -0.073 A 
ATOM      2  C3  UNL d   1      -0.461   1.587   0.372  0.00  0.00    -0.002 A 
ATOM      3  C4  UNL d   1       0.797   1.886   0.895  0.00  0.00     0.004 A 
ATOM      4  C5  UNL d   1       1.862   1.004   0.709  0.00  0.00    -0.004 A 
ATOM      5  C6  UNL d   1       1.678  -0.183  -0.007  0.00  0.00    -0.075 A 
ATOM      6  C7  UNL d   1       2.812  -1.143  -0.214  0.00  0.00     0.076 C 
ATOM      7  C8  UNL d   1       0.410  -0.477  -0.527  0.00  0.00     0.001 A 
ENDROOT
BRANCH   1   8
ATOM      8  C1  UNL d   1      -2.024   0.075  -0.910  0.00  0.00     0.053 C 
ATOM      9  C   UNL d   1      -1.943  -0.329  -2.374  0.00  0.00     0.018 C 
ENDBRANCH   1   8
TORSDOF 1
ENDMDL
