MODEL 1
REMARK minimizedAffinity -4.55326176
REMARK minimizedRMSD -1
REMARK  1 active torsions:
REMARK  status: ('A' for Active; 'I' for Inactive)
REMARK    1  A    between atoms: C1_2  and  C2_3 
ROOT
ATOM      1  C2  UNL d   1       0.254  -0.183  -0.400  0.00  0.00    -0.073 A 
ATOM      2  C3  UNL d   1      -0.909   0.029   0.348  0.00  0.00    -0.002 A 
ATOM      3  C4  UNL d   1      -2.160   0.004  -0.271  0.00  0.00     0.004 A 
ATOM      4  C5  UNL d   1      -2.261  -0.240  -1.641  0.00  0.00    -0.004 A 
ATOM      5  C6  UNL d   1      -1.110  -0.466  -2.403  0.00  0.00    -0.075 A 
ATOM      6  C7  UNL d   1      -1.201  -0.728  -3.878  0.00  0.00     0.076 C 
ATOM      7  C8  UNL d   1       0.142  -0.437  -1.775  0.00  0.00     0.001 A 
ENDROOT
BRANCH   1   8
ATOM      8  C1  UNL d   1       1.606  -0.163   0.265  0.00  0.00     0.053 C 
ATOM      9  C   UNL d   1       2.208   1.233   0.291  0.00  0.00     0.018 C 
ENDBRANCH   1   8
TORSDOF 1
ENDMDL
