MODEL 1
REMARK minimizedAffinity -4.09500122
REMARK minimizedRMSD -1
REMARK  1 active torsions:
REMARK  status: ('A' for Active; 'I' for Inactive)
REMARK    1  A    between atoms: C1_2  and  C2_3 
ROOT
ATOM      1  C2  UNL d   1      -0.014   0.029  -0.186  0.00  0.00    -0.073 A 
ATOM      2  C3  UNL d   1       0.033   1.394   0.121  0.00  0.00    -0.002 A 
ATOM      3  C4  UNL d   1       1.213   1.970   0.592  0.00  0.00     0.004 A 
ATOM      4  C5  UNL d   1       2.359   1.191   0.756  0.00  0.00    -0.004 A 
ATOM      5  C6  UNL d   1       2.335  -0.172   0.444  0.00  0.00    -0.075 A 
ATOM      6  C7  UNL d   1       3.557  -1.025   0.617  0.00  0.00     0.076 C 
ATOM      7  C8  UNL d   1       1.145  -0.744  -0.026  0.00  0.00     0.001 A 
ENDROOT
BRANCH   1   8
ATOM      8  C1  UNL d   1      -1.284  -0.596  -0.701  0.00  0.00     0.053 C 
ATOM      9  C   UNL d   1      -1.793   0.098  -1.955  0.00  0.00     0.018 C 
ENDBRANCH   1   8
TORSDOF 1
ENDMDL
