MODEL 1
REMARK minimizedAffinity -3.45234084
REMARK minimizedRMSD -1
REMARK  1 active torsions:
REMARK  status: ('A' for Active; 'I' for Inactive)
REMARK    1  A    between atoms: C1_2  and  C2_3 
ROOT
ATOM      1  C2  UNL d   1      -0.104   0.749  -0.259  0.00  0.00    -0.073 A 
ATOM      2  C3  UNL d   1       1.098   1.461  -0.331  0.00  0.00    -0.002 A 
ATOM      3  C4  UNL d   1       2.311   0.828  -0.055  0.00  0.00     0.004 A 
ATOM      4  C5  UNL d   1       2.334  -0.524   0.288  0.00  0.00    -0.004 A 
ATOM      5  C6  UNL d   1       1.145  -1.256   0.354  0.00  0.00    -0.075 A 
ATOM      6  C7  UNL d   1       1.153  -2.710   0.724  0.00  0.00     0.076 C 
ATOM      7  C8  UNL d   1      -0.069  -0.612   0.078  0.00  0.00     0.001 A 
ENDROOT
BRANCH   1   8
ATOM      8  C1  UNL d   1      -1.415   1.427  -0.561  0.00  0.00     0.053 C 
ATOM      9  C   UNL d   1      -1.633   1.605  -2.056  0.00  0.00     0.018 C 
ENDBRANCH   1   8
TORSDOF 1
ENDMDL
