MODEL 1
REMARK minimizedAffinity -6.53064346
REMARK minimizedRMSD -1
REMARK  1 active torsions:
REMARK  status: ('A' for Active; 'I' for Inactive)
REMARK    1  A    between atoms: C1_2  and  C2_3 
ROOT
ATOM      1  C2  UNL d   1       1.644   0.725   0.400  0.00  0.00    -0.073 A 
ATOM      2  C3  UNL d   1       2.935   0.779   0.938  0.00  0.00    -0.002 A 
ATOM      3  C4  UNL d   1       3.449  -0.307   1.648  0.00  0.00     0.004 A 
ATOM      4  C5  UNL d   1       2.682  -1.458   1.822  0.00  0.00    -0.004 A 
ATOM      5  C6  UNL d   1       1.394  -1.536   1.283  0.00  0.00    -0.075 A 
ATOM      6  C7  UNL d   1       0.555  -2.767   1.463  0.00  0.00     0.076 C 
ATOM      7  C8  UNL d   1       0.884  -0.440   0.573  0.00  0.00     0.001 A 
ENDROOT
BRANCH   1   8
ATOM      8  C1  UNL d   1       1.088   1.893  -0.373  0.00  0.00     0.053 C 
ATOM      9  C   UNL d   1       0.157   2.745   0.475  0.00  0.00     0.018 C 
ENDBRANCH   1   8
TORSDOF 1
ENDMDL
