MODEL 1
REMARK minimizedAffinity 0.155784115
REMARK minimizedRMSD -1
REMARK  1 active torsions:
REMARK  status: ('A' for Active; 'I' for Inactive)
REMARK    1  A    between atoms: C1_2  and  C2_3 
ROOT
ATOM      1  C2  UNL d   1      -0.755   0.439  -0.042  0.00  0.00    -0.073 A 
ATOM      2  C3  UNL d   1      -1.725  -0.411   0.502  0.00  0.00    -0.002 A 
ATOM      3  C4  UNL d   1      -1.400  -1.724   0.845  0.00  0.00     0.004 A 
ATOM      4  C5  UNL d   1      -0.102  -2.198   0.655  0.00  0.00    -0.004 A 
ATOM      5  C6  UNL d   1       0.885  -1.360   0.125  0.00  0.00    -0.075 A 
ATOM      6  C7  UNL d   1       2.285  -1.855  -0.087  0.00  0.00     0.076 C 
ATOM      7  C8  UNL d   1       0.549  -0.044  -0.220  0.00  0.00     0.001 A 
ENDROOT
BRANCH   1   8
ATOM      8  C1  UNL d   1      -1.100   1.859  -0.408  0.00  0.00     0.053 C 
ATOM      9  C   UNL d   1      -0.082   2.465  -1.361  0.00  0.00     0.018 C 
ENDBRANCH   1   8
TORSDOF 1
ENDMDL
