MODEL 1
REMARK minimizedAffinity 0.996185243
REMARK minimizedRMSD -1
REMARK  1 active torsions:
REMARK  status: ('A' for Active; 'I' for Inactive)
REMARK    1  A    between atoms: C1_2  and  C2_3 
ROOT
ATOM      1  C2  UNL d   1      -0.569   2.250  -0.854  0.00  0.00    -0.076 A 
ATOM      2  C3  UNL d   1       0.120   1.044  -0.640  0.00  0.00     0.004 A 
ATOM      3  C4  UNL d   1      -0.210  -0.108  -1.353  0.00  0.00    -0.003 A 
ATOM      4  C5  UNL d   1      -1.235  -0.071  -2.292  0.00  0.00     0.000 A 
ATOM      5  C6  UNL d   1      -1.918   1.121  -2.530  0.00  0.00     0.000 A 
ATOM      6  C7  UNL d   1      -1.587   2.295  -1.832  0.00  0.00    -0.073 A 
ATOM      7  C8  UNL d   1      -2.360   3.551  -2.124  0.00  0.00     0.078 C 
ENDROOT
BRANCH   1   8
ATOM      8  C1  UNL d   1      -0.185   3.459  -0.032  0.00  0.00     0.053 C 
ATOM      9  C   UNL d   1       0.199   4.652  -0.895  0.00  0.00     0.018 C 
ENDBRANCH   1   8
TORSDOF 1
ENDMDL
