MODEL 1
REMARK minimizedAffinity 1.84602308
REMARK minimizedRMSD -1
REMARK  1 active torsions:
REMARK  status: ('A' for Active; 'I' for Inactive)
REMARK    1  A    between atoms: C1_2  and  C2_3 
ROOT
ATOM      1  C2  UNL d   1      -0.713   4.736  -0.496  0.00  0.00    -0.076 A 
ATOM      2  C3  UNL d   1      -1.917   4.877  -1.209  0.00  0.00     0.004 A 
ATOM      3  C4  UNL d   1      -1.944   5.504  -2.453  0.00  0.00    -0.003 A 
ATOM      4  C5  UNL d   1      -0.769   6.000  -3.006  0.00  0.00     0.000 A 
ATOM      5  C6  UNL d   1       0.437   5.853  -2.321  0.00  0.00     0.000 A 
ATOM      6  C7  UNL d   1       0.485   5.209  -1.073  0.00  0.00    -0.073 A 
ATOM      7  C8  UNL d   1       1.812   5.084  -0.375  0.00  0.00     0.078 C 
ENDROOT
BRANCH   1   8
ATOM      8  C1  UNL d   1      -0.749   4.071   0.862  0.00  0.00     0.053 C 
ATOM      9  C   UNL d   1       0.320   3.000   1.014  0.00  0.00     0.018 C 
ENDBRANCH   1   8
TORSDOF 1
ENDMDL
