MODEL 1
REMARK minimizedAffinity -0.906533182
REMARK minimizedRMSD -1
REMARK  1 active torsions:
REMARK  status: ('A' for Active; 'I' for Inactive)
REMARK    1  A    between atoms: C1_2  and  C2_3 
ROOT
ATOM      1  C2  UNL d   1      -1.188   2.534  -1.381  0.00  0.00    -0.076 A 
ATOM      2  C3  UNL d   1       0.013   2.663  -0.661  0.00  0.00     0.004 A 
ATOM      3  C4  UNL d   1       0.492   3.916  -0.285  0.00  0.00    -0.003 A 
ATOM      4  C5  UNL d   1      -0.222   5.061  -0.621  0.00  0.00     0.000 A 
ATOM      5  C6  UNL d   1      -1.423   4.951  -1.320  0.00  0.00     0.000 A 
ATOM      6  C7  UNL d   1      -1.929   3.693  -1.693  0.00  0.00    -0.073 A 
ATOM      7  C8  UNL d   1      -3.227   3.633  -2.451  0.00  0.00     0.078 C 
ENDROOT
BRANCH   1   8
ATOM      8  C1  UNL d   1      -1.644   1.150  -1.786  0.00  0.00     0.053 C 
ATOM      9  C   UNL d   1      -0.526   0.326  -2.406  0.00  0.00     0.018 C 
ENDBRANCH   1   8
TORSDOF 1
ENDMDL
