MODEL 1
REMARK minimizedAffinity 4.39254665
REMARK minimizedRMSD -1
REMARK  1 active torsions:
REMARK  status: ('A' for Active; 'I' for Inactive)
REMARK    1  A    between atoms: C1_2  and  C2_3 
ROOT
ATOM      1  C2  UNL d   1       3.358  -4.368  -0.950  0.00  0.00    -0.076 A 
ATOM      2  C3  UNL d   1       3.920  -3.169  -0.476  0.00  0.00     0.004 A 
ATOM      3  C4  UNL d   1       3.110  -2.115  -0.055  0.00  0.00    -0.003 A 
ATOM      4  C5  UNL d   1       1.727  -2.243  -0.099  0.00  0.00     0.000 A 
ATOM      5  C6  UNL d   1       1.153  -3.432  -0.550  0.00  0.00     0.000 A 
ATOM      6  C7  UNL d   1       1.954  -4.510  -0.963  0.00  0.00    -0.073 A 
ATOM      7  C8  UNL d   1       1.282  -5.766  -1.445  0.00  0.00     0.078 C 
ENDROOT
BRANCH   1   8
ATOM      8  C1  UNL d   1       4.286  -5.466  -1.419  0.00  0.00     0.053 C 
ATOM      9  C   UNL d   1       5.745  -5.167  -1.112  0.00  0.00     0.018 C 
ENDBRANCH   1   8
TORSDOF 1
ENDMDL
