MODEL 1
REMARK minimizedAffinity 4.30170727
REMARK minimizedRMSD -1
REMARK  1 active torsions:
REMARK  status: ('A' for Active; 'I' for Inactive)
REMARK    1  A    between atoms: C1_2  and  C2_3 
ROOT
ATOM      1  C2  UNL d   1       0.958   3.183   0.433  0.00  0.00    -0.076 A 
ATOM      2  C3  UNL d   1       2.170   3.762   0.845  0.00  0.00     0.004 A 
ATOM      3  C4  UNL d   1       2.681   3.525   2.120  0.00  0.00    -0.003 A 
ATOM      4  C5  UNL d   1       1.988   2.704   3.003  0.00  0.00     0.000 A 
ATOM      5  C6  UNL d   1       0.793   2.107   2.604  0.00  0.00     0.000 A 
ATOM      6  C7  UNL d   1       0.272   2.323   1.317  0.00  0.00    -0.073 A 
ATOM      7  C8  UNL d   1      -1.025   1.659   0.942  0.00  0.00     0.078 C 
ENDROOT
BRANCH   1   8
ATOM      8  C1  UNL d   1       0.439   3.498  -0.952  0.00  0.00     0.053 C 
ATOM      9  C   UNL d   1      -0.596   4.613  -0.947  0.00  0.00     0.018 C 
ENDBRANCH   1   8
TORSDOF 1
ENDMDL
