MODEL 1
REMARK minimizedAffinity 3.71194839
REMARK minimizedRMSD -1
REMARK  1 active torsions:
REMARK  status: ('A' for Active; 'I' for Inactive)
REMARK    1  A    between atoms: C1_2  and  C2_3 
ROOT
ATOM      1  C2  UNL d   1      -0.071   2.773   1.780  0.00  0.00    -0.076 A 
ATOM      2  C3  UNL d   1      -1.302   2.145   2.038  0.00  0.00     0.004 A 
ATOM      3  C4  UNL d   1      -1.415   1.164   3.022  0.00  0.00    -0.003 A 
ATOM      4  C5  UNL d   1      -0.298   0.795   3.764  0.00  0.00     0.000 A 
ATOM      5  C6  UNL d   1       0.927   1.420   3.533  0.00  0.00     0.000 A 
ATOM      6  C7  UNL d   1       1.054   2.422   2.556  0.00  0.00    -0.073 A 
ATOM      7  C8  UNL d   1       2.401   3.059   2.346  0.00  0.00     0.078 C 
ENDROOT
BRANCH   1   8
ATOM      8  C1  UNL d   1      -0.004   3.810   0.682  0.00  0.00     0.053 C 
ATOM      9  C   UNL d   1      -0.363   3.240  -0.681  0.00  0.00     0.018 C 
ENDBRANCH   1   8
TORSDOF 1
ENDMDL
