MODEL 1
REMARK minimizedAffinity 3.93741512
REMARK minimizedRMSD -1
REMARK  1 active torsions:
REMARK  status: ('A' for Active; 'I' for Inactive)
REMARK    1  A    between atoms: C1_2  and  C2_3 
ROOT
ATOM      1  C2  UNL d   1      -0.075   3.359   1.001  0.00  0.00    -0.076 A 
ATOM      2  C3  UNL d   1      -0.263   4.738   0.804  0.00  0.00     0.004 A 
ATOM      3  C4  UNL d   1      -0.648   5.240  -0.438  0.00  0.00    -0.003 A 
ATOM      4  C5  UNL d   1      -0.852   4.371  -1.503  0.00  0.00     0.000 A 
ATOM      5  C6  UNL d   1      -0.687   2.998  -1.322  0.00  0.00     0.000 A 
ATOM      6  C7  UNL d   1      -0.316   2.474  -0.072  0.00  0.00    -0.073 A 
ATOM      7  C8  UNL d   1      -0.147   0.986   0.066  0.00  0.00     0.078 C 
ENDROOT
BRANCH   1   8
ATOM      8  C1  UNL d   1       0.369   2.875   2.363  0.00  0.00     0.053 C 
ATOM      9  C   UNL d   1      -0.789   2.368   3.207  0.00  0.00     0.018 C 
ENDBRANCH   1   8
TORSDOF 1
ENDMDL
