MODEL 1
REMARK minimizedAffinity -4.42189407
REMARK minimizedRMSD -1
REMARK  2 active torsions:
REMARK  status: ('A' for Active; 'I' for Inactive)
REMARK    1  A    between atoms: C2'_3  and  C1'_4 
REMARK    2  A    between atoms: C1'_4  and  C1_5 
ROOT
ATOM      1  C1  I4B d   1      -0.813   0.185  -0.390  0.00  0.00    -0.075 A 
ATOM      2  C2  I4B d   1      -1.236   1.182  -1.233  0.00  0.00     0.003 A 
ATOM      3  C3  I4B d   1      -2.286   2.048  -0.842  0.00  0.00     0.002 A 
ATOM      4  C4  I4B d   1      -2.913   1.851   0.371  0.00  0.00    -0.004 A 
ATOM      5  C5  I4B d   1      -2.467   0.855   1.234  0.00  0.00     0.002 A 
ATOM      6  C6  I4B d   1      -1.402   0.024   0.857  0.00  0.00     0.003 A 
ENDROOT
BRANCH   1   7
ATOM      7  C1' I4B d   1       0.276  -0.732  -0.849  0.00  0.00     0.060 C 
BRANCH   7   8
ATOM      8  C2' I4B d   1       1.273  -0.876   0.283  0.00  0.00    -0.013 C 
ATOM      9  C4' I4B d   1       1.791  -2.287   0.378  0.00  0.00     0.013 C 
ATOM     10  C3' I4B d   1       2.390   0.096   0.043  0.00  0.00     0.013 C 
ENDBRANCH   7   8
ENDBRANCH   1   7
TORSDOF 2
ENDMDL
