MODEL 1
REMARK minimizedAffinity -1.53966367
REMARK minimizedRMSD -1
REMARK  2 active torsions:
REMARK  status: ('A' for Active; 'I' for Inactive)
REMARK    1  A    between atoms: C2'_3  and  C1'_4 
REMARK    2  A    between atoms: C1'_4  and  C1_5 
ROOT
ATOM      1  C1  I4B d   1      -2.109   0.715  -0.123  0.00  0.00    -0.075 A 
ATOM      2  C2  I4B d   1      -1.958   0.773   1.240  0.00  0.00     0.003 A 
ATOM      3  C3  I4B d   1      -3.096   0.807   2.082  0.00  0.00     0.002 A 
ATOM      4  C4  I4B d   1      -4.357   0.831   1.521  0.00  0.00    -0.004 A 
ATOM      5  C5  I4B d   1      -4.508   0.748   0.139  0.00  0.00     0.002 A 
ATOM      6  C6  I4B d   1      -3.377   0.678  -0.688  0.00  0.00     0.003 A 
ENDROOT
BRANCH   1   7
ATOM      7  C1' I4B d   1      -0.885   0.714  -0.984  0.00  0.00     0.060 C 
BRANCH   7   8
ATOM      8  C2' I4B d   1       0.283   0.256  -0.135  0.00  0.00    -0.013 C 
ATOM      9  C4' I4B d   1       0.798  -1.083  -0.593  0.00  0.00     0.013 C 
ATOM     10  C3' I4B d   1       1.352   1.304  -0.215  0.00  0.00     0.013 C 
ENDBRANCH   7   8
ENDBRANCH   1   7
TORSDOF 2
ENDMDL
