MODEL 1
REMARK minimizedAffinity -0.241270632
REMARK minimizedRMSD -1
REMARK  0 active torsions:
REMARK  status: ('A' for Active; 'I' for Inactive)
ROOT
ATOM      1  C   UNL d   1      -0.642   0.127   0.849  0.00  0.00     0.020 A 
ATOM      2  C1  UNL d   1       0.101  -0.720   0.028  0.00  0.00     0.020 A 
ATOM      3  C2  UNL d   1       1.377  -0.342  -0.394  0.00  0.00     0.034 A 
ATOM      4  C3  UNL d   1       1.915   0.887   0.006  0.00  0.00     0.017 A 
ATOM      5  C4  UNL d   1       1.169   1.737   0.830  0.00  0.00     0.017 A 
ATOM      6  C5  UNL d   1      -0.109   1.353   1.249  0.00  0.00     0.034 A 
ATOM      7 Cl   UNL d   1       1.766   3.269   1.364  0.00  0.00    -0.070 Cl
ATOM      8 Cl1  UNL d   1       3.500   1.290  -0.553  0.00  0.00    -0.070 Cl
ENDROOT
TORSDOF 0
ENDMDL
