MODEL 1
REMARK minimizedAffinity 5.51776791
REMARK minimizedRMSD -1
REMARK  0 active torsions:
REMARK  status: ('A' for Active; 'I' for Inactive)
ROOT
ATOM      1  C   UNL d   1       0.586  -0.887   3.148  0.00  0.00     0.020 A 
ATOM      2  C1  UNL d   1       0.737  -0.207   1.940  0.00  0.00     0.020 A 
ATOM      3  C2  UNL d   1      -0.389   0.155   1.197  0.00  0.00     0.034 A 
ATOM      4  C3  UNL d   1      -1.671  -0.163   1.662  0.00  0.00     0.017 A 
ATOM      5  C4  UNL d   1      -1.821  -0.846   2.874  0.00  0.00     0.017 A 
ATOM      6  C5  UNL d   1      -0.690  -1.206   3.614  0.00  0.00     0.034 A 
ATOM      7 Cl   UNL d   1      -3.370  -1.273   3.512  0.00  0.00    -0.070 Cl
ATOM      8 Cl1  UNL d   1      -3.018   0.315   0.692  0.00  0.00    -0.070 Cl
ENDROOT
TORSDOF 0
ENDMDL
