MODEL 1
REMARK minimizedAffinity -2.82088184
REMARK minimizedRMSD -1
REMARK  0 active torsions:
REMARK  status: ('A' for Active; 'I' for Inactive)
ROOT
ATOM      1  C   UNL d   1       0.528   2.144   3.144  0.00  0.00     0.020 A 
ATOM      2  C1  UNL d   1       0.753   2.365   1.786  0.00  0.00     0.020 A 
ATOM      3  C2  UNL d   1       0.263   1.461   0.841  0.00  0.00     0.034 A 
ATOM      4  C3  UNL d   1      -0.456   0.333   1.253  0.00  0.00     0.017 A 
ATOM      5  C4  UNL d   1      -0.682   0.113   2.616  0.00  0.00     0.017 A 
ATOM      6  C5  UNL d   1      -0.188   1.021   3.558  0.00  0.00     0.034 A 
ATOM      7 Cl   UNL d   1      -1.559  -1.257   3.201  0.00  0.00    -0.070 Cl
ATOM      8 Cl1  UNL d   1      -1.034  -0.742   0.030  0.00  0.00    -0.070 Cl
ENDROOT
TORSDOF 0
ENDMDL
