MODEL 1
REMARK minimizedAffinity -0.015772298
REMARK minimizedRMSD -1
REMARK  0 active torsions:
REMARK  status: ('A' for Active; 'I' for Inactive)
ROOT
ATOM      1  C   UNL d   1      -2.330  -0.350   1.911  0.00  0.00     0.020 A 
ATOM      2  C1  UNL d   1      -1.856   0.251   0.745  0.00  0.00     0.020 A 
ATOM      3  C2  UNL d   1      -0.536   0.702   0.680  0.00  0.00     0.034 A 
ATOM      4  C3  UNL d   1       0.314   0.552   1.781  0.00  0.00     0.017 A 
ATOM      5  C4  UNL d   1      -0.162  -0.051   2.950  0.00  0.00     0.017 A 
ATOM      6  C5  UNL d   1      -1.485  -0.501   3.011  0.00  0.00     0.034 A 
ATOM      7 Cl   UNL d   1       0.827  -0.270   4.350  0.00  0.00    -0.070 Cl
ATOM      8 Cl1  UNL d   1       1.935   1.133   1.629  0.00  0.00    -0.070 Cl
ENDROOT
TORSDOF 0
ENDMDL
