MODEL 1
REMARK minimizedAffinity 1.31400621
REMARK minimizedRMSD -1
REMARK  0 active torsions:
REMARK  status: ('A' for Active; 'I' for Inactive)
ROOT
ATOM      1  C   UNL d   1       0.472  -0.231   0.287  0.00  0.00     0.020 A 
ATOM      2  C1  UNL d   1       0.121  -0.722  -0.970  0.00  0.00     0.020 A 
ATOM      3  C2  UNL d   1      -1.221  -0.954  -1.280  0.00  0.00     0.034 A 
ATOM      4  C3  UNL d   1      -2.217  -0.695  -0.331  0.00  0.00     0.017 A 
ATOM      5  C4  UNL d   1      -1.864  -0.202   0.930  0.00  0.00     0.017 A 
ATOM      6  C5  UNL d   1      -0.519   0.028   1.235  0.00  0.00     0.034 A 
ATOM      7 Cl   UNL d   1      -3.036   0.141   2.153  0.00  0.00    -0.070 Cl
ATOM      8 Cl1  UNL d   1      -3.856  -1.005  -0.782  0.00  0.00    -0.070 Cl
ENDROOT
TORSDOF 0
ENDMDL
