MODEL 1
REMARK minimizedAffinity 0.216619432
REMARK minimizedRMSD -1
REMARK  0 active torsions:
REMARK  status: ('A' for Active; 'I' for Inactive)
ROOT
ATOM      1  C   UNL d   1      -1.950  -0.050   3.564  0.00  0.00     0.020 A 
ATOM      2  C1  UNL d   1      -0.728  -0.722   3.559  0.00  0.00     0.020 A 
ATOM      3  C2  UNL d   1      -0.019  -0.870   2.365  0.00  0.00     0.034 A 
ATOM      4  C3  UNL d   1      -0.530  -0.346   1.172  0.00  0.00     0.017 A 
ATOM      5  C4  UNL d   1      -1.756   0.328   1.179  0.00  0.00     0.017 A 
ATOM      6  C5  UNL d   1      -2.463   0.474   2.377  0.00  0.00     0.034 A 
ATOM      7 Cl   UNL d   1      -2.451   1.002  -0.253  0.00  0.00    -0.070 Cl
ATOM      8 Cl1  UNL d   1       0.402  -0.566  -0.266  0.00  0.00    -0.070 Cl
ENDROOT
TORSDOF 0
ENDMDL
