MODEL 1
REMARK minimizedAffinity 0.910644293
REMARK minimizedRMSD -1
REMARK  0 active torsions:
REMARK  status: ('A' for Active; 'I' for Inactive)
ROOT
ATOM      1  C   UNL d   1       4.002   1.377  -3.341  0.00  0.00     0.020 A 
ATOM      2  C1  UNL d   1       4.243   0.868  -2.066  0.00  0.00     0.020 A 
ATOM      3  C2  UNL d   1       3.180   0.408  -1.285  0.00  0.00     0.034 A 
ATOM      4  C3  UNL d   1       1.872   0.456  -1.779  0.00  0.00     0.017 A 
ATOM      5  C4  UNL d   1       1.631   0.966  -3.059  0.00  0.00     0.017 A 
ATOM      6  C5  UNL d   1       2.698   1.426  -3.837  0.00  0.00     0.034 A 
ATOM      7 Cl   UNL d   1       0.043   1.057  -3.737  0.00  0.00    -0.070 Cl
ATOM      8 Cl1  UNL d   1       0.606  -0.131  -0.759  0.00  0.00    -0.070 Cl
ENDROOT
TORSDOF 0
ENDMDL
