MODEL 1
REMARK minimizedAffinity -0.616910815
REMARK minimizedRMSD -1
REMARK  0 active torsions:
REMARK  status: ('A' for Active; 'I' for Inactive)
ROOT
ATOM      1  C   UNL d   1      -3.311  -0.486   0.687  0.00  0.00     0.020 A 
ATOM      2  C1  UNL d   1      -2.689  -0.138  -0.511  0.00  0.00     0.020 A 
ATOM      3  C2  UNL d   1      -1.342   0.230  -0.518  0.00  0.00     0.034 A 
ATOM      4  C3  UNL d   1      -0.612   0.251   0.676  0.00  0.00     0.017 A 
ATOM      5  C4  UNL d   1      -1.238  -0.098   1.879  0.00  0.00     0.017 A 
ATOM      6  C5  UNL d   1      -2.587  -0.465   1.880  0.00  0.00     0.034 A 
ATOM      7 Cl   UNL d   1      -0.403  -0.095   3.393  0.00  0.00    -0.070 Cl
ATOM      8 Cl1  UNL d   1       1.050   0.716   0.594  0.00  0.00    -0.070 Cl
ENDROOT
TORSDOF 0
ENDMDL
