MODEL 1
REMARK minimizedAffinity -1.91518271
REMARK minimizedRMSD -1
REMARK  0 active torsions:
REMARK  status: ('A' for Active; 'I' for Inactive)
ROOT
ATOM      1  C   UNL d   1      -0.749  -0.150   2.899  0.00  0.00     0.020 A 
ATOM      2  C1  UNL d   1      -1.858  -0.439   2.105  0.00  0.00     0.020 A 
ATOM      3  C2  UNL d   1      -1.717  -0.544   0.720  0.00  0.00     0.034 A 
ATOM      4  C3  UNL d   1      -0.464  -0.359   0.124  0.00  0.00     0.017 A 
ATOM      5  C4  UNL d   1       0.649  -0.069   0.922  0.00  0.00     0.017 A 
ATOM      6  C5  UNL d   1       0.501   0.035   2.309  0.00  0.00     0.034 A 
ATOM      7 Cl   UNL d   1       2.227   0.173   0.260  0.00  0.00    -0.070 Cl
ATOM      8 Cl1  UNL d   1      -0.362  -0.504  -1.594  0.00  0.00    -0.070 Cl
ENDROOT
TORSDOF 0
ENDMDL
