MODEL 1
REMARK minimizedAffinity -0.293851346
REMARK minimizedRMSD -1
REMARK  0 active torsions:
REMARK  status: ('A' for Active; 'I' for Inactive)
ROOT
ATOM      1  C4' PXY d   1       3.105  -2.058  -0.469  0.00  0.00     0.077 C 
ATOM      2  C1' PXY d   1      -1.440   0.232   2.273  0.00  0.00     0.077 C 
ATOM      3  C1  PXY d   1      -0.243  -0.372   1.565  0.00  0.00    -0.082 A 
ATOM      4  C2  PXY d   1       0.067   0.031   0.344  0.00  0.00     0.003 A 
ATOM      5  C3  PXY d   1       1.127  -0.527  -0.323  0.00  0.00     0.003 A 
ATOM      6  C4  PXY d   1       1.910  -1.470   0.287  0.00  0.00    -0.082 A 
ATOM      7  C5  PXY d   1       1.607  -1.879   1.537  0.00  0.00     0.003 A 
ATOM      8  C6  PXY d   1       0.502  -1.329   2.181  0.00  0.00     0.003 A 
ENDROOT
TORSDOF 0
ENDMDL
