MODEL 1
REMARK minimizedAffinity -0.384009749
REMARK minimizedRMSD -1
REMARK  0 active torsions:
REMARK  status: ('A' for Active; 'I' for Inactive)
ROOT
ATOM      1  C4' PXY d   1       0.496  -1.571   2.400  0.00  0.00     0.077 C 
ATOM      2  C1' PXY d   1      -1.151   1.755  -2.032  0.00  0.00     0.077 C 
ATOM      3  C1  PXY d   1      -0.728   0.888  -0.862  0.00  0.00    -0.082 A 
ATOM      4  C2  PXY d   1       0.494   0.381  -0.831  0.00  0.00     0.003 A 
ATOM      5  C3  PXY d   1       0.882  -0.431   0.203  0.00  0.00     0.003 A 
ATOM      6  C4  PXY d   1       0.029  -0.683   1.244  0.00  0.00    -0.082 A 
ATOM      7  C5  PXY d   1      -1.216  -0.161   1.225  0.00  0.00     0.003 A 
ATOM      8  C6  PXY d   1      -1.604   0.627   0.146  0.00  0.00     0.003 A 
ENDROOT
TORSDOF 0
ENDMDL
