MODEL 1
REMARK minimizedAffinity 8.68899632
REMARK minimizedRMSD -1
REMARK  0 active torsions:
REMARK  status: ('A' for Active; 'I' for Inactive)
ROOT
ATOM      1  C4' PXY d   1      -3.305  -0.128  -5.999  0.00  0.00     0.077 C 
ATOM      2  C1' PXY d   1      -5.999   2.987  -1.943  0.00  0.00     0.077 C 
ATOM      3  C1  PXY d   1      -5.281   2.178  -3.005  0.00  0.00    -0.082 A 
ATOM      4  C2  PXY d   1      -5.983   1.558  -3.940  0.00  0.00     0.003 A 
ATOM      5  C3  PXY d   1      -5.353   0.795  -4.889  0.00  0.00     0.003 A 
ATOM      6  C4  PXY d   1      -3.987   0.709  -4.913  0.00  0.00    -0.082 A 
ATOM      7  C5  PXY d   1      -3.263   1.346  -3.969  0.00  0.00     0.003 A 
ATOM      8  C6  PXY d   1      -3.924   2.082  -2.989  0.00  0.00     0.003 A 
ENDROOT
TORSDOF 0
ENDMDL
