MODEL 1
REMARK minimizedAffinity -2.96375394
REMARK minimizedRMSD -1
REMARK  0 active torsions:
REMARK  status: ('A' for Active; 'I' for Inactive)
ROOT
ATOM      1  C4' PXY d   1      -1.144   0.763  -1.814  0.00  0.00     0.077 C 
ATOM      2  C1' PXY d   1       1.701  -2.165   2.278  0.00  0.00     0.077 C 
ATOM      3  C1  PXY d   1       0.965  -1.398   1.197  0.00  0.00    -0.082 A 
ATOM      4  C2  PXY d   1      -0.041  -0.606   1.528  0.00  0.00     0.003 A 
ATOM      5  C3  PXY d   1      -0.738   0.071   0.560  0.00  0.00     0.003 A 
ATOM      6  C4  PXY d   1      -0.366  -0.023  -0.755  0.00  0.00    -0.082 A 
ATOM      7  C5  PXY d   1       0.667  -0.821  -1.099  0.00  0.00     0.003 A 
ATOM      8  C6  PXY d   1       1.335  -1.531  -0.105  0.00  0.00     0.003 A 
ENDROOT
TORSDOF 0
ENDMDL
