MODEL 1
REMARK minimizedAffinity -2.74048519
REMARK minimizedRMSD -1
REMARK  1 active torsions:
REMARK  status: ('A' for Active; 'I' for Inactive)
REMARK    1  A    between atoms: N_2  and  C1_3 
ROOT
ATOM      1  C1  UNL d   1       0.103  -0.459  -0.577  0.00  0.00     0.143 A 
ATOM      2  C2  UNL d   1      -0.188  -0.226   0.771  0.00  0.00    -0.057 A 
ATOM      3  C3  UNL d   1      -0.670   1.014   1.206  0.00  0.00     0.033 A 
ATOM      4  C4  UNL d   1      -0.842   2.057   0.302  0.00  0.00    -0.042 A 
ATOM      5  C5  UNL d   1      -0.535   1.856  -1.039  0.00  0.00     0.033 A 
ATOM      6  C6  UNL d   1      -0.061   0.613  -1.469  0.00  0.00    -0.057 A 
ENDROOT
BRANCH   1   7
ATOM      7  N   UNL d   1       0.679  -1.638  -1.056  0.00  0.00    -0.732 N 
ATOM      8  C   UNL d   1      -0.153  -2.730  -1.515  0.00  0.00     0.284 C 
ATOM      9  H3  UNL d   1       1.495  -1.464  -1.639  0.00  0.00     0.395 HD
ENDBRANCH   1   7
TORSDOF 1
ENDMDL
