MODEL 1
REMARK minimizedAffinity -4.92785263
REMARK minimizedRMSD -1
REMARK  1 active torsions:
REMARK  status: ('A' for Active; 'I' for Inactive)
REMARK    1  A    between atoms: N_2  and  C1_3 
ROOT
ATOM      1  C1  UNL d   1       0.468  -0.220   0.206  0.00  0.00     0.143 A 
ATOM      2  C2  UNL d   1       0.983  -0.024   1.492  0.00  0.00    -0.057 A 
ATOM      3  C3  UNL d   1       0.430   0.928   2.358  0.00  0.00     0.033 A 
ATOM      4  C4  UNL d   1      -0.633   1.723   1.940  0.00  0.00    -0.042 A 
ATOM      5  C5  UNL d   1      -1.144   1.562   0.658  0.00  0.00     0.033 A 
ATOM      6  C6  UNL d   1      -0.592   0.605  -0.200  0.00  0.00    -0.057 A 
ENDROOT
BRANCH   1   7
ATOM      7  N   UNL d   1       1.037  -1.081  -0.736  0.00  0.00    -0.732 N 
ATOM      8  C   UNL d   1       0.280  -2.193  -1.269  0.00  0.00     0.284 C 
ATOM      9  H3  UNL d   1       1.593  -0.585  -1.429  0.00  0.00     0.395 HD
ENDBRANCH   1   7
TORSDOF 1
ENDMDL
