MODEL 1
REMARK minimizedAffinity -2.46812892
REMARK minimizedRMSD -1
REMARK  1 active torsions:
REMARK  status: ('A' for Active; 'I' for Inactive)
REMARK    1  A    between atoms: N_2  and  C1_3 
ROOT
ATOM      1  C1  UNL d   1       0.416  -0.947  -0.897  0.00  0.00     0.143 A 
ATOM      2  C2  UNL d   1       0.334   0.054  -1.871  0.00  0.00    -0.057 A 
ATOM      3  C3  UNL d   1      -0.197   1.315  -1.573  0.00  0.00     0.033 A 
ATOM      4  C4  UNL d   1      -0.685   1.588  -0.300  0.00  0.00    -0.042 A 
ATOM      5  C5  UNL d   1      -0.637   0.600   0.677  0.00  0.00     0.033 A 
ATOM      6  C6  UNL d   1      -0.099  -0.655   0.376  0.00  0.00    -0.057 A 
ENDROOT
BRANCH   1   7
ATOM      7  N   UNL d   1       0.843  -2.252  -1.156  0.00  0.00    -0.732 N 
ATOM      8  C   UNL d   1      -0.100  -3.267  -1.575  0.00  0.00     0.284 C 
ATOM      9  H3  UNL d   1       1.730  -2.278  -1.653  0.00  0.00     0.395 HD
ENDBRANCH   1   7
TORSDOF 1
ENDMDL
