MODEL 1
REMARK minimizedAffinity -3.90527749
REMARK minimizedRMSD -1
REMARK  1 active torsions:
REMARK  status: ('A' for Active; 'I' for Inactive)
REMARK    1  A    between atoms: N_2  and  C1_3 
ROOT
ATOM      1  C1  UNL d   1       0.026   0.142   0.029  0.00  0.00     0.143 A 
ATOM      2  C2  UNL d   1       0.366   0.408   1.360  0.00  0.00    -0.057 A 
ATOM      3  C3  UNL d   1      -0.107   1.551   2.015  0.00  0.00     0.033 A 
ATOM      4  C4  UNL d   1      -0.908   2.466   1.340  0.00  0.00    -0.042 A 
ATOM      5  C5  UNL d   1      -1.239   2.235   0.010  0.00  0.00     0.033 A 
ATOM      6  C6  UNL d   1      -0.769   1.088  -0.638  0.00  0.00    -0.057 A 
ENDROOT
BRANCH   1   7
ATOM      7  N   UNL d   1       0.544  -0.926  -0.707  0.00  0.00    -0.732 N 
ATOM      8  C   UNL d   1       0.000  -2.258  -0.556  0.00  0.00     0.284 C 
ATOM      9  H3  UNL d   1       0.753  -0.669  -1.669  0.00  0.00     0.395 HD
ENDBRANCH   1   7
TORSDOF 1
ENDMDL
