MODEL 1
REMARK minimizedAffinity -2.90705729
REMARK minimizedRMSD -1
REMARK  0 active torsions:
REMARK  status: ('A' for Active; 'I' for Inactive)
ROOT
ATOM      1  C4' PXY d   1      -1.149   0.656  -1.942  0.00  0.00     0.077 C 
ATOM      2  C1' PXY d   1       1.469  -0.520   3.077  0.00  0.00     0.077 C 
ATOM      3  C1  PXY d   1       0.777  -0.223   1.761  0.00  0.00    -0.082 A 
ATOM      4  C2  PXY d   1       1.274   0.700   0.954  0.00  0.00     0.003 A 
ATOM      5  C3  PXY d   1       0.643   1.003  -0.225  0.00  0.00     0.003 A 
ATOM      6  C4  PXY d   1      -0.478   0.317  -0.607  0.00  0.00    -0.082 A 
ATOM      7  C5  PXY d   1      -0.986  -0.634   0.205  0.00  0.00     0.003 A 
ATOM      8  C6  PXY d   1      -0.354  -0.898   1.417  0.00  0.00     0.003 A 
ENDROOT
TORSDOF 0
ENDMDL
