MODEL 1
REMARK minimizedAffinity -3.59360433
REMARK minimizedRMSD -1
REMARK  0 active torsions:
REMARK  status: ('A' for Active; 'I' for Inactive)
ROOT
ATOM      1  C4' PXY d   1      -0.123   0.015  -2.529  0.00  0.00     0.077 C 
ATOM      2  C1' PXY d   1       1.355  -0.880   2.987  0.00  0.00     0.077 C 
ATOM      3  C1  PXY d   1       0.980  -0.644   1.538  0.00  0.00    -0.082 A 
ATOM      4  C2  PXY d   1      -0.224  -0.184   1.240  0.00  0.00     0.003 A 
ATOM      5  C3  PXY d   1      -0.591   0.004  -0.068  0.00  0.00     0.003 A 
ATOM      6  C4  PXY d   1       0.303  -0.229  -1.078  0.00  0.00    -0.082 A 
ATOM      7  C5  PXY d   1       1.537  -0.688  -0.782  0.00  0.00     0.003 A 
ATOM      8  C6  PXY d   1       1.876  -0.912   0.549  0.00  0.00     0.003 A 
ENDROOT
TORSDOF 0
ENDMDL
