MODEL 1
REMARK minimizedAffinity -0.618273377
REMARK minimizedRMSD -1
REMARK  0 active torsions:
REMARK  status: ('A' for Active; 'I' for Inactive)
ROOT
ATOM      1  C4' PXY d   1      -0.867   1.454  -2.613  0.00  0.00     0.077 C 
ATOM      2  C1' PXY d   1       0.429  -1.504   2.181  0.00  0.00     0.077 C 
ATOM      3  C1  PXY d   1       0.101  -0.731   0.919  0.00  0.00    -0.082 A 
ATOM      4  C2  PXY d   1      -0.863   0.176   0.939  0.00  0.00     0.003 A 
ATOM      5  C3  PXY d   1      -1.194   0.862  -0.201  0.00  0.00     0.003 A 
ATOM      6  C4  PXY d   1      -0.495   0.656  -1.361  0.00  0.00    -0.082 A 
ATOM      7  C5  PXY d   1       0.496  -0.259  -1.387  0.00  0.00     0.003 A 
ATOM      8  C6  PXY d   1       0.789  -0.975  -0.229  0.00  0.00     0.003 A 
ENDROOT
TORSDOF 0
ENDMDL
