MODEL 1
REMARK minimizedAffinity -4.16917849
REMARK minimizedRMSD -1
REMARK  0 active torsions:
REMARK  status: ('A' for Active; 'I' for Inactive)
ROOT
ATOM      1  C4' PXY d   1       1.903  -2.228   1.841  0.00  0.00     0.077 C 
ATOM      2  C1' PXY d   1      -1.459   1.029  -1.550  0.00  0.00     0.077 C 
ATOM      3  C1  PXY d   1      -0.582   0.181  -0.650  0.00  0.00    -0.082 A 
ATOM      4  C2  PXY d   1       0.502  -0.393  -1.146  0.00  0.00     0.003 A 
ATOM      5  C3  PXY d   1       1.289  -1.189  -0.354  0.00  0.00     0.003 A 
ATOM      6  C4  PXY d   1       0.993  -1.356   0.972  0.00  0.00    -0.082 A 
ATOM      7  C5  PXY d   1      -0.106  -0.765   1.488  0.00  0.00     0.003 A 
ATOM      8  C6  PXY d   1      -0.914   0.005   0.657  0.00  0.00     0.003 A 
ENDROOT
TORSDOF 0
ENDMDL
