MODEL 1
REMARK minimizedAffinity -0.942391098
REMARK minimizedRMSD -1
REMARK  0 active torsions:
REMARK  status: ('A' for Active; 'I' for Inactive)
ROOT
ATOM      1  C4' PXY d   1      -1.304   1.643  -2.072  0.00  0.00     0.077 C 
ATOM      2  C1' PXY d   1       0.485  -1.530   2.416  0.00  0.00     0.077 C 
ATOM      3  C1  PXY d   1       0.028  -0.696   1.236  0.00  0.00    -0.082 A 
ATOM      4  C2  PXY d   1      -1.169  -0.132   1.258  0.00  0.00     0.003 A 
ATOM      5  C3  PXY d   1      -1.611   0.600   0.185  0.00  0.00     0.003 A 
ATOM      6  C4  PXY d   1      -0.798   0.800  -0.899  0.00  0.00    -0.082 A 
ATOM      7  C5  PXY d   1       0.429   0.237  -0.924  0.00  0.00     0.003 A 
ATOM      8  C6  PXY d   1       0.842  -0.536   0.157  0.00  0.00     0.003 A 
ENDROOT
TORSDOF 0
ENDMDL
