MODEL 1
REMARK minimizedAffinity -4.29104471
REMARK minimizedRMSD -1
REMARK  0 active torsions:
REMARK  status: ('A' for Active; 'I' for Inactive)
ROOT
ATOM      1  C4' PXY d   1      -1.172   2.266  -1.920  0.00  0.00     0.077 C 
ATOM      2  C1' PXY d   1       0.971  -0.390   2.745  0.00  0.00     0.077 C 
ATOM      3  C1  PXY d   1       0.418   0.300   1.514  0.00  0.00    -0.082 A 
ATOM      4  C2  PXY d   1      -0.216   1.455   1.641  0.00  0.00     0.003 A 
ATOM      5  C3  PXY d   1      -0.751   2.077   0.542  0.00  0.00     0.003 A 
ATOM      6  C4  PXY d   1      -0.589   1.538  -0.706  0.00  0.00    -0.082 A 
ATOM      7  C5  PXY d   1       0.066   0.366  -0.845  0.00  0.00     0.003 A 
ATOM      8  C6  PXY d   1       0.565  -0.270   0.287  0.00  0.00     0.003 A 
ENDROOT
TORSDOF 0
ENDMDL
