MODEL 1
REMARK minimizedAffinity -3.47221112
REMARK minimizedRMSD -1
REMARK  0 active torsions:
REMARK  status: ('A' for Active; 'I' for Inactive)
ROOT
ATOM      1  C4' PXY d   1       2.652  -1.814  -1.596  0.00  0.00     0.077 C 
ATOM      2  C1' PXY d   1      -1.198   0.158   2.239  0.00  0.00     0.077 C 
ATOM      3  C1  PXY d   1      -0.198  -0.366   1.228  0.00  0.00    -0.082 A 
ATOM      4  C2  PXY d   1       1.095  -0.336   1.510  0.00  0.00     0.003 A 
ATOM      5  C3  PXY d   1       2.015  -0.777   0.594  0.00  0.00     0.003 A 
ATOM      6  C4  PXY d   1       1.605  -1.304  -0.601  0.00  0.00    -0.082 A 
ATOM      7  C5  PXY d   1       0.288  -1.348  -0.892  0.00  0.00     0.003 A 
ATOM      8  C6  PXY d   1      -0.628  -0.857   0.034  0.00  0.00     0.003 A 
ENDROOT
TORSDOF 0
ENDMDL
