MODEL 1
REMARK minimizedAffinity -3.16588426
REMARK minimizedRMSD -1
REMARK  0 active torsions:
REMARK  status: ('A' for Active; 'I' for Inactive)
ROOT
ATOM      1  C4' PXY d   1      -2.998  -1.497   0.751  0.00  0.00     0.077 C 
ATOM      2  C1' PXY d   1       2.604  -0.265   0.029  0.00  0.00     0.077 C 
ATOM      3  C1  PXY d   1       1.137  -0.594   0.230  0.00  0.00    -0.082 A 
ATOM      4  C2  PXY d   1       0.339  -0.691  -0.821  0.00  0.00     0.003 A 
ATOM      5  C3  PXY d   1      -0.996  -0.956  -0.655  0.00  0.00     0.003 A 
ATOM      6  C4  PXY d   1      -1.509  -1.176   0.595  0.00  0.00    -0.082 A 
ATOM      7  C5  PXY d   1      -0.698  -1.089   1.671  0.00  0.00     0.003 A 
ATOM      8  C6  PXY d   1       0.645  -0.779   1.485  0.00  0.00     0.003 A 
ENDROOT
TORSDOF 0
ENDMDL
