MODEL 1
REMARK minimizedAffinity -6.13550711
REMARK minimizedRMSD -1
REMARK  0 active torsions:
REMARK  status: ('A' for Active; 'I' for Inactive)
ROOT
ATOM      1  O1  BZF d   1       1.092  -0.464  -0.326  0.00  0.00    -0.204 OA
ATOM      2  C2  BZF d   1       0.126  -0.053  -1.224  0.00  0.00     0.174 A 
ATOM      3  C3  BZF d   1      -0.854   0.626  -0.594  0.00  0.00    -0.012 A 
ATOM      4  C3A BZF d   1      -0.431   0.720   0.770  0.00  0.00    -0.107 A 
ATOM      5  C4  BZF d   1      -0.973   1.295   1.884  0.00  0.00     0.055 A 
ATOM      6  C5  BZF d   1      -0.341   1.144   3.078  0.00  0.00    -0.016 A 
ATOM      7  C6  BZF d   1       0.829   0.423   3.195  0.00  0.00     0.022 A 
ATOM      8  C7  BZF d   1       1.407  -0.161   2.117  0.00  0.00     0.029 A 
ATOM      9  C7A BZF d   1       0.789   0.017   0.903  0.00  0.00     0.058 A 
ENDROOT
TORSDOF 0
ENDMDL
