MODEL 1
REMARK minimizedAffinity -6.09249687
REMARK minimizedRMSD -1
REMARK  0 active torsions:
REMARK  status: ('A' for Active; 'I' for Inactive)
ROOT
ATOM      1  O1  BZF d   1       1.009  -0.124   0.088  0.00  0.00    -0.204 OA
ATOM      2  C2  BZF d   1       0.003   0.152  -0.818  0.00  0.00     0.174 A 
ATOM      3  C3  BZF d   1      -1.052   0.722  -0.201  0.00  0.00    -0.012 A 
ATOM      4  C3A BZF d   1      -0.646   0.893   1.160  0.00  0.00    -0.107 A 
ATOM      5  C4  BZF d   1      -1.255   1.421   2.262  0.00  0.00     0.055 A 
ATOM      6  C5  BZF d   1      -0.613   1.370   3.459  0.00  0.00    -0.016 A 
ATOM      7  C6  BZF d   1       0.634   0.794   3.591  0.00  0.00     0.022 A 
ATOM      8  C7  BZF d   1       1.280   0.262   2.525  0.00  0.00     0.029 A 
ATOM      9  C7A BZF d   1       0.648   0.342   1.308  0.00  0.00     0.058 A 
ENDROOT
TORSDOF 0
ENDMDL
