MODEL 1
REMARK minimizedAffinity -5.08584404
REMARK minimizedRMSD -1
REMARK  0 active torsions:
REMARK  status: ('A' for Active; 'I' for Inactive)
ROOT
ATOM      1  O1  BZF d   1       0.648  -0.049  -0.235  0.00  0.00    -0.204 OA
ATOM      2  C2  BZF d   1      -0.491  -0.231  -0.995  0.00  0.00     0.174 A 
ATOM      3  C3  BZF d   1      -1.599  -0.009  -0.257  0.00  0.00    -0.012 A 
ATOM      4  C3A BZF d   1      -1.120   0.422   1.020  0.00  0.00    -0.107 A 
ATOM      5  C4  BZF d   1      -1.740   0.806   2.174  0.00  0.00     0.055 A 
ATOM      6  C5  BZF d   1      -0.983   1.098   3.265  0.00  0.00    -0.016 A 
ATOM      7  C6  BZF d   1       0.393   1.010   3.239  0.00  0.00     0.022 A 
ATOM      8  C7  BZF d   1       1.053   0.639   2.115  0.00  0.00     0.029 A 
ATOM      9  C7A BZF d   1       0.294   0.375   1.001  0.00  0.00     0.058 A 
ENDROOT
TORSDOF 0
ENDMDL
