MODEL 1
REMARK minimizedAffinity -1.96547508
REMARK minimizedRMSD -1
REMARK  0 active torsions:
REMARK  status: ('A' for Active; 'I' for Inactive)
ROOT
ATOM      1  O1  BZF d   1       1.385  -1.337   0.111  0.00  0.00    -0.204 OA
ATOM      2  C2  BZF d   1       2.148  -1.006   1.214  0.00  0.00     0.174 A 
ATOM      3  C3  BZF d   1       1.414  -0.326   2.118  0.00  0.00    -0.012 A 
ATOM      4  C3A BZF d   1       0.086  -0.306   1.585  0.00  0.00    -0.107 A 
ATOM      5  C4  BZF d   1      -1.097   0.209   2.032  0.00  0.00     0.055 A 
ATOM      6  C5  BZF d   1      -2.197   0.122   1.239  0.00  0.00    -0.016 A 
ATOM      7  C6  BZF d   1      -2.149  -0.468  -0.007  0.00  0.00     0.022 A 
ATOM      8  C7  BZF d   1      -0.999  -0.997  -0.492  0.00  0.00     0.029 A 
ATOM      9  C7A BZF d   1       0.107  -0.940   0.321  0.00  0.00     0.058 A 
ENDROOT
TORSDOF 0
ENDMDL
