MODEL 1
REMARK minimizedAffinity -2.53735137
REMARK minimizedRMSD -1
REMARK  0 active torsions:
REMARK  status: ('A' for Active; 'I' for Inactive)
ROOT
ATOM      1  O1  BZF d   1      -0.302  -0.455   2.420  0.00  0.00    -0.204 OA
ATOM      2  C2  BZF d   1      -1.603  -0.071   2.681  0.00  0.00     0.174 A 
ATOM      3  C3  BZF d   1      -2.146   0.540   1.607  0.00  0.00    -0.012 A 
ATOM      4  C3A BZF d   1      -1.151   0.455   0.583  0.00  0.00    -0.107 A 
ATOM      5  C4  BZF d   1      -1.106   0.868  -0.718  0.00  0.00     0.055 A 
ATOM      6  C5  BZF d   1       0.042   0.697  -1.425  0.00  0.00    -0.016 A 
ATOM      7  C6  BZF d   1       1.163   0.123  -0.863  0.00  0.00     0.022 A 
ATOM      8  C7  BZF d   1       1.164  -0.307   0.423  0.00  0.00     0.029 A 
ATOM      9  C7A BZF d   1      -0.004  -0.166   1.130  0.00  0.00     0.058 A 
ENDROOT
TORSDOF 0
ENDMDL
