MODEL 1
REMARK minimizedAffinity -1.35257912
REMARK minimizedRMSD -1
REMARK  0 active torsions:
REMARK  status: ('A' for Active; 'I' for Inactive)
ROOT
ATOM      1  O1  BZF d   1       1.870  -1.217   1.719  0.00  0.00    -0.204 OA
ATOM      2  C2  BZF d   1       1.986  -1.117   3.092  0.00  0.00     0.174 A 
ATOM      3  C3  BZF d   1       0.903  -0.509   3.620  0.00  0.00    -0.012 A 
ATOM      4  C3A BZF d   1       0.017  -0.295   2.518  0.00  0.00    -0.107 A 
ATOM      5  C4  BZF d   1      -1.228   0.255   2.407  0.00  0.00     0.055 A 
ATOM      6  C5  BZF d   1      -1.788   0.381   1.175  0.00  0.00    -0.016 A 
ATOM      7  C6  BZF d   1      -1.130  -0.027   0.034  0.00  0.00     0.022 A 
ATOM      8  C7  BZF d   1       0.105  -0.583   0.094  0.00  0.00     0.029 A 
ATOM      9  C7A BZF d   1       0.660  -0.742   1.340  0.00  0.00     0.058 A 
ENDROOT
TORSDOF 0
ENDMDL
