MODEL 1
REMARK minimizedAffinity -5.03844595
REMARK minimizedRMSD -1
REMARK  0 active torsions:
REMARK  status: ('A' for Active; 'I' for Inactive)
ROOT
ATOM      1  O1  BZF d   1      -1.304  -0.813   0.004  0.00  0.00    -0.204 OA
ATOM      2  C2  BZF d   1      -0.114  -1.073  -0.648  0.00  0.00     0.174 A 
ATOM      3  C3  BZF d   1       0.891  -0.347  -0.118  0.00  0.00    -0.012 A 
ATOM      4  C3A BZF d   1       0.310   0.345   0.992  0.00  0.00    -0.107 A 
ATOM      5  C4  BZF d   1       0.808   1.211   1.923  0.00  0.00     0.055 A 
ATOM      6  C5  BZF d   1      -0.040   1.766   2.829  0.00  0.00    -0.016 A 
ATOM      7  C6  BZF d   1      -1.390   1.482   2.829  0.00  0.00     0.022 A 
ATOM      8  C7  BZF d   1      -1.929   0.625   1.928  0.00  0.00     0.029 A 
ATOM      9  C7A BZF d   1      -1.069   0.037   1.032  0.00  0.00     0.058 A 
ENDROOT
TORSDOF 0
ENDMDL
