MODEL 1
REMARK minimizedAffinity -2.21613669
REMARK minimizedRMSD -1
REMARK  0 active torsions:
REMARK  status: ('A' for Active; 'I' for Inactive)
ROOT
ATOM      1  O1  BZF d   1       1.144  -0.785   1.460  0.00  0.00    -0.204 OA
ATOM      2  C2  BZF d   1       1.423  -1.369   0.239  0.00  0.00     0.174 A 
ATOM      3  C3  BZF d   1       0.386  -1.220  -0.610  0.00  0.00    -0.012 A 
ATOM      4  C3A BZF d   1      -0.565  -0.417   0.094  0.00  0.00    -0.107 A 
ATOM      5  C4  BZF d   1      -1.794   0.084  -0.229  0.00  0.00     0.055 A 
ATOM      6  C5  BZF d   1      -2.497   0.769   0.711  0.00  0.00    -0.016 A 
ATOM      7  C6  BZF d   1      -2.005   0.966   1.984  0.00  0.00     0.022 A 
ATOM      8  C7  BZF d   1      -0.789   0.492   2.351  0.00  0.00     0.029 A 
ATOM      9  C7A BZF d   1      -0.062  -0.171   1.393  0.00  0.00     0.058 A 
ENDROOT
TORSDOF 0
ENDMDL
