MODEL 1
REMARK minimizedAffinity 12.9745207
REMARK minimizedRMSD -1
REMARK  1 active torsions:
REMARK  status: ('A' for Active; 'I' for Inactive)
REMARK    1  A    between atoms: C1_2  and  C2_3 
ROOT
ATOM      1  C2  UNL d   1      -1.719   2.246  -2.080  0.00  0.00    -0.076 A 
ATOM      2  C3  UNL d   1      -1.696   2.004  -0.695  0.00  0.00     0.004 A 
ATOM      3  C4  UNL d   1      -0.638   2.453   0.094  0.00  0.00    -0.003 A 
ATOM      4  C5  UNL d   1       0.414   3.150  -0.489  0.00  0.00     0.000 A 
ATOM      5  C6  UNL d   1       0.400   3.414  -1.858  0.00  0.00     0.000 A 
ATOM      6  C7  UNL d   1      -0.667   2.983  -2.665  0.00  0.00    -0.073 A 
ATOM      7  C8  UNL d   1      -0.629   3.290  -4.137  0.00  0.00     0.078 C 
ENDROOT
BRANCH   1   8
ATOM      8  C1  UNL d   1      -2.879   1.712  -2.889  0.00  0.00     0.053 C 
ATOM      9  C   UNL d   1      -3.481   0.453  -2.284  0.00  0.00     0.018 C 
ENDBRANCH   1   8
TORSDOF 1
ENDMDL
