MODEL 1
REMARK minimizedAffinity 23.4958878
REMARK minimizedRMSD -1
REMARK  1 active torsions:
REMARK  status: ('A' for Active; 'I' for Inactive)
REMARK    1  A    between atoms: C1_2  and  C2_3 
ROOT
ATOM      1  C2  UNL d   1       0.691   3.782  -2.577  0.00  0.00    -0.076 A 
ATOM      2  C3  UNL d   1       1.766   4.685  -2.649  0.00  0.00     0.004 A 
ATOM      3  C4  UNL d   1       1.724   5.782  -3.507  0.00  0.00    -0.003 A 
ATOM      4  C5  UNL d   1       0.607   5.995  -4.306  0.00  0.00     0.000 A 
ATOM      5  C6  UNL d   1      -0.476   5.120  -4.235  0.00  0.00     0.000 A 
ATOM      6  C7  UNL d   1      -0.457   4.017  -3.363  0.00  0.00    -0.073 A 
ATOM      7  C8  UNL d   1      -1.650   3.102  -3.331  0.00  0.00     0.078 C 
ENDROOT
BRANCH   1   8
ATOM      8  C1  UNL d   1       0.804   2.594  -1.648  0.00  0.00     0.053 C 
ATOM      9  C   UNL d   1       0.435   2.939  -0.213  0.00  0.00     0.018 C 
ENDBRANCH   1   8
TORSDOF 1
ENDMDL
