MODEL 1
REMARK minimizedAffinity 10.3343992
REMARK minimizedRMSD -1
REMARK  1 active torsions:
REMARK  status: ('A' for Active; 'I' for Inactive)
REMARK    1  A    between atoms: C1_2  and  C2_3 
ROOT
ATOM      1  C2  UNL d   1      -3.580  -2.924   5.391  0.00  0.00    -0.076 A 
ATOM      2  C3  UNL d   1      -4.823  -2.672   5.998  0.00  0.00     0.004 A 
ATOM      3  C4  UNL d   1      -5.998  -3.210   5.476  0.00  0.00    -0.003 A 
ATOM      4  C5  UNL d   1      -5.950  -4.008   4.339  0.00  0.00     0.000 A 
ATOM      5  C6  UNL d   1      -4.724  -4.283   3.734  0.00  0.00     0.000 A 
ATOM      6  C7  UNL d   1      -3.528  -3.763   4.257  0.00  0.00    -0.073 A 
ATOM      7  C8  UNL d   1      -2.234  -4.086   3.561  0.00  0.00     0.078 C 
ENDROOT
BRANCH   1   8
ATOM      8  C1  UNL d   1      -2.342  -2.292   5.986  0.00  0.00     0.053 C 
ATOM      9  C   UNL d   1      -1.146  -3.231   5.977  0.00  0.00     0.018 C 
ENDBRANCH   1   8
TORSDOF 1
ENDMDL
