MODEL 1
REMARK minimizedAffinity 16.77598
REMARK minimizedRMSD -1
REMARK  1 active torsions:
REMARK  status: ('A' for Active; 'I' for Inactive)
REMARK    1  A    between atoms: C1_2  and  C2_3 
ROOT
ATOM      1  C2  UNL d   1       0.857   4.257  -2.791  0.00  0.00    -0.076 A 
ATOM      2  C3  UNL d   1       1.927   5.157  -2.938  0.00  0.00     0.004 A 
ATOM      3  C4  UNL d   1       2.010   6.000  -4.045  0.00  0.00    -0.003 A 
ATOM      4  C5  UNL d   1       1.023   5.957  -5.024  0.00  0.00     0.000 A 
ATOM      5  C6  UNL d   1      -0.055   5.083  -4.886  0.00  0.00     0.000 A 
ATOM      6  C7  UNL d   1      -0.162   4.238  -3.768  0.00  0.00    -0.073 A 
ATOM      7  C8  UNL d   1      -1.342   3.311  -3.673  0.00  0.00     0.078 C 
ENDROOT
BRANCH   1   8
ATOM      8  C1  UNL d   1       0.835   3.349  -1.583  0.00  0.00     0.053 C 
ATOM      9  C   UNL d   1      -0.451   3.476  -0.782  0.00  0.00     0.018 C 
ENDBRANCH   1   8
TORSDOF 1
ENDMDL
