MODEL 1
REMARK minimizedAffinity 6.88398504
REMARK minimizedRMSD -1
REMARK  1 active torsions:
REMARK  status: ('A' for Active; 'I' for Inactive)
REMARK    1  A    between atoms: C1_2  and  C2_3 
ROOT
ATOM      1  C2  UNL d   1       2.438  -3.648  -3.779  0.00  0.00    -0.076 A 
ATOM      2  C3  UNL d   1       1.558  -2.928  -4.606  0.00  0.00     0.004 A 
ATOM      3  C4  UNL d   1       2.029  -2.215  -5.707  0.00  0.00    -0.003 A 
ATOM      4  C5  UNL d   1       3.389  -2.211  -6.000  0.00  0.00     0.000 A 
ATOM      5  C6  UNL d   1       4.274  -2.934  -5.201  0.00  0.00     0.000 A 
ATOM      6  C7  UNL d   1       3.813  -3.671  -4.097  0.00  0.00    -0.073 A 
ATOM      7  C8  UNL d   1       4.813  -4.428  -3.266  0.00  0.00     0.078 C 
ENDROOT
BRANCH   1   8
ATOM      8  C1  UNL d   1       1.872  -4.380  -2.583  0.00  0.00     0.053 C 
ATOM      9  C   UNL d   1       1.346  -3.433  -1.516  0.00  0.00     0.018 C 
ENDBRANCH   1   8
TORSDOF 1
ENDMDL
