MODEL 1
REMARK minimizedAffinity 20.4996414
REMARK minimizedRMSD -1
REMARK  1 active torsions:
REMARK  status: ('A' for Active; 'I' for Inactive)
REMARK    1  A    between atoms: C1_2  and  C2_3 
ROOT
ATOM      1  C2  UNL d   1      -4.838   5.779   0.660  0.00  0.00    -0.076 A 
ATOM      2  C3  UNL d   1      -5.992   5.841   1.459  0.00  0.00     0.004 A 
ATOM      3  C4  UNL d   1      -5.900   5.951   2.845  0.00  0.00    -0.003 A 
ATOM      4  C5  UNL d   1      -4.651   6.000   3.455  0.00  0.00     0.000 A 
ATOM      5  C6  UNL d   1      -3.495   5.957   2.676  0.00  0.00     0.000 A 
ATOM      6  C7  UNL d   1      -3.571   5.863   1.276  0.00  0.00    -0.073 A 
ATOM      7  C8  UNL d   1      -2.292   5.814   0.486  0.00  0.00     0.078 C 
ENDROOT
BRANCH   1   8
ATOM      8  C1  UNL d   1      -5.000   5.633  -0.837  0.00  0.00     0.053 C 
ATOM      9  C   UNL d   1      -3.782   5.005  -1.496  0.00  0.00     0.018 C 
ENDBRANCH   1   8
TORSDOF 1
ENDMDL
