MODEL 1
REMARK minimizedAffinity 17.1018982
REMARK minimizedRMSD -1
REMARK  1 active torsions:
REMARK  status: ('A' for Active; 'I' for Inactive)
REMARK    1  A    between atoms: C1_2  and  C2_3 
ROOT
ATOM      1  C2  UNL d   1      -0.773   2.726  -1.104  0.00  0.00    -0.076 A 
ATOM      2  C3  UNL d   1      -1.517   1.959  -0.191  0.00  0.00     0.004 A 
ATOM      3  C4  UNL d   1      -0.950   1.516   1.003  0.00  0.00    -0.003 A 
ATOM      4  C5  UNL d   1       0.370   1.835   1.304  0.00  0.00     0.000 A 
ATOM      5  C6  UNL d   1       1.117   2.611   0.418  0.00  0.00     0.000 A 
ATOM      6  C7  UNL d   1       0.556   3.078  -0.782  0.00  0.00    -0.073 A 
ATOM      7  C8  UNL d   1       1.409   3.906  -1.704  0.00  0.00     0.078 C 
ENDROOT
BRANCH   1   8
ATOM      8  C1  UNL d   1      -1.432   3.155  -2.396  0.00  0.00     0.053 C 
ATOM      9  C   UNL d   1      -2.525   2.195  -2.839  0.00  0.00     0.018 C 
ENDBRANCH   1   8
TORSDOF 1
ENDMDL
