MODEL 1
REMARK minimizedAffinity 7.44501638
REMARK minimizedRMSD -1
REMARK  1 active torsions:
REMARK  status: ('A' for Active; 'I' for Inactive)
REMARK    1  A    between atoms: C1_2  and  C2_3 
ROOT
ATOM      1  C2  UNL d   1      -0.348   3.075  -0.654  0.00  0.00    -0.076 A 
ATOM      2  C3  UNL d   1       0.392   4.130  -0.094  0.00  0.00     0.004 A 
ATOM      3  C4  UNL d   1       0.437   5.380  -0.709  0.00  0.00    -0.003 A 
ATOM      4  C5  UNL d   1      -0.259   5.595  -1.893  0.00  0.00     0.000 A 
ATOM      5  C6  UNL d   1      -1.013   4.565  -2.453  0.00  0.00     0.000 A 
ATOM      6  C7  UNL d   1      -1.082   3.303  -1.838  0.00  0.00    -0.073 A 
ATOM      7  C8  UNL d   1      -1.905   2.226  -2.489  0.00  0.00     0.078 C 
ENDROOT
BRANCH   1   8
ATOM      8  C1  UNL d   1      -0.338   1.733   0.044  0.00  0.00     0.053 C 
ATOM      9  C   UNL d   1      -1.013   1.779   1.406  0.00  0.00     0.018 C 
ENDBRANCH   1   8
TORSDOF 1
ENDMDL
