MODEL 1
REMARK minimizedAffinity 12.0128317
REMARK minimizedRMSD -1
REMARK  1 active torsions:
REMARK  status: ('A' for Active; 'I' for Inactive)
REMARK    1  A    between atoms: C1_2  and  C2_3 
ROOT
ATOM      1  C2  UNL d   1      -0.888   1.828   2.266  0.00  0.00    -0.076 A 
ATOM      2  C3  UNL d   1      -2.180   2.339   2.478  0.00  0.00     0.004 A 
ATOM      3  C4  UNL d   1      -3.236   1.499   2.828  0.00  0.00    -0.003 A 
ATOM      4  C5  UNL d   1      -3.016   0.133   2.971  0.00  0.00     0.000 A 
ATOM      5  C6  UNL d   1      -1.737  -0.389   2.782  0.00  0.00     0.000 A 
ATOM      6  C7  UNL d   1      -0.658   0.447   2.445  0.00  0.00    -0.073 A 
ATOM      7  C8  UNL d   1       0.699  -0.170   2.246  0.00  0.00     0.078 C 
ENDROOT
BRANCH   1   8
ATOM      8  C1  UNL d   1       0.212   2.784   1.862  0.00  0.00     0.053 C 
ATOM      9  C   UNL d   1      -0.209   3.712   0.732  0.00  0.00     0.018 C 
ENDBRANCH   1   8
TORSDOF 1
ENDMDL
