MODEL 1
REMARK minimizedAffinity -0.168285728
REMARK minimizedRMSD -1
REMARK  0 active torsions:
REMARK  status: ('A' for Active; 'I' for Inactive)
ROOT
ATOM      1  N1  IND d   1       5.400  -4.627  -3.287  0.00  0.00    -0.196 N 
ATOM      2  C2  IND d   1       4.807  -4.052  -4.376  0.00  0.00     0.054 A 
ATOM      3  C3  IND d   1       3.663  -3.428  -4.014  0.00  0.00    -0.031 A 
ATOM      4  C4  IND d   1       2.627  -3.139  -1.675  0.00  0.00     0.051 A 
ATOM      5  C5  IND d   1       2.787  -3.519  -0.372  0.00  0.00    -0.031 A 
ATOM      6  C6  IND d   1       3.848  -4.302   0.035  0.00  0.00     0.015 A 
ATOM      7  C7  IND d   1       4.800  -4.725  -0.848  0.00  0.00    -0.016 A 
ATOM      8  C8  IND d   1       4.638  -4.347  -2.174  0.00  0.00    -0.047 A 
ATOM      9  C9  IND d   1       3.540  -3.589  -2.600  0.00  0.00    -0.096 A 
ATOM     10  HN1 IND d   1       6.127  -5.086  -3.295  0.00  0.00     0.298 HD
ENDROOT
TORSDOF 0
ENDMDL
