MODEL 1
REMARK minimizedAffinity 0.113701388
REMARK minimizedRMSD -1
REMARK  0 active torsions:
REMARK  status: ('A' for Active; 'I' for Inactive)
ROOT
ATOM      1  N1  IND d   1       2.871  -3.226  -0.122  0.00  0.00    -0.196 N 
ATOM      2  C2  IND d   1       3.840  -3.957   0.506  0.00  0.00     0.054 A 
ATOM      3  C3  IND d   1       4.511  -4.716  -0.389  0.00  0.00    -0.031 A 
ATOM      4  C4  IND d   1       4.254  -4.838  -2.948  0.00  0.00     0.051 A 
ATOM      5  C5  IND d   1       3.478  -4.381  -3.975  0.00  0.00    -0.031 A 
ATOM      6  C6  IND d   1       2.440  -3.496  -3.767  0.00  0.00     0.015 A 
ATOM      7  C7  IND d   1       2.146  -3.024  -2.519  0.00  0.00    -0.016 A 
ATOM      8  C8  IND d   1       2.928  -3.491  -1.472  0.00  0.00    -0.047 A 
ATOM      9  C9  IND d   1       3.955  -4.422  -1.672  0.00  0.00    -0.096 A 
ATOM     10  HN1 IND d   1       2.319  -2.691   0.262  0.00  0.00     0.298 HD
ENDROOT
TORSDOF 0
ENDMDL
