MODEL 1
REMARK minimizedAffinity 12.0628681
REMARK minimizedRMSD -1
REMARK  0 active torsions:
REMARK  status: ('A' for Active; 'I' for Inactive)
ROOT
ATOM      1  N1  IND d   1       4.607  -4.905  -0.634  0.00  0.00    -0.196 N 
ATOM      2  C2  IND d   1       4.114  -4.173   0.409  0.00  0.00     0.054 A 
ATOM      3  C3  IND d   1       2.985  -3.528   0.039  0.00  0.00    -0.031 A 
ATOM      4  C4  IND d   1       1.712  -3.611  -2.197  0.00  0.00     0.051 A 
ATOM      5  C5  IND d   1       1.794  -4.114  -3.465  0.00  0.00    -0.031 A 
ATOM      6  C6  IND d   1       2.838  -4.925  -3.862  0.00  0.00     0.015 A 
ATOM      7  C7  IND d   1       3.837  -5.274  -2.998  0.00  0.00    -0.016 A 
ATOM      8  C8  IND d   1       3.760  -4.759  -1.711  0.00  0.00    -0.047 A 
ATOM      9  C9  IND d   1       2.726  -3.902  -1.315  0.00  0.00    -0.096 A 
ATOM     10  HN1 IND d   1       5.326  -5.377  -0.621  0.00  0.00     0.298 HD
ENDROOT
TORSDOF 0
ENDMDL
