MODEL 1
REMARK minimizedAffinity 6.75086689
REMARK minimizedRMSD -1
REMARK  0 active torsions:
REMARK  status: ('A' for Active; 'I' for Inactive)
ROOT
ATOM      1  N1  IND d   1       5.338  -4.098  -0.439  0.00  0.00    -0.196 N 
ATOM      2  C2  IND d   1       4.340  -3.709   0.411  0.00  0.00     0.054 A 
ATOM      3  C3  IND d   1       3.221  -3.409  -0.285  0.00  0.00    -0.031 A 
ATOM      4  C4  IND d   1       2.770  -3.583  -2.813  0.00  0.00     0.051 A 
ATOM      5  C5  IND d   1       3.388  -3.856  -4.001  0.00  0.00    -0.031 A 
ATOM      6  C6  IND d   1       4.714  -4.233  -4.063  0.00  0.00     0.015 A 
ATOM      7  C7  IND d   1       5.471  -4.364  -2.934  0.00  0.00    -0.016 A 
ATOM      8  C8  IND d   1       4.849  -4.081  -1.726  0.00  0.00    -0.047 A 
ATOM      9  C9  IND d   1       3.516  -3.656  -1.660  0.00  0.00    -0.096 A 
ATOM     10  HN1 IND d   1       6.137  -4.316  -0.208  0.00  0.00     0.298 HD
ENDROOT
TORSDOF 0
ENDMDL
