MODEL 1
REMARK minimizedAffinity 3.99533963
REMARK minimizedRMSD -1
REMARK  0 active torsions:
REMARK  status: ('A' for Active; 'I' for Inactive)
ROOT
ATOM      1  N1  IND d   1       2.703  -0.684  -2.918  0.00  0.00    -0.196 N 
ATOM      2  C2  IND d   1       2.318  -0.100  -1.744  0.00  0.00     0.054 A 
ATOM      3  C3  IND d   1       2.298  -1.013  -0.748  0.00  0.00    -0.031 A 
ATOM      4  C4  IND d   1       2.955  -3.502  -0.797  0.00  0.00     0.051 A 
ATOM      5  C5  IND d   1       3.336  -4.499  -1.651  0.00  0.00    -0.031 A 
ATOM      6  C6  IND d   1       3.531  -4.270  -2.998  0.00  0.00     0.015 A 
ATOM      7  C7  IND d   1       3.364  -3.027  -3.541  0.00  0.00    -0.016 A 
ATOM      8  C8  IND d   1       2.971  -2.014  -2.678  0.00  0.00    -0.047 A 
ATOM      9  C9  IND d   1       2.729  -2.250  -1.318  0.00  0.00    -0.096 A 
ATOM     10  HN1 IND d   1       2.767  -0.288  -3.678  0.00  0.00     0.298 HD
ENDROOT
TORSDOF 0
ENDMDL
