MODEL 1
REMARK minimizedAffinity -2.12096381
REMARK minimizedRMSD -1
REMARK  0 active torsions:
REMARK  status: ('A' for Active; 'I' for Inactive)
ROOT
ATOM      1  N1  IND d   1       3.372  -3.680  -0.076  0.00  0.00    -0.196 N 
ATOM      2  C2  IND d   1       4.101  -4.834  -0.001  0.00  0.00     0.054 A 
ATOM      3  C3  IND d   1       4.381  -5.295  -1.240  0.00  0.00    -0.031 A 
ATOM      4  C4  IND d   1       3.830  -4.262  -3.533  0.00  0.00     0.051 A 
ATOM      5  C5  IND d   1       3.147  -3.230  -4.113  0.00  0.00    -0.031 A 
ATOM      6  C6  IND d   1       2.494  -2.274  -3.362  0.00  0.00     0.015 A 
ATOM      7  C7  IND d   1       2.508  -2.309  -1.997  0.00  0.00    -0.016 A 
ATOM      8  C8  IND d   1       3.195  -3.359  -1.404  0.00  0.00    -0.047 A 
ATOM      9  C9  IND d   1       3.824  -4.356  -2.161  0.00  0.00    -0.096 A 
ATOM     10  HN1 IND d   1       3.074  -3.230   0.594  0.00  0.00     0.298 HD
ENDROOT
TORSDOF 0
ENDMDL
