MODEL 1
REMARK minimizedAffinity 2.36010218
REMARK minimizedRMSD -1
REMARK  0 active torsions:
REMARK  status: ('A' for Active; 'I' for Inactive)
ROOT
ATOM      1  N1  IND d   1       4.928  -4.613  -0.739  0.00  0.00    -0.196 N 
ATOM      2  C2  IND d   1       4.022  -4.484   0.276  0.00  0.00     0.054 A 
ATOM      3  C3  IND d   1       2.795  -4.209  -0.221  0.00  0.00    -0.031 A 
ATOM      4  C4  IND d   1       2.026  -4.027  -2.671  0.00  0.00     0.051 A 
ATOM      5  C5  IND d   1       2.501  -4.032  -3.952  0.00  0.00    -0.031 A 
ATOM      6  C6  IND d   1       3.836  -4.238  -4.234  0.00  0.00     0.015 A 
ATOM      7  C7  IND d   1       4.748  -4.459  -3.241  0.00  0.00    -0.016 A 
ATOM      8  C8  IND d   1       4.270  -4.447  -1.938  0.00  0.00    -0.047 A 
ATOM      9  C9  IND d   1       2.924  -4.197  -1.643  0.00  0.00    -0.096 A 
ATOM     10  HN1 IND d   1       5.768  -4.772  -0.645  0.00  0.00     0.298 HD
ENDROOT
TORSDOF 0
ENDMDL
