MODEL 1
REMARK minimizedAffinity 2.76516557
REMARK minimizedRMSD -1
REMARK  0 active torsions:
REMARK  status: ('A' for Active; 'I' for Inactive)
ROOT
ATOM      1  N1  IND d   1       3.349  -3.903  -0.439  0.00  0.00    -0.196 N 
ATOM      2  C2  IND d   1       4.438  -4.551   0.074  0.00  0.00     0.054 A 
ATOM      3  C3  IND d   1       5.129  -5.164  -0.913  0.00  0.00    -0.031 A 
ATOM      4  C4  IND d   1       4.711  -5.150  -3.453  0.00  0.00     0.051 A 
ATOM      5  C5  IND d   1       3.817  -4.725  -4.396  0.00  0.00    -0.031 A 
ATOM      6  C6  IND d   1       2.700  -3.987  -4.061  0.00  0.00     0.015 A 
ATOM      7  C7  IND d   1       2.441  -3.635  -2.767  0.00  0.00    -0.016 A 
ATOM      8  C8  IND d   1       3.342  -4.071  -1.806  0.00  0.00    -0.047 A 
ATOM      9  C9  IND d   1       4.455  -4.857  -2.135  0.00  0.00    -0.096 A 
ATOM     10  HN1 IND d   1       2.766  -3.464   0.016  0.00  0.00     0.298 HD
ENDROOT
TORSDOF 0
ENDMDL
