MODEL 1
REMARK minimizedAffinity -4.31423044
REMARK minimizedRMSD -1
REMARK  0 active torsions:
REMARK  status: ('A' for Active; 'I' for Inactive)
ROOT
ATOM      1  N1  IND d   1       3.873  -5.170  -1.845  0.00  0.00    -0.196 N 
ATOM      2  C2  IND d   1       3.658  -5.355  -3.183  0.00  0.00     0.054 A 
ATOM      3  C3  IND d   1       3.123  -4.241  -3.731  0.00  0.00    -0.031 A 
ATOM      4  C4  IND d   1       2.610  -1.965  -2.642  0.00  0.00     0.051 A 
ATOM      5  C5  IND d   1       2.603  -1.327  -1.434  0.00  0.00    -0.031 A 
ATOM      6  C6  IND d   1       3.030  -1.948  -0.278  0.00  0.00     0.015 A 
ATOM      7  C7  IND d   1       3.493  -3.234  -0.290  0.00  0.00    -0.016 A 
ATOM      8  C8  IND d   1       3.495  -3.888  -1.514  0.00  0.00    -0.047 A 
ATOM      9  C9  IND d   1       3.023  -3.276  -2.682  0.00  0.00    -0.096 A 
ATOM     10  HN1 IND d   1       4.191  -5.756  -1.303  0.00  0.00     0.298 HD
ENDROOT
TORSDOF 0
ENDMDL
