MODEL 1
REMARK minimizedAffinity 0.796592712
REMARK minimizedRMSD -1
REMARK  0 active torsions:
REMARK  status: ('A' for Active; 'I' for Inactive)
ROOT
ATOM      1  N1  IND d   1      -2.530  -3.693   1.577  0.00  0.00    -0.196 N 
ATOM      2  C2  IND d   1      -2.209  -3.418   2.877  0.00  0.00     0.054 A 
ATOM      3  C3  IND d   1      -0.955  -2.918   2.957  0.00  0.00    -0.031 A 
ATOM      4  C4  IND d   1       0.710  -2.372   1.071  0.00  0.00     0.051 A 
ATOM      5  C5  IND d   1       0.882  -2.484  -0.280  0.00  0.00    -0.031 A 
ATOM      6  C6  IND d   1      -0.095  -3.013  -1.098  0.00  0.00     0.015 A 
ATOM      7  C7  IND d   1      -1.291  -3.440  -0.594  0.00  0.00    -0.016 A 
ATOM      8  C8  IND d   1      -1.466  -3.335   0.778  0.00  0.00    -0.047 A 
ATOM      9  C9  IND d   1      -0.461  -2.839   1.619  0.00  0.00    -0.096 A 
ATOM     10  HN1 IND d   1      -3.271  -4.032   1.305  0.00  0.00     0.298 HD
ENDROOT
TORSDOF 0
ENDMDL
