MODEL 1
REMARK minimizedAffinity 1.13535118
REMARK minimizedRMSD -1
REMARK  0 active torsions:
REMARK  status: ('A' for Active; 'I' for Inactive)
ROOT
ATOM      1  N1  IND d   1      -2.969   0.873   3.866  0.00  0.00    -0.196 N 
ATOM      2  C2  IND d   1      -2.850   2.099   4.459  0.00  0.00     0.054 A 
ATOM      3  C3  IND d   1      -1.855   2.084   5.374  0.00  0.00    -0.031 A 
ATOM      4  C4  IND d   1      -0.226   0.187   5.988  0.00  0.00     0.051 A 
ATOM      5  C5  IND d   1       0.034  -1.132   5.741  0.00  0.00    -0.031 A 
ATOM      6  C6  IND d   1      -0.707  -1.864   4.835  0.00  0.00     0.015 A 
ATOM      7  C7  IND d   1      -1.733  -1.299   4.132  0.00  0.00    -0.016 A 
ATOM      8  C8  IND d   1      -2.004   0.038   4.386  0.00  0.00    -0.047 A 
ATOM      9  C9  IND d   1      -1.283   0.775   5.335  0.00  0.00    -0.096 A 
ATOM     10  HN1 IND d   1      -3.549   0.659   3.268  0.00  0.00     0.298 HD
ENDROOT
TORSDOF 0
ENDMDL
