MODEL 1
REMARK minimizedAffinity 9.95980453
REMARK minimizedRMSD -1
REMARK  0 active torsions:
REMARK  status: ('A' for Active; 'I' for Inactive)
ROOT
ATOM      1  N1  IND d   1      -3.592  -3.207  -5.046  0.00  0.00    -0.196 N 
ATOM      2  C2  IND d   1      -3.369  -4.160  -6.000  0.00  0.00     0.054 A 
ATOM      3  C3  IND d   1      -2.615  -5.163  -5.496  0.00  0.00    -0.031 A 
ATOM      4  C4  IND d   1      -1.723  -5.496  -3.104  0.00  0.00     0.051 A 
ATOM      5  C5  IND d   1      -1.638  -4.874  -1.890  0.00  0.00    -0.031 A 
ATOM      6  C6  IND d   1      -2.214  -3.641  -1.660  0.00  0.00     0.015 A 
ATOM      7  C7  IND d   1      -2.909  -2.986  -2.637  0.00  0.00    -0.016 A 
ATOM      8  C8  IND d   1      -2.991  -3.611  -3.874  0.00  0.00    -0.047 A 
ATOM      9  C9  IND d   1      -2.373  -4.843  -4.125  0.00  0.00    -0.096 A 
ATOM     10  HN1 IND d   1      -4.032  -2.477  -5.158  0.00  0.00     0.298 HD
ENDROOT
TORSDOF 0
ENDMDL
