MODEL 1
REMARK minimizedAffinity 1.4147675
REMARK minimizedRMSD -1
REMARK  0 active torsions:
REMARK  status: ('A' for Active; 'I' for Inactive)
ROOT
ATOM      1  N1  IND d   1      -3.333   1.776   3.242  0.00  0.00    -0.196 N 
ATOM      2  C2  IND d   1      -2.716   2.250   2.118  0.00  0.00     0.054 A 
ATOM      3  C3  IND d   1      -1.384   2.027   2.184  0.00  0.00    -0.031 A 
ATOM      4  C4  IND d   1      -0.016   0.812   3.995  0.00  0.00     0.051 A 
ATOM      5  C5  IND d   1      -0.134   0.238   5.230  0.00  0.00    -0.031 A 
ATOM      6  C6  IND d   1      -1.349   0.142   5.876  0.00  0.00     0.015 A 
ATOM      7  C7  IND d   1      -2.499   0.610   5.305  0.00  0.00    -0.016 A 
ATOM      8  C8  IND d   1      -2.382   1.200   4.055  0.00  0.00    -0.047 A 
ATOM      9  C9  IND d   1      -1.145   1.338   3.412  0.00  0.00    -0.096 A 
ATOM     10  HN1 IND d   1      -4.174   1.830   3.412  0.00  0.00     0.298 HD
ENDROOT
TORSDOF 0
ENDMDL
