MODEL 1
REMARK minimizedAffinity 0.548999369
REMARK minimizedRMSD -1
REMARK  0 active torsions:
REMARK  status: ('A' for Active; 'I' for Inactive)
ROOT
ATOM      1  N1  IND d   1      -3.009   1.283   3.350  0.00  0.00    -0.196 N 
ATOM      2  C2  IND d   1      -4.226   1.114   2.751  0.00  0.00     0.054 A 
ATOM      3  C3  IND d   1      -4.429  -0.191   2.458  0.00  0.00    -0.031 A 
ATOM      4  C4  IND d   1      -2.943  -2.230   2.966  0.00  0.00     0.051 A 
ATOM      5  C5  IND d   1      -1.718  -2.573   3.467  0.00  0.00    -0.031 A 
ATOM      6  C6  IND d   1      -0.845  -1.629   3.967  0.00  0.00     0.015 A 
ATOM      7  C7  IND d   1      -1.170  -0.302   3.995  0.00  0.00    -0.016 A 
ATOM      8  C8  IND d   1      -2.410   0.050   3.481  0.00  0.00    -0.047 A 
ATOM      9  C9  IND d   1      -3.283  -0.899   2.933  0.00  0.00    -0.096 A 
ATOM     10  HN1 IND d   1      -2.675   2.034   3.602  0.00  0.00     0.298 HD
ENDROOT
TORSDOF 0
ENDMDL
