MODEL 1
REMARK minimizedAffinity 4.5906949
REMARK minimizedRMSD -1
REMARK  0 active torsions:
REMARK  status: ('A' for Active; 'I' for Inactive)
ROOT
ATOM      1  N1  IND d   1       2.663  -0.176  -0.492  0.00  0.00    -0.196 N 
ATOM      2  C2  IND d   1       2.308   0.105  -1.782  0.00  0.00     0.054 A 
ATOM      3  C3  IND d   1       1.851   1.374  -1.879  0.00  0.00    -0.031 A 
ATOM      4  C4  IND d   1       1.694   3.198  -0.069  0.00  0.00     0.051 A 
ATOM      5  C5  IND d   1       1.866   3.404   1.271  0.00  0.00    -0.031 A 
ATOM      6  C6  IND d   1       2.325   2.407   2.108  0.00  0.00     0.015 A 
ATOM      7  C7  IND d   1       2.641   1.166   1.633  0.00  0.00    -0.016 A 
ATOM      8  C8  IND d   1       2.460   0.952   0.274  0.00  0.00    -0.047 A 
ATOM      9  C9  IND d   1       1.954   1.946  -0.574  0.00  0.00    -0.096 A 
ATOM     10  HN1 IND d   1       2.962  -0.929  -0.207  0.00  0.00     0.298 HD
ENDROOT
TORSDOF 0
ENDMDL
