MODEL 1
REMARK minimizedAffinity 2.69793367
REMARK minimizedRMSD -1
REMARK  0 active torsions:
REMARK  status: ('A' for Active; 'I' for Inactive)
ROOT
ATOM      1  N1  IND d   1       0.816   5.769  -1.707  0.00  0.00    -0.196 N 
ATOM      2  C2  IND d   1       1.708   5.964  -0.689  0.00  0.00     0.054 A 
ATOM      3  C3  IND d   1       2.354   4.812  -0.402  0.00  0.00    -0.031 A 
ATOM      4  C4  IND d   1       2.178   2.510  -1.543  0.00  0.00     0.051 A 
ATOM      5  C5  IND d   1       1.473   1.832  -2.497  0.00  0.00    -0.031 A 
ATOM      6  C6  IND d   1       0.494   2.444  -3.253  0.00  0.00     0.015 A 
ATOM      7  C7  IND d   1       0.192   3.767  -3.091  0.00  0.00    -0.016 A 
ATOM      8  C8  IND d   1       0.901   4.457  -2.119  0.00  0.00    -0.047 A 
ATOM      9  C9  IND d   1       1.866   3.830  -1.318  0.00  0.00    -0.096 A 
ATOM     10  HN1 IND d   1       0.291   6.365  -2.035  0.00  0.00     0.298 HD
ENDROOT
TORSDOF 0
ENDMDL
