MODEL 1
REMARK minimizedAffinity 13.2666168
REMARK minimizedRMSD -1
REMARK  0 active torsions:
REMARK  status: ('A' for Active; 'I' for Inactive)
ROOT
ATOM      1  N1  IND d   1      -0.915  -5.594  -2.587  0.00  0.00    -0.196 N 
ATOM      2  C2  IND d   1      -1.301  -5.200  -1.336  0.00  0.00     0.054 A 
ATOM      3  C3  IND d   1      -1.875  -3.977  -1.384  0.00  0.00    -0.031 A 
ATOM      4  C4  IND d   1      -2.374  -2.483  -3.420  0.00  0.00     0.051 A 
ATOM      5  C5  IND d   1      -2.175  -2.399  -4.770  0.00  0.00    -0.031 A 
ATOM      6  C6  IND d   1      -1.534  -3.398  -5.475  0.00  0.00     0.015 A 
ATOM      7  C7  IND d   1      -1.078  -4.527  -4.857  0.00  0.00    -0.016 A 
ATOM      8  C8  IND d   1      -1.273  -4.612  -3.485  0.00  0.00    -0.047 A 
ATOM      9  C9  IND d   1      -1.884  -3.583  -2.757  0.00  0.00    -0.096 A 
ATOM     10  HN1 IND d   1      -0.516  -6.331  -2.781  0.00  0.00     0.298 HD
ENDROOT
TORSDOF 0
ENDMDL
