MODEL 1
REMARK minimizedAffinity 9.41863918
REMARK minimizedRMSD -1
REMARK  0 active torsions:
REMARK  status: ('A' for Active; 'I' for Inactive)
ROOT
ATOM      1  C   UNL d   1      -4.455   3.734   2.269  0.00  0.00     0.078 C 
ATOM      2  C1  UNL d   1      -4.590   4.477   3.565  0.00  0.00    -0.077 A 
ATOM      3  C2  UNL d   1      -3.460   4.921   4.262  0.00  0.00    -0.001 A 
ATOM      4  C3  UNL d   1      -3.600   5.603   5.472  0.00  0.00     0.003 A 
ATOM      5  C4  UNL d   1      -4.868   5.846   5.996  0.00  0.00    -0.005 A 
ATOM      6  C5  UNL d   1      -5.998   5.405   5.310  0.00  0.00     0.003 A 
ATOM      7  C6  UNL d   1      -5.860   4.723   4.100  0.00  0.00    -0.001 A 
ENDROOT
TORSDOF 0
ENDMDL
