MODEL 1
REMARK minimizedAffinity 11.2526674
REMARK minimizedRMSD -1
REMARK  0 active torsions:
REMARK  status: ('A' for Active; 'I' for Inactive)
ROOT
ATOM      1  C   UNL d   1       4.155   3.404  -6.000  0.00  0.00     0.078 C 
ATOM      2  C1  UNL d   1       3.746   1.994  -5.698  0.00  0.00    -0.077 A 
ATOM      3  C2  UNL d   1       2.510   1.713  -5.103  0.00  0.00    -0.001 A 
ATOM      4  C3  UNL d   1       2.146   0.396  -4.818  0.00  0.00     0.003 A 
ATOM      5  C4  UNL d   1       3.013  -0.651  -5.125  0.00  0.00    -0.005 A 
ATOM      6  C5  UNL d   1       4.246  -0.381  -5.715  0.00  0.00     0.003 A 
ATOM      7  C6  UNL d   1       4.611   0.935  -6.000  0.00  0.00    -0.001 A 
ENDROOT
TORSDOF 0
ENDMDL
