MODEL 1
REMARK minimizedAffinity 14.008625
REMARK minimizedRMSD -1
REMARK  0 active torsions:
REMARK  status: ('A' for Active; 'I' for Inactive)
ROOT
ATOM      1  C   UNL d   1       0.009   1.758   2.624  0.00  0.00     0.078 C 
ATOM      2  C1  UNL d   1      -1.323   1.915   1.953  0.00  0.00    -0.077 A 
ATOM      3  C2  UNL d   1      -1.782   0.968   1.030  0.00  0.00    -0.001 A 
ATOM      4  C3  UNL d   1      -3.020   1.132   0.406  0.00  0.00     0.003 A 
ATOM      5  C4  UNL d   1      -3.808   2.244   0.697  0.00  0.00    -0.005 A 
ATOM      6  C5  UNL d   1      -3.358   3.193   1.612  0.00  0.00     0.003 A 
ATOM      7  C6  UNL d   1      -2.121   3.030   2.237  0.00  0.00    -0.001 A 
ENDROOT
TORSDOF 0
ENDMDL
