MODEL 1
REMARK minimizedAffinity 9.03560638
REMARK minimizedRMSD -1
REMARK  0 active torsions:
REMARK  status: ('A' for Active; 'I' for Inactive)
ROOT
ATOM      1  C   UNL d   1      -3.617  -0.010   2.622  0.00  0.00     0.078 C 
ATOM      2  C1  UNL d   1      -4.362   1.288   2.720  0.00  0.00    -0.077 A 
ATOM      3  C2  UNL d   1      -5.306   1.503   3.731  0.00  0.00    -0.001 A 
ATOM      4  C3  UNL d   1      -6.000   2.712   3.804  0.00  0.00     0.003 A 
ATOM      5  C4  UNL d   1      -5.758   3.715   2.868  0.00  0.00    -0.005 A 
ATOM      6  C5  UNL d   1      -4.822   3.509   1.857  0.00  0.00     0.003 A 
ATOM      7  C6  UNL d   1      -4.127   2.301   1.782  0.00  0.00    -0.001 A 
ENDROOT
TORSDOF 0
ENDMDL
