MODEL 1
REMARK minimizedAffinity 9.54149818
REMARK minimizedRMSD -1
REMARK  0 active torsions:
REMARK  status: ('A' for Active; 'I' for Inactive)
ROOT
ATOM      1  C   UNL d   1      -2.991   1.498   1.509  0.00  0.00     0.078 C 
ATOM      2  C1  UNL d   1      -1.710   0.924   2.035  0.00  0.00    -0.077 A 
ATOM      3  C2  UNL d   1      -1.685  -0.325   2.668  0.00  0.00    -0.001 A 
ATOM      4  C3  UNL d   1      -0.486  -0.842   3.162  0.00  0.00     0.003 A 
ATOM      5  C4  UNL d   1       0.697  -0.117   3.028  0.00  0.00    -0.005 A 
ATOM      6  C5  UNL d   1       0.681   1.127   2.402  0.00  0.00     0.003 A 
ATOM      7  C6  UNL d   1      -0.517   1.646   1.908  0.00  0.00    -0.001 A 
ENDROOT
TORSDOF 0
ENDMDL
