MODEL 1
REMARK minimizedAffinity 9.96340847
REMARK minimizedRMSD -1
REMARK  0 active torsions:
REMARK  status: ('A' for Active; 'I' for Inactive)
ROOT
ATOM      1  C   UNL d   1      -4.677   2.788   2.584  0.00  0.00     0.078 C 
ATOM      2  C1  UNL d   1      -3.643   1.752   2.260  0.00  0.00    -0.077 A 
ATOM      3  C2  UNL d   1      -2.298   1.946   2.598  0.00  0.00    -0.001 A 
ATOM      4  C3  UNL d   1      -1.344   0.977   2.282  0.00  0.00     0.003 A 
ATOM      5  C4  UNL d   1      -1.724  -0.191   1.624  0.00  0.00    -0.005 A 
ATOM      6  C5  UNL d   1      -3.060  -0.391   1.282  0.00  0.00     0.003 A 
ATOM      7  C6  UNL d   1      -4.015   0.576   1.598  0.00  0.00    -0.001 A 
ENDROOT
TORSDOF 0
ENDMDL
