MODEL 1
REMARK minimizedAffinity 1.77466619
REMARK minimizedRMSD -1
REMARK  0 active torsions:
REMARK  status: ('A' for Active; 'I' for Inactive)
ROOT
ATOM      1  C   UNL d   1       0.710   0.803   2.942  0.00  0.00     0.078 C 
ATOM      2  C1  UNL d   1       1.882   0.845   2.007  0.00  0.00    -0.077 A 
ATOM      3  C2  UNL d   1       1.809   1.534   0.790  0.00  0.00    -0.001 A 
ATOM      4  C3  UNL d   1       2.904   1.557  -0.075  0.00  0.00     0.003 A 
ATOM      5  C4  UNL d   1       4.080   0.891   0.267  0.00  0.00    -0.005 A 
ATOM      6  C5  UNL d   1       4.161   0.201   1.475  0.00  0.00     0.003 A 
ATOM      7  C6  UNL d   1       3.067   0.177   2.341  0.00  0.00    -0.001 A 
ENDROOT
TORSDOF 0
ENDMDL
