MODEL 1
REMARK minimizedAffinity 6.12649012
REMARK minimizedRMSD -1
REMARK  0 active torsions:
REMARK  status: ('A' for Active; 'I' for Inactive)
ROOT
ATOM      1  C   UNL d   1      -2.840  -3.370  -6.000  0.00  0.00     0.078 C 
ATOM      2  C1  UNL d   1      -2.258  -1.988  -5.992  0.00  0.00    -0.077 A 
ATOM      3  C2  UNL d   1      -0.872  -1.789  -5.964  0.00  0.00    -0.001 A 
ATOM      4  C3  UNL d   1      -0.345  -0.497  -5.947  0.00  0.00     0.003 A 
ATOM      5  C4  UNL d   1      -1.196   0.607  -5.957  0.00  0.00    -0.005 A 
ATOM      6  C5  UNL d   1      -2.576   0.419  -5.983  0.00  0.00     0.003 A 
ATOM      7  C6  UNL d   1      -3.105  -0.873  -6.000  0.00  0.00    -0.001 A 
ENDROOT
TORSDOF 0
ENDMDL
