MODEL 1
REMARK minimizedAffinity 8.72942257
REMARK minimizedRMSD -1
REMARK  0 active torsions:
REMARK  status: ('A' for Active; 'I' for Inactive)
ROOT
ATOM      1  C   UNL d   1       5.803   3.152  -5.242  0.00  0.00     0.078 C 
ATOM      2  C1  UNL d   1       4.427   3.749  -5.243  0.00  0.00    -0.077 A 
ATOM      3  C2  UNL d   1       3.395   3.179  -5.998  0.00  0.00    -0.001 A 
ATOM      4  C3  UNL d   1       2.122   3.751  -5.998  0.00  0.00     0.003 A 
ATOM      5  C4  UNL d   1       1.869   4.896  -5.246  0.00  0.00    -0.005 A 
ATOM      6  C5  UNL d   1       2.891   5.472  -4.493  0.00  0.00     0.003 A 
ATOM      7  C6  UNL d   1       4.165   4.901  -4.492  0.00  0.00    -0.001 A 
ENDROOT
TORSDOF 0
ENDMDL
