MODEL 1
REMARK minimizedAffinity 4.21357727
REMARK minimizedRMSD -1
REMARK  0 active torsions:
REMARK  status: ('A' for Active; 'I' for Inactive)
ROOT
ATOM      1  C   UNL d   1       1.085  -0.829  -3.686  0.00  0.00     0.078 C 
ATOM      2  C1  UNL d   1      -0.052  -1.399  -4.480  0.00  0.00    -0.077 A 
ATOM      3  C2  UNL d   1      -1.320  -0.805  -4.453  0.00  0.00    -0.001 A 
ATOM      4  C3  UNL d   1      -2.372  -1.353  -5.190  0.00  0.00     0.003 A 
ATOM      5  C4  UNL d   1      -2.167  -2.497  -5.958  0.00  0.00    -0.005 A 
ATOM      6  C5  UNL d   1      -0.909  -3.097  -5.989  0.00  0.00     0.003 A 
ATOM      7  C6  UNL d   1       0.144  -2.551  -5.253  0.00  0.00    -0.001 A 
ENDROOT
TORSDOF 0
ENDMDL
