MODEL 1
REMARK minimizedAffinity 5.1344409
REMARK minimizedRMSD -1
REMARK  0 active torsions:
REMARK  status: ('A' for Active; 'I' for Inactive)
ROOT
ATOM      1  C   UNL d   1       5.992  -5.228   5.953  0.00  0.00     0.078 C 
ATOM      2  C1  UNL d   1       5.987  -3.940   5.184  0.00  0.00    -0.077 A 
ATOM      3  C2  UNL d   1       5.994  -3.936   3.783  0.00  0.00    -0.001 A 
ATOM      4  C3  UNL d   1       6.000  -2.730   3.081  0.00  0.00     0.003 A 
ATOM      5  C4  UNL d   1       6.000  -1.519   3.770  0.00  0.00    -0.005 A 
ATOM      6  C5  UNL d   1       5.995  -1.513   5.163  0.00  0.00     0.003 A 
ATOM      7  C6  UNL d   1       5.990  -2.718   5.868  0.00  0.00    -0.001 A 
ENDROOT
TORSDOF 0
ENDMDL
