MODEL 1
REMARK minimizedAffinity 11.9866705
REMARK minimizedRMSD -1
REMARK  0 active torsions:
REMARK  status: ('A' for Active; 'I' for Inactive)
ROOT
ATOM      1  C   UNL d   1       5.940   4.490  -4.971  0.00  0.00     0.078 C 
ATOM      2  C1  UNL d   1       4.506   4.927  -4.918  0.00  0.00    -0.077 A 
ATOM      3  C2  UNL d   1       3.644   4.706  -5.998  0.00  0.00    -0.001 A 
ATOM      4  C3  UNL d   1       2.314   5.127  -5.938  0.00  0.00     0.003 A 
ATOM      5  C4  UNL d   1       1.836   5.773  -4.800  0.00  0.00    -0.005 A 
ATOM      6  C5  UNL d   1       2.687   5.999  -3.721  0.00  0.00     0.003 A 
ATOM      7  C6  UNL d   1       4.017   5.579  -3.779  0.00  0.00    -0.001 A 
ENDROOT
TORSDOF 0
ENDMDL
