MODEL 1
REMARK minimizedAffinity 6.01530409
REMARK minimizedRMSD -1
REMARK  0 active torsions:
REMARK  status: ('A' for Active; 'I' for Inactive)
ROOT
ATOM      1  C   UNL d   1      -4.940  -1.287   1.153  0.00  0.00     0.078 C 
ATOM      2  C1  UNL d   1      -3.796  -0.366   1.459  0.00  0.00    -0.077 A 
ATOM      3  C2  UNL d   1      -2.552  -0.868   1.859  0.00  0.00    -0.001 A 
ATOM      4  C3  UNL d   1      -1.500   0.002   2.149  0.00  0.00     0.003 A 
ATOM      5  C4  UNL d   1      -1.681   1.379   2.044  0.00  0.00    -0.005 A 
ATOM      6  C5  UNL d   1      -2.917   1.889   1.649  0.00  0.00     0.003 A 
ATOM      7  C6  UNL d   1      -3.970   1.021   1.358  0.00  0.00    -0.001 A 
ENDROOT
TORSDOF 0
ENDMDL
