MODEL 1
REMARK minimizedAffinity 12.0849581
REMARK minimizedRMSD -1
REMARK  0 active torsions:
REMARK  status: ('A' for Active; 'I' for Inactive)
ROOT
ATOM      1  C   UNL d   1      -3.972  -3.151  -0.001  0.00  0.00     0.078 C 
ATOM      2  C1  UNL d   1      -3.297  -2.083   0.807  0.00  0.00    -0.077 A 
ATOM      3  C2  UNL d   1      -1.911  -1.895   0.739  0.00  0.00    -0.001 A 
ATOM      4  C3  UNL d   1      -1.295  -0.904   1.504  0.00  0.00     0.003 A 
ATOM      5  C4  UNL d   1      -2.056  -0.093   2.344  0.00  0.00    -0.005 A 
ATOM      6  C5  UNL d   1      -3.436  -0.274   2.420  0.00  0.00     0.003 A 
ATOM      7  C6  UNL d   1      -4.054  -1.265   1.655  0.00  0.00    -0.001 A 
ENDROOT
TORSDOF 0
ENDMDL
