MODEL 1
REMARK minimizedAffinity -2.82109284
REMARK minimizedRMSD -1
REMARK  0 active torsions:
REMARK  status: ('A' for Active; 'I' for Inactive)
ROOT
ATOM      1  C   UNL d   1       5.822  -5.982   6.000  0.00  0.00     0.078 C 
ATOM      2  C1  UNL d   1       5.672  -5.281   4.683  0.00  0.00    -0.077 A 
ATOM      3  C2  UNL d   1       5.408  -5.999   3.510  0.00  0.00    -0.001 A 
ATOM      4  C3  UNL d   1       5.280  -5.334   2.289  0.00  0.00     0.003 A 
ATOM      5  C4  UNL d   1       5.415  -3.949   2.229  0.00  0.00    -0.005 A 
ATOM      6  C5  UNL d   1       5.680  -3.226   3.391  0.00  0.00     0.003 A 
ATOM      7  C6  UNL d   1       5.808  -3.889   4.613  0.00  0.00    -0.001 A 
ENDROOT
TORSDOF 0
ENDMDL
