MODEL 1
REMARK minimizedAffinity 15.2232914
REMARK minimizedRMSD -1
REMARK  0 active torsions:
REMARK  status: ('A' for Active; 'I' for Inactive)
ROOT
ATOM      1  C   UNL d   1      -1.442  -2.224   0.482  0.00  0.00     0.078 C 
ATOM      2  C1  UNL d   1      -1.588  -0.949   1.259  0.00  0.00    -0.077 A 
ATOM      3  C2  UNL d   1      -1.049  -0.823   2.545  0.00  0.00    -0.001 A 
ATOM      4  C3  UNL d   1      -1.202   0.366   3.261  0.00  0.00     0.003 A 
ATOM      5  C4  UNL d   1      -1.894   1.437   2.699  0.00  0.00    -0.005 A 
ATOM      6  C5  UNL d   1      -2.436   1.319   1.421  0.00  0.00     0.003 A 
ATOM      7  C6  UNL d   1      -2.285   0.132   0.704  0.00  0.00    -0.001 A 
ENDROOT
TORSDOF 0
ENDMDL
