MODEL 1
REMARK minimizedAffinity 3.58032107
REMARK minimizedRMSD -1
REMARK  1 active torsions:
REMARK  status: ('A' for Active; 'I' for Inactive)
REMARK    1  A    between atoms: C3_4  and  O_7 
ROOT
ATOM      1  C   UNL d   1       4.527   0.282   1.579  0.00  0.00    -0.033 A 
ATOM      2  C1  UNL d   1       3.994   1.240   0.714  0.00  0.00     0.039 A 
ATOM      3  C2  UNL d   1       2.695   1.713   0.909  0.00  0.00    -0.080 A 
ATOM      4  C3  UNL d   1       1.941   1.223   1.971  0.00  0.00     0.150 A 
ATOM      5  C4  UNL d   1       2.467   0.271   2.839  0.00  0.00    -0.007 A 
ATOM      6  C5  UNL d   1       3.764  -0.201   2.642  0.00  0.00     0.039 A 
ENDROOT
BRANCH   4   7
ATOM      7  O   UNL d   1       0.667   1.651   2.199  0.00  0.00    -0.526 OA
ATOM      8  H5  UNL d   1       0.427   2.286   1.504  0.00  0.00     0.418 HD
ENDBRANCH   4   7
TORSDOF 1
ENDMDL
