MODEL 1
REMARK minimizedAffinity -1.73777878
REMARK minimizedRMSD -1
REMARK  1 active torsions:
REMARK  status: ('A' for Active; 'I' for Inactive)
REMARK    1  A    between atoms: C3_4  and  O_7 
ROOT
ATOM      1  C   UNL d   1      -5.430   3.518   2.217  0.00  0.00    -0.033 A 
ATOM      2  C1  UNL d   1      -4.880   3.063   3.417  0.00  0.00     0.039 A 
ATOM      3  C2  UNL d   1      -4.885   3.884   4.546  0.00  0.00    -0.080 A 
ATOM      4  C3  UNL d   1      -5.444   5.157   4.462  0.00  0.00     0.150 A 
ATOM      5  C4  UNL d   1      -5.997   5.615   3.271  0.00  0.00    -0.007 A 
ATOM      6  C5  UNL d   1      -5.990   4.794   2.145  0.00  0.00     0.039 A 
ENDROOT
BRANCH   4   7
ATOM      7  O   UNL d   1      -5.468   5.996   5.536  0.00  0.00    -0.526 OA
ATOM      8  H5  UNL d   1      -5.026   5.557   6.281  0.00  0.00     0.418 HD
ENDBRANCH   4   7
TORSDOF 1
ENDMDL
