MODEL 1
REMARK minimizedAffinity 7.21166182
REMARK minimizedRMSD -1
REMARK  1 active torsions:
REMARK  status: ('A' for Active; 'I' for Inactive)
REMARK    1  A    between atoms: C3_4  and  O_7 
ROOT
ATOM      1  C   UNL d   1       5.352   5.997   2.915  0.00  0.00    -0.033 A 
ATOM      2  C1  UNL d   1       5.685   4.812   3.573  0.00  0.00     0.039 A 
ATOM      3  C2  UNL d   1       5.015   3.627   3.264  0.00  0.00    -0.080 A 
ATOM      4  C3  UNL d   1       4.016   3.640   2.295  0.00  0.00     0.150 A 
ATOM      5  C4  UNL d   1       3.681   4.816   1.632  0.00  0.00    -0.007 A 
ATOM      6  C5  UNL d   1       4.351   5.999   1.943  0.00  0.00     0.039 A 
ENDROOT
BRANCH   4   7
ATOM      7  O   UNL d   1       3.331   2.509   1.962  0.00  0.00    -0.526 OA
ATOM      8  H5  UNL d   1       3.649   1.781   2.521  0.00  0.00     0.418 HD
ENDBRANCH   4   7
TORSDOF 1
ENDMDL
