MODEL 1
REMARK minimizedAffinity 1.09337366
REMARK minimizedRMSD -1
REMARK  1 active torsions:
REMARK  status: ('A' for Active; 'I' for Inactive)
REMARK    1  A    between atoms: C3_4  and  O_7 
ROOT
ATOM      1  C   UNL d   1       3.455   0.679   1.220  0.00  0.00    -0.033 A 
ATOM      2  C1  UNL d   1       3.982   1.971   1.220  0.00  0.00     0.039 A 
ATOM      3  C2  UNL d   1       3.128   3.076   1.241  0.00  0.00    -0.080 A 
ATOM      4  C3  UNL d   1       1.750   2.874   1.262  0.00  0.00     0.150 A 
ATOM      5  C4  UNL d   1       1.218   1.588   1.266  0.00  0.00    -0.007 A 
ATOM      6  C5  UNL d   1       2.073   0.487   1.244  0.00  0.00     0.039 A 
ENDROOT
BRANCH   4   7
ATOM      7  O   UNL d   1       0.877   3.920   1.277  0.00  0.00    -0.526 OA
ATOM      8  H5  UNL d   1       1.386   4.747   1.243  0.00  0.00     0.418 HD
ENDBRANCH   4   7
TORSDOF 1
ENDMDL
