MODEL 1
REMARK minimizedAffinity 10.2819233
REMARK minimizedRMSD -1
REMARK  1 active torsions:
REMARK  status: ('A' for Active; 'I' for Inactive)
REMARK    1  A    between atoms: C3_4  and  O_7 
ROOT
ATOM      1  C   UNL d   1      -2.085  -6.000  -3.225  0.00  0.00    -0.033 A 
ATOM      2  C1  UNL d   1      -1.900  -4.845  -3.988  0.00  0.00     0.039 A 
ATOM      3  C2  UNL d   1      -2.625  -3.689  -3.694  0.00  0.00    -0.080 A 
ATOM      4  C3  UNL d   1      -3.528  -3.699  -2.635  0.00  0.00     0.150 A 
ATOM      5  C4  UNL d   1      -3.714  -4.845  -1.868  0.00  0.00    -0.007 A 
ATOM      6  C5  UNL d   1      -2.991  -5.999  -2.164  0.00  0.00     0.039 A 
ENDROOT
BRANCH   4   7
ATOM      7  O   UNL d   1      -4.261  -2.596  -2.312  0.00  0.00    -0.526 OA
ATOM      8  H5  UNL d   1      -4.049  -1.890  -2.945  0.00  0.00     0.418 HD
ENDBRANCH   4   7
TORSDOF 1
ENDMDL
