MODEL 1
REMARK minimizedAffinity 5.82746077
REMARK minimizedRMSD -1
REMARK  1 active torsions:
REMARK  status: ('A' for Active; 'I' for Inactive)
REMARK    1  A    between atoms: C3_4  and  O_7 
ROOT
ATOM      1  C   UNL d   1      -5.994   4.915   2.303  0.00  0.00    -0.033 A 
ATOM      2  C1  UNL d   1      -5.997   5.959   3.230  0.00  0.00     0.039 A 
ATOM      3  C2  UNL d   1      -5.401   5.786   4.481  0.00  0.00    -0.080 A 
ATOM      4  C3  UNL d   1      -4.805   4.567   4.791  0.00  0.00     0.150 A 
ATOM      5  C4  UNL d   1      -4.794   3.524   3.870  0.00  0.00    -0.007 A 
ATOM      6  C5  UNL d   1      -5.391   3.698   2.622  0.00  0.00     0.039 A 
ENDROOT
BRANCH   4   7
ATOM      7  O   UNL d   1      -4.215   4.349   6.000  0.00  0.00    -0.526 OA
ATOM      8  H5  UNL d   1      -4.324   5.147   6.544  0.00  0.00     0.418 HD
ENDBRANCH   4   7
TORSDOF 1
ENDMDL
