MODEL 1
REMARK minimizedAffinity 17.431797
REMARK minimizedRMSD -1
REMARK  1 active torsions:
REMARK  status: ('A' for Active; 'I' for Inactive)
REMARK    1  A    between atoms: C3_4  and  O_7 
ROOT
ATOM      1  C   UNL d   1      -0.309   1.173   3.710  0.00  0.00    -0.033 A 
ATOM      2  C1  UNL d   1      -0.694  -0.169   3.744  0.00  0.00     0.039 A 
ATOM      3  C2  UNL d   1      -2.009  -0.528   3.443  0.00  0.00    -0.080 A 
ATOM      4  C3  UNL d   1      -2.928   0.463   3.108  0.00  0.00     0.150 A 
ATOM      5  C4  UNL d   1      -2.551   1.801   3.068  0.00  0.00    -0.007 A 
ATOM      6  C5  UNL d   1      -1.237   2.158   3.371  0.00  0.00     0.039 A 
ENDROOT
BRANCH   4   7
ATOM      7  O   UNL d   1      -4.224   0.162   2.810  0.00  0.00    -0.526 OA
ATOM      8  H5  UNL d   1      -4.347  -0.797   2.907  0.00  0.00     0.418 HD
ENDBRANCH   4   7
TORSDOF 1
ENDMDL
