MODEL 1
REMARK minimizedAffinity 1.9212501
REMARK minimizedRMSD -1
REMARK  1 active torsions:
REMARK  status: ('A' for Active; 'I' for Inactive)
REMARK    1  A    between atoms: C3_4  and  O_7 
ROOT
ATOM      1  C   UNL d   1       4.958   6.000  -5.999  0.00  0.00    -0.033 A 
ATOM      2  C1  UNL d   1       5.755   5.996  -4.853  0.00  0.00     0.039 A 
ATOM      3  C2  UNL d   1       5.324   5.332  -3.703  0.00  0.00    -0.080 A 
ATOM      4  C3  UNL d   1       4.097   4.676  -3.713  0.00  0.00     0.150 A 
ATOM      5  C4  UNL d   1       3.299   4.672  -4.852  0.00  0.00    -0.007 A 
ATOM      6  C5  UNL d   1       3.730   5.337  -5.999  0.00  0.00     0.039 A 
ENDROOT
BRANCH   4   7
ATOM      7  O   UNL d   1       3.632   4.018  -2.613  0.00  0.00    -0.526 OA
ATOM      8  H5  UNL d   1       4.275   4.129  -1.893  0.00  0.00     0.418 HD
ENDBRANCH   4   7
TORSDOF 1
ENDMDL
