MODEL 1
REMARK minimizedAffinity 8.94124794
REMARK minimizedRMSD -1
REMARK  1 active torsions:
REMARK  status: ('A' for Active; 'I' for Inactive)
REMARK    1  A    between atoms: C3_4  and  O_7 
ROOT
ATOM      1  C   UNL d   1      -3.000   5.754  -1.137  0.00  0.00    -0.033 A 
ATOM      2  C1  UNL d   1      -3.483   4.444  -1.127  0.00  0.00     0.039 A 
ATOM      3  C2  UNL d   1      -2.619   3.377  -1.383  0.00  0.00    -0.080 A 
ATOM      4  C3  UNL d   1      -1.276   3.634  -1.648  0.00  0.00     0.150 A 
ATOM      5  C4  UNL d   1      -0.788   4.936  -1.656  0.00  0.00    -0.007 A 
ATOM      6  C5  UNL d   1      -1.652   6.000  -1.400  0.00  0.00     0.039 A 
ENDROOT
BRANCH   4   7
ATOM      7  O   UNL d   1      -0.396   2.626  -1.909  0.00  0.00    -0.526 OA
ATOM      8  H5  UNL d   1      -0.881   1.784  -1.898  0.00  0.00     0.418 HD
ENDBRANCH   4   7
TORSDOF 1
ENDMDL
