MODEL 1
REMARK minimizedAffinity 6.8971262
REMARK minimizedRMSD -1
REMARK  1 active torsions:
REMARK  status: ('A' for Active; 'I' for Inactive)
REMARK    1  A    between atoms: C3_4  and  O_7 
ROOT
ATOM      1  C   UNL d   1      -4.877  -5.999  -3.584  0.00  0.00    -0.033 A 
ATOM      2  C1  UNL d   1      -5.725  -4.895  -3.685  0.00  0.00     0.039 A 
ATOM      3  C2  UNL d   1      -5.257  -3.620  -3.358  0.00  0.00    -0.080 A 
ATOM      4  C3  UNL d   1      -3.941  -3.464  -2.933  0.00  0.00     0.150 A 
ATOM      5  C4  UNL d   1      -3.089  -4.559  -2.834  0.00  0.00    -0.007 A 
ATOM      6  C5  UNL d   1      -3.558  -5.831  -3.160  0.00  0.00     0.039 A 
ENDROOT
BRANCH   4   7
ATOM      7  O   UNL d   1      -3.441  -2.241  -2.598  0.00  0.00    -0.526 OA
ATOM      8  H5  UNL d   1      -4.151  -1.583  -2.688  0.00  0.00     0.418 HD
ENDBRANCH   4   7
TORSDOF 1
ENDMDL
