MODEL 1
REMARK minimizedAffinity -2.79561138
REMARK minimizedRMSD -1
REMARK  1 active torsions:
REMARK  status: ('A' for Active; 'I' for Inactive)
REMARK    1  A    between atoms: C3_4  and  O_7 
ROOT
ATOM      1  C   UNL d   1       5.119   4.808  -4.510  0.00  0.00    -0.033 A 
ATOM      2  C1  UNL d   1       4.503   5.999  -4.898  0.00  0.00     0.039 A 
ATOM      3  C2  UNL d   1       3.163   5.997  -5.293  0.00  0.00    -0.080 A 
ATOM      4  C3  UNL d   1       2.453   4.800  -5.294  0.00  0.00     0.150 A 
ATOM      5  C4  UNL d   1       3.060   3.611  -4.905  0.00  0.00    -0.007 A 
ATOM      6  C5  UNL d   1       4.397   3.614  -4.512  0.00  0.00     0.039 A 
ENDROOT
BRANCH   4   7
ATOM      7  O   UNL d   1       1.145   4.748  -5.676  0.00  0.00    -0.526 OA
ATOM      8  H5  UNL d   1       0.868   5.640  -5.946  0.00  0.00     0.418 HD
ENDBRANCH   4   7
TORSDOF 1
ENDMDL
