MODEL 1
REMARK minimizedAffinity 6.43732595
REMARK minimizedRMSD -1
REMARK  1 active torsions:
REMARK  status: ('A' for Active; 'I' for Inactive)
REMARK    1  A    between atoms: C3_4  and  O_7 
ROOT
ATOM      1  C   UNL d   1       1.351   1.438   1.877  0.00  0.00    -0.033 A 
ATOM      2  C1  UNL d   1       1.518   1.503   0.492  0.00  0.00     0.039 A 
ATOM      3  C2  UNL d   1       2.528   0.765  -0.127  0.00  0.00    -0.080 A 
ATOM      4  C3  UNL d   1       3.363  -0.034   0.648  0.00  0.00     0.150 A 
ATOM      5  C4  UNL d   1       3.200  -0.108   2.028  0.00  0.00    -0.007 A 
ATOM      6  C5  UNL d   1       2.191   0.631   2.645  0.00  0.00     0.039 A 
ENDROOT
BRANCH   4   7
ATOM      7  O   UNL d   1       4.366  -0.769   0.090  0.00  0.00    -0.526 OA
ATOM      8  H5  UNL d   1       4.378  -0.598  -0.867  0.00  0.00     0.418 HD
ENDBRANCH   4   7
TORSDOF 1
ENDMDL
