MODEL 1
REMARK minimizedAffinity 7.56298399
REMARK minimizedRMSD -1
REMARK  1 active torsions:
REMARK  status: ('A' for Active; 'I' for Inactive)
REMARK    1  A    between atoms: C3_4  and  O_7 
ROOT
ATOM      1  C   UNL d   1       2.443   1.485  -0.189  0.00  0.00    -0.033 A 
ATOM      2  C1  UNL d   1       3.503   0.608  -0.425  0.00  0.00     0.039 A 
ATOM      3  C2  UNL d   1       4.103  -0.069   0.639  0.00  0.00    -0.080 A 
ATOM      4  C3  UNL d   1       3.632   0.139   1.932  0.00  0.00     0.150 A 
ATOM      5  C4  UNL d   1       2.574   1.008   2.175  0.00  0.00    -0.007 A 
ATOM      6  C5  UNL d   1       1.977   1.684   1.111  0.00  0.00     0.039 A 
ENDROOT
BRANCH   4   7
ATOM      7  O   UNL d   1       4.188  -0.495   3.003  0.00  0.00    -0.526 OA
ATOM      8  H5  UNL d   1       4.927  -1.042   2.688  0.00  0.00     0.418 HD
ENDBRANCH   4   7
TORSDOF 1
ENDMDL
