MODEL 1
REMARK minimizedAffinity 1.4691602
REMARK minimizedRMSD -1
REMARK  1 active torsions:
REMARK  status: ('A' for Active; 'I' for Inactive)
REMARK    1  A    between atoms: C3_4  and  O_7 
ROOT
ATOM      1  C   UNL d   1      -2.525  -2.832  -3.006  0.00  0.00    -0.033 A 
ATOM      2  C1  UNL d   1      -1.385  -3.600  -3.252  0.00  0.00     0.039 A 
ATOM      3  C2  UNL d   1      -0.303  -3.548  -2.370  0.00  0.00    -0.080 A 
ATOM      4  C3  UNL d   1      -0.375  -2.728  -1.248  0.00  0.00     0.150 A 
ATOM      5  C4  UNL d   1      -1.510  -1.964  -0.995  0.00  0.00    -0.007 A 
ATOM      6  C5  UNL d   1      -2.588  -2.015  -1.877  0.00  0.00     0.039 A 
ENDROOT
BRANCH   4   7
ATOM      7  O   UNL d   1       0.657  -2.641  -0.361  0.00  0.00    -0.526 OA
ATOM      8  H5  UNL d   1       1.384  -3.201  -0.680  0.00  0.00     0.418 HD
ENDBRANCH   4   7
TORSDOF 1
ENDMDL
