MODEL 1
REMARK minimizedAffinity 7.05069637
REMARK minimizedRMSD -1
REMARK  1 active torsions:
REMARK  status: ('A' for Active; 'I' for Inactive)
REMARK    1  A    between atoms: C3_4  and  O_7 
ROOT
ATOM      1  C   UNL d   1      -1.477  -2.249  -2.859  0.00  0.00    -0.033 A 
ATOM      2  C1  UNL d   1      -2.061  -2.303  -1.592  0.00  0.00     0.039 A 
ATOM      3  C2  UNL d   1      -3.178  -3.110  -1.370  0.00  0.00    -0.080 A 
ATOM      4  C3  UNL d   1      -3.700  -3.858  -2.422  0.00  0.00     0.150 A 
ATOM      5  C4  UNL d   1      -3.121  -3.813  -3.686  0.00  0.00    -0.007 A 
ATOM      6  C5  UNL d   1      -2.006  -3.005  -3.906  0.00  0.00     0.039 A 
ENDROOT
BRANCH   4   7
ATOM      7  O   UNL d   1      -4.792  -4.657  -2.255  0.00  0.00    -0.526 OA
ATOM      8  H5  UNL d   1      -5.103  -4.566  -1.339  0.00  0.00     0.418 HD
ENDBRANCH   4   7
TORSDOF 1
ENDMDL
