MODEL 1
REMARK minimizedAffinity 9.38150597
REMARK minimizedRMSD -1
REMARK  1 active torsions:
REMARK  status: ('A' for Active; 'I' for Inactive)
REMARK    1  A    between atoms: C3_4  and  O_7 
ROOT
ATOM      1  C   UNL d   1       4.541  -0.317  -5.999  0.00  0.00    -0.033 A 
ATOM      2  C1  UNL d   1       3.972   0.958  -6.000  0.00  0.00     0.039 A 
ATOM      3  C2  UNL d   1       4.263   1.854  -4.969  0.00  0.00    -0.080 A 
ATOM      4  C3  UNL d   1       5.123   1.464  -3.947  0.00  0.00     0.150 A 
ATOM      5  C4  UNL d   1       5.696   0.196  -3.942  0.00  0.00    -0.007 A 
ATOM      6  C5  UNL d   1       5.404  -0.698  -4.971  0.00  0.00     0.039 A 
ENDROOT
BRANCH   4   7
ATOM      7  O   UNL d   1       5.433   2.302  -2.917  0.00  0.00    -0.526 OA
ATOM      8  H5  UNL d   1       4.942   3.132  -3.038  0.00  0.00     0.418 HD
ENDBRANCH   4   7
TORSDOF 1
ENDMDL
