MODEL 1
REMARK minimizedAffinity 6.72693634
REMARK minimizedRMSD -1
REMARK  1 active torsions:
REMARK  status: ('A' for Active; 'I' for Inactive)
REMARK    1  A    between atoms: C3_4  and  O_7 
ROOT
ATOM      1  C   UNL d   1      -0.960  -1.715  -2.237  0.00  0.00    -0.033 A 
ATOM      2  C1  UNL d   1      -1.682  -2.084  -1.100  0.00  0.00     0.039 A 
ATOM      3  C2  UNL d   1      -2.891  -2.769  -1.231  0.00  0.00    -0.080 A 
ATOM      4  C3  UNL d   1      -3.367  -3.080  -2.502  0.00  0.00     0.150 A 
ATOM      5  C4  UNL d   1      -2.651  -2.718  -3.639  0.00  0.00    -0.007 A 
ATOM      6  C5  UNL d   1      -1.444  -2.033  -3.506  0.00  0.00     0.039 A 
ENDROOT
BRANCH   4   7
ATOM      7  O   UNL d   1      -4.544  -3.743  -2.679  0.00  0.00    -0.526 OA
ATOM      8  H5  UNL d   1      -4.942  -3.903  -1.807  0.00  0.00     0.418 HD
ENDBRANCH   4   7
TORSDOF 1
ENDMDL
