MODEL 1
REMARK minimizedAffinity 9.25459099
REMARK minimizedRMSD -1
REMARK  0 active torsions:
REMARK  status: ('A' for Active; 'I' for Inactive)
ROOT
ATOM      1  C4' PXY d   1       2.481  -0.360  -0.882  0.00  0.00     0.077 C 
ATOM      2  C1' PXY d   1       1.804   3.377   3.476  0.00  0.00     0.077 C 
ATOM      3  C1  PXY d   1       1.991   2.391   2.340  0.00  0.00    -0.082 A 
ATOM      4  C2  PXY d   1       1.647   2.737   1.110  0.00  0.00     0.003 A 
ATOM      5  C3  PXY d   1       1.779   1.846   0.076  0.00  0.00     0.003 A 
ATOM      6  C4  PXY d   1       2.319   0.607   0.295  0.00  0.00    -0.082 A 
ATOM      7  C5  PXY d   1       2.682   0.250   1.545  0.00  0.00     0.003 A 
ATOM      8  C6  PXY d   1       2.501   1.154   2.587  0.00  0.00     0.003 A 
ENDROOT
TORSDOF 0
ENDMDL
