MODEL 1
REMARK minimizedAffinity -0.794528961
REMARK minimizedRMSD -1
REMARK  0 active torsions:
REMARK  status: ('A' for Active; 'I' for Inactive)
ROOT
ATOM      1  C4' PXY d   1      -5.321   3.434  -5.167  0.00  0.00     0.077 C 
ATOM      2  C1' PXY d   1      -1.295   0.121  -2.670  0.00  0.00     0.077 C 
ATOM      3  C1  PXY d   1      -2.355   0.980  -3.332  0.00  0.00    -0.082 A 
ATOM      4  C2  PXY d   1      -2.174   2.287  -3.425  0.00  0.00     0.003 A 
ATOM      5  C3  PXY d   1      -3.137   3.082  -3.991  0.00  0.00     0.003 A 
ATOM      6  C4  PXY d   1      -4.273   2.527  -4.515  0.00  0.00    -0.082 A 
ATOM      7  C5  PXY d   1      -4.460   1.193  -4.434  0.00  0.00     0.003 A 
ATOM      8  C6  PXY d   1      -3.490   0.408  -3.818  0.00  0.00     0.003 A 
ENDROOT
TORSDOF 0
ENDMDL
