MODEL 1
REMARK minimizedAffinity 5.11968088
REMARK minimizedRMSD -1
REMARK  0 active torsions:
REMARK  status: ('A' for Active; 'I' for Inactive)
ROOT
ATOM      1  C4' PXY d   1       3.252  -1.080  -0.473  0.00  0.00     0.077 C 
ATOM      2  C1' PXY d   1      -1.634  -3.984  -1.529  0.00  0.00     0.077 C 
ATOM      3  C1  PXY d   1      -0.353  -3.217  -1.264  0.00  0.00    -0.082 A 
ATOM      4  C2  PXY d   1       0.510  -3.673  -0.370  0.00  0.00     0.003 A 
ATOM      5  C3  PXY d   1       1.657  -2.975  -0.095  0.00  0.00     0.003 A 
ATOM      6  C4  PXY d   1       1.951  -1.826  -0.780  0.00  0.00    -0.082 A 
ATOM      7  C5  PXY d   1       1.081  -1.360  -1.701  0.00  0.00     0.003 A 
ATOM      8  C6  PXY d   1      -0.098  -2.061  -1.936  0.00  0.00     0.003 A 
ENDROOT
TORSDOF 0
ENDMDL
