MODEL 1
REMARK minimizedAffinity 0.756376684
REMARK minimizedRMSD -1
REMARK  0 active torsions:
REMARK  status: ('A' for Active; 'I' for Inactive)
ROOT
ATOM      1  C4' PXY d   1       3.471   0.193   0.688  0.00  0.00     0.077 C 
ATOM      2  C1' PXY d   1      -1.654   0.723  -1.934  0.00  0.00     0.077 C 
ATOM      3  C1  PXY d   1      -0.310   0.571  -1.249  0.00  0.00    -0.082 A 
ATOM      4  C2  PXY d   1       0.075   1.470  -0.357  0.00  0.00     0.003 A 
ATOM      5  C3  PXY d   1       1.301   1.365   0.248  0.00  0.00     0.003 A 
ATOM      6  C4  PXY d   1       2.118   0.301  -0.022  0.00  0.00    -0.082 A 
ATOM      7  C5  PXY d   1       1.728  -0.626  -0.923  0.00  0.00     0.003 A 
ATOM      8  C6  PXY d   1       0.498  -0.480  -1.557  0.00  0.00     0.003 A 
ENDROOT
TORSDOF 0
ENDMDL
