MODEL 1
REMARK minimizedAffinity -0.153945535
REMARK minimizedRMSD -1
REMARK  0 active torsions:
REMARK  status: ('A' for Active; 'I' for Inactive)
ROOT
ATOM      1  C4' PXY d   1       2.246  -2.537   0.374  0.00  0.00     0.077 C 
ATOM      2  C1' PXY d   1       3.507   3.100   0.151  0.00  0.00     0.077 C 
ATOM      3  C1  PXY d   1       3.188   1.619   0.204  0.00  0.00    -0.082 A 
ATOM      4  C2  PXY d   1       1.927   1.224   0.271  0.00  0.00     0.003 A 
ATOM      5  C3  PXY d   1       1.622  -0.111   0.351  0.00  0.00     0.003 A 
ATOM      6  C4  PXY d   1       2.615  -1.052   0.309  0.00  0.00    -0.082 A 
ATOM      7  C5  PXY d   1       3.903  -0.657   0.231  0.00  0.00     0.003 A 
ATOM      8  C6  PXY d   1       4.194   0.704   0.191  0.00  0.00     0.003 A 
ENDROOT
TORSDOF 0
ENDMDL
