MODEL 1
REMARK minimizedAffinity -5.5114913
REMARK minimizedRMSD -1
REMARK  2 active torsions:
REMARK  status: ('A' for Active; 'I' for Inactive)
REMARK    1  A    between atoms: C1_2  and  C2_3 
REMARK    2  A    between atoms: C2_3  and  C3_4 
ROOT
ATOM      1  C3  UNL d   1       1.963   0.343   1.509  0.00  0.00    -0.075 A 
ATOM      2  C4  UNL d   1       2.545  -0.526   2.444  0.00  0.00     0.002 A 
ATOM      3  C5  UNL d   1       2.899  -0.067   3.713  0.00  0.00     0.002 A 
ATOM      4  C6  UNL d   1       2.686   1.265   4.060  0.00  0.00    -0.004 A 
ATOM      5  C7  UNL d   1       2.123   2.141   3.134  0.00  0.00     0.002 A 
ATOM      6  C8  UNL d   1       1.764   1.684   1.865  0.00  0.00     0.002 A 
ENDROOT
BRANCH   1   7
ATOM      7  C2  UNL d   1       1.550  -0.154   0.145  0.00  0.00     0.056 C 
BRANCH   7   8
ATOM      8  C1  UNL d   1       0.322   0.558  -0.433  0.00  0.00     0.007 C 
ATOM      9  C   UNL d   1      -0.994  -0.096  -0.034  0.00  0.00     0.009 C 
ENDBRANCH   7   8
ENDBRANCH   1   7
TORSDOF 2
ENDMDL
