MODEL 1
REMARK minimizedAffinity -4.73068285
REMARK minimizedRMSD -1
REMARK  2 active torsions:
REMARK  status: ('A' for Active; 'I' for Inactive)
REMARK    1  A    between atoms: C1_2  and  C2_3 
REMARK    2  A    between atoms: C2_3  and  C3_4 
ROOT
ATOM      1  C3  UNL d   1       1.160   0.092   0.660  0.00  0.00    -0.075 A 
ATOM      2  C4  UNL d   1       1.026  -1.256   1.023  0.00  0.00     0.002 A 
ATOM      3  C5  UNL d   1       2.030  -1.897   1.749  0.00  0.00     0.002 A 
ATOM      4  C6  UNL d   1       3.182  -1.203   2.113  0.00  0.00    -0.004 A 
ATOM      5  C7  UNL d   1       3.333   0.132   1.744  0.00  0.00     0.002 A 
ATOM      6  C8  UNL d   1       2.328   0.777   1.021  0.00  0.00     0.002 A 
ENDROOT
BRANCH   1   7
ATOM      7  C2  UNL d   1       0.064   0.800  -0.100  0.00  0.00     0.056 C 
BRANCH   7   8
ATOM      8  C1  UNL d   1      -1.246   0.010  -0.186  0.00  0.00     0.007 C 
ATOM      9  C   UNL d   1      -1.931   0.129  -1.541  0.00  0.00     0.009 C 
ENDBRANCH   7   8
ENDBRANCH   1   7
TORSDOF 2
ENDMDL
