MODEL 1
REMARK minimizedAffinity -0.381287128
REMARK minimizedRMSD -1
REMARK  2 active torsions:
REMARK  status: ('A' for Active; 'I' for Inactive)
REMARK    1  A    between atoms: C1_2  and  C2_3 
REMARK    2  A    between atoms: C2_3  and  C3_4 
ROOT
ATOM      1  C3  UNL d   1       1.154   0.085   0.783  0.00  0.00    -0.075 A 
ATOM      2  C4  UNL d   1       0.580   1.242   0.236  0.00  0.00     0.002 A 
ATOM      3  C5  UNL d   1      -0.697   1.202  -0.324  0.00  0.00     0.002 A 
ATOM      4  C6  UNL d   1      -1.411   0.006  -0.354  0.00  0.00    -0.004 A 
ATOM      5  C7  UNL d   1      -0.843  -1.153   0.171  0.00  0.00     0.002 A 
ATOM      6  C8  UNL d   1       0.432  -1.115   0.736  0.00  0.00     0.002 A 
ENDROOT
BRANCH   1   7
ATOM      7  C2  UNL d   1       2.524   0.128   1.417  0.00  0.00     0.056 C 
BRANCH   7   8
ATOM      8  C1  UNL d   1       2.781   1.382   2.260  0.00  0.00     0.007 C 
ATOM      9  C   UNL d   1       2.705   1.123   3.759  0.00  0.00     0.009 C 
ENDBRANCH   7   8
ENDBRANCH   1   7
TORSDOF 2
ENDMDL
