MODEL 1
REMARK minimizedAffinity -0.763245285
REMARK minimizedRMSD -1
REMARK  2 active torsions:
REMARK  status: ('A' for Active; 'I' for Inactive)
REMARK    1  A    between atoms: C1_2  and  C2_3 
REMARK    2  A    between atoms: C2_3  and  C3_4 
ROOT
ATOM      1  C3  UNL d   1       1.500   0.627   1.299  0.00  0.00    -0.075 A 
ATOM      2  C4  UNL d   1       1.107   1.812   0.660  0.00  0.00     0.002 A 
ATOM      3  C5  UNL d   1      -0.090   1.868  -0.055  0.00  0.00     0.002 A 
ATOM      4  C6  UNL d   1      -0.902   0.740  -0.150  0.00  0.00    -0.004 A 
ATOM      5  C7  UNL d   1      -0.513  -0.448   0.467  0.00  0.00     0.002 A 
ATOM      6  C8  UNL d   1       0.682  -0.505   1.187  0.00  0.00     0.002 A 
ENDROOT
BRANCH   1   7
ATOM      7  C2  UNL d   1       2.779   0.568   2.099  0.00  0.00     0.056 C 
BRANCH   7   8
ATOM      8  C1  UNL d   1       2.665   1.171   3.503  0.00  0.00     0.007 C 
ATOM      9  C   UNL d   1       2.850   2.683   3.523  0.00  0.00     0.009 C 
ENDBRANCH   7   8
ENDBRANCH   1   7
TORSDOF 2
ENDMDL
