MODEL 1
REMARK minimizedAffinity 1.45778048
REMARK minimizedRMSD -1
REMARK  2 active torsions:
REMARK  status: ('A' for Active; 'I' for Inactive)
REMARK    1  A    between atoms: C1_2  and  C2_3 
REMARK    2  A    between atoms: C2_3  and  C3_4 
ROOT
ATOM      1  C3  UNL d   1      -2.667   1.122  -3.261  0.00  0.00    -0.075 A 
ATOM      2  C4  UNL d   1      -3.109   1.236  -1.935  0.00  0.00     0.002 A 
ATOM      3  C5  UNL d   1      -3.763   2.391  -1.503  0.00  0.00     0.002 A 
ATOM      4  C6  UNL d   1      -3.972   3.448  -2.387  0.00  0.00    -0.004 A 
ATOM      5  C7  UNL d   1      -3.522   3.351  -3.702  0.00  0.00     0.002 A 
ATOM      6  C8  UNL d   1      -2.872   2.195  -4.137  0.00  0.00     0.002 A 
ENDROOT
BRANCH   1   7
ATOM      7  C2  UNL d   1      -1.985  -0.137  -3.742  0.00  0.00     0.056 C 
BRANCH   7   8
ATOM      8  C1  UNL d   1      -2.934  -1.151  -4.391  0.00  0.00     0.007 C 
ATOM      9  C   UNL d   1      -3.331  -2.286  -3.456  0.00  0.00     0.009 C 
ENDBRANCH   7   8
ENDBRANCH   1   7
TORSDOF 2
ENDMDL
