MODEL 1
REMARK minimizedAffinity -1.94100785
REMARK minimizedRMSD -1
REMARK  2 active torsions:
REMARK  status: ('A' for Active; 'I' for Inactive)
REMARK    1  A    between atoms: C1_2  and  C2_3 
REMARK    2  A    between atoms: C2_3  and  C3_4 
ROOT
ATOM      1  C3  UNL d   1      -0.976   1.818  -2.129  0.00  0.00    -0.075 A 
ATOM      2  C4  UNL d   1      -2.326   2.167  -1.980  0.00  0.00     0.002 A 
ATOM      3  C5  UNL d   1      -2.771   3.441  -2.335  0.00  0.00     0.002 A 
ATOM      4  C6  UNL d   1      -1.874   4.382  -2.833  0.00  0.00    -0.004 A 
ATOM      5  C7  UNL d   1      -0.527   4.052  -2.971  0.00  0.00     0.002 A 
ATOM      6  C8  UNL d   1      -0.079   2.777  -2.620  0.00  0.00     0.002 A 
ENDROOT
BRANCH   1   7
ATOM      7  C2  UNL d   1      -0.492   0.432  -1.775  0.00  0.00     0.056 C 
BRANCH   7   8
ATOM      8  C1  UNL d   1      -1.106  -0.132  -0.489  0.00  0.00     0.007 C 
ATOM      9  C   UNL d   1      -0.065  -0.530   0.549  0.00  0.00     0.009 C 
ENDBRANCH   7   8
ENDBRANCH   1   7
TORSDOF 2
ENDMDL
