MODEL 1
REMARK minimizedAffinity 1.84146178
REMARK minimizedRMSD -1
REMARK  2 active torsions:
REMARK  status: ('A' for Active; 'I' for Inactive)
REMARK    1  A    between atoms: C1_2  and  C2_3 
REMARK    2  A    between atoms: C2_3  and  C3_4 
ROOT
ATOM      1  C3  UNL d   1       1.635  -0.311   0.884  0.00  0.00    -0.075 A 
ATOM      2  C4  UNL d   1       0.538   0.122   0.125  0.00  0.00     0.002 A 
ATOM      3  C5  UNL d   1       0.431  -0.219  -1.223  0.00  0.00     0.002 A 
ATOM      4  C6  UNL d   1       1.422  -0.987  -1.832  0.00  0.00    -0.004 A 
ATOM      5  C7  UNL d   1       2.524  -1.408  -1.092  0.00  0.00     0.002 A 
ATOM      6  C8  UNL d   1       2.632  -1.072   0.259  0.00  0.00     0.002 A 
ENDROOT
BRANCH   1   7
ATOM      7  C2  UNL d   1       1.742   0.030   2.351  0.00  0.00     0.056 C 
BRANCH   7   8
ATOM      8  C1  UNL d   1       1.114  -1.013   3.281  0.00  0.00     0.007 C 
ATOM      9  C   UNL d   1      -0.174  -1.611   2.730  0.00  0.00     0.009 C 
ENDBRANCH   7   8
ENDBRANCH   1   7
TORSDOF 2
ENDMDL
