MODEL 1
REMARK minimizedAffinity 4.24340296
REMARK minimizedRMSD -1
REMARK  3 active torsions:
REMARK  status: ('A' for Active; 'I' for Inactive)
REMARK    1  A    between atoms: C3'_2  and  C2'_3 
REMARK    2  A    between atoms: C2'_3  and  C1'_4 
REMARK    3  A    between atoms: C1'_4  and  C1_5 
ROOT
ATOM      1  C1  N4B d   1      -2.651  -0.331   0.692  0.00  0.00    -0.075 A 
ATOM      2  C2  N4B d   1      -1.778  -1.106   1.486  0.00  0.00     0.002 A 
ATOM      3  C3  N4B d   1      -1.716  -0.898   2.842  0.00  0.00     0.002 A 
ATOM      4  C4  N4B d   1      -2.501   0.088   3.421  0.00  0.00    -0.004 A 
ATOM      5  C5  N4B d   1      -3.361   0.815   2.650  0.00  0.00     0.002 A 
ATOM      6  C6  N4B d   1      -3.436   0.614   1.287  0.00  0.00     0.002 A 
ENDROOT
BRANCH   1   7
ATOM      7  C1' N4B d   1      -2.690  -0.463  -0.806  0.00  0.00     0.057 C 
BRANCH   7   8
ATOM      8  C2' N4B d   1      -2.452   0.906  -1.436  0.00  0.00     0.009 C 
BRANCH   8   9
ATOM      9  C3' N4B d   1      -1.263   0.898  -2.381  0.00  0.00     0.004 C 
ATOM     10  C4' N4B d   1      -0.841   2.276  -2.795  0.00  0.00     0.003 C 
ENDBRANCH   8   9
ENDBRANCH   7   8
ENDBRANCH   1   7
TORSDOF 3
ENDMDL
