MODEL 1
REMARK minimizedAffinity 7.27698565
REMARK minimizedRMSD -1
REMARK  3 active torsions:
REMARK  status: ('A' for Active; 'I' for Inactive)
REMARK    1  A    between atoms: C3'_2  and  C2'_3 
REMARK    2  A    between atoms: C2'_3  and  C1'_4 
REMARK    3  A    between atoms: C1'_4  and  C1_5 
ROOT
ATOM      1  C1  N4B d   1      -2.253   3.470  -3.724  0.00  0.00    -0.075 A 
ATOM      2  C2  N4B d   1      -0.952   3.864  -4.108  0.00  0.00     0.002 A 
ATOM      3  C3  N4B d   1       0.143   3.237  -3.566  0.00  0.00     0.002 A 
ATOM      4  C4  N4B d   1      -0.037   2.232  -2.628  0.00  0.00    -0.004 A 
ATOM      5  C5  N4B d   1      -1.297   1.840  -2.281  0.00  0.00     0.002 A 
ATOM      6  C6  N4B d   1      -2.407   2.459  -2.821  0.00  0.00     0.002 A 
ENDROOT
BRANCH   1   7
ATOM      7  C1' N4B d   1      -3.479   4.184  -4.224  0.00  0.00     0.057 C 
BRANCH   7   8
ATOM      8  C2' N4B d   1      -4.221   3.278  -5.203  0.00  0.00     0.009 C 
BRANCH   8   9
ATOM      9  C3' N4B d   1      -5.696   3.630  -5.296  0.00  0.00     0.004 C 
ATOM     10  C4' N4B d   1      -5.939   4.933  -5.996  0.00  0.00     0.003 C 
ENDBRANCH   8   9
ENDBRANCH   7   8
ENDBRANCH   1   7
TORSDOF 3
ENDMDL
