MODEL 1
REMARK minimizedAffinity -5.93804598
REMARK minimizedRMSD -1
REMARK  2 active torsions:
REMARK  status: ('A' for Active; 'I' for Inactive)
REMARK    1  A    between atoms: C1_2  and  C2_3 
REMARK    2  A    between atoms: C2_3  and  C3_4 
ROOT
ATOM      1  C3  UNL d   1       0.984   1.010   0.717  0.00  0.00    -0.075 A 
ATOM      2  C4  UNL d   1       0.414   2.013   1.514  0.00  0.00     0.002 A 
ATOM      3  C5  UNL d   1       1.183   3.090   1.955  0.00  0.00     0.002 A 
ATOM      4  C6  UNL d   1       2.531   3.173   1.614  0.00  0.00    -0.004 A 
ATOM      5  C7  UNL d   1       3.112   2.174   0.837  0.00  0.00     0.002 A 
ATOM      6  C8  UNL d   1       2.344   1.097   0.391  0.00  0.00     0.002 A 
ENDROOT
BRANCH   1   7
ATOM      7  C2  UNL d   1       0.150  -0.144   0.212  0.00  0.00     0.056 C 
BRANCH   7   8
ATOM      8  C1  UNL d   1      -0.650   0.174  -1.055  0.00  0.00     0.007 C 
ATOM      9  C   UNL d   1      -2.088  -0.324  -0.998  0.00  0.00     0.009 C 
ENDBRANCH   7   8
ENDBRANCH   1   7
TORSDOF 2
ENDMDL
