MODEL 1
REMARK minimizedAffinity -3.77728415
REMARK minimizedRMSD -1
REMARK  2 active torsions:
REMARK  status: ('A' for Active; 'I' for Inactive)
REMARK    1  A    between atoms: C1_2  and  C2_3 
REMARK    2  A    between atoms: C2_3  and  C3_4 
ROOT
ATOM      1  C3  UNL d   1       0.444  -0.278  -0.165  0.00  0.00    -0.075 A 
ATOM      2  C4  UNL d   1      -0.066   0.628  -1.106  0.00  0.00     0.002 A 
ATOM      3  C5  UNL d   1      -1.322   0.423  -1.678  0.00  0.00     0.002 A 
ATOM      4  C6  UNL d   1      -2.079  -0.692  -1.324  0.00  0.00    -0.004 A 
ATOM      5  C7  UNL d   1      -1.575  -1.607  -0.402  0.00  0.00     0.002 A 
ATOM      6  C8  UNL d   1      -0.320  -1.403   0.174  0.00  0.00     0.002 A 
ENDROOT
BRANCH   1   7
ATOM      7  C2  UNL d   1       1.790  -0.047   0.479  0.00  0.00     0.056 C 
BRANCH   7   8
ATOM      8  C1  UNL d   1       2.311   1.387   0.338  0.00  0.00     0.007 C 
ATOM      9  C   UNL d   1       2.806   1.978   1.651  0.00  0.00     0.009 C 
ENDBRANCH   7   8
ENDBRANCH   1   7
TORSDOF 2
ENDMDL
