MODEL 1
REMARK minimizedAffinity -2.9093411
REMARK minimizedRMSD -1
REMARK  2 active torsions:
REMARK  status: ('A' for Active; 'I' for Inactive)
REMARK    1  A    between atoms: C1_2  and  C2_3 
REMARK    2  A    between atoms: C2_3  and  C3_4 
ROOT
ATOM      1  C3  UNL d   1       1.181   0.880   0.853  0.00  0.00    -0.075 A 
ATOM      2  C4  UNL d   1       1.197  -0.357   0.193  0.00  0.00     0.002 A 
ATOM      3  C5  UNL d   1       0.087  -0.785  -0.537  0.00  0.00     0.002 A 
ATOM      4  C6  UNL d   1      -1.054   0.012  -0.606  0.00  0.00    -0.004 A 
ATOM      5  C7  UNL d   1      -1.087   1.235   0.060  0.00  0.00     0.002 A 
ATOM      6  C8  UNL d   1       0.024   1.668   0.787  0.00  0.00     0.002 A 
ENDROOT
BRANCH   1   7
ATOM      7  C2  UNL d   1       2.389   1.362   1.620  0.00  0.00     0.056 C 
BRANCH   7   8
ATOM      8  C1  UNL d   1       2.156   2.659   2.402  0.00  0.00     0.007 C 
ATOM      9  C   UNL d   1       2.377   3.912   1.565  0.00  0.00     0.009 C 
ENDBRANCH   7   8
ENDBRANCH   1   7
TORSDOF 2
ENDMDL
