MODEL 1
REMARK minimizedAffinity -5.23040295
REMARK minimizedRMSD -1
REMARK  2 active torsions:
REMARK  status: ('A' for Active; 'I' for Inactive)
REMARK    1  A    between atoms: C1_2  and  C2_3 
REMARK    2  A    between atoms: C2_3  and  C3_4 
ROOT
ATOM      1  C3  UNL d   1      -0.096  -0.218  -0.255  0.00  0.00    -0.075 A 
ATOM      2  C4  UNL d   1      -0.642  -1.342   0.382  0.00  0.00     0.002 A 
ATOM      3  C5  UNL d   1      -1.979  -1.688   0.182  0.00  0.00     0.002 A 
ATOM      4  C6  UNL d   1      -2.787  -0.912  -0.646  0.00  0.00    -0.004 A 
ATOM      5  C7  UNL d   1      -2.259   0.216  -1.270  0.00  0.00     0.002 A 
ATOM      6  C8  UNL d   1      -0.921   0.563  -1.076  0.00  0.00     0.002 A 
ENDROOT
BRANCH   1   7
ATOM      7  C2  UNL d   1       1.358   0.146  -0.066  0.00  0.00     0.056 C 
BRANCH   7   8
ATOM      8  C1  UNL d   1       1.578   1.479   0.657  0.00  0.00     0.007 C 
ATOM      9  C   UNL d   1       3.007   1.994   0.545  0.00  0.00     0.009 C 
ENDBRANCH   7   8
ENDBRANCH   1   7
TORSDOF 2
ENDMDL
