MODEL 1
REMARK minimizedAffinity -2.77334285
REMARK minimizedRMSD -1
REMARK  2 active torsions:
REMARK  status: ('A' for Active; 'I' for Inactive)
REMARK    1  A    between atoms: C1_2  and  C2_3 
REMARK    2  A    between atoms: C2_3  and  C3_4 
ROOT
ATOM      1  C3  UNL d   1       0.658  -0.074   0.729  0.00  0.00    -0.075 A 
ATOM      2  C4  UNL d   1      -0.270   0.966   0.581  0.00  0.00     0.002 A 
ATOM      3  C5  UNL d   1      -1.609   0.776   0.924  0.00  0.00     0.002 A 
ATOM      4  C6  UNL d   1      -2.038  -0.458   1.409  0.00  0.00    -0.004 A 
ATOM      5  C7  UNL d   1      -1.128  -1.504   1.545  0.00  0.00     0.002 A 
ATOM      6  C8  UNL d   1       0.213  -1.314   1.206  0.00  0.00     0.002 A 
ENDROOT
BRANCH   1   7
ATOM      7  C2  UNL d   1       2.114   0.135   0.388  0.00  0.00     0.056 C 
BRANCH   7   8
ATOM      8  C1  UNL d   1       2.444   1.551  -0.096  0.00  0.00     0.007 C 
ATOM      9  C   UNL d   1       2.991   2.449   1.005  0.00  0.00     0.009 C 
ENDBRANCH   7   8
ENDBRANCH   1   7
TORSDOF 2
ENDMDL
