MODEL 1
REMARK minimizedAffinity -5.31559753
REMARK minimizedRMSD -1
REMARK  2 active torsions:
REMARK  status: ('A' for Active; 'I' for Inactive)
REMARK    1  A    between atoms: C1_2  and  C2_3 
REMARK    2  A    between atoms: C2_3  and  C3_4 
ROOT
ATOM      1  C3  UNL d   1       0.622   0.909   0.215  0.00  0.00    -0.075 A 
ATOM      2  C4  UNL d   1       2.015   0.753   0.233  0.00  0.00     0.002 A 
ATOM      3  C5  UNL d   1       2.824   1.682   0.889  0.00  0.00     0.002 A 
ATOM      4  C6  UNL d   1       2.252   2.781   1.525  0.00  0.00    -0.004 A 
ATOM      5  C7  UNL d   1       0.870   2.955   1.499  0.00  0.00     0.002 A 
ATOM      6  C8  UNL d   1       0.058   2.026   0.848  0.00  0.00     0.002 A 
ENDROOT
BRANCH   1   7
ATOM      7  C2  UNL d   1      -0.261  -0.108  -0.468  0.00  0.00     0.056 C 
BRANCH   7   8
ATOM      8  C1  UNL d   1      -1.465  -0.551   0.370  0.00  0.00     0.007 C 
ATOM      9  C   UNL d   1      -1.085  -1.445   1.542  0.00  0.00     0.009 C 
ENDBRANCH   7   8
ENDBRANCH   1   7
TORSDOF 2
ENDMDL
