MODEL 1
REMARK minimizedAffinity -3.26208568
REMARK minimizedRMSD -1
REMARK  2 active torsions:
REMARK  status: ('A' for Active; 'I' for Inactive)
REMARK    1  A    between atoms: C1_2  and  C2_3 
REMARK    2  A    between atoms: C2_3  and  C3_4 
ROOT
ATOM      1  C3  UNL d   1       0.834   0.994  -0.369  0.00  0.00    -0.075 A 
ATOM      2  C4  UNL d   1       0.591  -0.387  -0.360  0.00  0.00     0.002 A 
ATOM      3  C5  UNL d   1      -0.692  -0.882  -0.595  0.00  0.00     0.002 A 
ATOM      4  C6  UNL d   1      -1.748  -0.005  -0.832  0.00  0.00    -0.004 A 
ATOM      5  C7  UNL d   1      -1.521   1.370  -0.827  0.00  0.00     0.002 A 
ATOM      6  C8  UNL d   1      -0.238   1.868  -0.596  0.00  0.00     0.002 A 
ENDROOT
BRANCH   1   7
ATOM      7  C2  UNL d   1       2.226   1.535  -0.145  0.00  0.00     0.056 C 
BRANCH   7   8
ATOM      8  C1  UNL d   1       2.262   2.874   0.599  0.00  0.00     0.007 C 
ATOM      9  C   UNL d   1       2.087   2.729   2.105  0.00  0.00     0.009 C 
ENDBRANCH   7   8
ENDBRANCH   1   7
TORSDOF 2
ENDMDL
