MODEL 1
REMARK minimizedAffinity -5.47020721
REMARK minimizedRMSD -1
REMARK  2 active torsions:
REMARK  status: ('A' for Active; 'I' for Inactive)
REMARK    1  A    between atoms: C1_2  and  C2_3 
REMARK    2  A    between atoms: C2_3  and  C3_4 
ROOT
ATOM      1  C3  UNL d   1      -0.040   0.003   0.067  0.00  0.00    -0.075 A 
ATOM      2  C4  UNL d   1      -0.608   0.270  -1.187  0.00  0.00     0.002 A 
ATOM      3  C5  UNL d   1      -1.940  -0.055  -1.444  0.00  0.00     0.002 A 
ATOM      4  C6  UNL d   1      -2.716  -0.659  -0.457  0.00  0.00    -0.004 A 
ATOM      5  C7  UNL d   1      -2.157  -0.944   0.787  0.00  0.00     0.002 A 
ATOM      6  C8  UNL d   1      -0.826  -0.616   1.048  0.00  0.00     0.002 A 
ENDROOT
BRANCH   1   7
ATOM      7  C2  UNL d   1       1.393   0.379   0.362  0.00  0.00     0.056 C 
BRANCH   7   8
ATOM      8  C1  UNL d   1       1.548   1.706   1.111  0.00  0.00     0.007 C 
ATOM      9  C   UNL d   1       2.802   2.475   0.718  0.00  0.00     0.009 C 
ENDBRANCH   7   8
ENDBRANCH   1   7
TORSDOF 2
ENDMDL
