MODEL 1
REMARK minimizedAffinity -0.520207465
REMARK minimizedRMSD -1
REMARK  2 active torsions:
REMARK  status: ('A' for Active; 'I' for Inactive)
REMARK    1  A    between atoms: C1_2  and  C2_3 
REMARK    2  A    between atoms: C2_3  and  C3_4 
ROOT
ATOM      1  C3  UNL d   1       0.206   0.455  -0.863  0.00  0.00    -0.075 A 
ATOM      2  C4  UNL d   1      -0.088  -0.354   0.245  0.00  0.00     0.002 A 
ATOM      3  C5  UNL d   1      -1.247  -1.131   0.267  0.00  0.00     0.002 A 
ATOM      4  C6  UNL d   1      -2.129  -1.102  -0.811  0.00  0.00    -0.004 A 
ATOM      5  C7  UNL d   1      -1.855  -0.290  -1.909  0.00  0.00     0.002 A 
ATOM      6  C8  UNL d   1      -0.694   0.486  -1.936  0.00  0.00     0.002 A 
ENDROOT
BRANCH   1   7
ATOM      7  C2  UNL d   1       1.473   1.275  -0.905  0.00  0.00     0.056 C 
BRANCH   7   8
ATOM      8  C1  UNL d   1       1.841   1.924   0.433  0.00  0.00     0.007 C 
ATOM      9  C   UNL d   1       2.780   3.114   0.286  0.00  0.00     0.009 C 
ENDBRANCH   7   8
ENDBRANCH   1   7
TORSDOF 2
ENDMDL
