MODEL 1
REMARK minimizedAffinity -4.92898989
REMARK minimizedRMSD -1
REMARK  2 active torsions:
REMARK  status: ('A' for Active; 'I' for Inactive)
REMARK    1  A    between atoms: C1_2  and  C2_3 
REMARK    2  A    between atoms: C2_3  and  C3_4 
ROOT
ATOM      1  C3  UNL d   1      -0.347   0.207   0.188  0.00  0.00    -0.075 A 
ATOM      2  C4  UNL d   1      -1.286   0.560   1.168  0.00  0.00     0.002 A 
ATOM      3  C5  UNL d   1      -2.626   0.201   1.027  0.00  0.00     0.002 A 
ATOM      4  C6  UNL d   1      -3.047  -0.505  -0.099  0.00  0.00    -0.004 A 
ATOM      5  C7  UNL d   1      -2.126  -0.846  -1.087  0.00  0.00     0.002 A 
ATOM      6  C8  UNL d   1      -0.783  -0.492  -0.946  0.00  0.00     0.002 A 
ENDROOT
BRANCH   1   7
ATOM      7  C2  UNL d   1       1.111   0.567   0.350  0.00  0.00     0.056 C 
BRANCH   7   8
ATOM      8  C1  UNL d   1       1.397   1.494   1.536  0.00  0.00     0.007 C 
ATOM      9  C   UNL d   1       2.402   2.591   1.211  0.00  0.00     0.009 C 
ENDBRANCH   7   8
ENDBRANCH   1   7
TORSDOF 2
ENDMDL
