MODEL 1
REMARK minimizedAffinity 5.64722967
REMARK minimizedRMSD -1
REMARK  0 active torsions:
REMARK  status: ('A' for Active; 'I' for Inactive)
ROOT
ATOM      1  C   UNL d   1      -1.278  -3.293  -2.341  0.00  0.00     0.020 A 
ATOM      2  C1  UNL d   1      -2.242  -4.167  -1.839  0.00  0.00     0.020 A 
ATOM      3  C2  UNL d   1      -3.598  -3.870  -1.986  0.00  0.00     0.034 A 
ATOM      4  C3  UNL d   1      -3.995  -2.695  -2.635  0.00  0.00     0.017 A 
ATOM      5  C4  UNL d   1      -3.027  -1.818  -3.138  0.00  0.00     0.017 A 
ATOM      6  C5  UNL d   1      -1.670  -2.121  -2.989  0.00  0.00     0.034 A 
ATOM      7 Cl   UNL d   1      -3.440  -0.350  -3.951  0.00  0.00    -0.070 Cl
ATOM      8 Cl1  UNL d   1      -5.690  -2.391  -2.780  0.00  0.00    -0.070 Cl
ENDROOT
TORSDOF 0
ENDMDL
