MODEL 1
REMARK minimizedAffinity 0.669781148
REMARK minimizedRMSD -1
REMARK  0 active torsions:
REMARK  status: ('A' for Active; 'I' for Inactive)
ROOT
ATOM      1  C   UNL d   1       5.966  -0.362  -5.998  0.00  0.00     0.020 A 
ATOM      2  C1  UNL d   1       4.821   0.432  -5.999  0.00  0.00     0.020 A 
ATOM      3  C2  UNL d   1       3.558  -0.164  -6.000  0.00  0.00     0.034 A 
ATOM      4  C3  UNL d   1       3.438  -1.558  -6.000  0.00  0.00     0.017 A 
ATOM      5  C4  UNL d   1       4.588  -2.355  -5.999  0.00  0.00     0.017 A 
ATOM      6  C5  UNL d   1       5.850  -1.753  -5.998  0.00  0.00     0.034 A 
ATOM      7 Cl   UNL d   1       4.520  -4.082  -5.999  0.00  0.00    -0.070 Cl
ATOM      8 Cl1  UNL d   1       1.844  -2.227  -6.000  0.00  0.00    -0.070 Cl
ENDROOT
TORSDOF 0
ENDMDL
