MODEL 1
REMARK minimizedAffinity 13.1239252
REMARK minimizedRMSD -1
REMARK  0 active torsions:
REMARK  status: ('A' for Active; 'I' for Inactive)
ROOT
ATOM      1  C   UNL d   1       2.020   2.151  -0.207  0.00  0.00     0.020 A 
ATOM      2  C1  UNL d   1       1.328   0.941  -0.258  0.00  0.00     0.020 A 
ATOM      3  C2  UNL d   1      -0.036   0.903   0.036  0.00  0.00     0.034 A 
ATOM      4  C3  UNL d   1      -0.714   2.078   0.383  0.00  0.00     0.017 A 
ATOM      5  C4  UNL d   1      -0.019   3.292   0.434  0.00  0.00     0.017 A 
ATOM      6  C5  UNL d   1       1.347   3.323   0.138  0.00  0.00     0.034 A 
ATOM      7 Cl   UNL d   1      -0.787   4.782   0.853  0.00  0.00    -0.070 Cl
ATOM      8 Cl1  UNL d   1      -2.401   1.958   0.734  0.00  0.00    -0.070 Cl
ENDROOT
TORSDOF 0
ENDMDL
