MODEL 1
REMARK minimizedAffinity 8.36135197
REMARK minimizedRMSD -1
REMARK  0 active torsions:
REMARK  status: ('A' for Active; 'I' for Inactive)
ROOT
ATOM      1  C   UNL d   1       1.445   2.016   0.053  0.00  0.00     0.020 A 
ATOM      2  C1  UNL d   1       1.143   0.661   0.187  0.00  0.00     0.020 A 
ATOM      3  C2  UNL d   1       1.515  -0.026   1.344  0.00  0.00     0.034 A 
ATOM      4  C3  UNL d   1       2.191   0.640   2.372  0.00  0.00     0.017 A 
ATOM      5  C4  UNL d   1       2.494   2.000   2.237  0.00  0.00     0.017 A 
ATOM      6  C5  UNL d   1       2.119   2.684   1.076  0.00  0.00     0.034 A 
ATOM      7 Cl   UNL d   1       3.326   2.891   3.462  0.00  0.00    -0.070 Cl
ATOM      8 Cl1  UNL d   1       2.620  -0.272   3.775  0.00  0.00    -0.070 Cl
ENDROOT
TORSDOF 0
ENDMDL
