MODEL 1
REMARK minimizedAffinity -3.5917182
REMARK minimizedRMSD -1
REMARK  0 active torsions:
REMARK  status: ('A' for Active; 'I' for Inactive)
ROOT
ATOM      1  C   UNL d   1       4.923  -1.139  -4.386  0.00  0.00     0.020 A 
ATOM      2  C1  UNL d   1       4.110  -1.089  -5.518  0.00  0.00     0.020 A 
ATOM      3  C2  UNL d   1       3.512  -2.256  -6.000  0.00  0.00     0.034 A 
ATOM      4  C3  UNL d   1       3.725  -3.476  -5.349  0.00  0.00     0.017 A 
ATOM      5  C4  UNL d   1       4.540  -3.525  -4.213  0.00  0.00     0.017 A 
ATOM      6  C5  UNL d   1       5.137  -2.355  -3.735  0.00  0.00     0.034 A 
ATOM      7 Cl   UNL d   1       4.850  -4.995  -3.357  0.00  0.00    -0.070 Cl
ATOM      8 Cl1  UNL d   1       2.953  -4.879  -6.000  0.00  0.00    -0.070 Cl
ENDROOT
TORSDOF 0
ENDMDL
