MODEL 1
REMARK minimizedAffinity 6.17827177
REMARK minimizedRMSD -1
REMARK  0 active torsions:
REMARK  status: ('A' for Active; 'I' for Inactive)
ROOT
ATOM      1  C   UNL d   1       2.954   2.643   3.324  0.00  0.00     0.020 A 
ATOM      2  C1  UNL d   1       2.684   1.615   4.227  0.00  0.00     0.020 A 
ATOM      3  C2  UNL d   1       2.132   0.415   3.773  0.00  0.00     0.034 A 
ATOM      4  C3  UNL d   1       1.847   0.241   2.414  0.00  0.00     0.017 A 
ATOM      5  C4  UNL d   1       2.119   1.273   1.509  0.00  0.00     0.017 A 
ATOM      6  C5  UNL d   1       2.672   2.472   1.969  0.00  0.00     0.034 A 
ATOM      7 Cl   UNL d   1       1.796   1.132  -0.183  0.00  0.00    -0.070 Cl
ATOM      8 Cl1  UNL d   1       1.165  -1.269   1.923  0.00  0.00    -0.070 Cl
ENDROOT
TORSDOF 0
ENDMDL
