MODEL 1
REMARK minimizedAffinity 3.74985933
REMARK minimizedRMSD -1
REMARK  0 active torsions:
REMARK  status: ('A' for Active; 'I' for Inactive)
ROOT
ATOM      1  C   UNL d   1      -2.574   0.388  -3.801  0.00  0.00     0.020 A 
ATOM      2  C1  UNL d   1      -2.766   1.461  -2.931  0.00  0.00     0.020 A 
ATOM      3  C2  UNL d   1      -2.146   1.465  -1.680  0.00  0.00     0.034 A 
ATOM      4  C3  UNL d   1      -1.331   0.395  -1.295  0.00  0.00     0.017 A 
ATOM      5  C4  UNL d   1      -1.139  -0.682  -2.168  0.00  0.00     0.017 A 
ATOM      6  C5  UNL d   1      -1.762  -0.681  -3.420  0.00  0.00     0.034 A 
ATOM      7 Cl   UNL d   1      -0.147  -2.038  -1.763  0.00  0.00    -0.070 Cl
ATOM      8 Cl1  UNL d   1      -0.595   0.467   0.267  0.00  0.00    -0.070 Cl
ENDROOT
TORSDOF 0
ENDMDL
