MODEL 1
REMARK minimizedAffinity 0.496198565
REMARK minimizedRMSD -1
REMARK  0 active torsions:
REMARK  status: ('A' for Active; 'I' for Inactive)
ROOT
ATOM      1  C   UNL d   1       3.020  -0.879   1.814  0.00  0.00     0.020 A 
ATOM      2  C1  UNL d   1       2.071  -1.884   1.993  0.00  0.00     0.020 A 
ATOM      3  C2  UNL d   1       0.777  -1.719   1.495  0.00  0.00     0.034 A 
ATOM      4  C3  UNL d   1       0.428  -0.547   0.816  0.00  0.00     0.017 A 
ATOM      5  C4  UNL d   1       1.382   0.462   0.636  0.00  0.00     0.017 A 
ATOM      6  C5  UNL d   1       2.676   0.292   1.137  0.00  0.00     0.034 A 
ATOM      7 Cl   UNL d   1       1.026   1.937  -0.192  0.00  0.00    -0.070 Cl
ATOM      8 Cl1  UNL d   1      -1.190  -0.410   0.226  0.00  0.00    -0.070 Cl
ENDROOT
TORSDOF 0
ENDMDL
