MODEL 1
REMARK minimizedAffinity 5.12127161
REMARK minimizedRMSD -1
REMARK  0 active torsions:
REMARK  status: ('A' for Active; 'I' for Inactive)
ROOT
ATOM      1  C   UNL d   1       1.188   2.856  -0.077  0.00  0.00     0.020 A 
ATOM      2  C1  UNL d   1       2.154   1.932   0.320  0.00  0.00     0.020 A 
ATOM      3  C2  UNL d   1       1.775   0.637   0.681  0.00  0.00     0.034 A 
ATOM      4  C3  UNL d   1       0.427   0.263   0.647  0.00  0.00     0.017 A 
ATOM      5  C4  UNL d   1      -0.542   1.191   0.249  0.00  0.00     0.017 A 
ATOM      6  C5  UNL d   1      -0.157   2.486  -0.113  0.00  0.00     0.034 A 
ATOM      7 Cl   UNL d   1      -2.225   0.803   0.181  0.00  0.00    -0.070 Cl
ATOM      8 Cl1  UNL d   1       0.030  -1.355   1.107  0.00  0.00    -0.070 Cl
ENDROOT
TORSDOF 0
ENDMDL
