MODEL 1
REMARK minimizedAffinity 3.47184277
REMARK minimizedRMSD -1
REMARK  2 active torsions:
REMARK  status: ('A' for Active; 'I' for Inactive)
REMARK    1  A    between atoms: C2'_3  and  C1'_4 
REMARK    2  A    between atoms: C1'_4  and  C1_5 
ROOT
ATOM      1  C1  I4B d   1       3.471  -2.260   4.038  0.00  0.00    -0.075 A 
ATOM      2  C2  I4B d   1       3.593  -2.445   5.393  0.00  0.00     0.003 A 
ATOM      3  C3  I4B d   1       4.874  -2.477   5.995  0.00  0.00     0.002 A 
ATOM      4  C4  I4B d   1       6.000  -2.371   5.204  0.00  0.00    -0.004 A 
ATOM      5  C5  I4B d   1       5.873  -2.161   3.834  0.00  0.00     0.002 A 
ATOM      6  C6  I4B d   1       4.601  -2.092   3.248  0.00  0.00     0.003 A 
ENDROOT
BRANCH   1   7
ATOM      7  C1' I4B d   1       2.104  -2.264   3.430  0.00  0.00     0.060 C 
BRANCH   7   8
ATOM      8  C2' I4B d   1       1.867  -0.904   2.805  0.00  0.00    -0.013 C 
ATOM      9  C4' I4B d   1       3.161  -0.160   2.612  0.00  0.00     0.013 C 
ATOM     10  C3' I4B d   1       1.162  -1.113   1.498  0.00  0.00     0.013 C 
ENDBRANCH   7   8
ENDBRANCH   1   7
TORSDOF 2
ENDMDL
