MODEL 1
REMARK minimizedAffinity 12.6900625
REMARK minimizedRMSD -1
REMARK  2 active torsions:
REMARK  status: ('A' for Active; 'I' for Inactive)
REMARK    1  A    between atoms: C2'_3  and  C1'_4 
REMARK    2  A    between atoms: C1'_4  and  C1_5 
ROOT
ATOM      1  C1  I4B d   1       3.476  -1.975   4.053  0.00  0.00    -0.075 A 
ATOM      2  C2  I4B d   1       3.613  -2.038   5.418  0.00  0.00     0.003 A 
ATOM      3  C3  I4B d   1       4.895  -2.194   5.999  0.00  0.00     0.002 A 
ATOM      4  C4  I4B d   1       5.999  -2.332   5.183  0.00  0.00    -0.004 A 
ATOM      5  C5  I4B d   1       5.861  -2.245   3.800  0.00  0.00     0.002 A 
ATOM      6  C6  I4B d   1       4.593  -2.053   3.232  0.00  0.00     0.003 A 
ENDROOT
BRANCH   1   7
ATOM      7  C1' I4B d   1       2.104  -1.844   3.472  0.00  0.00     0.060 C 
BRANCH   7   8
ATOM      8  C2' I4B d   1       2.180  -0.873   2.311  0.00  0.00    -0.013 C 
ATOM      9  C4' I4B d   1       0.982  -1.008   1.408  0.00  0.00     0.013 C 
ATOM     10  C3' I4B d   1       2.282   0.514   2.873  0.00  0.00     0.013 C 
ENDBRANCH   7   8
ENDBRANCH   1   7
TORSDOF 2
ENDMDL
