MODEL 1
REMARK minimizedAffinity 6.82650948
REMARK minimizedRMSD -1
REMARK  2 active torsions:
REMARK  status: ('A' for Active; 'I' for Inactive)
REMARK    1  A    between atoms: C2'_3  and  C1'_4 
REMARK    2  A    between atoms: C1'_4  and  C1_5 
ROOT
ATOM      1  C1  I4B d   1       4.347   5.953  -2.759  0.00  0.00    -0.075 A 
ATOM      2  C2  I4B d   1       5.661   5.868  -3.148  0.00  0.00     0.003 A 
ATOM      3  C3  I4B d   1       5.995   5.802  -4.522  0.00  0.00     0.002 A 
ATOM      4  C4  I4B d   1       4.988   5.774  -5.465  0.00  0.00    -0.004 A 
ATOM      5  C5  I4B d   1       3.658   5.884  -5.070  0.00  0.00     0.002 A 
ATOM      6  C6  I4B d   1       3.335   5.987  -3.709  0.00  0.00     0.003 A 
ENDROOT
BRANCH   1   7
ATOM      7  C1' I4B d   1       4.029   5.988  -1.298  0.00  0.00     0.060 C 
BRANCH   7   8
ATOM      8  C2' I4B d   1       2.874   5.039  -1.049  0.00  0.00    -0.013 C 
ATOM      9  C4' I4B d   1       3.227   4.013  -0.005  0.00  0.00     0.013 C 
ATOM     10  C3' I4B d   1       1.688   5.854  -0.628  0.00  0.00     0.013 C 
ENDBRANCH   7   8
ENDBRANCH   1   7
TORSDOF 2
ENDMDL
