MODEL 1
REMARK minimizedAffinity 13.708353
REMARK minimizedRMSD -1
REMARK  2 active torsions:
REMARK  status: ('A' for Active; 'I' for Inactive)
REMARK    1  A    between atoms: C2'_3  and  C1'_4 
REMARK    2  A    between atoms: C1'_4  and  C1_5 
ROOT
ATOM      1  C1  I4B d   1       2.381  -0.594   3.106  0.00  0.00    -0.075 A 
ATOM      2  C2  I4B d   1       2.386   0.700   3.566  0.00  0.00     0.003 A 
ATOM      3  C3  I4B d   1       2.816   1.754   2.725  0.00  0.00     0.002 A 
ATOM      4  C4  I4B d   1       3.277   1.466   1.456  0.00  0.00    -0.004 A 
ATOM      5  C5  I4B d   1       3.251   0.157   0.984  0.00  0.00     0.002 A 
ATOM      6  C6  I4B d   1       2.788  -0.878   1.809  0.00  0.00     0.003 A 
ENDROOT
BRANCH   1   7
ATOM      7  C1' I4B d   1       1.952  -1.687   4.033  0.00  0.00     0.060 C 
BRANCH   7   8
ATOM      8  C2' I4B d   1       3.138  -2.604   4.254  0.00  0.00    -0.013 C 
ATOM      9  C4' I4B d   1       3.634  -2.521   5.674  0.00  0.00     0.013 C 
ATOM     10  C3' I4B d   1       2.714  -4.000   3.909  0.00  0.00     0.013 C 
ENDBRANCH   7   8
ENDBRANCH   1   7
TORSDOF 2
ENDMDL
