MODEL 1
REMARK minimizedAffinity 4.3561306
REMARK minimizedRMSD -1
REMARK  2 active torsions:
REMARK  status: ('A' for Active; 'I' for Inactive)
REMARK    1  A    between atoms: C2'_3  and  C1'_4 
REMARK    2  A    between atoms: C1'_4  and  C1_5 
ROOT
ATOM      1  C1  I4B d   1       3.481  -1.974   4.099  0.00  0.00    -0.075 A 
ATOM      2  C2  I4B d   1       3.591  -2.369   5.409  0.00  0.00     0.003 A 
ATOM      3  C3  I4B d   1       4.867  -2.529   6.000  0.00  0.00     0.002 A 
ATOM      4  C4  I4B d   1       6.000  -2.334   5.236  0.00  0.00    -0.004 A 
ATOM      5  C5  I4B d   1       5.886  -1.911   3.915  0.00  0.00     0.002 A 
ATOM      6  C6  I4B d   1       4.619  -1.718   3.345  0.00  0.00     0.003 A 
ENDROOT
BRANCH   1   7
ATOM      7  C1' I4B d   1       2.118  -1.847   3.496  0.00  0.00     0.060 C 
BRANCH   7   8
ATOM      8  C2' I4B d   1       2.172  -0.758   2.444  0.00  0.00    -0.013 C 
ATOM      9  C4' I4B d   1       0.922  -0.750   1.603  0.00  0.00     0.013 C 
ATOM     10  C3' I4B d   1       2.363   0.554   3.144  0.00  0.00     0.013 C 
ENDBRANCH   7   8
ENDBRANCH   1   7
TORSDOF 2
ENDMDL
