MODEL 1
REMARK minimizedAffinity 13.9683313
REMARK minimizedRMSD -1
REMARK  2 active torsions:
REMARK  status: ('A' for Active; 'I' for Inactive)
REMARK    1  A    between atoms: C2'_3  and  C1'_4 
REMARK    2  A    between atoms: C1'_4  and  C1_5 
ROOT
ATOM      1  C1  I4B d   1       2.421  -2.545   4.195  0.00  0.00    -0.075 A 
ATOM      2  C2  I4B d   1       1.505  -1.523   4.211  0.00  0.00     0.003 A 
ATOM      3  C3  I4B d   1       1.543  -0.516   3.217  0.00  0.00     0.002 A 
ATOM      4  C4  I4B d   1       2.538  -0.541   2.261  0.00  0.00    -0.004 A 
ATOM      5  C5  I4B d   1       3.452  -1.591   2.232  0.00  0.00     0.002 A 
ATOM      6  C6  I4B d   1       3.386  -2.606   3.198  0.00  0.00     0.003 A 
ENDROOT
BRANCH   1   7
ATOM      7  C1' I4B d   1       2.373  -3.574   5.280  0.00  0.00     0.060 C 
BRANCH   7   8
ATOM      8  C2' I4B d   1       1.357  -4.625   4.881  0.00  0.00    -0.013 C 
ATOM      9  C4' I4B d   1       1.973  -6.000   4.866  0.00  0.00     0.013 C 
ATOM     10  C3' I4B d   1       0.213  -4.554   5.848  0.00  0.00     0.013 C 
ENDBRANCH   7   8
ENDBRANCH   1   7
TORSDOF 2
ENDMDL
