MODEL 1
REMARK minimizedAffinity 15.7112589
REMARK minimizedRMSD -1
REMARK  2 active torsions:
REMARK  status: ('A' for Active; 'I' for Inactive)
REMARK    1  A    between atoms: C2'_3  and  C1'_4 
REMARK    2  A    between atoms: C1'_4  and  C1_5 
ROOT
ATOM      1  C1  I4B d   1       1.753   2.737   1.140  0.00  0.00    -0.075 A 
ATOM      2  C2  I4B d   1       2.842   2.841   0.311  0.00  0.00     0.003 A 
ATOM      3  C3  I4B d   1       2.819   3.735  -0.787  0.00  0.00     0.002 A 
ATOM      4  C4  I4B d   1       1.677   4.465  -1.046  0.00  0.00    -0.004 A 
ATOM      5  C5  I4B d   1       0.583   4.376  -0.190  0.00  0.00     0.002 A 
ATOM      6  C6  I4B d   1       0.625   3.516   0.917  0.00  0.00     0.003 A 
ENDROOT
BRANCH   1   7
ATOM      7  C1' I4B d   1       1.798   1.759   2.270  0.00  0.00     0.060 C 
BRANCH   7   8
ATOM      8  C2' I4B d   1       1.590   0.372   1.696  0.00  0.00    -0.013 C 
ATOM      9  C4' I4B d   1       2.390  -0.657   2.451  0.00  0.00     0.013 C 
ATOM     10  C3' I4B d   1       0.124   0.064   1.748  0.00  0.00     0.013 C 
ENDBRANCH   7   8
ENDBRANCH   1   7
TORSDOF 2
ENDMDL
