MODEL 1
REMARK minimizedAffinity 1.81247365
REMARK minimizedRMSD -1
REMARK  2 active torsions:
REMARK  status: ('A' for Active; 'I' for Inactive)
REMARK    1  A    between atoms: C2'_3  and  C1'_4 
REMARK    2  A    between atoms: C1'_4  and  C1_5 
ROOT
ATOM      1  C1  I4B d   1       1.922  -2.791   4.138  0.00  0.00    -0.075 A 
ATOM      2  C2  I4B d   1       1.541  -1.473   4.100  0.00  0.00     0.003 A 
ATOM      3  C3  I4B d   1       1.862  -0.671   2.978  0.00  0.00     0.002 A 
ATOM      4  C4  I4B d   1       2.603  -1.210   1.946  0.00  0.00    -0.004 A 
ATOM      5  C5  I4B d   1       2.968  -2.552   1.976  0.00  0.00     0.002 A 
ATOM      6  C6  I4B d   1       2.616  -3.352   3.073  0.00  0.00     0.003 A 
ENDROOT
BRANCH   1   7
ATOM      7  C1' I4B d   1       1.596  -3.601   5.352  0.00  0.00     0.060 C 
BRANCH   7   8
ATOM      8  C2' I4B d   1       0.540  -4.617   4.967  0.00  0.00    -0.013 C 
ATOM      9  C4' I4B d   1       1.128  -5.999   4.857  0.00  0.00     0.013 C 
ATOM     10  C3' I4B d   1      -0.546  -4.571   6.000  0.00  0.00     0.013 C 
ENDBRANCH   7   8
ENDBRANCH   1   7
TORSDOF 2
ENDMDL
