MODEL 1
REMARK minimizedAffinity 11.9980936
REMARK minimizedRMSD -1
REMARK  2 active torsions:
REMARK  status: ('A' for Active; 'I' for Inactive)
REMARK    1  A    between atoms: C2'_3  and  C1'_4 
REMARK    2  A    between atoms: C1'_4  and  C1_5 
ROOT
ATOM      1  C1  I4B d   1       2.766   1.547   1.777  0.00  0.00    -0.075 A 
ATOM      2  C2  I4B d   1       1.619   2.281   1.952  0.00  0.00     0.003 A 
ATOM      3  C3  I4B d   1       1.293   3.320   1.047  0.00  0.00     0.002 A 
ATOM      4  C4  I4B d   1       2.161   3.622   0.017  0.00  0.00    -0.004 A 
ATOM      5  C5  I4B d   1       3.312   2.861  -0.172  0.00  0.00     0.002 A 
ATOM      6  C6  I4B d   1       3.610   1.809   0.706  0.00  0.00     0.003 A 
ENDROOT
BRANCH   1   7
ATOM      7  C1' I4B d   1       3.096   0.479   2.771  0.00  0.00     0.060 C 
BRANCH   7   8
ATOM      8  C2' I4B d   1       1.866  -0.389   2.949  0.00  0.00    -0.013 C 
ATOM      9  C4' I4B d   1       1.999  -1.684   2.191  0.00  0.00     0.013 C 
ATOM     10  C3' I4B d   1       1.683  -0.637   4.417  0.00  0.00     0.013 C 
ENDBRANCH   7   8
ENDBRANCH   1   7
TORSDOF 2
ENDMDL
