MODEL 1
REMARK minimizedAffinity 7.49753094
REMARK minimizedRMSD -1
REMARK  2 active torsions:
REMARK  status: ('A' for Active; 'I' for Inactive)
REMARK    1  A    between atoms: C2'_3  and  C1'_4 
REMARK    2  A    between atoms: C1'_4  and  C1_5 
ROOT
ATOM      1  C1  I4B d   1       1.631  -1.146   0.835  0.00  0.00    -0.075 A 
ATOM      2  C2  I4B d   1       2.000  -1.730  -0.351  0.00  0.00     0.003 A 
ATOM      3  C3  I4B d   1       1.073  -1.827  -1.417  0.00  0.00     0.002 A 
ATOM      4  C4  I4B d   1      -0.218  -1.375  -1.238  0.00  0.00    -0.004 A 
ATOM      5  C5  I4B d   1      -0.584  -0.762  -0.043  0.00  0.00     0.002 A 
ATOM      6  C6  I4B d   1       0.349  -0.635   0.996  0.00  0.00     0.003 A 
ENDROOT
BRANCH   1   7
ATOM      7  C1' I4B d   1       2.625  -1.090   1.951  0.00  0.00     0.060 C 
BRANCH   7   8
ATOM      8  C2' I4B d   1       2.273  -2.179   2.944  0.00  0.00    -0.013 C 
ATOM      9  C4' I4B d   1       2.927  -3.485   2.576  0.00  0.00     0.013 C 
ATOM     10  C3' I4B d   1       2.707  -1.722   4.305  0.00  0.00     0.013 C 
ENDBRANCH   7   8
ENDBRANCH   1   7
TORSDOF 2
ENDMDL
