MODEL 1
REMARK minimizedAffinity -2.18365955
REMARK minimizedRMSD -1
REMARK  1 active torsions:
REMARK  status: ('A' for Active; 'I' for Inactive)
REMARK    1  A    between atoms: C1_2  and  C2_3 
ROOT
ATOM      1  C2  UNL d   1       5.991   2.651   3.528  0.00  0.00    -0.073 A 
ATOM      2  C3  UNL d   1       6.000   3.310   4.762  0.00  0.00    -0.002 A 
ATOM      3  C4  UNL d   1       6.000   2.581   5.952  0.00  0.00     0.004 A 
ATOM      4  C5  UNL d   1       5.997   1.186   5.920  0.00  0.00    -0.004 A 
ATOM      5  C6  UNL d   1       6.000   0.509   4.696  0.00  0.00    -0.075 A 
ATOM      6  C7  UNL d   1       5.995  -0.991   4.645  0.00  0.00     0.076 C 
ATOM      7  C8  UNL d   1       5.997   1.249   3.506  0.00  0.00     0.001 A 
ENDROOT
BRANCH   1   8
ATOM      8  C1  UNL d   1       5.997   3.434   2.241  0.00  0.00     0.053 C 
ATOM      9  C   UNL d   1       5.967   4.935   2.487  0.00  0.00     0.018 C 
ENDBRANCH   1   8
TORSDOF 1
ENDMDL
