MODEL 1
REMARK minimizedAffinity 3.7124362
REMARK minimizedRMSD -1
REMARK  1 active torsions:
REMARK  status: ('A' for Active; 'I' for Inactive)
REMARK    1  A    between atoms: C1_2  and  C2_3 
ROOT
ATOM      1  C2  UNL d   1       5.963   1.023   4.764  0.00  0.00    -0.073 A 
ATOM      2  C3  UNL d   1       5.956   0.644   3.416  0.00  0.00    -0.002 A 
ATOM      3  C4  UNL d   1       5.953   1.612   2.412  0.00  0.00     0.004 A 
ATOM      4  C5  UNL d   1       5.964   2.967   2.742  0.00  0.00    -0.004 A 
ATOM      5  C6  UNL d   1       5.982   3.366   4.083  0.00  0.00    -0.075 A 
ATOM      6  C7  UNL d   1       5.991   4.819   4.455  0.00  0.00     0.076 C 
ATOM      7  C8  UNL d   1       5.982   2.387   5.086  0.00  0.00     0.001 A 
ENDROOT
BRANCH   1   8
ATOM      8  C1  UNL d   1       5.972  -0.019   5.852  0.00  0.00     0.053 C 
ATOM      9  C   UNL d   1       5.713  -1.415   5.307  0.00  0.00     0.018 C 
ENDBRANCH   1   8
TORSDOF 1
ENDMDL
