MODEL 1
REMARK minimizedAffinity -2.71400952
REMARK minimizedRMSD -1
REMARK  1 active torsions:
REMARK  status: ('A' for Active; 'I' for Inactive)
REMARK    1  A    between atoms: C1_2  and  C2_3 
ROOT
ATOM      1  C2  UNL d   1       5.797   1.977   3.666  0.00  0.00    -0.073 A 
ATOM      2  C3  UNL d   1       5.443   2.357   4.966  0.00  0.00    -0.002 A 
ATOM      3  C4  UNL d   1       5.262   1.393   5.958  0.00  0.00     0.004 A 
ATOM      4  C5  UNL d   1       5.440   0.041   5.663  0.00  0.00    -0.004 A 
ATOM      5  C6  UNL d   1       5.805  -0.358   4.374  0.00  0.00    -0.075 A 
ATOM      6  C7  UNL d   1       5.998  -1.808   4.040  0.00  0.00     0.076 C 
ATOM      7  C8  UNL d   1       5.982   0.616   3.382  0.00  0.00     0.001 A 
ENDROOT
BRANCH   1   8
ATOM      8  C1  UNL d   1       6.000   3.015   2.593  0.00  0.00     0.053 C 
ATOM      9  C   UNL d   1       5.992   4.427   3.157  0.00  0.00     0.018 C 
ENDBRANCH   1   8
TORSDOF 1
ENDMDL
