MODEL 1
REMARK minimizedAffinity 0.508446872
REMARK minimizedRMSD -1
REMARK  1 active torsions:
REMARK  status: ('A' for Active; 'I' for Inactive)
REMARK    1  A    between atoms: C1_2  and  C2_3 
ROOT
ATOM      1  C2  UNL d   1       5.881   2.556   4.032  0.00  0.00    -0.073 A 
ATOM      2  C3  UNL d   1       5.763   2.076   2.722  0.00  0.00    -0.002 A 
ATOM      3  C4  UNL d   1       5.730   0.703   2.476  0.00  0.00     0.004 A 
ATOM      4  C5  UNL d   1       5.807  -0.203   3.533  0.00  0.00    -0.004 A 
ATOM      5  C6  UNL d   1       5.913   0.258   4.850  0.00  0.00    -0.075 A 
ATOM      6  C7  UNL d   1       5.999  -0.704   5.999  0.00  0.00     0.076 C 
ATOM      7  C8  UNL d   1       5.948   1.638   5.090  0.00  0.00     0.001 A 
ENDROOT
BRANCH   1   8
ATOM      8  C1  UNL d   1       5.910   4.038   4.304  0.00  0.00     0.053 C 
ATOM      9  C   UNL d   1       5.948   4.852   3.021  0.00  0.00     0.018 C 
ENDBRANCH   1   8
TORSDOF 1
ENDMDL
