MODEL 1
REMARK minimizedAffinity 1.22827995
REMARK minimizedRMSD -1
REMARK  1 active torsions:
REMARK  status: ('A' for Active; 'I' for Inactive)
REMARK    1  A    between atoms: C1_2  and  C2_3 
ROOT
ATOM      1  C2  UNL d   1       5.988   0.382   4.186  0.00  0.00    -0.073 A 
ATOM      2  C3  UNL d   1       5.972   0.770   5.530  0.00  0.00    -0.002 A 
ATOM      3  C4  UNL d   1       5.973   2.122   5.874  0.00  0.00     0.004 A 
ATOM      4  C5  UNL d   1       5.982   3.099   4.879  0.00  0.00    -0.004 A 
ATOM      5  C6  UNL d   1       5.986   2.732   3.530  0.00  0.00    -0.075 A 
ATOM      6  C7  UNL d   1       5.999   3.771   2.447  0.00  0.00     0.076 C 
ATOM      7  C8  UNL d   1       5.988   1.372   3.192  0.00  0.00     0.001 A 
ENDROOT
BRANCH   1   8
ATOM      8  C1  UNL d   1       5.980  -1.077   3.810  0.00  0.00     0.053 C 
ATOM      9  C   UNL d   1       5.998  -1.981   5.032  0.00  0.00     0.018 C 
ENDBRANCH   1   8
TORSDOF 1
ENDMDL
