MODEL 1
REMARK minimizedAffinity 0.799176157
REMARK minimizedRMSD -1
REMARK  1 active torsions:
REMARK  status: ('A' for Active; 'I' for Inactive)
REMARK    1  A    between atoms: C1_2  and  C2_3 
ROOT
ATOM      1  C2  UNL d   1       5.953   1.353   3.641  0.00  0.00    -0.073 A 
ATOM      2  C3  UNL d   1       5.996   1.731   4.988  0.00  0.00    -0.002 A 
ATOM      3  C4  UNL d   1       5.983   0.762   5.992  0.00  0.00     0.004 A 
ATOM      4  C5  UNL d   1       5.934  -0.592   5.661  0.00  0.00    -0.004 A 
ATOM      5  C6  UNL d   1       5.903  -0.990   4.320  0.00  0.00    -0.075 A 
ATOM      6  C7  UNL d   1       5.848  -2.442   3.947  0.00  0.00     0.076 C 
ATOM      7  C8  UNL d   1       5.913  -0.011   3.317  0.00  0.00     0.001 A 
ENDROOT
BRANCH   1   8
ATOM      8  C1  UNL d   1       5.973   2.395   2.553  0.00  0.00     0.053 C 
ATOM      9  C   UNL d   1       5.979   3.808   3.116  0.00  0.00     0.018 C 
ENDBRANCH   1   8
TORSDOF 1
ENDMDL
