MODEL 1
REMARK minimizedAffinity -1.22347367
REMARK minimizedRMSD -1
REMARK  1 active torsions:
REMARK  status: ('A' for Active; 'I' for Inactive)
REMARK    1  A    between atoms: C1_2  and  C2_3 
ROOT
ATOM      1  C2  UNL d   1       5.592   1.150   4.313  0.00  0.00    -0.073 A 
ATOM      2  C3  UNL d   1       5.805   1.515   5.647  0.00  0.00    -0.002 A 
ATOM      3  C4  UNL d   1       6.000   2.853   5.990  0.00  0.00     0.004 A 
ATOM      4  C5  UNL d   1       5.977   3.841   5.005  0.00  0.00    -0.004 A 
ATOM      5  C6  UNL d   1       5.755   3.498   3.667  0.00  0.00    -0.075 A 
ATOM      6  C7  UNL d   1       5.730   4.547   2.596  0.00  0.00     0.076 C 
ATOM      7  C8  UNL d   1       5.562   2.151   3.331  0.00  0.00     0.001 A 
ENDROOT
BRANCH   1   8
ATOM      8  C1  UNL d   1       5.375  -0.293   3.939  0.00  0.00     0.053 C 
ATOM      9  C   UNL d   1       5.986  -1.244   4.956  0.00  0.00     0.018 C 
ENDBRANCH   1   8
TORSDOF 1
ENDMDL
