MODEL 1
REMARK minimizedAffinity -1.6248579
REMARK minimizedRMSD -1
REMARK  1 active torsions:
REMARK  status: ('A' for Active; 'I' for Inactive)
REMARK    1  A    between atoms: C1_2  and  C2_3 
ROOT
ATOM      1  C2  UNL d   1       5.977   1.847   4.726  0.00  0.00    -0.073 A 
ATOM      2  C3  UNL d   1       5.991   1.379   3.407  0.00  0.00    -0.002 A 
ATOM      3  C4  UNL d   1       5.998   2.279   2.341  0.00  0.00     0.004 A 
ATOM      4  C5  UNL d   1       5.998   3.653   2.581  0.00  0.00    -0.004 A 
ATOM      5  C6  UNL d   1       5.996   4.140   3.892  0.00  0.00    -0.075 A 
ATOM      6  C7  UNL d   1       5.994   5.615   4.168  0.00  0.00     0.076 C 
ATOM      7  C8  UNL d   1       5.987   3.230   4.958  0.00  0.00     0.001 A 
ENDROOT
BRANCH   1   8
ATOM      8  C1  UNL d   1       5.977   0.879   5.881  0.00  0.00     0.053 C 
ATOM      9  C   UNL d   1       5.984  -0.567   5.413  0.00  0.00     0.018 C 
ENDBRANCH   1   8
TORSDOF 1
ENDMDL
