MODEL 1
REMARK minimizedAffinity -3.39256239
REMARK minimizedRMSD -1
REMARK  1 active torsions:
REMARK  status: ('A' for Active; 'I' for Inactive)
REMARK    1  A    between atoms: C1_2  and  C2_3 
ROOT
ATOM      1  C2  UNL d   1       5.984  -1.504   4.563  0.00  0.00    -0.073 A 
ATOM      2  C3  UNL d   1       5.981  -0.926   5.837  0.00  0.00    -0.002 A 
ATOM      3  C4  UNL d   1       5.992   0.462   5.981  0.00  0.00     0.004 A 
ATOM      4  C5  UNL d   1       5.999   1.285   4.855  0.00  0.00    -0.004 A 
ATOM      5  C6  UNL d   1       5.990   0.726   3.573  0.00  0.00    -0.075 A 
ATOM      6  C7  UNL d   1       5.999   1.597   2.351  0.00  0.00     0.076 C 
ATOM      7  C8  UNL d   1       5.982  -0.669   3.437  0.00  0.00     0.001 A 
ENDROOT
BRANCH   1   8
ATOM      8  C1  UNL d   1       5.966  -3.003   4.402  0.00  0.00     0.053 C 
ATOM      9  C   UNL d   1       5.587  -3.420   2.990  0.00  0.00     0.018 C 
ENDBRANCH   1   8
TORSDOF 1
ENDMDL
