MODEL 1
REMARK minimizedAffinity 0.331551939
REMARK minimizedRMSD -1
REMARK  1 active torsions:
REMARK  status: ('A' for Active; 'I' for Inactive)
REMARK    1  A    between atoms: C1_2  and  C2_3 
ROOT
ATOM      1  C2  UNL d   1       5.982   2.078   4.274  0.00  0.00    -0.073 A 
ATOM      2  C3  UNL d   1       5.992   1.597   5.588  0.00  0.00    -0.002 A 
ATOM      3  C4  UNL d   1       5.996   0.224   5.836  0.00  0.00     0.004 A 
ATOM      4  C5  UNL d   1       5.996  -0.681   4.775  0.00  0.00    -0.004 A 
ATOM      5  C6  UNL d   1       5.997  -0.220   3.454  0.00  0.00    -0.075 A 
ATOM      6  C7  UNL d   1       5.995  -1.180   2.301  0.00  0.00     0.076 C 
ATOM      7  C8  UNL d   1       5.991   1.161   3.213  0.00  0.00     0.001 A 
ENDROOT
BRANCH   1   8
ATOM      8  C1  UNL d   1       5.985   3.560   4.001  0.00  0.00     0.053 C 
ATOM      9  C   UNL d   1       5.997   3.866   2.512  0.00  0.00     0.018 C 
ENDBRANCH   1   8
TORSDOF 1
ENDMDL
