MODEL 1
REMARK minimizedAffinity -3.42871571
REMARK minimizedRMSD -1
REMARK  1 active torsions:
REMARK  status: ('A' for Active; 'I' for Inactive)
REMARK    1  A    between atoms: C1_2  and  C2_3 
ROOT
ATOM      1  C2  UNL d   1       5.911   0.256   3.719  0.00  0.00    -0.073 A 
ATOM      2  C3  UNL d   1       5.868   0.040   5.101  0.00  0.00    -0.002 A 
ATOM      3  C4  UNL d   1       5.874   1.121   5.984  0.00  0.00     0.004 A 
ATOM      4  C5  UNL d   1       5.916   2.427   5.494  0.00  0.00    -0.004 A 
ATOM      5  C6  UNL d   1       5.948   2.663   4.116  0.00  0.00    -0.075 A 
ATOM      6  C7  UNL d   1       5.995   4.061   3.574  0.00  0.00     0.076 C 
ATOM      7  C8  UNL d   1       5.944   1.572   3.236  0.00  0.00     0.001 A 
ENDROOT
BRANCH   1   8
ATOM      8  C1  UNL d   1       5.899  -0.908   2.762  0.00  0.00     0.053 C 
ATOM      9  C   UNL d   1       4.505  -1.495   2.596  0.00  0.00     0.018 C 
ENDBRANCH   1   8
TORSDOF 1
ENDMDL
