MODEL 1
REMARK minimizedAffinity -0.913596988
REMARK minimizedRMSD -1
REMARK  1 active torsions:
REMARK  status: ('A' for Active; 'I' for Inactive)
REMARK    1  A    between atoms: C1_2  and  C2_3 
ROOT
ATOM      1  C2  UNL d   1       5.896   2.757   4.353  0.00  0.00    -0.073 A 
ATOM      2  C3  UNL d   1       5.942   2.435   2.992  0.00  0.00    -0.002 A 
ATOM      3  C4  UNL d   1       5.997   1.101   2.585  0.00  0.00     0.004 A 
ATOM      4  C5  UNL d   1       6.000   0.077   3.533  0.00  0.00    -0.004 A 
ATOM      5  C6  UNL d   1       5.942   0.379   4.897  0.00  0.00    -0.075 A 
ATOM      6  C7  UNL d   1       5.947  -0.710   5.929  0.00  0.00     0.076 C 
ATOM      7  C8  UNL d   1       5.890   1.721   5.298  0.00  0.00     0.001 A 
ENDROOT
BRANCH   1   8
ATOM      8  C1  UNL d   1       5.830   4.196   4.797  0.00  0.00     0.053 C 
ATOM      9  C   UNL d   1       5.994   5.160   3.633  0.00  0.00     0.018 C 
ENDBRANCH   1   8
TORSDOF 1
ENDMDL
