MODEL 1
REMARK minimizedAffinity 1.08773935
REMARK minimizedRMSD -1
REMARK  1 active torsions:
REMARK  status: ('A' for Active; 'I' for Inactive)
REMARK    1  A    between atoms: C1_2  and  C2_3 
ROOT
ATOM      1  C2  UNL d   1       5.991   1.559   3.828  0.00  0.00    -0.073 A 
ATOM      2  C3  UNL d   1       5.999   1.639   5.225  0.00  0.00    -0.002 A 
ATOM      3  C4  UNL d   1       5.998   0.476   5.997  0.00  0.00     0.004 A 
ATOM      4  C5  UNL d   1       5.996  -0.775   5.382  0.00  0.00    -0.004 A 
ATOM      5  C6  UNL d   1       6.000  -0.876   3.987  0.00  0.00    -0.075 A 
ATOM      6  C7  UNL d   1       5.996  -2.214   3.309  0.00  0.00     0.076 C 
ATOM      7  C8  UNL d   1       5.998   0.296   3.218  0.00  0.00     0.001 A 
ENDROOT
BRANCH   1   8
ATOM      8  C1  UNL d   1       5.999   2.811   2.990  0.00  0.00     0.053 C 
ATOM      9  C   UNL d   1       5.884   4.067   3.840  0.00  0.00     0.018 C 
ENDBRANCH   1   8
TORSDOF 1
ENDMDL
