MODEL 1
REMARK minimizedAffinity 4.24672174
REMARK minimizedRMSD -1
REMARK  1 active torsions:
REMARK  status: ('A' for Active; 'I' for Inactive)
REMARK    1  A    between atoms: C1_2  and  C2_3 
ROOT
ATOM      1  C2  UNL d   1       5.927   2.126   3.650  0.00  0.00    -0.073 A 
ATOM      2  C3  UNL d   1       5.970   2.761   2.404  0.00  0.00    -0.002 A 
ATOM      3  C4  UNL d   1       5.990   4.154   2.323  0.00  0.00     0.004 A 
ATOM      4  C5  UNL d   1       5.975   4.925   3.485  0.00  0.00    -0.004 A 
ATOM      5  C6  UNL d   1       5.945   4.309   4.740  0.00  0.00    -0.075 A 
ATOM      6  C7  UNL d   1       5.926   5.124   6.000  0.00  0.00     0.076 C 
ATOM      7  C8  UNL d   1       5.921   2.909   4.813  0.00  0.00     0.001 A 
ENDROOT
BRANCH   1   8
ATOM      8  C1  UNL d   1       5.911   0.622   3.743  0.00  0.00     0.053 C 
ATOM      9  C   UNL d   1       5.340  -0.020   2.488  0.00  0.00     0.018 C 
ENDBRANCH   1   8
TORSDOF 1
ENDMDL
