MODEL 1
REMARK minimizedAffinity 0.102434866
REMARK minimizedRMSD -1
REMARK  1 active torsions:
REMARK  status: ('A' for Active; 'I' for Inactive)
REMARK    1  A    between atoms: C1_2  and  C2_3 
ROOT
ATOM      1  C2  UNL d   1       5.982   2.621   3.771  0.00  0.00    -0.073 A 
ATOM      2  C3  UNL d   1       5.985   2.000   5.025  0.00  0.00    -0.002 A 
ATOM      3  C4  UNL d   1       5.986   0.608   5.122  0.00  0.00     0.004 A 
ATOM      4  C5  UNL d   1       5.989  -0.176   3.968  0.00  0.00    -0.004 A 
ATOM      5  C6  UNL d   1       5.998   0.426   2.706  0.00  0.00    -0.075 A 
ATOM      6  C7  UNL d   1       6.000  -0.403   1.455  0.00  0.00     0.076 C 
ATOM      7  C8  UNL d   1       5.995   1.825   2.617  0.00  0.00     0.001 A 
ENDROOT
BRANCH   1   8
ATOM      8  C1  UNL d   1       5.988   4.124   3.662  0.00  0.00     0.053 C 
ATOM      9  C   UNL d   1       6.000   4.590   2.215  0.00  0.00     0.018 C 
ENDBRANCH   1   8
TORSDOF 1
ENDMDL
