MODEL 1
REMARK minimizedAffinity 1.67916679
REMARK minimizedRMSD -1
REMARK  1 active torsions:
REMARK  status: ('A' for Active; 'I' for Inactive)
REMARK    1  A    between atoms: C1_2  and  C2_3 
ROOT
ATOM      1  C2  UNL d   1       5.997   3.277   3.201  0.00  0.00    -0.073 A 
ATOM      2  C3  UNL d   1       5.990   4.272   4.185  0.00  0.00    -0.002 A 
ATOM      3  C4  UNL d   1       5.994   5.620   3.824  0.00  0.00     0.004 A 
ATOM      4  C5  UNL d   1       5.998   5.986   2.478  0.00  0.00    -0.004 A 
ATOM      5  C6  UNL d   1       5.993   5.006   1.480  0.00  0.00    -0.075 A 
ATOM      6  C7  UNL d   1       5.999   5.384   0.028  0.00  0.00     0.076 C 
ATOM      7  C8  UNL d   1       5.991   3.655   1.850  0.00  0.00     0.001 A 
ENDROOT
BRANCH   1   8
ATOM      8  C1  UNL d   1       5.986   1.820   3.586  0.00  0.00     0.053 C 
ATOM      9  C   UNL d   1       5.997   1.629   5.094  0.00  0.00     0.018 C 
ENDBRANCH   1   8
TORSDOF 1
ENDMDL
