MODEL 1
REMARK minimizedAffinity 2.93292832
REMARK minimizedRMSD -1
REMARK  0 active torsions:
REMARK  status: ('A' for Active; 'I' for Inactive)
ROOT
ATOM      1  C   UNL d   1      -0.895  -5.955  -1.402  0.00  0.00     0.077 C 
ATOM      2  C1  UNL d   1      -0.825  -5.975  -2.901  0.00  0.00    -0.074 A 
ATOM      3  C2  UNL d   1      -1.989  -5.990  -3.675  0.00  0.00    -0.005 A 
ATOM      4  C3  UNL d   1      -1.908  -5.999  -5.067  0.00  0.00     0.006 A 
ATOM      5  C4  UNL d   1      -0.664  -5.994  -5.698  0.00  0.00    -0.005 A 
ATOM      6  C5  UNL d   1       0.512  -5.978  -4.941  0.00  0.00    -0.074 A 
ATOM      7  C6  UNL d   1       1.857  -5.963  -5.604  0.00  0.00     0.077 C 
ATOM      8  C7  UNL d   1       0.422  -5.962  -3.542  0.00  0.00    -0.001 A 
ENDROOT
TORSDOF 0
ENDMDL
