MODEL 1
REMARK minimizedAffinity 2.92560768
REMARK minimizedRMSD -1
REMARK  0 active torsions:
REMARK  status: ('A' for Active; 'I' for Inactive)
ROOT
ATOM      1  C   UNL d   1       0.055  -5.991  -6.000  0.00  0.00     0.077 C 
ATOM      2  C1  UNL d   1      -0.434  -5.861  -4.588  0.00  0.00    -0.074 A 
ATOM      3  C2  UNL d   1       0.455  -5.599  -3.540  0.00  0.00    -0.005 A 
ATOM      4  C3  UNL d   1      -0.016  -5.471  -2.234  0.00  0.00     0.006 A 
ATOM      5  C4  UNL d   1      -1.378  -5.603  -1.961  0.00  0.00    -0.005 A 
ATOM      6  C5  UNL d   1      -2.282  -5.864  -2.996  0.00  0.00    -0.074 A 
ATOM      7  C6  UNL d   1      -3.751  -6.000  -2.722  0.00  0.00     0.077 C 
ATOM      8  C7  UNL d   1      -1.802  -5.985  -4.307  0.00  0.00    -0.001 A 
ENDROOT
TORSDOF 0
ENDMDL
