MODEL 1
REMARK minimizedAffinity 2.89445567
REMARK minimizedRMSD -1
REMARK  0 active torsions:
REMARK  status: ('A' for Active; 'I' for Inactive)
ROOT
ATOM      1  C   UNL d   1       5.070   4.508  -0.130  0.00  0.00     0.077 C 
ATOM      2  C1  UNL d   1       3.627   4.127   0.015  0.00  0.00    -0.074 A 
ATOM      3  C2  UNL d   1       3.157   2.898  -0.458  0.00  0.00    -0.005 A 
ATOM      4  C3  UNL d   1       1.814   2.553  -0.308  0.00  0.00     0.006 A 
ATOM      5  C4  UNL d   1       0.928   3.433   0.317  0.00  0.00    -0.005 A 
ATOM      6  C5  UNL d   1       1.380   4.666   0.797  0.00  0.00    -0.074 A 
ATOM      7  C6  UNL d   1       0.444   5.618   1.479  0.00  0.00     0.077 C 
ATOM      8  C7  UNL d   1       2.733   5.002   0.648  0.00  0.00    -0.001 A 
ENDROOT
TORSDOF 0
ENDMDL
