MODEL 1
REMARK minimizedAffinity 2.4141705
REMARK minimizedRMSD -1
REMARK  0 active torsions:
REMARK  status: ('A' for Active; 'I' for Inactive)
ROOT
ATOM      1  C   UNL d   1       0.025  -5.943  -1.482  0.00  0.00     0.077 C 
ATOM      2  C1  UNL d   1      -0.096  -5.970  -2.977  0.00  0.00    -0.074 A 
ATOM      3  C2  UNL d   1      -1.350  -5.976  -3.597  0.00  0.00    -0.005 A 
ATOM      4  C3  UNL d   1      -1.447  -5.991  -4.988  0.00  0.00     0.006 A 
ATOM      5  C4  UNL d   1      -0.293  -6.000  -5.773  0.00  0.00    -0.005 A 
ATOM      6  C5  UNL d   1       0.969  -5.993  -5.171  0.00  0.00    -0.074 A 
ATOM      7  C6  UNL d   1       2.219  -5.993  -6.000  0.00  0.00     0.077 C 
ATOM      8  C7  UNL d   1       1.059  -5.971  -3.772  0.00  0.00    -0.001 A 
ENDROOT
TORSDOF 0
ENDMDL
