MODEL 1
REMARK minimizedAffinity -3.04861259
REMARK minimizedRMSD -1
REMARK  0 active torsions:
REMARK  status: ('A' for Active; 'I' for Inactive)
ROOT
ATOM      1  C   UNL d   1      -2.464  -5.987  -2.819  0.00  0.00     0.077 C 
ATOM      2  C1  UNL d   1      -1.301  -5.898  -3.762  0.00  0.00    -0.074 A 
ATOM      3  C2  UNL d   1      -1.501  -5.712  -5.134  0.00  0.00    -0.005 A 
ATOM      4  C3  UNL d   1      -0.409  -5.623  -5.998  0.00  0.00     0.006 A 
ATOM      5  C4  UNL d   1       0.891  -5.718  -5.500  0.00  0.00    -0.005 A 
ATOM      6  C5  UNL d   1       1.110  -5.903  -4.131  0.00  0.00    -0.074 A 
ATOM      7  C6  UNL d   1       2.501  -5.998  -3.578  0.00  0.00     0.077 C 
ATOM      8  C7  UNL d   1       0.008  -5.985  -3.269  0.00  0.00    -0.001 A 
ENDROOT
TORSDOF 0
ENDMDL
