MODEL 1
REMARK minimizedAffinity 6.9153018
REMARK minimizedRMSD -1
REMARK  0 active torsions:
REMARK  status: ('A' for Active; 'I' for Inactive)
ROOT
ATOM      1  C   UNL d   1       3.637  -0.644   1.032  0.00  0.00     0.077 C 
ATOM      2  C1  UNL d   1       2.224  -1.126   0.880  0.00  0.00    -0.074 A 
ATOM      3  C2  UNL d   1       1.913  -2.485   0.986  0.00  0.00    -0.005 A 
ATOM      4  C3  UNL d   1       0.594  -2.917   0.851  0.00  0.00     0.006 A 
ATOM      5  C4  UNL d   1      -0.426  -1.996   0.611  0.00  0.00    -0.005 A 
ATOM      6  C5  UNL d   1      -0.134  -0.632   0.503  0.00  0.00    -0.074 A 
ATOM      7  C6  UNL d   1      -1.220   0.372   0.254  0.00  0.00     0.077 C 
ATOM      8  C7  UNL d   1       1.193  -0.205   0.646  0.00  0.00    -0.001 A 
ENDROOT
TORSDOF 0
ENDMDL
