MODEL 1
REMARK minimizedAffinity -2.06491804
REMARK minimizedRMSD -1
REMARK  0 active torsions:
REMARK  status: ('A' for Active; 'I' for Inactive)
ROOT
ATOM      1  C   UNL d   1      -2.249  -5.990  -1.922  0.00  0.00     0.077 C 
ATOM      2  C1  UNL d   1      -1.789  -5.902  -3.347  0.00  0.00    -0.074 A 
ATOM      3  C2  UNL d   1      -2.700  -6.000  -4.404  0.00  0.00    -0.005 A 
ATOM      4  C3  UNL d   1      -2.259  -5.906  -5.724  0.00  0.00     0.006 A 
ATOM      5  C4  UNL d   1      -0.905  -5.714  -6.000  0.00  0.00    -0.005 A 
ATOM      6  C5  UNL d   1       0.020  -5.613  -4.957  0.00  0.00    -0.074 A 
ATOM      7  C6  UNL d   1       1.478  -5.396  -5.236  0.00  0.00     0.077 C 
ATOM      8  C7  UNL d   1      -0.432  -5.701  -3.633  0.00  0.00    -0.001 A 
ENDROOT
TORSDOF 0
ENDMDL
