MODEL 1
REMARK minimizedAffinity 10.4695683
REMARK minimizedRMSD -1
REMARK  0 active torsions:
REMARK  status: ('A' for Active; 'I' for Inactive)
ROOT
ATOM      1  C   UNL d   1       0.387  -3.449   1.234  0.00  0.00     0.077 C 
ATOM      2  C1  UNL d   1       0.820  -2.056   0.885  0.00  0.00    -0.074 A 
ATOM      3  C2  UNL d   1      -0.113  -1.087   0.504  0.00  0.00    -0.005 A 
ATOM      4  C3  UNL d   1       0.303   0.207   0.192  0.00  0.00     0.006 A 
ATOM      5  C4  UNL d   1       1.656   0.544   0.258  0.00  0.00    -0.005 A 
ATOM      6  C5  UNL d   1       2.604  -0.411   0.639  0.00  0.00    -0.074 A 
ATOM      7  C6  UNL d   1       4.060  -0.062   0.725  0.00  0.00     0.077 C 
ATOM      8  C7  UNL d   1       2.176  -1.707   0.957  0.00  0.00    -0.001 A 
ENDROOT
TORSDOF 0
ENDMDL
