MODEL 1
REMARK minimizedAffinity 1.65675855
REMARK minimizedRMSD -1
REMARK  0 active torsions:
REMARK  status: ('A' for Active; 'I' for Inactive)
ROOT
ATOM      1  C   UNL d   1       2.415  -5.998  -3.537  0.00  0.00     0.077 C 
ATOM      2  C1  UNL d   1       1.026  -5.991  -4.101  0.00  0.00    -0.074 A 
ATOM      3  C2  UNL d   1       0.810  -5.997  -5.483  0.00  0.00    -0.005 A 
ATOM      4  C3  UNL d   1      -0.488  -6.000  -5.992  0.00  0.00     0.006 A 
ATOM      5  C4  UNL d   1      -1.583  -5.997  -5.127  0.00  0.00    -0.005 A 
ATOM      6  C5  UNL d   1      -1.387  -5.993  -3.742  0.00  0.00    -0.074 A 
ATOM      7  C6  UNL d   1      -2.552  -6.000  -2.798  0.00  0.00     0.077 C 
ATOM      8  C7  UNL d   1      -0.079  -5.997  -3.238  0.00  0.00    -0.001 A 
ENDROOT
TORSDOF 0
ENDMDL
