MODEL 1
REMARK minimizedAffinity 0.980645835
REMARK minimizedRMSD -1
REMARK  0 active torsions:
REMARK  status: ('A' for Active; 'I' for Inactive)
ROOT
ATOM      1  C   UNL d   1       2.176   0.733  -0.744  0.00  0.00     0.077 C 
ATOM      2  C1  UNL d   1       1.524  -0.489  -0.170  0.00  0.00    -0.074 A 
ATOM      3  C2  UNL d   1       2.281  -1.469   0.481  0.00  0.00    -0.005 A 
ATOM      4  C3  UNL d   1       1.659  -2.596   1.019  0.00  0.00     0.006 A 
ATOM      5  C4  UNL d   1       0.277  -2.755   0.910  0.00  0.00    -0.005 A 
ATOM      6  C5  UNL d   1      -0.496  -1.785   0.263  0.00  0.00    -0.074 A 
ATOM      7  C6  UNL d   1      -1.984  -1.936   0.146  0.00  0.00     0.077 C 
ATOM      8  C7  UNL d   1       0.135  -0.652  -0.268  0.00  0.00    -0.001 A 
ENDROOT
TORSDOF 0
ENDMDL
