MODEL 1
REMARK minimizedAffinity 4.38792276
REMARK minimizedRMSD -1
REMARK  0 active torsions:
REMARK  status: ('A' for Active; 'I' for Inactive)
ROOT
ATOM      1  C   UNL d   1       1.074  -5.919  -2.376  0.00  0.00     0.077 C 
ATOM      2  C1  UNL d   1      -0.088  -5.940  -3.324  0.00  0.00    -0.074 A 
ATOM      3  C2  UNL d   1       0.113  -5.960  -4.708  0.00  0.00    -0.005 A 
ATOM      4  C3  UNL d   1      -0.978  -5.990  -5.576  0.00  0.00     0.006 A 
ATOM      5  C4  UNL d   1      -2.279  -5.999  -5.071  0.00  0.00    -0.005 A 
ATOM      6  C5  UNL d   1      -2.499  -5.980  -3.690  0.00  0.00    -0.074 A 
ATOM      7  C6  UNL d   1      -3.890  -6.000  -3.130  0.00  0.00     0.077 C 
ATOM      8  C7  UNL d   1      -1.398  -5.958  -2.824  0.00  0.00    -0.001 A 
ENDROOT
TORSDOF 0
ENDMDL
