MODEL 1
REMARK minimizedAffinity -0.993208587
REMARK minimizedRMSD -1
REMARK  0 active torsions:
REMARK  status: ('A' for Active; 'I' for Inactive)
ROOT
ATOM      1  C   UNL d   1       3.312  -1.048   0.203  0.00  0.00     0.077 C 
ATOM      2  C1  UNL d   1       1.857  -0.851   0.508  0.00  0.00    -0.074 A 
ATOM      3  C2  UNL d   1       1.272   0.417   0.431  0.00  0.00    -0.005 A 
ATOM      4  C3  UNL d   1      -0.085   0.584   0.708  0.00  0.00     0.006 A 
ATOM      5  C4  UNL d   1      -0.869  -0.514   1.063  0.00  0.00    -0.005 A 
ATOM      6  C5  UNL d   1      -0.302  -1.790   1.144  0.00  0.00    -0.074 A 
ATOM      7  C6  UNL d   1      -1.133  -2.982   1.515  0.00  0.00     0.077 C 
ATOM      8  C7  UNL d   1       1.060  -1.950   0.857  0.00  0.00    -0.001 A 
ENDROOT
TORSDOF 0
ENDMDL
