MODEL 1
REMARK minimizedAffinity -0.330892295
REMARK minimizedRMSD -1
REMARK  0 active torsions:
REMARK  status: ('A' for Active; 'I' for Inactive)
ROOT
ATOM      1  C   UNL d   1       0.185   0.434  -2.572  0.00  0.00     0.077 C 
ATOM      2  C1  UNL d   1       0.355  -0.007  -1.149  0.00  0.00    -0.074 A 
ATOM      3  C2  UNL d   1       1.372   0.523  -0.348  0.00  0.00    -0.005 A 
ATOM      4  C3  UNL d   1       1.512   0.110   0.976  0.00  0.00     0.006 A 
ATOM      5  C4  UNL d   1       0.638  -0.837   1.513  0.00  0.00    -0.005 A 
ATOM      6  C5  UNL d   1      -0.385  -1.377   0.728  0.00  0.00    -0.074 A 
ATOM      7  C6  UNL d   1      -1.338  -2.388   1.293  0.00  0.00     0.077 C 
ATOM      8  C7  UNL d   1      -0.523  -0.952  -0.600  0.00  0.00    -0.001 A 
ENDROOT
TORSDOF 0
ENDMDL
