MODEL 1
REMARK minimizedAffinity 6.63425827
REMARK minimizedRMSD -1
REMARK  0 active torsions:
REMARK  status: ('A' for Active; 'I' for Inactive)
ROOT
ATOM      1  C   UNL d   1       4.268  -0.296   0.749  0.00  0.00     0.077 C 
ATOM      2  C1  UNL d   1       2.811  -0.636   0.647  0.00  0.00    -0.074 A 
ATOM      3  C2  UNL d   1       1.852   0.361   0.442  0.00  0.00    -0.005 A 
ATOM      4  C3  UNL d   1       0.502   0.029   0.340  0.00  0.00     0.006 A 
ATOM      5  C4  UNL d   1       0.096  -1.303   0.442  0.00  0.00    -0.005 A 
ATOM      6  C5  UNL d   1       1.041  -2.314   0.647  0.00  0.00    -0.074 A 
ATOM      7  C6  UNL d   1       0.623  -3.751   0.750  0.00  0.00     0.077 C 
ATOM      8  C7  UNL d   1       2.397  -1.972   0.741  0.00  0.00    -0.001 A 
ENDROOT
TORSDOF 0
ENDMDL
