MODEL 1
REMARK minimizedAffinity 3.74650431
REMARK minimizedRMSD -1
REMARK  0 active torsions:
REMARK  status: ('A' for Active; 'I' for Inactive)
ROOT
ATOM      1  C   UNL d   1      -1.350  -5.955  -1.810  0.00  0.00     0.077 C 
ATOM      2  C1  UNL d   1      -1.018  -5.976  -3.273  0.00  0.00    -0.074 A 
ATOM      3  C2  UNL d   1      -2.030  -5.990  -4.239  0.00  0.00    -0.005 A 
ATOM      4  C3  UNL d   1      -1.706  -5.999  -5.595  0.00  0.00     0.006 A 
ATOM      5  C4  UNL d   1      -0.370  -5.994  -5.999  0.00  0.00    -0.005 A 
ATOM      6  C5  UNL d   1       0.654  -5.979  -5.048  0.00  0.00    -0.074 A 
ATOM      7  C6  UNL d   1       2.095  -5.964  -5.465  0.00  0.00     0.077 C 
ATOM      8  C7  UNL d   1       0.321  -5.963  -3.686  0.00  0.00    -0.001 A 
ENDROOT
TORSDOF 0
ENDMDL
