MODEL 1
REMARK minimizedAffinity -0.382686317
REMARK minimizedRMSD -1
REMARK  0 active torsions:
REMARK  status: ('A' for Active; 'I' for Inactive)
ROOT
ATOM      1  C   UNL d   1       4.996  -0.229   1.154  0.00  0.00     0.077 C 
ATOM      2  C1  UNL d   1       3.567  -0.192   0.701  0.00  0.00    -0.074 A 
ATOM      3  C2  UNL d   1       3.070   0.898  -0.021  0.00  0.00    -0.005 A 
ATOM      4  C3  UNL d   1       1.741   0.914  -0.444  0.00  0.00     0.006 A 
ATOM      5  C4  UNL d   1       0.896  -0.157  -0.149  0.00  0.00    -0.005 A 
ATOM      6  C5  UNL d   1       1.376  -1.256   0.572  0.00  0.00    -0.074 A 
ATOM      7  C6  UNL d   1       0.485  -2.420   0.889  0.00  0.00     0.077 C 
ATOM      8  C7  UNL d   1       2.715  -1.268   0.987  0.00  0.00    -0.001 A 
ENDROOT
TORSDOF 0
ENDMDL
