MODEL 1
REMARK minimizedAffinity 6.41602039
REMARK minimizedRMSD -1
REMARK  0 active torsions:
REMARK  status: ('A' for Active; 'I' for Inactive)
ROOT
ATOM      1  C4' PXY d   1      -2.987   0.170   2.372  0.00  0.00     0.077 C 
ATOM      2  C1' PXY d   1       1.922   0.054  -0.679  0.00  0.00     0.077 C 
ATOM      3  C1  PXY d   1       0.628   0.089   0.111  0.00  0.00    -0.082 A 
ATOM      4  C2  PXY d   1       0.669   0.192   1.429  0.00  0.00     0.003 A 
ATOM      5  C3  PXY d   1      -0.490   0.192   2.161  0.00  0.00     0.003 A 
ATOM      6  C4  PXY d   1      -1.706   0.141   1.534  0.00  0.00    -0.082 A 
ATOM      7  C5  PXY d   1      -1.757   0.047   0.188  0.00  0.00     0.003 A 
ATOM      8  C6  PXY d   1      -0.567   0.006  -0.534  0.00  0.00     0.003 A 
ENDROOT
TORSDOF 0
ENDMDL
