MODEL 1
REMARK minimizedAffinity 6.94657707
REMARK minimizedRMSD -1
REMARK  0 active torsions:
REMARK  status: ('A' for Active; 'I' for Inactive)
ROOT
ATOM      1  C4' PXY d   1       1.755   0.432   1.129  0.00  0.00     0.077 C 
ATOM      2  C1' PXY d   1      -3.356  -0.649   3.602  0.00  0.00     0.077 C 
ATOM      3  C1  PXY d   1      -2.010  -0.366   2.966  0.00  0.00    -0.082 A 
ATOM      4  C2  PXY d   1      -1.957   0.237   1.789  0.00  0.00     0.003 A 
ATOM      5  C3  PXY d   1      -0.749   0.473   1.184  0.00  0.00     0.003 A 
ATOM      6  C4  PXY d   1       0.419   0.135   1.814  0.00  0.00    -0.082 A 
ATOM      7  C5  PXY d   1       0.373  -0.472   3.019  0.00  0.00     0.003 A 
ATOM      8  C6  PXY d   1      -0.864  -0.739   3.598  0.00  0.00     0.003 A 
ENDROOT
TORSDOF 0
ENDMDL
