MODEL 1
REMARK minimizedAffinity 2.00665545
REMARK minimizedRMSD -1
REMARK  0 active torsions:
REMARK  status: ('A' for Active; 'I' for Inactive)
ROOT
ATOM      1  C4' PXY d   1      -3.731  -1.504   3.599  0.00  0.00     0.077 C 
ATOM      2  C1' PXY d   1       0.984   0.773   1.149  0.00  0.00     0.077 C 
ATOM      3  C1  PXY d   1      -0.245   0.166   1.796  0.00  0.00    -0.082 A 
ATOM      4  C2  PXY d   1      -1.443   0.423   1.295  0.00  0.00     0.003 A 
ATOM      5  C3  PXY d   1      -2.567  -0.091   1.888  0.00  0.00     0.003 A 
ATOM      6  C4  PXY d   1      -2.462  -0.921   2.972  0.00  0.00    -0.082 A 
ATOM      7  C5  PXY d   1      -1.243  -1.196   3.482  0.00  0.00     0.003 A 
ATOM      8  C6  PXY d   1      -0.116  -0.631   2.891  0.00  0.00     0.003 A 
ENDROOT
TORSDOF 0
ENDMDL
