MODEL 1
REMARK minimizedAffinity 6.2890954
REMARK minimizedRMSD -1
REMARK  0 active torsions:
REMARK  status: ('A' for Active; 'I' for Inactive)
ROOT
ATOM      1  C4' PXY d   1       2.324   0.688  -1.462  0.00  0.00     0.077 C 
ATOM      2  C1' PXY d   1       4.081   4.077   2.879  0.00  0.00     0.077 C 
ATOM      3  C1  PXY d   1       3.628   3.194   1.732  0.00  0.00    -0.082 A 
ATOM      4  C2  PXY d   1       2.435   2.624   1.777  0.00  0.00     0.003 A 
ATOM      5  C3  PXY d   1       2.023   1.797   0.764  0.00  0.00     0.003 A 
ATOM      6  C4  PXY d   1       2.819   1.594  -0.332  0.00  0.00    -0.082 A 
ATOM      7  C5  PXY d   1       4.033   2.181  -0.390  0.00  0.00     0.003 A 
ATOM      8  C6  PXY d   1       4.450   2.984   0.668  0.00  0.00     0.003 A 
ENDROOT
TORSDOF 0
ENDMDL
