MODEL 1
REMARK minimizedAffinity 16.6417027
REMARK minimizedRMSD -1
REMARK  0 active torsions:
REMARK  status: ('A' for Active; 'I' for Inactive)
ROOT
ATOM      1  C4' PXY d   1       1.898   0.752  -3.129  0.00  0.00     0.077 C 
ATOM      2  C1' PXY d   1       3.417   2.840   2.043  0.00  0.00     0.077 C 
ATOM      3  C1  PXY d   1       3.014   2.282   0.692  0.00  0.00    -0.082 A 
ATOM      4  C2  PXY d   1       3.641   2.691  -0.398  0.00  0.00     0.003 A 
ATOM      5  C3  PXY d   1       3.268   2.220  -1.631  0.00  0.00     0.003 A 
ATOM      6  C4  PXY d   1       2.278   1.281  -1.743  0.00  0.00    -0.082 A 
ATOM      7  C5  PXY d   1       1.640   0.851  -0.634  0.00  0.00     0.003 A 
ATOM      8  C6  PXY d   1       2.006   1.371   0.604  0.00  0.00     0.003 A 
ENDROOT
TORSDOF 0
ENDMDL
