MODEL 1
REMARK minimizedAffinity 2.41917205
REMARK minimizedRMSD -1
REMARK  0 active torsions:
REMARK  status: ('A' for Active; 'I' for Inactive)
ROOT
ATOM      1  C4' PXY d   1      -2.834   0.629  -0.528  0.00  0.00     0.077 C 
ATOM      2  C1' PXY d   1      -0.714  -1.232   4.518  0.00  0.00     0.077 C 
ATOM      3  C1  PXY d   1      -1.258  -0.741   3.190  0.00  0.00    -0.082 A 
ATOM      4  C2  PXY d   1      -2.503  -0.300   3.117  0.00  0.00     0.003 A 
ATOM      5  C3  PXY d   1      -3.021   0.117   1.918  0.00  0.00     0.003 A 
ATOM      6  C4  PXY d   1      -2.240   0.133   0.793  0.00  0.00    -0.082 A 
ATOM      7  C5  PXY d   1      -0.965  -0.305   0.863  0.00  0.00     0.003 A 
ATOM      8  C6  PXY d   1      -0.471  -0.763   2.081  0.00  0.00     0.003 A 
ENDROOT
TORSDOF 0
ENDMDL
