MODEL 1
REMARK minimizedAffinity 7.98194599
REMARK minimizedRMSD -1
REMARK  0 active torsions:
REMARK  status: ('A' for Active; 'I' for Inactive)
ROOT
ATOM      1  C4' PXY d   1      -0.011  -0.205  -2.556  0.00  0.00     0.077 C 
ATOM      2  C1' PXY d   1      -1.817   0.346   2.908  0.00  0.00     0.077 C 
ATOM      3  C1  PXY d   1      -1.332   0.207   1.479  0.00  0.00    -0.082 A 
ATOM      4  C2  PXY d   1      -2.212   0.141   0.493  0.00  0.00     0.003 A 
ATOM      5  C3  PXY d   1      -1.792  -0.017  -0.803  0.00  0.00     0.003 A 
ATOM      6  C4  PXY d   1      -0.455  -0.055  -1.098  0.00  0.00    -0.082 A 
ATOM      7  C5  PXY d   1       0.449   0.021  -0.099  0.00  0.00     0.003 A 
ATOM      8  C6  PXY d   1       0.001   0.140   1.214  0.00  0.00     0.003 A 
ENDROOT
TORSDOF 0
ENDMDL
