MODEL 1
REMARK minimizedAffinity 6.34877491
REMARK minimizedRMSD -1
REMARK  0 active torsions:
REMARK  status: ('A' for Active; 'I' for Inactive)
ROOT
ATOM      1  C4' PXY d   1      -3.560  -1.139   4.058  0.00  0.00     0.077 C 
ATOM      2  C1' PXY d   1       0.845   0.240   0.578  0.00  0.00     0.077 C 
ATOM      3  C1  PXY d   1      -0.303  -0.131   1.496  0.00  0.00    -0.082 A 
ATOM      4  C2  PXY d   1      -1.542   0.185   1.154  0.00  0.00     0.003 A 
ATOM      5  C3  PXY d   1      -2.589  -0.115   1.988  0.00  0.00     0.003 A 
ATOM      6  C4  PXY d   1      -2.371  -0.793   3.158  0.00  0.00    -0.082 A 
ATOM      7  C5  PXY d   1      -1.111  -1.128   3.508  0.00  0.00     0.003 A 
ATOM      8  C6  PXY d   1      -0.058  -0.778   2.668  0.00  0.00     0.003 A 
ENDROOT
TORSDOF 0
ENDMDL
