MODEL 1
REMARK minimizedAffinity 0.746904731
REMARK minimizedRMSD -1
REMARK  0 active torsions:
REMARK  status: ('A' for Active; 'I' for Inactive)
ROOT
ATOM      1  C4' PXY d   1       0.765   1.191  -3.904  0.00  0.00     0.077 C 
ATOM      2  C1' PXY d   1       0.668  -0.030   1.745  0.00  0.00     0.077 C 
ATOM      3  C1  PXY d   1       0.682   0.285   0.262  0.00  0.00    -0.082 A 
ATOM      4  C2  PXY d   1       1.837   0.468  -0.357  0.00  0.00     0.003 A 
ATOM      5  C3  PXY d   1       1.866   0.785  -1.691  0.00  0.00     0.003 A 
ATOM      6  C4  PXY d   1       0.704   0.862  -2.410  0.00  0.00    -0.082 A 
ATOM      7  C5  PXY d   1      -0.478   0.666  -1.788  0.00  0.00     0.003 A 
ATOM      8  C6  PXY d   1      -0.488   0.386  -0.425  0.00  0.00     0.003 A 
ENDROOT
TORSDOF 0
ENDMDL
