MODEL 1
REMARK minimizedAffinity 7.5229249
REMARK minimizedRMSD -1
REMARK  0 active torsions:
REMARK  status: ('A' for Active; 'I' for Inactive)
ROOT
ATOM      1  C4' PXY d   1      -0.310  -0.996   4.696  0.00  0.00     0.077 C 
ATOM      2  C1' PXY d   1      -2.487   0.494  -0.448  0.00  0.00     0.077 C 
ATOM      3  C1  PXY d   1      -1.927   0.108   0.907  0.00  0.00    -0.082 A 
ATOM      4  C2  PXY d   1      -0.618  -0.010   1.064  0.00  0.00     0.003 A 
ATOM      5  C3  PXY d   1      -0.097  -0.390   2.274  0.00  0.00     0.003 A 
ATOM      6  C4  PXY d   1      -0.919  -0.599   3.349  0.00  0.00    -0.082 A 
ATOM      7  C5  PXY d   1      -2.255  -0.470   3.199  0.00  0.00     0.003 A 
ATOM      8  C6  PXY d   1      -2.767  -0.124   1.952  0.00  0.00     0.003 A 
ENDROOT
TORSDOF 0
ENDMDL
