MODEL 1
REMARK minimizedAffinity 10.6359644
REMARK minimizedRMSD -1
REMARK  0 active torsions:
REMARK  status: ('A' for Active; 'I' for Inactive)
ROOT
ATOM      1  C   UNL d   1      -0.839  -0.819   3.191  0.00  0.00    -0.002 A 
ATOM      2  C1  UNL d   1      -0.848  -1.931   2.361  0.00  0.00     0.010 A 
ATOM      3  C2  UNL d   1      -0.103  -1.941   1.180  0.00  0.00     0.041 A 
ATOM      4  C3  UNL d   1       0.660  -0.805   0.846  0.00  0.00    -0.075 A 
ATOM      5  S   UNL d   1       1.651  -0.591  -0.549  0.00  0.00     0.015 SA
ATOM      6  C4  UNL d   1       2.109   0.980  -0.075  0.00  0.00     0.022 A 
ATOM      7  C5  UNL d   1       1.530   1.349   1.116  0.00  0.00     0.026 A 
ATOM      8  C6  UNL d   1       0.686   0.326   1.667  0.00  0.00    -0.082 A 
ATOM      9  C7  UNL d   1      -0.081   0.306   2.856  0.00  0.00     0.045 A 
ENDROOT
TORSDOF 0
ENDMDL
