MODEL 1
REMARK minimizedAffinity 16.4440117
REMARK minimizedRMSD -1
REMARK  0 active torsions:
REMARK  status: ('A' for Active; 'I' for Inactive)
ROOT
ATOM      1  C   UNL d   1       4.975  -0.183  -3.182  0.00  0.00    -0.002 A 
ATOM      2  C1  UNL d   1       5.981   0.750  -3.392  0.00  0.00     0.010 A 
ATOM      3  C2  UNL d   1       6.000   1.948  -2.674  0.00  0.00     0.041 A 
ATOM      4  C3  UNL d   1       4.982   2.193  -1.731  0.00  0.00    -0.075 A 
ATOM      5  S   UNL d   1       4.803   3.589  -0.735  0.00  0.00     0.015 SA
ATOM      6  C4  UNL d   1       3.388   2.979  -0.007  0.00  0.00     0.022 A 
ATOM      7  C5  UNL d   1       3.046   1.742  -0.499  0.00  0.00     0.026 A 
ATOM      8  C6  UNL d   1       3.960   1.268  -1.501  0.00  0.00    -0.082 A 
ATOM      9  C7  UNL d   1       3.968   0.064  -2.245  0.00  0.00     0.045 A 
ENDROOT
TORSDOF 0
ENDMDL
