MODEL 1
REMARK minimizedAffinity 13.6670513
REMARK minimizedRMSD -1
REMARK  0 active torsions:
REMARK  status: ('A' for Active; 'I' for Inactive)
ROOT
ATOM      1  C   UNL d   1       1.506   4.777   5.077  0.00  0.00    -0.002 A 
ATOM      2  C1  UNL d   1       2.042   5.911   5.670  0.00  0.00     0.010 A 
ATOM      3  C2  UNL d   1       3.405   5.981   5.965  0.00  0.00     0.041 A 
ATOM      4  C3  UNL d   1       4.229   4.882   5.649  0.00  0.00    -0.075 A 
ATOM      5  S   UNL d   1       5.926   4.744   5.918  0.00  0.00     0.015 SA
ATOM      6  C4  UNL d   1       5.979   3.177   5.251  0.00  0.00     0.022 A 
ATOM      7  C5  UNL d   1       4.741   2.754   4.829  0.00  0.00     0.026 A 
ATOM      8  C6  UNL d   1       3.712   3.730   5.051  0.00  0.00    -0.082 A 
ATOM      9  C7  UNL d   1       2.326   3.689   4.765  0.00  0.00     0.045 A 
ENDROOT
TORSDOF 0
ENDMDL
