MODEL 1
REMARK minimizedAffinity 13.0353022
REMARK minimizedRMSD -1
REMARK  0 active torsions:
REMARK  status: ('A' for Active; 'I' for Inactive)
ROOT
ATOM      1  C   UNL d   1       5.294  -1.510  -4.051  0.00  0.00    -0.002 A 
ATOM      2  C1  UNL d   1       4.078  -1.721  -3.418  0.00  0.00     0.010 A 
ATOM      3  C2  UNL d   1       3.538  -0.750  -2.573  0.00  0.00     0.041 A 
ATOM      4  C3  UNL d   1       4.247   0.451  -2.375  0.00  0.00    -0.075 A 
ATOM      5  S   UNL d   1       3.780   1.783  -1.385  0.00  0.00     0.015 SA
ATOM      6  C4  UNL d   1       5.184   2.666  -1.780  0.00  0.00     0.022 A 
ATOM      7  C5  UNL d   1       6.000   1.976  -2.645  0.00  0.00     0.026 A 
ATOM      8  C6  UNL d   1       5.474   0.688  -3.002  0.00  0.00    -0.082 A 
ATOM      9  C7  UNL d   1       5.995  -0.317  -3.852  0.00  0.00     0.045 A 
ENDROOT
TORSDOF 0
ENDMDL
