MODEL 1
REMARK minimizedAffinity 12.8101931
REMARK minimizedRMSD -1
REMARK  0 active torsions:
REMARK  status: ('A' for Active; 'I' for Inactive)
ROOT
ATOM      1  C   UNL d   1       1.310   5.777   5.148  0.00  0.00    -0.002 A 
ATOM      2  C1  UNL d   1       1.348   5.060   3.960  0.00  0.00     0.010 A 
ATOM      3  C2  UNL d   1       2.553   4.540   3.483  0.00  0.00     0.041 A 
ATOM      4  C3  UNL d   1       3.730   4.754   4.227  0.00  0.00    -0.075 A 
ATOM      5  S   UNL d   1       5.319   4.211   3.837  0.00  0.00     0.015 SA
ATOM      6  C4  UNL d   1       5.985   4.917   5.238  0.00  0.00     0.022 A 
ATOM      7  C5  UNL d   1       5.032   5.556   5.996  0.00  0.00     0.026 A 
ATOM      8  C6  UNL d   1       3.717   5.472   5.426  0.00  0.00    -0.082 A 
ATOM      9  C7  UNL d   1       2.480   5.987   5.883  0.00  0.00     0.045 A 
ENDROOT
TORSDOF 0
ENDMDL
