MODEL 1
REMARK minimizedAffinity 9.74941254
REMARK minimizedRMSD -1
REMARK  0 active torsions:
REMARK  status: ('A' for Active; 'I' for Inactive)
ROOT
ATOM      1  C   UNL d   1      -1.935   3.549  -4.106  0.00  0.00    -0.002 A 
ATOM      2  C1  UNL d   1      -2.503   2.420  -4.677  0.00  0.00     0.010 A 
ATOM      3  C2  UNL d   1      -3.759   2.486  -5.285  0.00  0.00     0.041 A 
ATOM      4  C3  UNL d   1      -4.439   3.719  -5.310  0.00  0.00    -0.075 A 
ATOM      5  S   UNL d   1      -5.987   4.039  -6.000  0.00  0.00     0.015 SA
ATOM      6  C4  UNL d   1      -5.929   5.683  -5.553  0.00  0.00     0.022 A 
ATOM      7  C5  UNL d   1      -4.765   5.997  -4.893  0.00  0.00     0.026 A 
ATOM      8  C6  UNL d   1      -3.887   4.871  -4.742  0.00  0.00    -0.082 A 
ATOM      9  C7  UNL d   1      -2.613   4.771  -4.133  0.00  0.00     0.045 A 
ENDROOT
TORSDOF 0
ENDMDL
