MODEL 1
REMARK minimizedAffinity 21.0500813
REMARK minimizedRMSD -1
REMARK  0 active torsions:
REMARK  status: ('A' for Active; 'I' for Inactive)
ROOT
ATOM      1  C   UNL d   1       5.847   5.157   5.287  0.00  0.00    -0.002 A 
ATOM      2  C1  UNL d   1       5.716   4.498   4.073  0.00  0.00     0.010 A 
ATOM      3  C2  UNL d   1       4.462   4.347   3.479  0.00  0.00     0.041 A 
ATOM      4  C3  UNL d   1       3.330   4.876   4.130  0.00  0.00    -0.075 A 
ATOM      5  S   UNL d   1       1.694   4.812   3.590  0.00  0.00     0.015 SA
ATOM      6  C4  UNL d   1       1.131   5.658   4.958  0.00  0.00     0.022 A 
ATOM      7  C5  UNL d   1       2.153   5.990   5.816  0.00  0.00     0.026 A 
ATOM      8  C6  UNL d   1       3.437   5.545   5.353  0.00  0.00    -0.082 A 
ATOM      9  C7  UNL d   1       4.723   5.681   5.931  0.00  0.00     0.045 A 
ENDROOT
TORSDOF 0
ENDMDL
