MODEL 1
REMARK minimizedAffinity -2.49779797
REMARK minimizedRMSD -1
REMARK  0 active torsions:
REMARK  status: ('A' for Active; 'I' for Inactive)
ROOT
ATOM      1  C   UNL d   1      -3.044  -0.026  -0.846  0.00  0.00    -0.002 A 
ATOM      2  C1  UNL d   1      -3.313  -0.811   0.266  0.00  0.00     0.010 A 
ATOM      3  C2  UNL d   1      -2.276  -1.254   1.090  0.00  0.00     0.041 A 
ATOM      4  C3  UNL d   1      -0.952  -0.890   0.775  0.00  0.00    -0.075 A 
ATOM      5  S   UNL d   1       0.477  -1.315   1.640  0.00  0.00     0.015 SA
ATOM      6  C4  UNL d   1       1.477  -0.464   0.555  0.00  0.00     0.022 A 
ATOM      7  C5  UNL d   1       0.755   0.136  -0.450  0.00  0.00     0.026 A 
ATOM      8  C6  UNL d   1      -0.657  -0.099  -0.339  0.00  0.00    -0.082 A 
ATOM      9  C7  UNL d   1      -1.730   0.334  -1.155  0.00  0.00     0.045 A 
ENDROOT
TORSDOF 0
ENDMDL
