MODEL 1
REMARK minimizedAffinity -1.13697374
REMARK minimizedRMSD -1
REMARK  0 active torsions:
REMARK  status: ('A' for Active; 'I' for Inactive)
ROOT
ATOM      1  C   UNL d   1      -2.385  -0.640  -1.260  0.00  0.00    -0.002 A 
ATOM      2  C1  UNL d   1      -1.531   0.059  -2.102  0.00  0.00     0.010 A 
ATOM      3  C2  UNL d   1      -0.181   0.212  -1.776  0.00  0.00     0.041 A 
ATOM      4  C3  UNL d   1       0.300  -0.357  -0.581  0.00  0.00    -0.075 A 
ATOM      5  S   UNL d   1       1.914  -0.298   0.022  0.00  0.00     0.015 SA
ATOM      6  C4  UNL d   1       1.509  -1.201   1.409  0.00  0.00     0.022 A 
ATOM      7  C5  UNL d   1       0.178  -1.546   1.429  0.00  0.00     0.026 A 
ATOM      8  C6  UNL d   1      -0.540  -1.066   0.282  0.00  0.00    -0.082 A 
ATOM      9  C7  UNL d   1      -1.903  -1.203  -0.075  0.00  0.00     0.045 A 
ENDROOT
TORSDOF 0
ENDMDL
