MODEL 1
REMARK minimizedAffinity 0.479396015
REMARK minimizedRMSD -1
REMARK  0 active torsions:
REMARK  status: ('A' for Active; 'I' for Inactive)
ROOT
ATOM      1  C   UNL d   1      -2.736  -1.558   0.905  0.00  0.00    -0.002 A 
ATOM      2  C1  UNL d   1      -3.129  -1.808  -0.402  0.00  0.00     0.010 A 
ATOM      3  C2  UNL d   1      -2.356  -1.359  -1.474  0.00  0.00     0.041 A 
ATOM      4  C3  UNL d   1      -1.169  -0.649  -1.208  0.00  0.00    -0.075 A 
ATOM      5  S   UNL d   1      -0.062  -0.003  -2.362  0.00  0.00     0.015 SA
ATOM      6  C4  UNL d   1       0.958   0.618  -1.147  0.00  0.00     0.022 A 
ATOM      7  C5  UNL d   1       0.482   0.349   0.114  0.00  0.00     0.026 A 
ATOM      8  C6  UNL d   1      -0.752  -0.386   0.100  0.00  0.00    -0.082 A 
ATOM      9  C7  UNL d   1      -1.558  -0.854   1.166  0.00  0.00     0.045 A 
ENDROOT
TORSDOF 0
ENDMDL
