MODEL 1
REMARK minimizedAffinity 4.31395674
REMARK minimizedRMSD -1
REMARK  0 active torsions:
REMARK  status: ('A' for Active; 'I' for Inactive)
ROOT
ATOM      1  C   UNL d   1      -1.727   0.446  -2.316  0.00  0.00    -0.002 A 
ATOM      2  C1  UNL d   1      -0.505   1.023  -2.003  0.00  0.00     0.010 A 
ATOM      3  C2  UNL d   1       0.212   0.603  -0.881  0.00  0.00     0.041 A 
ATOM      4  C3  UNL d   1      -0.325  -0.417  -0.071  0.00  0.00    -0.075 A 
ATOM      5  S   UNL d   1       0.376  -1.092   1.352  0.00  0.00     0.015 SA
ATOM      6  C4  UNL d   1      -0.931  -2.163   1.577  0.00  0.00     0.022 A 
ATOM      7  C5  UNL d   1      -1.887  -2.022   0.600  0.00  0.00     0.026 A 
ATOM      8  C6  UNL d   1      -1.554  -1.014  -0.367  0.00  0.00    -0.082 A 
ATOM      9  C7  UNL d   1      -2.257  -0.566  -1.511  0.00  0.00     0.045 A 
ENDROOT
TORSDOF 0
ENDMDL
