MODEL 1
REMARK minimizedAffinity -1.97930467
REMARK minimizedRMSD -1
REMARK  0 active torsions:
REMARK  status: ('A' for Active; 'I' for Inactive)
ROOT
ATOM      1  C1  DEN d   1      -0.415   1.659  -1.617  0.00  0.00     0.130 A 
ATOM      2  C2  DEN d   1       0.396   0.607  -2.225  0.00  0.00    -0.031 A 
ATOM      3  C3  DEN d   1       0.987  -0.199  -1.139  0.00  0.00     0.027 A 
ATOM      4  C4  DEN d   1       0.722   0.072   1.413  0.00  0.00     0.027 A 
ATOM      5  C5  DEN d   1       0.141   0.829   2.406  0.00  0.00    -0.003 A 
ATOM      6  C6  DEN d   1      -0.632   1.926   2.132  0.00  0.00     0.001 A 
ATOM      7  C7  DEN d   1      -0.882   2.271   0.830  0.00  0.00     0.017 A 
ATOM      8  C8  DEN d   1      -0.294   1.518  -0.177  0.00  0.00    -0.094 A 
ATOM      9  C9  DEN d   1       0.475   0.405   0.120  0.00  0.00    -0.072 A 
ENDROOT
TORSDOF 0
ENDMDL
