MODEL 1
REMARK minimizedAffinity -0.652449131
REMARK minimizedRMSD -1
REMARK  0 active torsions:
REMARK  status: ('A' for Active; 'I' for Inactive)
ROOT
ATOM      1  C1  DEN d   1       0.236  -0.114  -0.679  0.00  0.00     0.130 A 
ATOM      2  C2  DEN d   1       0.313  -0.045   0.778  0.00  0.00    -0.031 A 
ATOM      3  C3  DEN d   1       0.063  -1.398   1.314  0.00  0.00     0.027 A 
ATOM      4  C4  DEN d   1      -0.430  -3.583   0.036  0.00  0.00     0.027 A 
ATOM      5  C5  DEN d   1      -0.608  -4.138  -1.212  0.00  0.00    -0.003 A 
ATOM      6  C6  DEN d   1      -0.551  -3.391  -2.359  0.00  0.00     0.001 A 
ATOM      7  C7  DEN d   1      -0.266  -2.053  -2.283  0.00  0.00     0.017 A 
ATOM      8  C8  DEN d   1      -0.093  -1.485  -1.028  0.00  0.00    -0.094 A 
ATOM      9  C9  DEN d   1      -0.142  -2.260   0.118  0.00  0.00    -0.072 A 
ENDROOT
TORSDOF 0
ENDMDL
