MODEL 1
REMARK minimizedAffinity -4.7830863
REMARK minimizedRMSD -1
REMARK  0 active torsions:
REMARK  status: ('A' for Active; 'I' for Inactive)
ROOT
ATOM      1  C1  DEN d   1       0.078   0.041   1.834  0.00  0.00     0.130 A 
ATOM      2  C2  DEN d   1       0.215  -1.079   0.908  0.00  0.00    -0.031 A 
ATOM      3  C3  DEN d   1      -0.009  -0.571  -0.460  0.00  0.00     0.027 A 
ATOM      4  C4  DEN d   1      -0.547   1.831  -1.231  0.00  0.00     0.027 A 
ATOM      5  C5  DEN d   1      -0.775   3.121  -0.807  0.00  0.00    -0.003 A 
ATOM      6  C6  DEN d   1      -0.767   3.466   0.518  0.00  0.00     0.001 A 
ATOM      7  C7  DEN d   1      -0.483   2.518   1.465  0.00  0.00     0.017 A 
ATOM      8  C8  DEN d   1      -0.260   1.213   1.046  0.00  0.00    -0.094 A 
ATOM      9  C9  DEN d   1      -0.260   0.886  -0.300  0.00  0.00    -0.072 A 
ENDROOT
TORSDOF 0
ENDMDL
