MODEL 1
REMARK minimizedAffinity -4.61978817
REMARK minimizedRMSD -1
REMARK  0 active torsions:
REMARK  status: ('A' for Active; 'I' for Inactive)
ROOT
ATOM      1  C1  DEN d   1       0.108  -0.547   0.670  0.00  0.00     0.130 A 
ATOM      2  C2  DEN d   1       0.425  -1.191  -0.602  0.00  0.00    -0.031 A 
ATOM      3  C3  DEN d   1       0.135  -0.229  -1.684  0.00  0.00     0.027 A 
ATOM      4  C4  DEN d   1      -0.766   2.182  -1.515  0.00  0.00     0.027 A 
ATOM      5  C5  DEN d   1      -1.195   3.161  -0.647  0.00  0.00    -0.003 A 
ATOM      6  C6  DEN d   1      -1.252   2.963   0.707  0.00  0.00     0.001 A 
ATOM      7  C7  DEN d   1      -0.830   1.773   1.237  0.00  0.00     0.017 A 
ATOM      8  C8  DEN d   1      -0.403   0.778   0.368  0.00  0.00    -0.094 A 
ATOM      9  C9  DEN d   1      -0.342   1.001  -0.997  0.00  0.00    -0.072 A 
ENDROOT
TORSDOF 0
ENDMDL
