MODEL 1
REMARK minimizedAffinity -6.19475365
REMARK minimizedRMSD -1
REMARK  0 active torsions:
REMARK  status: ('A' for Active; 'I' for Inactive)
ROOT
ATOM      1  C1  DEN d   1      -0.004   0.042  -0.978  0.00  0.00     0.130 A 
ATOM      2  C2  DEN d   1       0.667  -0.873  -0.058  0.00  0.00    -0.031 A 
ATOM      3  C3  DEN d   1       0.641  -0.266   1.288  0.00  0.00     0.027 A 
ATOM      4  C4  DEN d   1      -0.370   1.987   2.033  0.00  0.00     0.027 A 
ATOM      5  C5  DEN d   1      -1.033   3.116   1.606  0.00  0.00    -0.003 A 
ATOM      6  C6  DEN d   1      -1.367   3.313   0.292  0.00  0.00     0.001 A 
ATOM      7  C7  DEN d   1      -1.078   2.346  -0.634  0.00  0.00     0.017 A 
ATOM      8  C8  DEN d   1      -0.403   1.208  -0.212  0.00  0.00    -0.094 A 
ATOM      9  C9  DEN d   1      -0.085   1.022   1.123  0.00  0.00    -0.072 A 
ENDROOT
TORSDOF 0
ENDMDL
