MODEL 1
REMARK minimizedAffinity -6.81930065
REMARK minimizedRMSD -1
REMARK  0 active torsions:
REMARK  status: ('A' for Active; 'I' for Inactive)
ROOT
ATOM      1  C1  DEN d   1      -0.747   3.365  -0.367  0.00  0.00     0.130 A 
ATOM      2  C2  DEN d   1      -1.020   3.730   1.020  0.00  0.00    -0.031 A 
ATOM      3  C3  DEN d   1      -0.572   2.618   1.882  0.00  0.00     0.027 A 
ATOM      4  C4  DEN d   1       0.518   0.380   1.207  0.00  0.00     0.027 A 
ATOM      5  C5  DEN d   1       0.941  -0.387   0.144  0.00  0.00    -0.003 A 
ATOM      6  C6  DEN d   1       0.800   0.024  -1.155  0.00  0.00     0.001 A 
ATOM      7  C7  DEN d   1       0.264   1.256  -1.422  0.00  0.00     0.017 A 
ATOM      8  C8  DEN d   1      -0.171   2.032  -0.356  0.00  0.00    -0.094 A 
ATOM      9  C9  DEN d   1      -0.009   1.604   0.950  0.00  0.00    -0.072 A 
ENDROOT
TORSDOF 0
ENDMDL
