MODEL 1
REMARK minimizedAffinity -5.10588264
REMARK minimizedRMSD -1
REMARK  0 active torsions:
REMARK  status: ('A' for Active; 'I' for Inactive)
ROOT
ATOM      1  C1  DEN d   1      -0.143  -0.040   1.330  0.00  0.00     0.130 A 
ATOM      2  C2  DEN d   1       0.452  -0.646   0.142  0.00  0.00    -0.031 A 
ATOM      3  C3  DEN d   1       0.366   0.331  -0.961  0.00  0.00     0.027 A 
ATOM      4  C4  DEN d   1      -0.622   2.714  -0.944  0.00  0.00     0.027 A 
ATOM      5  C5  DEN d   1      -1.252   3.662  -0.169  0.00  0.00    -0.003 A 
ATOM      6  C6  DEN d   1      -1.584   3.433   1.140  0.00  0.00     0.001 A 
ATOM      7  C7  DEN d   1      -1.247   2.241   1.726  0.00  0.00     0.017 A 
ATOM      8  C8  DEN d   1      -0.618   1.277   0.949  0.00  0.00    -0.094 A 
ATOM      9  C9  DEN d   1      -0.280   1.533  -0.369  0.00  0.00    -0.072 A 
ENDROOT
TORSDOF 0
ENDMDL
