MODEL 1
REMARK minimizedAffinity -0.34504351
REMARK minimizedRMSD -1
REMARK  0 active torsions:
REMARK  status: ('A' for Active; 'I' for Inactive)
ROOT
ATOM      1  C1  BNZ d   1       1.620   0.800  -0.608  0.00  0.00     0.000 A 
ATOM      2  C2  BNZ d   1       0.339   1.273  -0.701  0.00  0.00     0.000 A 
ATOM      3  C3  BNZ d   1      -0.310   1.758   0.400  0.00  0.00     0.000 A 
ATOM      4  C4  BNZ d   1       0.308   1.733   1.598  0.00  0.00     0.000 A 
ATOM      5  C5  BNZ d   1       1.597   1.251   1.710  0.00  0.00     0.000 A 
ATOM      6  C6  BNZ d   1       2.261   0.799   0.593  0.00  0.00     0.000 A 
ENDROOT
TORSDOF 0
ENDMDL
