MODEL 1
REMARK minimizedAffinity 4.15219212
REMARK minimizedRMSD -1
REMARK  0 active torsions:
REMARK  status: ('A' for Active; 'I' for Inactive)
ROOT
ATOM      1  C1  BNZ d   1      -2.419  -0.352  -3.336  0.00  0.00     0.000 A 
ATOM      2  C2  BNZ d   1      -1.865   0.454  -4.294  0.00  0.00     0.000 A 
ATOM      3  C3  BNZ d   1      -2.654   1.205  -5.119  0.00  0.00     0.000 A 
ATOM      4  C4  BNZ d   1      -3.996   1.120  -5.012  0.00  0.00     0.000 A 
ATOM      5  C5  BNZ d   1      -4.570   0.305  -4.057  0.00  0.00     0.000 A 
ATOM      6  C6  BNZ d   1      -3.772  -0.420  -3.202  0.00  0.00     0.000 A 
ENDROOT
TORSDOF 0
ENDMDL
