MODEL 1
REMARK minimizedAffinity 0.790610492
REMARK minimizedRMSD -1
REMARK  0 active torsions:
REMARK  status: ('A' for Active; 'I' for Inactive)
ROOT
ATOM      1  C1  BNZ d   1      -4.980   3.383  -4.168  0.00  0.00     0.000 A 
ATOM      2  C2  BNZ d   1      -3.991   2.835  -4.940  0.00  0.00     0.000 A 
ATOM      3  C3  BNZ d   1      -3.955   1.489  -5.179  0.00  0.00     0.000 A 
ATOM      4  C4  BNZ d   1      -4.882   0.690  -4.614  0.00  0.00     0.000 A 
ATOM      5  C5  BNZ d   1      -5.880   1.226  -3.825  0.00  0.00     0.000 A 
ATOM      6  C6  BNZ d   1      -5.937   2.586  -3.619  0.00  0.00     0.000 A 
ENDROOT
TORSDOF 0
ENDMDL
