MODEL 1
REMARK minimizedAffinity 2.99290609
REMARK minimizedRMSD -1
REMARK  0 active torsions:
REMARK  status: ('A' for Active; 'I' for Inactive)
ROOT
ATOM      1  C1  BNZ d   1      -4.072   3.286  -4.571  0.00  0.00     0.000 A 
ATOM      2  C2  BNZ d   1      -3.812   2.187  -5.346  0.00  0.00     0.000 A 
ATOM      3  C3  BNZ d   1      -4.652   1.109  -5.336  0.00  0.00     0.000 A 
ATOM      4  C4  BNZ d   1      -5.727   1.114  -4.522  0.00  0.00     0.000 A 
ATOM      5  C5  BNZ d   1      -5.997   2.210  -3.727  0.00  0.00     0.000 A 
ATOM      6  C6  BNZ d   1      -5.171   3.310  -3.770  0.00  0.00     0.000 A 
ENDROOT
TORSDOF 0
ENDMDL
