MODEL 1
REMARK minimizedAffinity 3.23854566
REMARK minimizedRMSD -1
REMARK  0 active torsions:
REMARK  status: ('A' for Active; 'I' for Inactive)
ROOT
ATOM      1  C1  BNZ d   1       5.537   3.317  -0.711  0.00  0.00     0.000 A 
ATOM      2  C2  BNZ d   1       4.879   2.359  -1.435  0.00  0.00     0.000 A 
ATOM      3  C3  BNZ d   1       4.599   1.138  -0.888  0.00  0.00     0.000 A 
ATOM      4  C4  BNZ d   1       5.011   0.863   0.366  0.00  0.00     0.000 A 
ATOM      5  C5  BNZ d   1       5.684   1.815   1.106  0.00  0.00     0.000 A 
ATOM      6  C6  BNZ d   1       5.930   3.057   0.566  0.00  0.00     0.000 A 
ENDROOT
TORSDOF 0
ENDMDL
