MODEL 1
REMARK minimizedAffinity 7.2684226
REMARK minimizedRMSD -1
REMARK  0 active torsions:
REMARK  status: ('A' for Active; 'I' for Inactive)
ROOT
ATOM      1  C1  BNZ d   1      -3.976   0.063  -1.383  0.00  0.00     0.000 A 
ATOM      2  C2  BNZ d   1      -5.271   0.401  -1.091  0.00  0.00     0.000 A 
ATOM      3  C3  BNZ d   1      -5.994   1.196  -1.936  0.00  0.00     0.000 A 
ATOM      4  C4  BNZ d   1      -5.409   1.685  -3.049  0.00  0.00     0.000 A 
ATOM      5  C5  BNZ d   1      -4.102   1.362  -3.351  0.00  0.00     0.000 A 
ATOM      6  C6  BNZ d   1      -3.390   0.529  -2.519  0.00  0.00     0.000 A 
ENDROOT
TORSDOF 0
ENDMDL
