MODEL 1
REMARK minimizedAffinity 5.37235355
REMARK minimizedRMSD -1
REMARK  0 active torsions:
REMARK  status: ('A' for Active; 'I' for Inactive)
ROOT
ATOM      1  C1  BNZ d   1       4.929   1.046  -1.569  0.00  0.00     0.000 A 
ATOM      2  C2  BNZ d   1       3.710   0.624  -2.029  0.00  0.00     0.000 A 
ATOM      3  C3  BNZ d   1       2.888  -0.132  -1.241  0.00  0.00     0.000 A 
ATOM      4  C4  BNZ d   1       3.301  -0.496  -0.010  0.00  0.00     0.000 A 
ATOM      5  C5  BNZ d   1       4.531  -0.086   0.465  0.00  0.00     0.000 A 
ATOM      6  C6  BNZ d   1       5.339   0.707  -0.317  0.00  0.00     0.000 A 
ENDROOT
TORSDOF 0
ENDMDL
