MODEL 1
REMARK minimizedAffinity 3.19693565
REMARK minimizedRMSD -1
REMARK  0 active torsions:
REMARK  status: ('A' for Active; 'I' for Inactive)
ROOT
ATOM      1  C1  BNZ d   1      -1.078   0.969  -1.045  0.00  0.00     0.000 A 
ATOM      2  C2  BNZ d   1      -2.409   0.651  -1.029  0.00  0.00     0.000 A 
ATOM      3  C3  BNZ d   1      -3.199   0.994   0.032  0.00  0.00     0.000 A 
ATOM      4  C4  BNZ d   1      -2.650   1.620   1.093  0.00  0.00     0.000 A 
ATOM      5  C5  BNZ d   1      -1.307   1.940   1.096  0.00  0.00     0.000 A 
ATOM      6  C6  BNZ d   1      -0.523   1.627   0.010  0.00  0.00     0.000 A 
ENDROOT
TORSDOF 0
ENDMDL
