MODEL 1
REMARK minimizedAffinity -1.06685638
REMARK minimizedRMSD -1
REMARK  1 active torsions:
REMARK  status: ('A' for Active; 'I' for Inactive)
REMARK    1  A    between atoms: C1_2  and  C2_3 
ROOT
ATOM      1  C2  UNL d   1      -0.617   0.784   2.222  0.00  0.00    -0.081 A 
ATOM      2  C3  UNL d   1      -0.680   0.825   0.824  0.00  0.00     0.006 A 
ATOM      3  C4  UNL d   1      -0.030  -0.144   0.056  0.00  0.00     0.002 A 
ATOM      4  C5  UNL d   1       0.688  -1.174   0.673  0.00  0.00    -0.080 A 
ATOM      5  C6  UNL d   1       1.365  -2.238  -0.138  0.00  0.00     0.076 C 
ATOM      6  C7  UNL d   1       0.766  -1.206   2.070  0.00  0.00     0.002 A 
ATOM      7  C8  UNL d   1       0.116  -0.236   2.838  0.00  0.00     0.006 A 
ENDROOT
BRANCH   1   8
ATOM      8  C1  UNL d   1      -1.370   1.790   3.053  0.00  0.00     0.054 C 
ATOM      9  C   UNL d   1      -2.182   1.108   4.145  0.00  0.00     0.018 C 
ENDBRANCH   1   8
TORSDOF 1
ENDMDL
