MODEL 1
REMARK minimizedAffinity -0.735878289
REMARK minimizedRMSD -1
REMARK  1 active torsions:
REMARK  status: ('A' for Active; 'I' for Inactive)
REMARK    1  A    between atoms: C1_2  and  C2_3 
ROOT
ATOM      1  C2  UNL d   1      -1.645  -0.946  -0.087  0.00  0.00    -0.081 A 
ATOM      2  C3  UNL d   1      -0.652   0.037   0.010  0.00  0.00     0.006 A 
ATOM      3  C4  UNL d   1      -0.602   0.886   1.119  0.00  0.00     0.002 A 
ATOM      4  C5  UNL d   1      -1.538   0.761   2.151  0.00  0.00    -0.080 A 
ATOM      5  C6  UNL d   1      -1.477   1.646   3.360  0.00  0.00     0.076 C 
ATOM      6  C7  UNL d   1      -2.540  -0.209   2.046  0.00  0.00     0.002 A 
ATOM      7  C8  UNL d   1      -2.591  -1.058   0.937  0.00  0.00     0.006 A 
ENDROOT
BRANCH   1   8
ATOM      8  C1  UNL d   1      -1.663  -1.905  -1.250  0.00  0.00     0.054 C 
ATOM      9  C   UNL d   1      -2.771  -2.937  -1.099  0.00  0.00     0.018 C 
ENDBRANCH   1   8
TORSDOF 1
ENDMDL
