MODEL 1
REMARK minimizedAffinity -4.7670188
REMARK minimizedRMSD -1
REMARK  1 active torsions:
REMARK  status: ('A' for Active; 'I' for Inactive)
REMARK    1  A    between atoms: C1_2  and  C2_3 
ROOT
ATOM      1  C2  UNL d   1      -2.576  -1.325   0.153  0.00  0.00    -0.081 A 
ATOM      2  C3  UNL d   1      -3.367  -1.159   1.297  0.00  0.00     0.006 A 
ATOM      3  C4  UNL d   1      -2.966  -0.291   2.315  0.00  0.00     0.002 A 
ATOM      4  C5  UNL d   1      -1.772   0.430   2.204  0.00  0.00    -0.080 A 
ATOM      5  C6  UNL d   1      -1.344   1.387   3.277  0.00  0.00     0.076 C 
ATOM      6  C7  UNL d   1      -0.973   0.250   1.070  0.00  0.00     0.002 A 
ATOM      7  C8  UNL d   1      -1.374  -0.617   0.051  0.00  0.00     0.006 A 
ENDROOT
BRANCH   1   8
ATOM      8  C1  UNL d   1      -3.038  -2.210  -0.976  0.00  0.00     0.054 C 
ATOM      9  C   UNL d   1      -2.774  -3.678  -0.672  0.00  0.00     0.018 C 
ENDBRANCH   1   8
TORSDOF 1
ENDMDL
