MODEL 1
REMARK minimizedAffinity -1.6689862
REMARK minimizedRMSD -1
REMARK  1 active torsions:
REMARK  status: ('A' for Active; 'I' for Inactive)
REMARK    1  A    between atoms: C1_2  and  C2_3 
ROOT
ATOM      1  C2  UNL d   1      -0.843  -0.796  -0.170  0.00  0.00    -0.081 A 
ATOM      2  C3  UNL d   1      -0.336   0.510  -0.188  0.00  0.00     0.006 A 
ATOM      3  C4  UNL d   1       1.022   0.739  -0.419  0.00  0.00     0.002 A 
ATOM      4  C5  UNL d   1       1.895  -0.331  -0.643  0.00  0.00    -0.080 A 
ATOM      5  C6  UNL d   1       3.350  -0.097  -0.922  0.00  0.00     0.076 C 
ATOM      6  C7  UNL d   1       1.392  -1.636  -0.607  0.00  0.00     0.002 A 
ATOM      7  C8  UNL d   1       0.034  -1.866  -0.376  0.00  0.00     0.006 A 
ENDROOT
BRANCH   1   8
ATOM      8  C1  UNL d   1      -2.318  -1.043   0.015  0.00  0.00     0.054 C 
ATOM      9  C   UNL d   1      -2.801  -2.189  -0.863  0.00  0.00     0.018 C 
ENDBRANCH   1   8
TORSDOF 1
ENDMDL
