MODEL 1
REMARK minimizedAffinity -3.69154191
REMARK minimizedRMSD -1
REMARK  1 active torsions:
REMARK  status: ('A' for Active; 'I' for Inactive)
REMARK    1  A    between atoms: C1_2  and  C2_3 
ROOT
ATOM      1  C2  UNL d   1       1.341  -1.126  -0.749  0.00  0.00    -0.081 A 
ATOM      2  C3  UNL d   1       1.038  -2.391  -1.268  0.00  0.00     0.006 A 
ATOM      3  C4  UNL d   1      -0.271  -2.876  -1.234  0.00  0.00     0.002 A 
ATOM      4  C5  UNL d   1      -1.301  -2.102  -0.687  0.00  0.00    -0.080 A 
ATOM      5  C6  UNL d   1      -2.716  -2.598  -0.672  0.00  0.00     0.076 C 
ATOM      6  C7  UNL d   1      -0.996  -0.846  -0.153  0.00  0.00     0.002 A 
ATOM      7  C8  UNL d   1       0.313  -0.360  -0.186  0.00  0.00     0.006 A 
ENDROOT
BRANCH   1   8
ATOM      8  C1  UNL d   1       2.740  -0.573  -0.843  0.00  0.00     0.054 C 
ATOM      9  C   UNL d   1       2.990   0.073  -2.198  0.00  0.00     0.018 C 
ENDBRANCH   1   8
TORSDOF 1
ENDMDL
