MODEL 1
REMARK minimizedAffinity -3.06376481
REMARK minimizedRMSD -1
REMARK  1 active torsions:
REMARK  status: ('A' for Active; 'I' for Inactive)
REMARK    1  A    between atoms: C1_2  and  C2_3 
ROOT
ATOM      1  C2  UNL d   1      -1.617  -2.053  -0.470  0.00  0.00    -0.081 A 
ATOM      2  C3  UNL d   1      -1.153  -0.733  -0.418  0.00  0.00     0.006 A 
ATOM      3  C4  UNL d   1       0.184  -0.465  -0.113  0.00  0.00     0.002 A 
ATOM      4  C5  UNL d   1       1.079  -1.510   0.137  0.00  0.00    -0.080 A 
ATOM      5  C6  UNL d   1       2.523  -1.237   0.436  0.00  0.00     0.076 C 
ATOM      6  C7  UNL d   1       0.611  -2.828   0.102  0.00  0.00     0.002 A 
ATOM      7  C8  UNL d   1      -0.726  -3.097  -0.202  0.00  0.00     0.006 A 
ENDROOT
BRANCH   1   8
ATOM      8  C1  UNL d   1      -3.043  -2.349  -0.862  0.00  0.00     0.054 C 
ATOM      9  C   UNL d   1      -3.275  -3.845  -1.016  0.00  0.00     0.018 C 
ENDBRANCH   1   8
TORSDOF 1
ENDMDL
