MODEL 1
REMARK minimizedAffinity 1.28556967
REMARK minimizedRMSD -1
REMARK  1 active torsions:
REMARK  status: ('A' for Active; 'I' for Inactive)
REMARK    1  A    between atoms: C1_2  and  C2_3 
ROOT
ATOM      1  C2  UNL d   1       4.650   2.144   4.611  0.00  0.00    -0.081 A 
ATOM      2  C3  UNL d   1       5.820   2.881   4.830  0.00  0.00     0.006 A 
ATOM      3  C4  UNL d   1       5.999   4.124   4.218  0.00  0.00     0.002 A 
ATOM      4  C5  UNL d   1       5.008   4.653   3.384  0.00  0.00    -0.080 A 
ATOM      5  C6  UNL d   1       5.175   6.000   2.745  0.00  0.00     0.076 C 
ATOM      6  C7  UNL d   1       3.847   3.909   3.151  0.00  0.00     0.002 A 
ATOM      7  C8  UNL d   1       3.668   2.666   3.762  0.00  0.00     0.006 A 
ENDROOT
BRANCH   1   8
ATOM      8  C1  UNL d   1       4.426   0.833   5.321  0.00  0.00     0.054 C 
ATOM      9  C   UNL d   1       5.699   0.347   6.000  0.00  0.00     0.018 C 
ENDBRANCH   1   8
TORSDOF 1
ENDMDL
