MODEL 1
REMARK minimizedAffinity 1.3174361
REMARK minimizedRMSD -1
REMARK  1 active torsions:
REMARK  status: ('A' for Active; 'I' for Inactive)
REMARK    1  A    between atoms: C1_2  and  C2_3 
ROOT
ATOM      1  C2  UNL d   1      -2.001  -0.646   3.054  0.00  0.00    -0.081 A 
ATOM      2  C3  UNL d   1      -1.230  -0.378   1.916  0.00  0.00     0.006 A 
ATOM      3  C4  UNL d   1      -1.610  -0.878   0.669  0.00  0.00     0.002 A 
ATOM      4  C5  UNL d   1      -2.771  -1.647   0.536  0.00  0.00    -0.080 A 
ATOM      5  C6  UNL d   1      -3.208  -2.164  -0.802  0.00  0.00     0.076 C 
ATOM      6  C7  UNL d   1      -3.532  -1.930   1.676  0.00  0.00     0.002 A 
ATOM      7  C8  UNL d   1      -3.152  -1.431   2.923  0.00  0.00     0.006 A 
ENDROOT
BRANCH   1   8
ATOM      8  C1  UNL d   1      -1.628  -0.055   4.389  0.00  0.00     0.054 C 
ATOM      9  C   UNL d   1      -1.411   1.448   4.288  0.00  0.00     0.018 C 
ENDBRANCH   1   8
TORSDOF 1
ENDMDL
