MODEL 1
REMARK minimizedAffinity -5.23354149
REMARK minimizedRMSD -1
REMARK  1 active torsions:
REMARK  status: ('A' for Active; 'I' for Inactive)
REMARK    1  A    between atoms: C1_2  and  C2_3 
ROOT
ATOM      1  C2  UNL d   1       5.349   1.932   4.074  0.00  0.00    -0.081 A 
ATOM      2  C3  UNL d   1       5.183   2.222   2.714  0.00  0.00     0.006 A 
ATOM      3  C4  UNL d   1       5.269   3.539   2.255  0.00  0.00     0.002 A 
ATOM      4  C5  UNL d   1       5.531   4.585   3.146  0.00  0.00    -0.080 A 
ATOM      5  C6  UNL d   1       5.656   5.999   2.662  0.00  0.00     0.076 C 
ATOM      6  C7  UNL d   1       5.680   4.297   4.507  0.00  0.00     0.002 A 
ATOM      7  C8  UNL d   1       5.593   2.981   4.966  0.00  0.00     0.006 A 
ENDROOT
BRANCH   1   8
ATOM      8  C1  UNL d   1       5.320   0.506   4.562  0.00  0.00     0.054 C 
ATOM      9  C   UNL d   1       4.828   0.424   6.000  0.00  0.00     0.018 C 
ENDBRANCH   1   8
TORSDOF 1
ENDMDL
