MODEL 1
REMARK minimizedAffinity -4.6989007
REMARK minimizedRMSD -1
REMARK  1 active torsions:
REMARK  status: ('A' for Active; 'I' for Inactive)
REMARK    1  A    between atoms: C1_2  and  C2_3 
ROOT
ATOM      1  C2  UNL d   1       5.696   1.622   3.280  0.00  0.00    -0.081 A 
ATOM      2  C3  UNL d   1       5.999   1.086   4.537  0.00  0.00     0.006 A 
ATOM      3  C4  UNL d   1       5.893  -0.288   4.766  0.00  0.00     0.002 A 
ATOM      4  C5  UNL d   1       5.490  -1.149   3.740  0.00  0.00    -0.080 A 
ATOM      5  C6  UNL d   1       5.402  -2.630   3.963  0.00  0.00     0.076 C 
ATOM      6  C7  UNL d   1       5.170  -0.612   2.488  0.00  0.00     0.002 A 
ATOM      7  C8  UNL d   1       5.275   0.762   2.260  0.00  0.00     0.006 A 
ENDROOT
BRANCH   1   8
ATOM      8  C1  UNL d   1       5.871   3.095   3.012  0.00  0.00     0.054 C 
ATOM      9  C   UNL d   1       5.998   3.375   1.521  0.00  0.00     0.018 C 
ENDBRANCH   1   8
TORSDOF 1
ENDMDL
