MODEL 1
REMARK minimizedAffinity 10.0568905
REMARK minimizedRMSD -1
REMARK  1 active torsions:
REMARK  status: ('A' for Active; 'I' for Inactive)
REMARK    1  A    between atoms: C1_2  and  C2_3 
ROOT
ATOM      1  C2  UNL d   1       5.383   1.494   1.454  0.00  0.00    -0.073 A 
ATOM      2  C3  UNL d   1       4.240   2.234   1.778  0.00  0.00    -0.002 A 
ATOM      3  C4  UNL d   1       3.676   3.104   0.845  0.00  0.00     0.004 A 
ATOM      4  C5  UNL d   1       4.242   3.238  -0.423  0.00  0.00    -0.004 A 
ATOM      5  C6  UNL d   1       5.377   2.498  -0.770  0.00  0.00    -0.075 A 
ATOM      6  C7  UNL d   1       6.000   2.632  -2.128  0.00  0.00     0.076 C 
ATOM      7  C8  UNL d   1       5.940   1.628   0.174  0.00  0.00     0.001 A 
ENDROOT
BRANCH   1   8
ATOM      8  C1  UNL d   1       5.992   0.549   2.457  0.00  0.00     0.053 C 
ATOM      9  C   UNL d   1       4.939  -0.104   3.338  0.00  0.00     0.018 C 
ENDBRANCH   1   8
TORSDOF 1
ENDMDL
