MODEL 1
REMARK minimizedAffinity 15.7029228
REMARK minimizedRMSD -1
REMARK  1 active torsions:
REMARK  status: ('A' for Active; 'I' for Inactive)
REMARK    1  A    between atoms: C1_2  and  C2_3 
ROOT
ATOM      1  C2  UNL d   1      -3.762   2.936  -5.404  0.00  0.00    -0.073 A 
ATOM      2  C3  UNL d   1      -3.743   2.090  -4.289  0.00  0.00    -0.002 A 
ATOM      3  C4  UNL d   1      -2.529   1.680  -3.736  0.00  0.00     0.004 A 
ATOM      4  C5  UNL d   1      -1.324   2.116  -4.287  0.00  0.00    -0.004 A 
ATOM      5  C6  UNL d   1      -1.323   2.970  -5.394  0.00  0.00    -0.075 A 
ATOM      6  C7  UNL d   1      -0.035   3.446  -6.000  0.00  0.00     0.076 C 
ATOM      7  C8  UNL d   1      -2.546   3.376  -5.945  0.00  0.00     0.001 A 
ENDROOT
BRANCH   1   8
ATOM      8  C1  UNL d   1      -5.071   3.386  -6.000  0.00  0.00     0.053 C 
ATOM      9  C   UNL d   1      -5.458   4.781  -5.536  0.00  0.00     0.018 C 
ENDBRANCH   1   8
TORSDOF 1
ENDMDL
