MODEL 1
REMARK minimizedAffinity 20.4255314
REMARK minimizedRMSD -1
REMARK  1 active torsions:
REMARK  status: ('A' for Active; 'I' for Inactive)
REMARK    1  A    between atoms: C1_2  and  C2_3 
ROOT
ATOM      1  C2  UNL d   1      -1.345  -1.824   0.022  0.00  0.00    -0.073 A 
ATOM      2  C3  UNL d   1      -0.797  -3.034   0.463  0.00  0.00    -0.002 A 
ATOM      3  C4  UNL d   1      -0.338  -3.977  -0.457  0.00  0.00     0.004 A 
ATOM      4  C5  UNL d   1      -0.415  -3.718  -1.826  0.00  0.00    -0.004 A 
ATOM      5  C6  UNL d   1      -0.949  -2.510  -2.286  0.00  0.00    -0.075 A 
ATOM      6  C7  UNL d   1      -1.041  -2.217  -3.755  0.00  0.00     0.076 C 
ATOM      7  C8  UNL d   1      -1.411  -1.569  -1.356  0.00  0.00     0.001 A 
ENDROOT
BRANCH   1   8
ATOM      8  C1  UNL d   1      -1.837  -0.800   1.012  0.00  0.00     0.053 C 
ATOM      9  C   UNL d   1      -2.310  -1.441   2.307  0.00  0.00     0.018 C 
ENDBRANCH   1   8
TORSDOF 1
ENDMDL
