MODEL 1
REMARK minimizedAffinity 4.62163544
REMARK minimizedRMSD -1
REMARK  1 active torsions:
REMARK  status: ('A' for Active; 'I' for Inactive)
REMARK    1  A    between atoms: C1_2  and  C2_3 
ROOT
ATOM      1  C2  UNL d   1       3.846   1.675   3.829  0.00  0.00    -0.073 A 
ATOM      2  C3  UNL d   1       4.783   0.642   3.713  0.00  0.00    -0.002 A 
ATOM      3  C4  UNL d   1       5.299   0.295   2.464  0.00  0.00     0.004 A 
ATOM      4  C5  UNL d   1       4.890   0.981   1.320  0.00  0.00    -0.004 A 
ATOM      5  C6  UNL d   1       3.963   2.024   1.417  0.00  0.00    -0.075 A 
ATOM      6  C7  UNL d   1       3.511   2.770   0.196  0.00  0.00     0.076 C 
ATOM      7  C8  UNL d   1       3.447   2.364   2.675  0.00  0.00     0.001 A 
ENDROOT
BRANCH   1   8
ATOM      8  C1  UNL d   1       3.290   2.057   5.176  0.00  0.00     0.053 C 
ATOM      9  C   UNL d   1       4.019   3.250   5.776  0.00  0.00     0.018 C 
ENDBRANCH   1   8
TORSDOF 1
ENDMDL
