MODEL 1
REMARK minimizedAffinity 14.2890062
REMARK minimizedRMSD -1
REMARK  1 active torsions:
REMARK  status: ('A' for Active; 'I' for Inactive)
REMARK    1  A    between atoms: C1_2  and  C2_3 
ROOT
ATOM      1  C2  UNL d   1      -2.403  -0.970   1.554  0.00  0.00    -0.073 A 
ATOM      2  C3  UNL d   1      -2.437  -1.426   2.877  0.00  0.00    -0.002 A 
ATOM      3  C4  UNL d   1      -2.566  -0.521   3.931  0.00  0.00     0.004 A 
ATOM      4  C5  UNL d   1      -2.669   0.846   3.675  0.00  0.00    -0.004 A 
ATOM      5  C6  UNL d   1      -2.650   1.320   2.359  0.00  0.00    -0.075 A 
ATOM      6  C7  UNL d   1      -2.758   2.788   2.066  0.00  0.00     0.076 C 
ATOM      7  C8  UNL d   1      -2.517   0.406   1.306  0.00  0.00     0.001 A 
ENDROOT
BRANCH   1   8
ATOM      8  C1  UNL d   1      -2.271  -1.944   0.412  0.00  0.00     0.053 C 
ATOM      9  C   UNL d   1      -1.848  -1.257  -0.877  0.00  0.00     0.018 C 
ENDBRANCH   1   8
TORSDOF 1
ENDMDL
