MODEL 1
REMARK minimizedAffinity 6.87276459
REMARK minimizedRMSD -1
REMARK  1 active torsions:
REMARK  status: ('A' for Active; 'I' for Inactive)
REMARK    1  A    between atoms: C1_2  and  C2_3 
ROOT
ATOM      1  C2  UNL d   1      -5.170   5.683  -1.280  0.00  0.00    -0.073 A 
ATOM      2  C3  UNL d   1      -3.773   5.760  -1.310  0.00  0.00    -0.002 A 
ATOM      3  C4  UNL d   1      -3.101   5.905  -2.524  0.00  0.00     0.004 A 
ATOM      4  C5  UNL d   1      -3.817   5.983  -3.718  0.00  0.00    -0.004 A 
ATOM      5  C6  UNL d   1      -5.214   5.919  -3.708  0.00  0.00    -0.075 A 
ATOM      6  C7  UNL d   1      -6.000   5.999  -4.984  0.00  0.00     0.076 C 
ATOM      7  C8  UNL d   1      -5.882   5.770  -2.485  0.00  0.00     0.001 A 
ENDROOT
BRANCH   1   8
ATOM      8  C1  UNL d   1      -5.901   5.532   0.029  0.00  0.00     0.053 C 
ATOM      9  C   UNL d   1      -5.453   4.295   0.792  0.00  0.00     0.018 C 
ENDBRANCH   1   8
TORSDOF 1
ENDMDL
