MODEL 1
REMARK minimizedAffinity 4.98770094
REMARK minimizedRMSD -1
REMARK  1 active torsions:
REMARK  status: ('A' for Active; 'I' for Inactive)
REMARK    1  A    between atoms: C1_2  and  C2_3 
ROOT
ATOM      1  C2  UNL d   1      -0.985  -3.973   1.677  0.00  0.00    -0.073 A 
ATOM      2  C3  UNL d   1      -1.739  -3.288   2.636  0.00  0.00    -0.002 A 
ATOM      3  C4  UNL d   1      -2.413  -2.114   2.296  0.00  0.00     0.004 A 
ATOM      4  C5  UNL d   1      -2.345  -1.618   0.994  0.00  0.00    -0.004 A 
ATOM      5  C6  UNL d   1      -1.606  -2.295   0.019  0.00  0.00    -0.075 A 
ATOM      6  C7  UNL d   1      -1.521  -1.773  -1.386  0.00  0.00     0.076 C 
ATOM      7  C8  UNL d   1      -0.930  -3.472   0.369  0.00  0.00     0.001 A 
ENDROOT
BRANCH   1   8
ATOM      8  C1  UNL d   1      -0.261  -5.245   2.038  0.00  0.00     0.053 C 
ATOM      9  C   UNL d   1      -0.946  -5.987   3.174  0.00  0.00     0.018 C 
ENDBRANCH   1   8
TORSDOF 1
ENDMDL
