MODEL 1
REMARK minimizedAffinity 9.68494892
REMARK minimizedRMSD -1
REMARK  1 active torsions:
REMARK  status: ('A' for Active; 'I' for Inactive)
REMARK    1  A    between atoms: C1_2  and  C2_3 
ROOT
ATOM      1  C2  UNL d   1       5.134   3.034   0.958  0.00  0.00    -0.073 A 
ATOM      2  C3  UNL d   1       5.845   1.859   0.690  0.00  0.00    -0.002 A 
ATOM      3  C4  UNL d   1       6.000   0.887   1.679  0.00  0.00     0.004 A 
ATOM      4  C5  UNL d   1       5.441   1.077   2.943  0.00  0.00    -0.004 A 
ATOM      5  C6  UNL d   1       4.718   2.240   3.227  0.00  0.00    -0.075 A 
ATOM      6  C7  UNL d   1       4.112   2.460   4.582  0.00  0.00     0.076 C 
ATOM      7  C8  UNL d   1       4.569   3.212   2.229  0.00  0.00     0.001 A 
ENDROOT
BRANCH   1   8
ATOM      8  C1  UNL d   1       4.959   4.083  -0.109  0.00  0.00     0.053 C 
ATOM      9  C   UNL d   1       5.435   5.451   0.352  0.00  0.00     0.018 C 
ENDBRANCH   1   8
TORSDOF 1
ENDMDL
