MODEL 1
REMARK minimizedAffinity 14.7394466
REMARK minimizedRMSD -1
REMARK  1 active torsions:
REMARK  status: ('A' for Active; 'I' for Inactive)
REMARK    1  A    between atoms: C1_2  and  C2_3 
ROOT
ATOM      1  C2  UNL d   1       4.257   1.750   3.520  0.00  0.00    -0.073 A 
ATOM      2  C3  UNL d   1       5.348   0.887   3.371  0.00  0.00    -0.002 A 
ATOM      3  C4  UNL d   1       6.000   0.781   2.141  0.00  0.00     0.004 A 
ATOM      4  C5  UNL d   1       5.573   1.541   1.052  0.00  0.00    -0.004 A 
ATOM      5  C6  UNL d   1       4.492   2.418   1.185  0.00  0.00    -0.075 A 
ATOM      6  C7  UNL d   1       4.019   3.240   0.023  0.00  0.00     0.076 C 
ATOM      7  C8  UNL d   1       3.840   2.516   2.422  0.00  0.00     0.001 A 
ENDROOT
BRANCH   1   8
ATOM      8  C1  UNL d   1       3.554   1.872   4.847  0.00  0.00     0.053 C 
ATOM      9  C   UNL d   1       4.044   3.071   5.644  0.00  0.00     0.018 C 
ENDBRANCH   1   8
TORSDOF 1
ENDMDL
