MODEL 1
REMARK minimizedAffinity 11.9571323
REMARK minimizedRMSD -1
REMARK  1 active torsions:
REMARK  status: ('A' for Active; 'I' for Inactive)
REMARK    1  A    between atoms: C1_2  and  C2_3 
ROOT
ATOM      1  C2  UNL d   1      -3.491  -0.472   5.454  0.00  0.00    -0.073 A 
ATOM      2  C3  UNL d   1      -3.910  -1.365   4.461  0.00  0.00    -0.002 A 
ATOM      3  C4  UNL d   1      -3.031  -2.328   3.963  0.00  0.00     0.004 A 
ATOM      4  C5  UNL d   1      -1.729  -2.413   4.457  0.00  0.00    -0.004 A 
ATOM      5  C6  UNL d   1      -1.296  -1.537   5.458  0.00  0.00    -0.075 A 
ATOM      6  C7  UNL d   1       0.102  -1.614   5.998  0.00  0.00     0.076 C 
ATOM      7  C8  UNL d   1      -2.183  -0.571   5.951  0.00  0.00     0.001 A 
ENDROOT
BRANCH   1   8
ATOM      8  C1  UNL d   1      -4.438   0.565   6.000  0.00  0.00     0.053 C 
ATOM      9  C   UNL d   1      -3.822   1.955   6.000  0.00  0.00     0.018 C 
ENDBRANCH   1   8
TORSDOF 1
ENDMDL
