MODEL 1
REMARK minimizedAffinity 0.0198075864
REMARK minimizedRMSD -1
REMARK  1 active torsions:
REMARK  status: ('A' for Active; 'I' for Inactive)
REMARK    1  A    between atoms: C1_2  and  C2_3 
ROOT
ATOM      1  C2  UNL d   1       1.338   3.486  -1.359  0.00  0.00    -0.081 A 
ATOM      2  C3  UNL d   1       0.991   2.926  -0.124  0.00  0.00     0.006 A 
ATOM      3  C4  UNL d   1       0.849   1.542   0.011  0.00  0.00     0.002 A 
ATOM      4  C5  UNL d   1       1.059   0.697  -1.084  0.00  0.00    -0.080 A 
ATOM      5  C6  UNL d   1       0.940  -0.791  -0.945  0.00  0.00     0.076 C 
ATOM      6  C7  UNL d   1       1.389   1.259  -2.322  0.00  0.00     0.002 A 
ATOM      7  C8  UNL d   1       1.530   2.642  -2.458  0.00  0.00     0.006 A 
ENDROOT
BRANCH   1   8
ATOM      8  C1  UNL d   1       1.556   4.972  -1.492  0.00  0.00     0.054 C 
ATOM      9  C   UNL d   1       1.615   5.647  -0.129  0.00  0.00     0.018 C 
ENDBRANCH   1   8
TORSDOF 1
ENDMDL
