MODEL 1
REMARK minimizedAffinity -2.6178298
REMARK minimizedRMSD -1
REMARK  1 active torsions:
REMARK  status: ('A' for Active; 'I' for Inactive)
REMARK    1  A    between atoms: C1_2  and  C2_3 
ROOT
ATOM      1  C2  UNL d   1       1.250   1.631  -0.266  0.00  0.00    -0.081 A 
ATOM      2  C3  UNL d   1       1.416   2.173  -1.546  0.00  0.00     0.006 A 
ATOM      3  C4  UNL d   1       1.617   3.546  -1.712  0.00  0.00     0.002 A 
ATOM      4  C5  UNL d   1       1.664   4.396  -0.602  0.00  0.00    -0.080 A 
ATOM      5  C6  UNL d   1       1.909   5.867  -0.765  0.00  0.00     0.076 C 
ATOM      6  C7  UNL d   1       1.480   3.857   0.675  0.00  0.00     0.002 A 
ATOM      7  C8  UNL d   1       1.278   2.485   0.842  0.00  0.00     0.006 A 
ENDROOT
BRANCH   1   8
ATOM      8  C1  UNL d   1       1.097   0.143  -0.078  0.00  0.00     0.054 C 
ATOM      9  C   UNL d   1       0.621  -0.530  -1.357  0.00  0.00     0.018 C 
ENDBRANCH   1   8
TORSDOF 1
ENDMDL
