MODEL 1
REMARK minimizedAffinity 1.46611142
REMARK minimizedRMSD -1
REMARK  1 active torsions:
REMARK  status: ('A' for Active; 'I' for Inactive)
REMARK    1  A    between atoms: C1_2  and  C2_3 
ROOT
ATOM      1  C2  UNL d   1       1.417   1.868   0.228  0.00  0.00    -0.081 A 
ATOM      2  C3  UNL d   1       1.248   0.478   0.238  0.00  0.00     0.006 A 
ATOM      3  C4  UNL d   1       1.216  -0.240  -0.960  0.00  0.00     0.002 A 
ATOM      4  C5  UNL d   1       1.360   0.418  -2.186  0.00  0.00    -0.080 A 
ATOM      5  C6  UNL d   1       1.358  -0.345  -3.477  0.00  0.00     0.076 C 
ATOM      6  C7  UNL d   1       1.511   1.808  -2.197  0.00  0.00     0.002 A 
ATOM      7  C8  UNL d   1       1.543   2.527  -1.000  0.00  0.00     0.006 A 
ENDROOT
BRANCH   1   8
ATOM      8  C1  UNL d   1       1.516   2.638   1.520  0.00  0.00     0.054 C 
ATOM      9  C   UNL d   1       2.154   1.797   2.617  0.00  0.00     0.018 C 
ENDBRANCH   1   8
TORSDOF 1
ENDMDL
