MODEL 1
REMARK minimizedAffinity -1.5833602
REMARK minimizedRMSD -1
REMARK  1 active torsions:
REMARK  status: ('A' for Active; 'I' for Inactive)
REMARK    1  A    between atoms: C1_2  and  C2_3 
ROOT
ATOM      1  C2  UNL d   1       1.260   1.412   0.253  0.00  0.00    -0.081 A 
ATOM      2  C3  UNL d   1       0.718   0.183  -0.143  0.00  0.00     0.006 A 
ATOM      3  C4  UNL d   1       0.697  -0.180  -1.492  0.00  0.00     0.002 A 
ATOM      4  C5  UNL d   1       1.226   0.675  -2.465  0.00  0.00    -0.080 A 
ATOM      5  C6  UNL d   1       1.238   0.284  -3.913  0.00  0.00     0.076 C 
ATOM      6  C7  UNL d   1       1.753   1.910  -2.071  0.00  0.00     0.002 A 
ATOM      7  C8  UNL d   1       1.773   2.273  -0.723  0.00  0.00     0.006 A 
ENDROOT
BRANCH   1   8
ATOM      8  C1  UNL d   1       1.342   1.778   1.713  0.00  0.00     0.054 C 
ATOM      9  C   UNL d   1       1.144   0.558   2.602  0.00  0.00     0.018 C 
ENDBRANCH   1   8
TORSDOF 1
ENDMDL
