MODEL 1
REMARK minimizedAffinity 11.3686228
REMARK minimizedRMSD -1
REMARK  1 active torsions:
REMARK  status: ('A' for Active; 'I' for Inactive)
REMARK    1  A    between atoms: C1_2  and  C2_3 
ROOT
ATOM      1  C2  UNL d   1      -3.291   2.210   3.964  0.00  0.00    -0.081 A 
ATOM      2  C3  UNL d   1      -4.395   1.800   3.206  0.00  0.00     0.006 A 
ATOM      3  C4  UNL d   1      -4.564   2.258   1.897  0.00  0.00     0.002 A 
ATOM      4  C5  UNL d   1      -3.630   3.125   1.322  0.00  0.00    -0.080 A 
ATOM      5  C6  UNL d   1      -3.784   3.600  -0.093  0.00  0.00     0.076 C 
ATOM      6  C7  UNL d   1      -2.536   3.549   2.085  0.00  0.00     0.002 A 
ATOM      7  C8  UNL d   1      -2.367   3.093   3.394  0.00  0.00     0.006 A 
ENDROOT
BRANCH   1   8
ATOM      8  C1  UNL d   1      -3.071   1.668   5.353  0.00  0.00     0.054 C 
ATOM      9  C   UNL d   1      -1.891   0.708   5.392  0.00  0.00     0.018 C 
ENDBRANCH   1   8
TORSDOF 1
ENDMDL
