MODEL 1
REMARK minimizedAffinity 1.46928203
REMARK minimizedRMSD -1
REMARK  1 active torsions:
REMARK  status: ('A' for Active; 'I' for Inactive)
REMARK    1  A    between atoms: C1_2  and  C2_3 
ROOT
ATOM      1  C2  UNL d   1       1.473  -0.937  -0.993  0.00  0.00    -0.081 A 
ATOM      2  C3  UNL d   1       0.649  -1.333  -2.054  0.00  0.00     0.006 A 
ATOM      3  C4  UNL d   1       0.021  -2.580  -2.036  0.00  0.00     0.002 A 
ATOM      4  C5  UNL d   1       0.199  -3.449  -0.954  0.00  0.00    -0.080 A 
ATOM      5  C6  UNL d   1      -0.494  -4.778  -0.908  0.00  0.00     0.076 C 
ATOM      6  C7  UNL d   1       1.036  -3.061   0.098  0.00  0.00     0.002 A 
ATOM      7  C8  UNL d   1       1.665  -1.814   0.080  0.00  0.00     0.006 A 
ENDROOT
BRANCH   1   8
ATOM      8  C1  UNL d   1       2.100   0.434  -0.979  0.00  0.00     0.054 C 
ATOM      9  C   UNL d   1       1.147   1.484  -1.532  0.00  0.00     0.018 C 
ENDBRANCH   1   8
TORSDOF 1
ENDMDL
