MODEL 1
REMARK minimizedAffinity -3.65942979
REMARK minimizedRMSD -1
REMARK  1 active torsions:
REMARK  status: ('A' for Active; 'I' for Inactive)
REMARK    1  A    between atoms: C1_2  and  C2_3 
ROOT
ATOM      1  C2  UNL d   1       0.932   1.125  -0.187  0.00  0.00    -0.081 A 
ATOM      2  C3  UNL d   1       1.167   1.534  -1.506  0.00  0.00     0.006 A 
ATOM      3  C4  UNL d   1       1.354   2.885  -1.806  0.00  0.00     0.002 A 
ATOM      4  C5  UNL d   1       1.317   3.849  -0.792  0.00  0.00    -0.080 A 
ATOM      5  C6  UNL d   1       1.546   5.300  -1.096  0.00  0.00     0.076 C 
ATOM      6  C7  UNL d   1       1.064   3.443   0.523  0.00  0.00     0.002 A 
ATOM      7  C8  UNL d   1       0.877   2.092   0.823  0.00  0.00     0.006 A 
ENDROOT
BRANCH   1   8
ATOM      8  C1  UNL d   1       0.794  -0.338   0.149  0.00  0.00     0.054 C 
ATOM      9  C   UNL d   1       0.651  -1.183  -1.108  0.00  0.00     0.018 C 
ENDBRANCH   1   8
TORSDOF 1
ENDMDL
