MODEL 1
REMARK minimizedAffinity -5.13849163
REMARK minimizedRMSD -1
REMARK  1 active torsions:
REMARK  status: ('A' for Active; 'I' for Inactive)
REMARK    1  A    between atoms: C1_2  and  C2_3 
ROOT
ATOM      1  C2  UNL d   1       1.674   4.161  -0.490  0.00  0.00    -0.081 A 
ATOM      2  C3  UNL d   1       1.684   3.437  -1.688  0.00  0.00     0.006 A 
ATOM      3  C4  UNL d   1       1.383   2.073  -1.694  0.00  0.00     0.002 A 
ATOM      4  C5  UNL d   1       1.061   1.412  -0.503  0.00  0.00    -0.080 A 
ATOM      5  C6  UNL d   1       0.708  -0.045  -0.499  0.00  0.00     0.076 C 
ATOM      6  C7  UNL d   1       1.069   2.132   0.697  0.00  0.00     0.002 A 
ATOM      7  C8  UNL d   1       1.370   3.496   0.703  0.00  0.00     0.006 A 
ENDROOT
BRANCH   1   8
ATOM      8  C1  UNL d   1       1.934   5.646  -0.490  0.00  0.00     0.054 C 
ATOM      9  C   UNL d   1       3.146   5.996  -1.342  0.00  0.00     0.018 C 
ENDBRANCH   1   8
TORSDOF 1
ENDMDL
