MODEL 1
REMARK minimizedAffinity -2.82713866
REMARK minimizedRMSD -1
REMARK  1 active torsions:
REMARK  status: ('A' for Active; 'I' for Inactive)
REMARK    1  A    between atoms: C1_2  and  C2_3 
ROOT
ATOM      1  C2  UNL d   1       1.382   3.985  -0.616  0.00  0.00    -0.081 A 
ATOM      2  C3  UNL d   1       1.412   3.093   0.464  0.00  0.00     0.006 A 
ATOM      3  C4  UNL d   1       1.305   1.717   0.248  0.00  0.00     0.002 A 
ATOM      4  C5  UNL d   1       1.174   1.209  -1.049  0.00  0.00    -0.080 A 
ATOM      5  C6  UNL d   1       1.088  -0.267  -1.296  0.00  0.00     0.076 C 
ATOM      6  C7  UNL d   1       1.126   2.101  -2.126  0.00  0.00     0.002 A 
ATOM      7  C8  UNL d   1       1.233   3.477  -1.911  0.00  0.00     0.006 A 
ENDROOT
BRANCH   1   8
ATOM      8  C1  UNL d   1       1.563   5.464  -0.392  0.00  0.00     0.054 C 
ATOM      9  C   UNL d   1       2.756   6.000  -1.170  0.00  0.00     0.018 C 
ENDBRANCH   1   8
TORSDOF 1
ENDMDL
