MODEL 1
REMARK minimizedAffinity 8.67419815
REMARK minimizedRMSD -1
REMARK  1 active torsions:
REMARK  status: ('A' for Active; 'I' for Inactive)
REMARK    1  A    between atoms: C1_2  and  C2_3 
ROOT
ATOM      1  C2  UNL d   1       0.229  -1.107  -1.070  0.00  0.00    -0.081 A 
ATOM      2  C3  UNL d   1       0.832  -1.600   0.093  0.00  0.00     0.006 A 
ATOM      3  C4  UNL d   1       1.567  -0.751   0.924  0.00  0.00     0.002 A 
ATOM      4  C5  UNL d   1       1.704   0.605   0.611  0.00  0.00    -0.080 A 
ATOM      5  C6  UNL d   1       2.464   1.534   1.510  0.00  0.00     0.076 C 
ATOM      6  C7  UNL d   1       1.116   1.095  -0.561  0.00  0.00     0.002 A 
ATOM      7  C8  UNL d   1       0.382   0.246  -1.392  0.00  0.00     0.006 A 
ENDROOT
BRANCH   1   8
ATOM      8  C1  UNL d   1      -0.618  -2.006  -1.935  0.00  0.00     0.054 C 
ATOM      9  C   UNL d   1      -0.903  -3.331  -1.242  0.00  0.00     0.018 C 
ENDBRANCH   1   8
TORSDOF 1
ENDMDL
