MODEL 1
REMARK minimizedAffinity -0.22155644
REMARK minimizedRMSD -1
REMARK  1 active torsions:
REMARK  status: ('A' for Active; 'I' for Inactive)
REMARK    1  A    between atoms: C1_2  and  C2_3 
ROOT
ATOM      1  C2  UNL d   1       1.207  -0.328  -2.328  0.00  0.00    -0.081 A 
ATOM      2  C3  UNL d   1       0.983   1.022  -2.626  0.00  0.00     0.006 A 
ATOM      3  C4  UNL d   1       0.888   1.967  -1.601  0.00  0.00     0.002 A 
ATOM      4  C5  UNL d   1       1.023   1.579  -0.263  0.00  0.00    -0.080 A 
ATOM      5  C6  UNL d   1       0.953   2.587   0.845  0.00  0.00     0.076 C 
ATOM      6  C7  UNL d   1       1.229   0.228   0.035  0.00  0.00     0.002 A 
ATOM      7  C8  UNL d   1       1.323  -0.717  -0.990  0.00  0.00     0.006 A 
ENDROOT
BRANCH   1   8
ATOM      8  C1  UNL d   1       1.374  -1.338  -3.434  0.00  0.00     0.054 C 
ATOM      9  C   UNL d   1       1.741  -0.665  -4.749  0.00  0.00     0.018 C 
ENDBRANCH   1   8
TORSDOF 1
ENDMDL
