MODEL 1
REMARK minimizedAffinity -0.528379142
REMARK minimizedRMSD -1
REMARK  1 active torsions:
REMARK  status: ('A' for Active; 'I' for Inactive)
REMARK    1  A    between atoms: C1_2  and  C2_3 
ROOT
ATOM      1  C2  UNL d   1       1.608   3.025  -1.294  0.00  0.00    -0.081 A 
ATOM      2  C3  UNL d   1       1.398   2.882   0.083  0.00  0.00     0.006 A 
ATOM      3  C4  UNL d   1       1.147   1.623   0.634  0.00  0.00     0.002 A 
ATOM      4  C5  UNL d   1       1.109   0.486  -0.181  0.00  0.00    -0.080 A 
ATOM      5  C6  UNL d   1       0.871  -0.875   0.402  0.00  0.00     0.076 C 
ATOM      6  C7  UNL d   1       1.301   0.632  -1.559  0.00  0.00     0.002 A 
ATOM      7  C8  UNL d   1       1.551   1.890  -2.111  0.00  0.00     0.006 A 
ENDROOT
BRANCH   1   8
ATOM      8  C1  UNL d   1       1.943   4.372  -1.882  0.00  0.00     0.054 C 
ATOM      9  C   UNL d   1       1.951   5.456  -0.814  0.00  0.00     0.018 C 
ENDBRANCH   1   8
TORSDOF 1
ENDMDL
