MODEL 1
REMARK minimizedAffinity -1.7440424
REMARK minimizedRMSD -1
REMARK  1 active torsions:
REMARK  status: ('A' for Active; 'I' for Inactive)
REMARK    1  A    between atoms: C1_2  and  C2_3 
ROOT
ATOM      1  C2  UNL d   1       0.991   1.678   0.810  0.00  0.00    -0.081 A 
ATOM      2  C3  UNL d   1       0.929   0.606  -0.089  0.00  0.00     0.006 A 
ATOM      3  C4  UNL d   1       0.986   0.833  -1.466  0.00  0.00     0.002 A 
ATOM      4  C5  UNL d   1       1.112   2.133  -1.967  0.00  0.00    -0.080 A 
ATOM      5  C6  UNL d   1       1.204   2.388  -3.442  0.00  0.00     0.076 C 
ATOM      6  C7  UNL d   1       1.156   3.206  -1.069  0.00  0.00     0.002 A 
ATOM      7  C8  UNL d   1       1.099   2.979   0.308  0.00  0.00     0.006 A 
ENDROOT
BRANCH   1   8
ATOM      8  C1  UNL d   1       0.996   1.431   2.297  0.00  0.00     0.054 C 
ATOM      9  C   UNL d   1       1.809   2.489   3.031  0.00  0.00     0.018 C 
ENDBRANCH   1   8
TORSDOF 1
ENDMDL
