MODEL 1
REMARK minimizedAffinity 1.02171791
REMARK minimizedRMSD -1
REMARK  1 active torsions:
REMARK  status: ('A' for Active; 'I' for Inactive)
REMARK    1  A    between atoms: C1_2  and  C2_3 
ROOT
ATOM      1  C2  UNL d   1      -2.047   0.249   4.687  0.00  0.00    -0.081 A 
ATOM      2  C3  UNL d   1      -2.705   1.484   4.673  0.00  0.00     0.006 A 
ATOM      3  C4  UNL d   1      -3.978   1.602   4.111  0.00  0.00     0.002 A 
ATOM      4  C5  UNL d   1      -4.617   0.486   3.560  0.00  0.00    -0.080 A 
ATOM      5  C6  UNL d   1      -5.996   0.593   2.980  0.00  0.00     0.076 C 
ATOM      6  C7  UNL d   1      -3.952  -0.745   3.558  0.00  0.00     0.002 A 
ATOM      7  C8  UNL d   1      -2.679  -0.863   4.120  0.00  0.00     0.006 A 
ENDROOT
BRANCH   1   8
ATOM      8  C1  UNL d   1      -0.701   0.105   5.351  0.00  0.00     0.054 C 
ATOM      9  C   UNL d   1      -0.548  -1.264   6.000  0.00  0.00     0.018 C 
ENDBRANCH   1   8
TORSDOF 1
ENDMDL
