MODEL 1
REMARK minimizedAffinity 3.04398847
REMARK minimizedRMSD -1
REMARK  1 active torsions:
REMARK  status: ('A' for Active; 'I' for Inactive)
REMARK    1  A    between atoms: C1_2  and  C2_3 
ROOT
ATOM      1  C2  UNL d   1      -0.069  -5.351  -4.140  0.00  0.00    -0.076 A 
ATOM      2  C3  UNL d   1      -0.234  -5.860  -5.439  0.00  0.00     0.004 A 
ATOM      3  C4  UNL d   1      -1.503  -5.999  -6.000  0.00  0.00    -0.003 A 
ATOM      4  C5  UNL d   1      -2.627  -5.631  -5.269  0.00  0.00     0.000 A 
ATOM      5  C6  UNL d   1      -2.481  -5.108  -3.985  0.00  0.00     0.000 A 
ATOM      6  C7  UNL d   1      -1.208  -4.946  -3.411  0.00  0.00    -0.073 A 
ATOM      7  C8  UNL d   1      -1.109  -4.382  -2.020  0.00  0.00     0.078 C 
ENDROOT
BRANCH   1   8
ATOM      8  C1  UNL d   1       1.330  -5.248  -3.574  0.00  0.00     0.053 C 
ATOM      9  C   UNL d   1       2.354  -5.997  -4.412  0.00  0.00     0.018 C 
ENDBRANCH   1   8
TORSDOF 1
ENDMDL
