MODEL 1
REMARK minimizedAffinity 10.9858246
REMARK minimizedRMSD -1
REMARK  1 active torsions:
REMARK  status: ('A' for Active; 'I' for Inactive)
REMARK    1  A    between atoms: C1_2  and  C2_3 
ROOT
ATOM      1  C2  UNL d   1       4.075   2.240  -0.138  0.00  0.00    -0.076 A 
ATOM      2  C3  UNL d   1       4.790   3.359  -0.600  0.00  0.00     0.004 A 
ATOM      3  C4  UNL d   1       5.743   3.983   0.202  0.00  0.00    -0.003 A 
ATOM      4  C5  UNL d   1       5.999   3.497   1.480  0.00  0.00     0.000 A 
ATOM      5  C6  UNL d   1       5.313   2.377   1.948  0.00  0.00     0.000 A 
ATOM      6  C7  UNL d   1       4.359   1.727   1.146  0.00  0.00    -0.073 A 
ATOM      7  C8  UNL d   1       3.644   0.527   1.704  0.00  0.00     0.078 C 
ENDROOT
BRANCH   1   8
ATOM      8  C1  UNL d   1       3.034   1.621  -1.042  0.00  0.00     0.053 C 
ATOM      9  C   UNL d   1       2.731   2.484  -2.258  0.00  0.00     0.018 C 
ENDBRANCH   1   8
TORSDOF 1
ENDMDL
