MODEL 1
REMARK minimizedAffinity 14.5036011
REMARK minimizedRMSD -1
REMARK  1 active torsions:
REMARK  status: ('A' for Active; 'I' for Inactive)
REMARK    1  A    between atoms: C1_2  and  C2_3 
ROOT
ATOM      1  C2  UNL d   1      -3.084   0.056   1.826  0.00  0.00    -0.076 A 
ATOM      2  C3  UNL d   1      -2.579  -0.999   1.046  0.00  0.00     0.004 A 
ATOM      3  C4  UNL d   1      -1.325  -1.548   1.308  0.00  0.00    -0.003 A 
ATOM      4  C5  UNL d   1      -0.556  -1.053   2.355  0.00  0.00     0.000 A 
ATOM      5  C6  UNL d   1      -1.049  -0.019   3.150  0.00  0.00     0.000 A 
ATOM      6  C7  UNL d   1      -2.318   0.536   2.910  0.00  0.00    -0.073 A 
ATOM      7  C8  UNL d   1      -2.797   1.653   3.796  0.00  0.00     0.078 C 
ENDROOT
BRANCH   1   8
ATOM      8  C1  UNL d   1      -4.439   0.630   1.478  0.00  0.00     0.053 C 
ATOM      9  C   UNL d   1      -4.793   0.440   0.011  0.00  0.00     0.018 C 
ENDBRANCH   1   8
TORSDOF 1
ENDMDL
