MODEL 1
REMARK minimizedAffinity 13.3264809
REMARK minimizedRMSD -1
REMARK  1 active torsions:
REMARK  status: ('A' for Active; 'I' for Inactive)
REMARK    1  A    between atoms: C1_2  and  C2_3 
ROOT
ATOM      1  C2  UNL d   1       4.082   1.686  -0.444  0.00  0.00    -0.076 A 
ATOM      2  C3  UNL d   1       5.335   2.286  -0.660  0.00  0.00     0.004 A 
ATOM      3  C4  UNL d   1       5.979   2.987   0.358  0.00  0.00    -0.003 A 
ATOM      4  C5  UNL d   1       5.380   3.101   1.608  0.00  0.00     0.000 A 
ATOM      5  C6  UNL d   1       4.145   2.497   1.844  0.00  0.00     0.000 A 
ATOM      6  C7  UNL d   1       3.490   1.773   0.834  0.00  0.00    -0.073 A 
ATOM      7  C8  UNL d   1       2.157   1.148   1.143  0.00  0.00     0.078 C 
ENDROOT
BRANCH   1   8
ATOM      8  C1  UNL d   1       3.419   0.961  -1.594  0.00  0.00     0.053 C 
ATOM      9  C   UNL d   1       2.684   1.906  -2.532  0.00  0.00     0.018 C 
ENDBRANCH   1   8
TORSDOF 1
ENDMDL
