MODEL 1
REMARK minimizedAffinity 2.93256474
REMARK minimizedRMSD -1
REMARK  1 active torsions:
REMARK  status: ('A' for Active; 'I' for Inactive)
REMARK    1  A    between atoms: C1_2  and  C2_3 
ROOT
ATOM      1  C2  UNL d   1      -3.486   0.980   3.167  0.00  0.00    -0.076 A 
ATOM      2  C3  UNL d   1      -4.362   0.852   2.075  0.00  0.00     0.004 A 
ATOM      3  C4  UNL d   1      -4.165  -0.134   1.109  0.00  0.00    -0.003 A 
ATOM      4  C5  UNL d   1      -3.091  -1.009   1.221  0.00  0.00     0.000 A 
ATOM      5  C6  UNL d   1      -2.222  -0.908   2.307  0.00  0.00     0.000 A 
ATOM      6  C7  UNL d   1      -2.415   0.070   3.298  0.00  0.00    -0.073 A 
ATOM      7  C8  UNL d   1      -1.445   0.137   4.445  0.00  0.00     0.078 C 
ENDROOT
BRANCH   1   8
ATOM      8  C1  UNL d   1      -3.734   2.085   4.168  0.00  0.00     0.053 C 
ATOM      9  C   UNL d   1      -5.012   1.875   4.965  0.00  0.00     0.018 C 
ENDBRANCH   1   8
TORSDOF 1
ENDMDL
