MODEL 1
REMARK minimizedAffinity 18.2007656
REMARK minimizedRMSD -1
REMARK  1 active torsions:
REMARK  status: ('A' for Active; 'I' for Inactive)
REMARK    1  A    between atoms: C1_2  and  C2_3 
ROOT
ATOM      1  C2  UNL d   1       3.527   3.888  -3.560  0.00  0.00    -0.076 A 
ATOM      2  C3  UNL d   1       4.049   4.622  -2.481  0.00  0.00     0.004 A 
ATOM      3  C4  UNL d   1       5.274   5.279  -2.585  0.00  0.00    -0.003 A 
ATOM      4  C5  UNL d   1       5.997   5.213  -3.771  0.00  0.00     0.000 A 
ATOM      5  C6  UNL d   1       5.486   4.505  -4.858  0.00  0.00     0.000 A 
ATOM      6  C7  UNL d   1       4.245   3.850  -4.775  0.00  0.00    -0.073 A 
ATOM      7  C8  UNL d   1       3.744   3.096  -5.976  0.00  0.00     0.078 C 
ENDROOT
BRANCH   1   8
ATOM      8  C1  UNL d   1       2.207   3.174  -3.379  0.00  0.00     0.053 C 
ATOM      9  C   UNL d   1       2.178   2.312  -2.126  0.00  0.00     0.018 C 
ENDBRANCH   1   8
TORSDOF 1
ENDMDL
