MODEL 1
REMARK minimizedAffinity 8.09963894
REMARK minimizedRMSD -1
REMARK  1 active torsions:
REMARK  status: ('A' for Active; 'I' for Inactive)
REMARK    1  A    between atoms: C1_2  and  C2_3 
ROOT
ATOM      1  C2  UNL d   1       3.332   4.260  -3.318  0.00  0.00    -0.076 A 
ATOM      2  C3  UNL d   1       3.175   3.649  -4.574  0.00  0.00     0.004 A 
ATOM      3  C4  UNL d   1       4.216   3.637  -5.501  0.00  0.00    -0.003 A 
ATOM      4  C5  UNL d   1       5.431   4.235  -5.187  0.00  0.00     0.000 A 
ATOM      5  C6  UNL d   1       5.610   4.831  -3.939  0.00  0.00     0.000 A 
ATOM      6  C7  UNL d   1       4.577   4.837  -2.986  0.00  0.00    -0.073 A 
ATOM      7  C8  UNL d   1       4.823   5.498  -1.658  0.00  0.00     0.078 C 
ENDROOT
BRANCH   1   8
ATOM      8  C1  UNL d   1       2.160   4.265  -2.363  0.00  0.00     0.053 C 
ATOM      9  C   UNL d   1       1.463   5.615  -2.304  0.00  0.00     0.018 C 
ENDBRANCH   1   8
TORSDOF 1
ENDMDL
