MODEL 1
REMARK minimizedAffinity 18.9771919
REMARK minimizedRMSD -1
REMARK  1 active torsions:
REMARK  status: ('A' for Active; 'I' for Inactive)
REMARK    1  A    between atoms: C1_2  and  C2_3 
ROOT
ATOM      1  C2  UNL d   1       3.146   3.782  -3.438  0.00  0.00    -0.076 A 
ATOM      2  C3  UNL d   1       3.667   4.338  -2.257  0.00  0.00     0.004 A 
ATOM      3  C4  UNL d   1       4.974   4.819  -2.207  0.00  0.00    -0.003 A 
ATOM      4  C5  UNL d   1       5.781   4.753  -3.337  0.00  0.00     0.000 A 
ATOM      5  C6  UNL d   1       5.274   4.221  -4.523  0.00  0.00     0.000 A 
ATOM      6  C7  UNL d   1       3.954   3.746  -4.595  0.00  0.00    -0.073 A 
ATOM      7  C8  UNL d   1       3.461   3.177  -5.897  0.00  0.00     0.078 C 
ENDROOT
BRANCH   1   8
ATOM      8  C1  UNL d   1       1.730   3.251  -3.425  0.00  0.00     0.053 C 
ATOM      9  C   UNL d   1       0.752   4.216  -2.773  0.00  0.00     0.018 C 
ENDBRANCH   1   8
TORSDOF 1
ENDMDL
