MODEL 1
REMARK minimizedAffinity 18.2301064
REMARK minimizedRMSD -1
REMARK  1 active torsions:
REMARK  status: ('A' for Active; 'I' for Inactive)
REMARK    1  A    between atoms: C1_2  and  C2_3 
ROOT
ATOM      1  C2  UNL d   1       3.254  -4.397  -0.171  0.00  0.00    -0.076 A 
ATOM      2  C3  UNL d   1       3.719  -5.703   0.061  0.00  0.00     0.004 A 
ATOM      3  C4  UNL d   1       5.080  -5.999   0.020  0.00  0.00    -0.003 A 
ATOM      4  C5  UNL d   1       6.000  -4.992  -0.253  0.00  0.00     0.000 A 
ATOM      5  C6  UNL d   1       5.559  -3.687  -0.469  0.00  0.00     0.000 A 
ATOM      6  C7  UNL d   1       4.191  -3.369  -0.415  0.00  0.00    -0.073 A 
ATOM      7  C8  UNL d   1       3.770  -1.946  -0.661  0.00  0.00     0.078 C 
ENDROOT
BRANCH   1   8
ATOM      8  C1  UNL d   1       1.765  -4.141  -0.140  0.00  0.00     0.053 C 
ATOM      9  C   UNL d   1       1.262  -3.791   1.252  0.00  0.00     0.018 C 
ENDBRANCH   1   8
TORSDOF 1
ENDMDL
