MODEL 1
REMARK minimizedAffinity 21.5414467
REMARK minimizedRMSD -1
REMARK  1 active torsions:
REMARK  status: ('A' for Active; 'I' for Inactive)
REMARK    1  A    between atoms: C1_2  and  C2_3 
ROOT
ATOM      1  C2  UNL d   1      -3.082  -0.344   1.547  0.00  0.00    -0.076 A 
ATOM      2  C3  UNL d   1      -2.592  -1.559   1.036  0.00  0.00     0.004 A 
ATOM      3  C4  UNL d   1      -1.375  -2.082   1.471  0.00  0.00    -0.003 A 
ATOM      4  C5  UNL d   1      -0.628  -1.399   2.424  0.00  0.00     0.000 A 
ATOM      5  C6  UNL d   1      -1.107  -0.201   2.955  0.00  0.00     0.000 A 
ATOM      6  C7  UNL d   1      -2.340   0.331   2.540  0.00  0.00    -0.073 A 
ATOM      7  C8  UNL d   1      -2.805   1.629   3.141  0.00  0.00     0.078 C 
ENDROOT
BRANCH   1   8
ATOM      8  C1  UNL d   1      -4.395   0.187   1.018  0.00  0.00     0.053 C 
ATOM      9  C   UNL d   1      -4.757  -0.399  -0.338  0.00  0.00     0.018 C 
ENDBRANCH   1   8
TORSDOF 1
ENDMDL
