MODEL 1
REMARK minimizedAffinity -5.21812105
REMARK minimizedRMSD -1
REMARK  0 active torsions:
REMARK  status: ('A' for Active; 'I' for Inactive)
ROOT
ATOM      1  C4' PXY d   1      -0.606  -0.660   2.374  0.00  0.00     0.077 C 
ATOM      2  C1' PXY d   1       0.468  -2.431  -3.023  0.00  0.00     0.077 C 
ATOM      3  C1  PXY d   1       0.179  -1.977  -1.605  0.00  0.00    -0.082 A 
ATOM      4  C2  PXY d   1       0.317  -0.700  -1.286  0.00  0.00     0.003 A 
ATOM      5  C3  PXY d   1       0.091  -0.278  -0.002  0.00  0.00     0.003 A 
ATOM      6  C4  PXY d   1      -0.334  -1.162   0.954  0.00  0.00    -0.082 A 
ATOM      7  C5  PXY d   1      -0.488  -2.464   0.633  0.00  0.00     0.003 A 
ATOM      8  C6  PXY d   1      -0.213  -2.880  -0.666  0.00  0.00     0.003 A 
ENDROOT
TORSDOF 0
ENDMDL
