MODEL 1
REMARK minimizedAffinity -4.35471296
REMARK minimizedRMSD -1
REMARK  0 active torsions:
REMARK  status: ('A' for Active; 'I' for Inactive)
ROOT
ATOM      1  C4' PXY d   1       0.010  -4.895  -0.775  0.00  0.00     0.077 C 
ATOM      2  C1' PXY d   1       0.375   0.820   0.013  0.00  0.00     0.077 C 
ATOM      3  C1  PXY d   1       0.274  -0.677  -0.205  0.00  0.00    -0.082 A 
ATOM      4  C2  PXY d   1       0.211  -1.488   0.838  0.00  0.00     0.003 A 
ATOM      5  C3  PXY d   1       0.152  -2.846   0.659  0.00  0.00     0.003 A 
ATOM      6  C4  PXY d   1       0.103  -3.376  -0.602  0.00  0.00    -0.082 A 
ATOM      7  C5  PXY d   1       0.156  -2.555  -1.672  0.00  0.00     0.003 A 
ATOM      8  C6  PXY d   1       0.257  -1.182  -1.469  0.00  0.00     0.003 A 
ENDROOT
TORSDOF 0
ENDMDL
