MODEL 1
REMARK minimizedAffinity -4.58460379
REMARK minimizedRMSD -1
REMARK  0 active torsions:
REMARK  status: ('A' for Active; 'I' for Inactive)
ROOT
ATOM      1  C4' PXY d   1       1.083   1.930  -0.197  0.00  0.00     0.077 C 
ATOM      2  C1' PXY d   1      -0.692  -3.546   0.328  0.00  0.00     0.077 C 
ATOM      3  C1  PXY d   1      -0.238  -2.106   0.195  0.00  0.00    -0.082 A 
ATOM      4  C2  PXY d   1       0.675  -1.788  -0.708  0.00  0.00     0.003 A 
ATOM      5  C3  PXY d   1       1.120  -0.496  -0.820  0.00  0.00     0.003 A 
ATOM      6  C4  PXY d   1       0.588   0.491  -0.034  0.00  0.00    -0.082 A 
ATOM      7  C5  PXY d   1      -0.352   0.176   0.883  0.00  0.00     0.003 A 
ATOM      8  C6  PXY d   1      -0.760  -1.148   1.008  0.00  0.00     0.003 A 
ENDROOT
TORSDOF 0
ENDMDL
