MODEL 1
REMARK minimizedAffinity -3.24355745
REMARK minimizedRMSD -1
REMARK  0 active torsions:
REMARK  status: ('A' for Active; 'I' for Inactive)
ROOT
ATOM      1  C4' PXY d   1      -1.051  -1.483   2.233  0.00  0.00     0.077 C 
ATOM      2  C1' PXY d   1       0.138  -0.275  -3.294  0.00  0.00     0.077 C 
ATOM      3  C1  PXY d   1      -0.183  -0.601  -1.848  0.00  0.00    -0.082 A 
ATOM      4  C2  PXY d   1       0.091   0.283  -0.903  0.00  0.00     0.003 A 
ATOM      5  C3  PXY d   1      -0.163  -0.007   0.413  0.00  0.00     0.003 A 
ATOM      6  C4  PXY d   1      -0.753  -1.194   0.759  0.00  0.00    -0.082 A 
ATOM      7  C5  PXY d   1      -1.045  -2.096  -0.201  0.00  0.00     0.003 A 
ATOM      8  C6  PXY d   1      -0.742  -1.799  -1.526  0.00  0.00     0.003 A 
ENDROOT
TORSDOF 0
ENDMDL
