MODEL 1
REMARK minimizedAffinity -5.14101601
REMARK minimizedRMSD -1
REMARK  0 active torsions:
REMARK  status: ('A' for Active; 'I' for Inactive)
ROOT
ATOM      1  C4' PXY d   1      -0.528  -3.768  -0.633  0.00  0.00     0.077 C 
ATOM      2  C1' PXY d   1       0.653   1.889  -0.504  0.00  0.00     0.077 C 
ATOM      3  C1  PXY d   1       0.341   0.406  -0.551  0.00  0.00    -0.082 A 
ATOM      4  C2  PXY d   1      -0.117  -0.200   0.532  0.00  0.00     0.003 A 
ATOM      5  C3  PXY d   1      -0.373  -1.547   0.516  0.00  0.00     0.003 A 
ATOM      6  C4  PXY d   1      -0.209  -2.270  -0.635  0.00  0.00    -0.082 A 
ATOM      7  C5  PXY d   1       0.248  -1.656  -1.747  0.00  0.00     0.003 A 
ATOM      8  C6  PXY d   1       0.541  -0.297  -1.699  0.00  0.00     0.003 A 
ENDROOT
TORSDOF 0
ENDMDL
