MODEL 1
REMARK minimizedAffinity -4.77989388
REMARK minimizedRMSD -1
REMARK  0 active torsions:
REMARK  status: ('A' for Active; 'I' for Inactive)
ROOT
ATOM      1  C4' PXY d   1       0.560   2.480   0.379  0.00  0.00     0.077 C 
ATOM      2  C1' PXY d   1      -0.212  -3.249   0.422  0.00  0.00     0.077 C 
ATOM      3  C1  PXY d   1      -0.002  -1.748   0.400  0.00  0.00    -0.082 A 
ATOM      4  C2  PXY d   1      -0.140  -1.052   1.517  0.00  0.00     0.003 A 
ATOM      5  C3  PXY d   1       0.015   0.311   1.508  0.00  0.00     0.003 A 
ATOM      6  C4  PXY d   1       0.367   0.961   0.356  0.00  0.00    -0.082 A 
ATOM      7  C5  PXY d   1       0.519   0.256  -0.785  0.00  0.00     0.003 A 
ATOM      8  C6  PXY d   1       0.317  -1.121  -0.764  0.00  0.00     0.003 A 
ENDROOT
TORSDOF 0
ENDMDL
