MODEL 1
REMARK minimizedAffinity -5.02882528
REMARK minimizedRMSD -1
REMARK  0 active torsions:
REMARK  status: ('A' for Active; 'I' for Inactive)
ROOT
ATOM      1  C4' PXY d   1       0.641   2.599   0.141  0.00  0.00     0.077 C 
ATOM      2  C1' PXY d   1      -1.015  -2.937   0.316  0.00  0.00     0.077 C 
ATOM      3  C1  PXY d   1      -0.572  -1.488   0.260  0.00  0.00    -0.082 A 
ATOM      4  C2  PXY d   1      -0.711  -0.720   1.329  0.00  0.00     0.003 A 
ATOM      5  C3  PXY d   1      -0.346   0.601   1.286  0.00  0.00     0.003 A 
ATOM      6  C4  PXY d   1       0.217   1.128   0.155  0.00  0.00    -0.082 A 
ATOM      7  C5  PXY d   1       0.372   0.348  -0.936  0.00  0.00     0.003 A 
ATOM      8  C6  PXY d   1      -0.043  -0.979  -0.885  0.00  0.00     0.003 A 
ENDROOT
TORSDOF 0
ENDMDL
