MODEL 1
REMARK minimizedAffinity -4.69410706
REMARK minimizedRMSD -1
REMARK  0 active torsions:
REMARK  status: ('A' for Active; 'I' for Inactive)
ROOT
ATOM      1  C4' PXY d   1       0.044  -3.365   0.067  0.00  0.00     0.077 C 
ATOM      2  C1' PXY d   1       0.656   2.382   0.163  0.00  0.00     0.077 C 
ATOM      3  C1  PXY d   1       0.493   0.875   0.151  0.00  0.00    -0.082 A 
ATOM      4  C2  PXY d   1       1.071   0.162  -0.802  0.00  0.00     0.003 A 
ATOM      5  C3  PXY d   1       0.908  -1.198  -0.847  0.00  0.00     0.003 A 
ATOM      6  C4  PXY d   1       0.189  -1.842   0.124  0.00  0.00    -0.082 A 
ATOM      7  C5  PXY d   1      -0.396  -1.123   1.106  0.00  0.00     0.003 A 
ATOM      8  C6  PXY d   1      -0.252   0.261   1.110  0.00  0.00     0.003 A 
ENDROOT
TORSDOF 0
ENDMDL
