MODEL 1
REMARK minimizedAffinity -4.33841801
REMARK minimizedRMSD -1
REMARK  0 active torsions:
REMARK  status: ('A' for Active; 'I' for Inactive)
ROOT
ATOM      1  C4' PXY d   1       1.606   2.573   0.384  0.00  0.00     0.077 C 
ATOM      2  C1' PXY d   1      -0.996  -2.588   0.333  0.00  0.00     0.077 C 
ATOM      3  C1  PXY d   1      -0.323  -1.230   0.339  0.00  0.00    -0.082 A 
ATOM      4  C2  PXY d   1       0.977  -1.145   0.572  0.00  0.00     0.003 A 
ATOM      5  C3  PXY d   1       1.595   0.078   0.612  0.00  0.00     0.003 A 
ATOM      6  C4  PXY d   1       0.886   1.222   0.360  0.00  0.00    -0.082 A 
ATOM      7  C5  PXY d   1      -0.438   1.143   0.111  0.00  0.00     0.003 A 
ATOM      8  C6  PXY d   1      -1.055  -0.105   0.115  0.00  0.00     0.003 A 
ENDROOT
TORSDOF 0
ENDMDL
