MODEL 1
REMARK minimizedAffinity -5.91686773
REMARK minimizedRMSD -1
REMARK  0 active torsions:
REMARK  status: ('A' for Active; 'I' for Inactive)
ROOT
ATOM      1  C4' PXY d   1       0.698   1.882   0.570  0.00  0.00     0.077 C 
ATOM      2  C1' PXY d   1      -0.343  -3.791   0.192  0.00  0.00     0.077 C 
ATOM      3  C1  PXY d   1      -0.079  -2.303   0.301  0.00  0.00    -0.082 A 
ATOM      4  C2  PXY d   1       0.443  -1.654  -0.728  0.00  0.00     0.003 A 
ATOM      5  C3  PXY d   1       0.718  -0.314  -0.636  0.00  0.00     0.003 A 
ATOM      6  C4  PXY d   1       0.406   0.381   0.502  0.00  0.00    -0.082 A 
ATOM      7  C5  PXY d   1      -0.136  -0.272   1.552  0.00  0.00     0.003 A 
ATOM      8  C6  PXY d   1      -0.369  -1.640   1.453  0.00  0.00     0.003 A 
ENDROOT
TORSDOF 0
ENDMDL
