MODEL 1
REMARK minimizedAffinity 0.447912395
REMARK minimizedRMSD -1
REMARK  0 active torsions:
REMARK  status: ('A' for Active; 'I' for Inactive)
ROOT
ATOM      1  C4' PXY d   1      -1.456  -2.448   0.071  0.00  0.00     0.077 C 
ATOM      2  C1' PXY d   1       1.098   2.736   0.209  0.00  0.00     0.077 C 
ATOM      3  C1  PXY d   1       0.433   1.374   0.184  0.00  0.00    -0.082 A 
ATOM      4  C2  PXY d   1       0.126   0.817  -0.976  0.00  0.00     0.003 A 
ATOM      5  C3  PXY d   1      -0.504  -0.400  -1.015  0.00  0.00     0.003 A 
ATOM      6  C4  PXY d   1      -0.776  -1.078   0.143  0.00  0.00    -0.082 A 
ATOM      7  C5  PXY d   1      -0.456  -0.521   1.330  0.00  0.00     0.003 A 
ATOM      8  C6  PXY d   1       0.146   0.734   1.350  0.00  0.00     0.003 A 
ENDROOT
TORSDOF 0
ENDMDL
