MODEL 1
REMARK minimizedAffinity -2.73673177
REMARK minimizedRMSD -1
REMARK  0 active torsions:
REMARK  status: ('A' for Active; 'I' for Inactive)
ROOT
ATOM      1  C4' PXY d   1      -0.935  -2.361   0.782  0.00  0.00     0.077 C 
ATOM      2  C1' PXY d   1       2.118   2.501   0.109  0.00  0.00     0.077 C 
ATOM      3  C1  PXY d   1       1.329   1.220   0.288  0.00  0.00    -0.082 A 
ATOM      4  C2  PXY d   1       0.133   1.105  -0.267  0.00  0.00     0.003 A 
ATOM      5  C3  PXY d   1      -0.608  -0.035  -0.089  0.00  0.00     0.003 A 
ATOM      6  C4  PXY d   1      -0.098  -1.089   0.620  0.00  0.00    -0.082 A 
ATOM      7  C5  PXY d   1       1.125  -0.984   1.181  0.00  0.00     0.003 A 
ATOM      8  C6  PXY d   1       1.845   0.197   1.023  0.00  0.00     0.003 A 
ENDROOT
TORSDOF 0
ENDMDL
