MODEL 1
REMARK minimizedAffinity -5.54467106
REMARK minimizedRMSD -1
REMARK  0 active torsions:
REMARK  status: ('A' for Active; 'I' for Inactive)
ROOT
ATOM      1  C4' PXY d   1       0.236  -2.977  -2.523  0.00  0.00     0.077 C 
ATOM      2  C1' PXY d   1      -0.779  -0.176   2.431  0.00  0.00     0.077 C 
ATOM      3  C1  PXY d   1      -0.510  -0.921   1.138  0.00  0.00    -0.082 A 
ATOM      4  C2  PXY d   1      -0.141  -0.249   0.060  0.00  0.00     0.003 A 
ATOM      5  C3  PXY d   1       0.075  -0.904  -1.125  0.00  0.00     0.003 A 
ATOM      6  C4  PXY d   1      -0.037  -2.267  -1.194  0.00  0.00    -0.082 A 
ATOM      7  C5  PXY d   1      -0.403  -2.961  -0.096  0.00  0.00     0.003 A 
ATOM      8  C6  PXY d   1      -0.657  -2.273   1.087  0.00  0.00     0.003 A 
ENDROOT
TORSDOF 0
ENDMDL
