MODEL 1
REMARK minimizedAffinity -5.14580965
REMARK minimizedRMSD -1
REMARK  0 active torsions:
REMARK  status: ('A' for Active; 'I' for Inactive)
ROOT
ATOM      1  C4' PXY d   1      -1.706  -1.371   0.561  0.00  0.00     0.077 C 
ATOM      2  C1' PXY d   1       2.305   2.790   0.703  0.00  0.00     0.077 C 
ATOM      3  C1  PXY d   1       1.244   1.707   0.661  0.00  0.00    -0.082 A 
ATOM      4  C2  PXY d   1       1.369   0.639   1.432  0.00  0.00     0.003 A 
ATOM      5  C3  PXY d   1       0.436  -0.364   1.384  0.00  0.00     0.003 A 
ATOM      6  C4  PXY d   1      -0.664  -0.248   0.577  0.00  0.00    -0.082 A 
ATOM      7  C5  PXY d   1      -0.804   0.843  -0.205  0.00  0.00     0.003 A 
ATOM      8  C6  PXY d   1       0.175   1.831  -0.171  0.00  0.00     0.003 A 
ENDROOT
TORSDOF 0
ENDMDL
