MODEL 1
REMARK minimizedAffinity -2.61165881
REMARK minimizedRMSD -1
REMARK  0 active torsions:
REMARK  status: ('A' for Active; 'I' for Inactive)
ROOT
ATOM      1  C4' PXY d   1       0.877   2.465   0.029  0.00  0.00     0.077 C 
ATOM      2  C1' PXY d   1      -0.710  -3.065   0.585  0.00  0.00     0.077 C 
ATOM      3  C1  PXY d   1      -0.285  -1.618   0.430  0.00  0.00    -0.082 A 
ATOM      4  C2  PXY d   1      -0.508  -0.762   1.414  0.00  0.00     0.003 A 
ATOM      5  C3  PXY d   1      -0.159   0.557   1.278  0.00  0.00     0.003 A 
ATOM      6  C4  PXY d   1       0.473   0.993   0.145  0.00  0.00    -0.082 A 
ATOM      7  C5  PXY d   1       0.714   0.123  -0.859  0.00  0.00     0.003 A 
ATOM      8  C6  PXY d   1       0.315  -1.203  -0.718  0.00  0.00     0.003 A 
ENDROOT
TORSDOF 0
ENDMDL
