MODEL 1
REMARK minimizedAffinity -4.95525646
REMARK minimizedRMSD -1
REMARK  0 active torsions:
REMARK  status: ('A' for Active; 'I' for Inactive)
ROOT
ATOM      1  C4' PXY d   1       1.044   2.237   0.425  0.00  0.00     0.077 C 
ATOM      2  C1' PXY d   1      -0.153  -3.416   0.556  0.00  0.00     0.077 C 
ATOM      3  C1  PXY d   1       0.156  -1.932   0.534  0.00  0.00    -0.082 A 
ATOM      4  C2  PXY d   1       0.230  -1.297  -0.624  0.00  0.00     0.003 A 
ATOM      5  C3  PXY d   1       0.541   0.038  -0.664  0.00  0.00     0.003 A 
ATOM      6  C4  PXY d   1       0.725   0.742   0.496  0.00  0.00    -0.082 A 
ATOM      7  C5  PXY d   1       0.640   0.103   1.682  0.00  0.00     0.003 A 
ATOM      8  C6  PXY d   1       0.365  -1.261   1.699  0.00  0.00     0.003 A 
ENDROOT
TORSDOF 0
ENDMDL
