MODEL 1
REMARK minimizedAffinity -5.80197906
REMARK minimizedRMSD -1
REMARK  0 active torsions:
REMARK  status: ('A' for Active; 'I' for Inactive)
ROOT
ATOM      1  C4' PXY d   1       1.124   1.948   0.302  0.00  0.00     0.077 C 
ATOM      2  C1' PXY d   1      -0.519  -3.591   0.129  0.00  0.00     0.077 C 
ATOM      3  C1  PXY d   1      -0.079  -2.141   0.165  0.00  0.00    -0.082 A 
ATOM      4  C2  PXY d   1      -0.272  -1.426   1.262  0.00  0.00     0.003 A 
ATOM      5  C3  PXY d   1       0.091  -0.104   1.301  0.00  0.00     0.003 A 
ATOM      6  C4  PXY d   1       0.705   0.478   0.224  0.00  0.00    -0.082 A 
ATOM      7  C5  PXY d   1       0.914  -0.248  -0.895  0.00  0.00     0.003 A 
ATOM      8  C6  PXY d   1       0.501  -1.577  -0.929  0.00  0.00     0.003 A 
ENDROOT
TORSDOF 0
ENDMDL
