MODEL 1
REMARK minimizedAffinity -4.40392065
REMARK minimizedRMSD -1
REMARK  0 active torsions:
REMARK  status: ('A' for Active; 'I' for Inactive)
ROOT
ATOM      1  C4' PXY d   1       0.940   2.967   0.489  0.00  0.00     0.077 C 
ATOM      2  C1' PXY d   1      -0.956  -2.494   0.497  0.00  0.00     0.077 C 
ATOM      3  C1  PXY d   1      -0.452  -1.064   0.484  0.00  0.00    -0.082 A 
ATOM      4  C2  PXY d   1      -0.360  -0.392   1.620  0.00  0.00     0.003 A 
ATOM      5  C3  PXY d   1       0.064   0.912   1.622  0.00  0.00     0.003 A 
ATOM      6  C4  PXY d   1       0.446   1.518   0.456  0.00  0.00    -0.082 A 
ATOM      7  C5  PXY d   1       0.364   0.836  -0.706  0.00  0.00     0.003 A 
ATOM      8  C6  PXY d   1      -0.107  -0.473  -0.693  0.00  0.00     0.003 A 
ENDROOT
TORSDOF 0
ENDMDL
