MODEL 1
REMARK minimizedAffinity -4.79991388
REMARK minimizedRMSD -1
REMARK  0 active torsions:
REMARK  status: ('A' for Active; 'I' for Inactive)
ROOT
ATOM      1  C4' PXY d   1       0.301   2.036  -0.008  0.00  0.00     0.077 C 
ATOM      2  C1' PXY d   1      -0.347  -3.696   0.365  0.00  0.00     0.077 C 
ATOM      3  C1  PXY d   1      -0.168  -2.195   0.258  0.00  0.00    -0.082 A 
ATOM      4  C2  PXY d   1      -0.480  -1.424   1.287  0.00  0.00     0.003 A 
ATOM      5  C3  PXY d   1      -0.355  -0.061   1.196  0.00  0.00     0.003 A 
ATOM      6  C4  PXY d   1       0.145   0.514   0.059  0.00  0.00    -0.082 A 
ATOM      7  C5  PXY d   1       0.476  -0.267  -0.992  0.00  0.00     0.003 A 
ATOM      8  C6  PXY d   1       0.302  -1.644  -0.894  0.00  0.00     0.003 A 
ENDROOT
TORSDOF 0
ENDMDL
