MODEL 1
REMARK minimizedAffinity -2.20705485
REMARK minimizedRMSD -1
REMARK  0 active torsions:
REMARK  status: ('A' for Active; 'I' for Inactive)
ROOT
ATOM      1  C4' PXY d   1       0.497  -1.959  -2.538  0.00  0.00     0.077 C 
ATOM      2  C1' PXY d   1      -1.074  -0.657   2.870  0.00  0.00     0.077 C 
ATOM      3  C1  PXY d   1      -0.659  -1.010   1.456  0.00  0.00    -0.082 A 
ATOM      4  C2  PXY d   1      -0.345  -0.046   0.606  0.00  0.00     0.003 A 
ATOM      5  C3  PXY d   1       0.002  -0.346  -0.686  0.00  0.00     0.003 A 
ATOM      6  C4  PXY d   1       0.081  -1.649  -1.098  0.00  0.00    -0.082 A 
ATOM      7  C5  PXY d   1      -0.227  -2.640  -0.233  0.00  0.00     0.003 A 
ATOM      8  C6  PXY d   1      -0.617  -2.312   1.062  0.00  0.00     0.003 A 
ENDROOT
TORSDOF 0
ENDMDL
