MODEL 1
REMARK minimizedAffinity -3.40188766
REMARK minimizedRMSD -1
REMARK  0 active torsions:
REMARK  status: ('A' for Active; 'I' for Inactive)
ROOT
ATOM      1  C   UNL d   1      -0.735   0.259   0.724  0.00  0.00     0.020 A 
ATOM      2  C1  UNL d   1      -0.968  -1.105   0.898  0.00  0.00     0.020 A 
ATOM      3  C2  UNL d   1      -0.160  -2.040   0.248  0.00  0.00     0.034 A 
ATOM      4  C3  UNL d   1       0.885  -1.612  -0.579  0.00  0.00     0.017 A 
ATOM      5  C4  UNL d   1       1.119  -0.243  -0.753  0.00  0.00     0.017 A 
ATOM      6  C5  UNL d   1       0.306   0.689  -0.099  0.00  0.00     0.034 A 
ATOM      7 Cl   UNL d   1       2.389   0.360  -1.757  0.00  0.00    -0.070 Cl
ATOM      8 Cl1  UNL d   1       1.845  -2.824  -1.352  0.00  0.00    -0.070 Cl
ENDROOT
TORSDOF 0
ENDMDL
