MODEL 1
REMARK minimizedAffinity -5.56555653
REMARK minimizedRMSD -1
REMARK  0 active torsions:
REMARK  status: ('A' for Active; 'I' for Inactive)
ROOT
ATOM      1  C   UNL d   1       2.280   0.020  -2.019  0.00  0.00     0.020 A 
ATOM      2  C1  UNL d   1       2.469  -1.359  -2.098  0.00  0.00     0.020 A 
ATOM      3  C2  UNL d   1       1.709  -2.215  -1.298  0.00  0.00     0.034 A 
ATOM      4  C3  UNL d   1       0.757  -1.692  -0.415  0.00  0.00     0.017 A 
ATOM      5  C4  UNL d   1       0.568  -0.308  -0.337  0.00  0.00     0.017 A 
ATOM      6  C5  UNL d   1       1.331   0.544  -1.141  0.00  0.00     0.034 A 
ATOM      7 Cl   UNL d   1      -0.588   0.411   0.728  0.00  0.00    -0.070 Cl
ATOM      8 Cl1  UNL d   1      -0.148  -2.809   0.545  0.00  0.00    -0.070 Cl
ENDROOT
TORSDOF 0
ENDMDL
