MODEL 1
REMARK minimizedAffinity -5.29663706
REMARK minimizedRMSD -1
REMARK  0 active torsions:
REMARK  status: ('A' for Active; 'I' for Inactive)
ROOT
ATOM      1  C   UNL d   1       1.725  -2.653  -1.406  0.00  0.00     0.020 A 
ATOM      2  C1  UNL d   1       2.342  -1.578  -2.043  0.00  0.00     0.020 A 
ATOM      3  C2  UNL d   1       1.919  -0.273  -1.780  0.00  0.00     0.034 A 
ATOM      4  C3  UNL d   1       0.876  -0.041  -0.876  0.00  0.00     0.017 A 
ATOM      5  C4  UNL d   1       0.257  -1.121  -0.236  0.00  0.00     0.017 A 
ATOM      6  C5  UNL d   1       0.685  -2.425  -0.504  0.00  0.00     0.034 A 
ATOM      7 Cl   UNL d   1      -1.036  -0.914   0.892  0.00  0.00    -0.070 Cl
ATOM      8 Cl1  UNL d   1       0.404   1.598  -0.597  0.00  0.00    -0.070 Cl
ENDROOT
TORSDOF 0
ENDMDL
