MODEL 1
REMARK minimizedAffinity -3.18718648
REMARK minimizedRMSD -1
REMARK  0 active torsions:
REMARK  status: ('A' for Active; 'I' for Inactive)
ROOT
ATOM      1  C   UNL d   1       1.086   1.105  -0.672  0.00  0.00     0.020 A 
ATOM      2  C1  UNL d   1       0.083   0.991   0.290  0.00  0.00     0.020 A 
ATOM      3  C2  UNL d   1      -0.291  -0.269   0.762  0.00  0.00     0.034 A 
ATOM      4  C3  UNL d   1       0.338  -1.419   0.273  0.00  0.00     0.017 A 
ATOM      5  C4  UNL d   1       1.344  -1.304  -0.693  0.00  0.00     0.017 A 
ATOM      6  C5  UNL d   1       1.715  -0.040  -1.163  0.00  0.00     0.034 A 
ATOM      7 Cl   UNL d   1       2.166  -2.678  -1.344  0.00  0.00    -0.070 Cl
ATOM      8 Cl1  UNL d   1      -0.175  -2.945   0.902  0.00  0.00    -0.070 Cl
ENDROOT
TORSDOF 0
ENDMDL
