MODEL 1
REMARK minimizedAffinity 0.491217703
REMARK minimizedRMSD -1
REMARK  0 active torsions:
REMARK  status: ('A' for Active; 'I' for Inactive)
ROOT
ATOM      1  C   UNL d   1       1.635   2.242  -1.000  0.00  0.00     0.020 A 
ATOM      2  C1  UNL d   1       2.379   1.131  -1.397  0.00  0.00     0.020 A 
ATOM      3  C2  UNL d   1       1.977  -0.151  -1.016  0.00  0.00     0.034 A 
ATOM      4  C3  UNL d   1       0.827  -0.325  -0.236  0.00  0.00     0.017 A 
ATOM      5  C4  UNL d   1       0.081   0.791   0.161  0.00  0.00     0.017 A 
ATOM      6  C5  UNL d   1       0.489   2.072  -0.223  0.00  0.00     0.034 A 
ATOM      7 Cl   UNL d   1      -1.348   0.655   1.124  0.00  0.00    -0.070 Cl
ATOM      8 Cl1  UNL d   1       0.388  -1.939   0.198  0.00  0.00    -0.070 Cl
ENDROOT
TORSDOF 0
ENDMDL
