MODEL 1
REMARK minimizedAffinity -0.447057605
REMARK minimizedRMSD -1
REMARK  0 active torsions:
REMARK  status: ('A' for Active; 'I' for Inactive)
ROOT
ATOM      1  C   UNL d   1      -3.769   4.343  -5.719  0.00  0.00     0.020 A 
ATOM      2  C1  UNL d   1      -2.422   4.644  -5.526  0.00  0.00     0.020 A 
ATOM      3  C2  UNL d   1      -1.503   3.618  -5.295  0.00  0.00     0.034 A 
ATOM      4  C3  UNL d   1      -1.930   2.286  -5.258  0.00  0.00     0.017 A 
ATOM      5  C4  UNL d   1      -3.283   1.985  -5.452  0.00  0.00     0.017 A 
ATOM      6  C5  UNL d   1      -4.199   3.016  -5.683  0.00  0.00     0.034 A 
ATOM      7 Cl   UNL d   1      -3.885   0.365  -5.421  0.00  0.00    -0.070 Cl
ATOM      8 Cl1  UNL d   1      -0.739   1.068  -4.969  0.00  0.00    -0.070 Cl
ENDROOT
TORSDOF 0
ENDMDL
