MODEL 1
REMARK minimizedAffinity 5.74875307
REMARK minimizedRMSD -1
REMARK  0 active torsions:
REMARK  status: ('A' for Active; 'I' for Inactive)
ROOT
ATOM      1  C   UNL d   1       1.850  -0.287  -1.667  0.00  0.00     0.020 A 
ATOM      2  C1  UNL d   1       2.526   0.535  -0.766  0.00  0.00     0.020 A 
ATOM      3  C2  UNL d   1       2.304   1.914  -0.777  0.00  0.00     0.034 A 
ATOM      4  C3  UNL d   1       1.406   2.475  -1.692  0.00  0.00     0.017 A 
ATOM      5  C4  UNL d   1       0.728   1.649  -2.596  0.00  0.00     0.017 A 
ATOM      6  C5  UNL d   1       0.953   0.269  -2.580  0.00  0.00     0.034 A 
ATOM      7 Cl   UNL d   1      -0.396   2.268  -3.754  0.00  0.00    -0.070 Cl
ATOM      8 Cl1  UNL d   1       1.181   4.187  -1.649  0.00  0.00    -0.070 Cl
ENDROOT
TORSDOF 0
ENDMDL
