MODEL 1
REMARK minimizedAffinity 1.80599236
REMARK minimizedRMSD -1
REMARK  0 active torsions:
REMARK  status: ('A' for Active; 'I' for Inactive)
ROOT
ATOM      1  C   UNL d   1       1.064   0.237  -3.429  0.00  0.00     0.020 A 
ATOM      2  C1  UNL d   1       1.633  -0.724  -2.594  0.00  0.00     0.020 A 
ATOM      3  C2  UNL d   1       2.109  -0.359  -1.333  0.00  0.00     0.034 A 
ATOM      4  C3  UNL d   1       2.018   0.970  -0.904  0.00  0.00     0.017 A 
ATOM      5  C4  UNL d   1       1.447   1.934  -1.743  0.00  0.00     0.017 A 
ATOM      6  C5  UNL d   1       0.972   1.563  -3.005  0.00  0.00     0.034 A 
ATOM      7 Cl   UNL d   1       1.300   3.593  -1.283  0.00  0.00    -0.070 Cl
ATOM      8 Cl1  UNL d   1       2.628   1.350   0.668  0.00  0.00    -0.070 Cl
ENDROOT
TORSDOF 0
ENDMDL
