MODEL 1
REMARK minimizedAffinity 6.08159637
REMARK minimizedRMSD -1
REMARK  0 active torsions:
REMARK  status: ('A' for Active; 'I' for Inactive)
ROOT
ATOM      1  C   UNL d   1       0.778   3.265  -1.383  0.00  0.00     0.020 A 
ATOM      2  C1  UNL d   1       1.554   3.050  -2.521  0.00  0.00     0.020 A 
ATOM      3  C2  UNL d   1       2.220   1.834  -2.693  0.00  0.00     0.034 A 
ATOM      4  C3  UNL d   1       2.110   0.829  -1.725  0.00  0.00     0.017 A 
ATOM      5  C4  UNL d   1       1.331   1.046  -0.583  0.00  0.00     0.017 A 
ATOM      6  C5  UNL d   1       0.667   2.265  -0.416  0.00  0.00     0.034 A 
ATOM      7 Cl   UNL d   1       1.148  -0.146   0.655  0.00  0.00    -0.070 Cl
ATOM      8 Cl1  UNL d   1       2.960  -0.650  -2.002  0.00  0.00    -0.070 Cl
ENDROOT
TORSDOF 0
ENDMDL
