MODEL 1
REMARK minimizedAffinity 2.84852695
REMARK minimizedRMSD -1
REMARK  0 active torsions:
REMARK  status: ('A' for Active; 'I' for Inactive)
ROOT
ATOM      1  C   UNL d   1       1.161   3.093  -0.680  0.00  0.00     0.020 A 
ATOM      2  C1  UNL d   1       1.935   3.210  -1.833  0.00  0.00     0.020 A 
ATOM      3  C2  UNL d   1       2.367   2.063  -2.503  0.00  0.00     0.034 A 
ATOM      4  C3  UNL d   1       2.025   0.795  -2.020  0.00  0.00     0.017 A 
ATOM      5  C4  UNL d   1       1.247   0.679  -0.862  0.00  0.00     0.017 A 
ATOM      6  C5  UNL d   1       0.818   1.830  -0.195  0.00  0.00     0.034 A 
ATOM      7 Cl   UNL d   1       0.785  -0.852  -0.205  0.00  0.00    -0.070 Cl
ATOM      8 Cl1  UNL d   1       2.593  -0.580  -2.899  0.00  0.00    -0.070 Cl
ENDROOT
TORSDOF 0
ENDMDL
