MODEL 1
REMARK minimizedAffinity 6.59984303
REMARK minimizedRMSD -1
REMARK  0 active torsions:
REMARK  status: ('A' for Active; 'I' for Inactive)
ROOT
ATOM      1  C   UNL d   1       2.046  -0.116  -1.884  0.00  0.00     0.020 A 
ATOM      2  C1  UNL d   1       2.832   0.709  -1.081  0.00  0.00     0.020 A 
ATOM      3  C2  UNL d   1       2.533   2.069  -0.974  0.00  0.00     0.034 A 
ATOM      4  C3  UNL d   1       1.445   2.608  -1.670  0.00  0.00     0.017 A 
ATOM      5  C4  UNL d   1       0.656   1.778  -2.475  0.00  0.00     0.017 A 
ATOM      6  C5  UNL d   1       0.960   0.417  -2.579  0.00  0.00     0.034 A 
ATOM      7 Cl   UNL d   1      -0.703   2.370  -3.364  0.00  0.00    -0.070 Cl
ATOM      8 Cl1  UNL d   1       1.133   4.297  -1.490  0.00  0.00    -0.070 Cl
ENDROOT
TORSDOF 0
ENDMDL
