MODEL 1
REMARK minimizedAffinity 10.3626223
REMARK minimizedRMSD -1
REMARK  0 active torsions:
REMARK  status: ('A' for Active; 'I' for Inactive)
ROOT
ATOM      1  C   UNL d   1       0.478  -3.416   0.225  0.00  0.00     0.020 A 
ATOM      2  C1  UNL d   1       0.666  -3.162  -1.133  0.00  0.00     0.020 A 
ATOM      3  C2  UNL d   1      -0.329  -2.512  -1.866  0.00  0.00     0.034 A 
ATOM      4  C3  UNL d   1      -1.516  -2.114  -1.242  0.00  0.00     0.017 A 
ATOM      5  C4  UNL d   1      -1.705  -2.370   0.121  0.00  0.00     0.017 A 
ATOM      6  C5  UNL d   1      -0.705  -3.021   0.851  0.00  0.00     0.034 A 
ATOM      7 Cl   UNL d   1      -3.143  -1.908   0.961  0.00  0.00    -0.070 Cl
ATOM      8 Cl1  UNL d   1      -2.704  -1.314  -2.210  0.00  0.00    -0.070 Cl
ENDROOT
TORSDOF 0
ENDMDL
