MODEL 1
REMARK minimizedAffinity -4.43631077
REMARK minimizedRMSD -1
REMARK  0 active torsions:
REMARK  status: ('A' for Active; 'I' for Inactive)
ROOT
ATOM      1  C   UNL d   1      -0.259  -1.355   0.447  0.00  0.00     0.020 A 
ATOM      2  C1  UNL d   1       0.037  -0.088  -0.052  0.00  0.00     0.020 A 
ATOM      3  C2  UNL d   1      -0.970   0.876  -0.150  0.00  0.00     0.034 A 
ATOM      4  C3  UNL d   1      -2.276   0.573   0.251  0.00  0.00     0.017 A 
ATOM      5  C4  UNL d   1      -2.571  -0.700   0.753  0.00  0.00     0.017 A 
ATOM      6  C5  UNL d   1      -1.559  -1.661   0.849  0.00  0.00     0.034 A 
ATOM      7 Cl   UNL d   1      -4.159  -1.148   1.269  0.00  0.00    -0.070 Cl
ATOM      8 Cl1  UNL d   1      -3.470   1.813   0.103  0.00  0.00    -0.070 Cl
ENDROOT
TORSDOF 0
ENDMDL
