MODEL 1
REMARK minimizedAffinity -0.522307754
REMARK minimizedRMSD -1
REMARK  0 active torsions:
REMARK  status: ('A' for Active; 'I' for Inactive)
ROOT
ATOM      1  C   UNL d   1      -3.009   5.898  -5.622  0.00  0.00     0.020 A 
ATOM      2  C1  UNL d   1      -4.316   5.594  -5.999  0.00  0.00     0.020 A 
ATOM      3  C2  UNL d   1      -4.752   4.267  -6.000  0.00  0.00     0.034 A 
ATOM      4  C3  UNL d   1      -3.880   3.239  -5.622  0.00  0.00     0.017 A 
ATOM      5  C4  UNL d   1      -2.568   3.546  -5.243  0.00  0.00     0.017 A 
ATOM      6  C5  UNL d   1      -2.137   4.876  -5.245  0.00  0.00     0.034 A 
ATOM      7 Cl   UNL d   1      -1.434   2.332  -4.765  0.00  0.00    -0.070 Cl
ATOM      8 Cl1  UNL d   1      -4.486   1.622  -5.645  0.00  0.00    -0.070 Cl
ENDROOT
TORSDOF 0
ENDMDL
