MODEL 1
REMARK minimizedAffinity -1.6685884
REMARK minimizedRMSD -1
REMARK  0 active torsions:
REMARK  status: ('A' for Active; 'I' for Inactive)
ROOT
ATOM      1  C   UNL d   1      -5.961   2.118  -5.962  0.00  0.00     0.020 A 
ATOM      2  C1  UNL d   1      -4.734   1.456  -5.918  0.00  0.00     0.020 A 
ATOM      3  C2  UNL d   1      -3.546   2.189  -5.899  0.00  0.00     0.034 A 
ATOM      4  C3  UNL d   1      -3.581   3.588  -5.923  0.00  0.00     0.017 A 
ATOM      5  C4  UNL d   1      -4.813   4.252  -5.968  0.00  0.00     0.017 A 
ATOM      6  C5  UNL d   1      -6.000   3.513  -5.987  0.00  0.00     0.034 A 
ATOM      7 Cl   UNL d   1      -4.936   5.975  -6.000  0.00  0.00    -0.070 Cl
ATOM      8 Cl1  UNL d   1      -2.073   4.431  -5.897  0.00  0.00    -0.070 Cl
ENDROOT
TORSDOF 0
ENDMDL
