MODEL 1
REMARK minimizedAffinity 5.50651932
REMARK minimizedRMSD -1
REMARK  0 active torsions:
REMARK  status: ('A' for Active; 'I' for Inactive)
ROOT
ATOM      1  C   UNL d   1       4.672  -3.816  -2.153  0.00  0.00     0.020 A 
ATOM      2  C1  UNL d   1       5.079  -4.358  -3.372  0.00  0.00     0.020 A 
ATOM      3  C2  UNL d   1       4.995  -3.595  -4.538  0.00  0.00     0.034 A 
ATOM      4  C3  UNL d   1       4.503  -2.286  -4.489  0.00  0.00     0.017 A 
ATOM      5  C4  UNL d   1       4.093  -1.743  -3.266  0.00  0.00     0.017 A 
ATOM      6  C5  UNL d   1       4.180  -2.512  -2.101  0.00  0.00     0.034 A 
ATOM      7 Cl   UNL d   1       3.475  -0.135  -3.126  0.00  0.00    -0.070 Cl
ATOM      8 Cl1  UNL d   1       4.427  -1.400  -5.971  0.00  0.00    -0.070 Cl
ENDROOT
TORSDOF 0
ENDMDL
