MODEL 1
REMARK minimizedAffinity 0.392944217
REMARK minimizedRMSD -1
REMARK  0 active torsions:
REMARK  status: ('A' for Active; 'I' for Inactive)
ROOT
ATOM      1  C   UNL d   1      -4.234   5.144  -5.998  0.00  0.00     0.020 A 
ATOM      2  C1  UNL d   1      -2.880   5.479  -5.986  0.00  0.00     0.020 A 
ATOM      3  C2  UNL d   1      -1.912   4.473  -5.974  0.00  0.00     0.034 A 
ATOM      4  C3  UNL d   1      -2.296   3.127  -5.974  0.00  0.00     0.017 A 
ATOM      5  C4  UNL d   1      -3.655   2.792  -5.987  0.00  0.00     0.017 A 
ATOM      6  C5  UNL d   1      -4.620   3.803  -5.999  0.00  0.00     0.034 A 
ATOM      7 Cl   UNL d   1      -4.205   1.153  -5.988  0.00  0.00    -0.070 Cl
ATOM      8 Cl1  UNL d   1      -1.045   1.935  -5.960  0.00  0.00    -0.070 Cl
ENDROOT
TORSDOF 0
ENDMDL
