MODEL 1
REMARK minimizedAffinity -3.76397657
REMARK minimizedRMSD -1
REMARK  0 active torsions:
REMARK  status: ('A' for Active; 'I' for Inactive)
ROOT
ATOM      1  C   UNL d   1      -3.195   0.388   1.921  0.00  0.00     0.020 A 
ATOM      2  C1  UNL d   1      -3.479  -0.806   1.260  0.00  0.00     0.020 A 
ATOM      3  C2  UNL d   1      -2.446  -1.546   0.681  0.00  0.00     0.034 A 
ATOM      4  C3  UNL d   1      -1.124  -1.092   0.761  0.00  0.00     0.017 A 
ATOM      5  C4  UNL d   1      -0.840   0.107   1.425  0.00  0.00     0.017 A 
ATOM      6  C5  UNL d   1      -1.879   0.843   2.003  0.00  0.00     0.034 A 
ATOM      7 Cl   UNL d   1       0.765   0.730   1.565  0.00  0.00    -0.070 Cl
ATOM      8 Cl1  UNL d   1       0.103  -2.058   0.022  0.00  0.00    -0.070 Cl
ENDROOT
TORSDOF 0
ENDMDL
