MODEL 1
REMARK minimizedAffinity 14.5543375
REMARK minimizedRMSD -1
REMARK  1 active torsions:
REMARK  status: ('A' for Active; 'I' for Inactive)
REMARK    1  A    between atoms: C1_2  and  C2_3 
ROOT
ATOM      1  C2  UNL d   1      -0.824   4.164  -1.730  0.00  0.00    -0.076 A 
ATOM      2  C3  UNL d   1      -0.875   3.387  -0.560  0.00  0.00     0.004 A 
ATOM      3  C4  UNL d   1       0.193   3.366   0.335  0.00  0.00    -0.003 A 
ATOM      4  C5  UNL d   1       1.331   4.122   0.074  0.00  0.00     0.000 A 
ATOM      5  C6  UNL d   1       1.392   4.912  -1.073  0.00  0.00     0.000 A 
ATOM      6  C7  UNL d   1       0.317   4.958  -1.977  0.00  0.00    -0.073 A 
ATOM      7  C8  UNL d   1       0.439   5.822  -3.202  0.00  0.00     0.078 C 
ENDROOT
BRANCH   1   8
ATOM      8  C1  UNL d   1      -2.002   4.126  -2.677  0.00  0.00     0.053 C 
ATOM      9  C   UNL d   1      -3.207   4.881  -2.138  0.00  0.00     0.018 C 
ENDBRANCH   1   8
TORSDOF 1
ENDMDL
