MODEL 1
REMARK minimizedAffinity 14.3872366
REMARK minimizedRMSD -1
REMARK  1 active torsions:
REMARK  status: ('A' for Active; 'I' for Inactive)
REMARK    1  A    between atoms: C1_2  and  C2_3 
ROOT
ATOM      1  C2  UNL d   1       2.674  -4.329  -1.074  0.00  0.00    -0.076 A 
ATOM      2  C3  UNL d   1       3.319  -3.147  -0.672  0.00  0.00     0.004 A 
ATOM      3  C4  UNL d   1       2.588  -2.007  -0.341  0.00  0.00    -0.003 A 
ATOM      4  C5  UNL d   1       1.199  -2.031  -0.406  0.00  0.00     0.000 A 
ATOM      5  C6  UNL d   1       0.542  -3.201  -0.786  0.00  0.00     0.000 A 
ATOM      6  C7  UNL d   1       1.263  -4.363  -1.107  0.00  0.00    -0.073 A 
ATOM      7  C8  UNL d   1       0.503  -5.595  -1.517  0.00  0.00     0.078 C 
ENDROOT
BRANCH   1   8
ATOM      8  C1  UNL d   1       3.520  -5.525  -1.448  0.00  0.00     0.053 C 
ATOM      9  C   UNL d   1       4.988  -5.330  -1.103  0.00  0.00     0.018 C 
ENDBRANCH   1   8
TORSDOF 1
ENDMDL
