MODEL 1
REMARK minimizedAffinity 8.01703548
REMARK minimizedRMSD -1
REMARK  1 active torsions:
REMARK  status: ('A' for Active; 'I' for Inactive)
REMARK    1  A    between atoms: C1_2  and  C2_3 
ROOT
ATOM      1  C2  UNL d   1       0.714   2.793   1.799  0.00  0.00    -0.076 A 
ATOM      2  C3  UNL d   1       1.497   3.214   0.710  0.00  0.00     0.004 A 
ATOM      3  C4  UNL d   1       0.908   3.767  -0.426  0.00  0.00    -0.003 A 
ATOM      4  C5  UNL d   1      -0.473   3.909  -0.491  0.00  0.00     0.000 A 
ATOM      5  C6  UNL d   1      -1.264   3.513   0.587  0.00  0.00     0.000 A 
ATOM      6  C7  UNL d   1      -0.685   2.969   1.747  0.00  0.00    -0.073 A 
ATOM      7  C8  UNL d   1      -1.587   2.554   2.877  0.00  0.00     0.078 C 
ENDROOT
BRANCH   1   8
ATOM      8  C1  UNL d   1       1.406   2.176   2.993  0.00  0.00     0.053 C 
ATOM      9  C   UNL d   1       2.686   2.907   3.367  0.00  0.00     0.018 C 
ENDBRANCH   1   8
TORSDOF 1
ENDMDL
