MODEL 1
REMARK minimizedAffinity 3.34063363
REMARK minimizedRMSD -1
REMARK  1 active torsions:
REMARK  status: ('A' for Active; 'I' for Inactive)
REMARK    1  A    between atoms: C1_2  and  C2_3 
ROOT
ATOM      1  C2  UNL d   1      -5.577   2.562  -4.006  0.00  0.00    -0.076 A 
ATOM      2  C3  UNL d   1      -5.992   1.850  -2.868  0.00  0.00     0.004 A 
ATOM      3  C4  UNL d   1      -5.993   2.447  -1.608  0.00  0.00    -0.003 A 
ATOM      4  C5  UNL d   1      -5.579   3.767  -1.467  0.00  0.00     0.000 A 
ATOM      5  C6  UNL d   1      -5.181   4.494  -2.588  0.00  0.00     0.000 A 
ATOM      6  C7  UNL d   1      -5.190   3.912  -3.868  0.00  0.00    -0.073 A 
ATOM      7  C8  UNL d   1      -4.744   4.741  -5.041  0.00  0.00     0.078 C 
ENDROOT
BRANCH   1   8
ATOM      8  C1  UNL d   1      -5.572   1.854  -5.342  0.00  0.00     0.053 C 
ATOM      9  C   UNL d   1      -5.989   0.395  -5.229  0.00  0.00     0.018 C 
ENDBRANCH   1   8
TORSDOF 1
ENDMDL
