MODEL 1
REMARK minimizedAffinity 1.86588466
REMARK minimizedRMSD -1
REMARK  1 active torsions:
REMARK  status: ('A' for Active; 'I' for Inactive)
REMARK    1  A    between atoms: C1_2  and  C2_3 
ROOT
ATOM      1  C2  UNL d   1       0.578   2.310   2.499  0.00  0.00    -0.076 A 
ATOM      2  C3  UNL d   1      -0.136   2.427   1.294  0.00  0.00     0.004 A 
ATOM      3  C4  UNL d   1       0.239   3.354   0.324  0.00  0.00    -0.003 A 
ATOM      4  C5  UNL d   1       1.336   4.180   0.543  0.00  0.00     0.000 A 
ATOM      5  C6  UNL d   1       2.067   4.067   1.725  0.00  0.00     0.000 A 
ATOM      6  C7  UNL d   1       1.712   3.125   2.706  0.00  0.00    -0.073 A 
ATOM      7  C8  UNL d   1       2.532   3.050   3.965  0.00  0.00     0.078 C 
ENDROOT
BRANCH   1   8
ATOM      8  C1  UNL d   1       0.108   1.305   3.526  0.00  0.00     0.053 C 
ATOM      9  C   UNL d   1       0.930   0.025   3.508  0.00  0.00     0.018 C 
ENDBRANCH   1   8
TORSDOF 1
ENDMDL
