MODEL 1
REMARK minimizedAffinity 6.27496815
REMARK minimizedRMSD -1
REMARK  1 active torsions:
REMARK  status: ('A' for Active; 'I' for Inactive)
REMARK    1  A    between atoms: C1_2  and  C2_3 
ROOT
ATOM      1  C2  UNL d   1      -0.720   3.915   0.429  0.00  0.00    -0.076 A 
ATOM      2  C3  UNL d   1      -0.315   3.312  -0.774  0.00  0.00     0.004 A 
ATOM      3  C4  UNL d   1      -0.285   4.036  -1.965  0.00  0.00    -0.003 A 
ATOM      4  C5  UNL d   1      -0.659   5.375  -1.972  0.00  0.00     0.000 A 
ATOM      5  C6  UNL d   1      -1.046   5.994  -0.784  0.00  0.00     0.000 A 
ATOM      6  C7  UNL d   1      -1.067   5.283   0.428  0.00  0.00    -0.073 A 
ATOM      7  C8  UNL d   1      -1.499   5.999   1.679  0.00  0.00     0.078 C 
ENDROOT
BRANCH   1   8
ATOM      8  C1  UNL d   1      -0.759   3.072   1.684  0.00  0.00     0.053 C 
ATOM      9  C   UNL d   1       0.625   2.626   2.129  0.00  0.00     0.018 C 
ENDBRANCH   1   8
TORSDOF 1
ENDMDL
