MODEL 1
REMARK minimizedAffinity 6.1345644
REMARK minimizedRMSD -1
REMARK  1 active torsions:
REMARK  status: ('A' for Active; 'I' for Inactive)
REMARK    1  A    between atoms: C1_2  and  C2_3 
ROOT
ATOM      1  C2  UNL d   1      -0.362   4.022  -0.790  0.00  0.00    -0.076 A 
ATOM      2  C3  UNL d   1      -1.107   4.976  -0.075  0.00  0.00     0.004 A 
ATOM      3  C4  UNL d   1      -1.841   5.957  -0.738  0.00  0.00    -0.003 A 
ATOM      4  C5  UNL d   1      -1.844   6.000  -2.128  0.00  0.00     0.000 A 
ATOM      5  C6  UNL d   1      -1.125   5.051  -2.854  0.00  0.00     0.000 A 
ATOM      6  C7  UNL d   1      -0.392   4.045  -2.201  0.00  0.00    -0.073 A 
ATOM      7  C8  UNL d   1       0.370   3.050  -3.033  0.00  0.00     0.078 C 
ENDROOT
BRANCH   1   8
ATOM      8  C1  UNL d   1       0.437   2.998  -0.016  0.00  0.00     0.053 C 
ATOM      9  C   UNL d   1      -0.227   2.611   1.297  0.00  0.00     0.018 C 
ENDBRANCH   1   8
TORSDOF 1
ENDMDL
