MODEL 1
REMARK minimizedAffinity 14.0253468
REMARK minimizedRMSD -1
REMARK  1 active torsions:
REMARK  status: ('A' for Active; 'I' for Inactive)
REMARK    1  A    between atoms: C1_2  and  C2_3 
ROOT
ATOM      1  C2  UNL d   1       2.943  -3.973  -0.706  0.00  0.00    -0.076 A 
ATOM      2  C3  UNL d   1       2.053  -4.973  -1.137  0.00  0.00     0.004 A 
ATOM      3  C4  UNL d   1       0.676  -4.762  -1.123  0.00  0.00    -0.003 A 
ATOM      4  C5  UNL d   1       0.165  -3.547  -0.680  0.00  0.00     0.000 A 
ATOM      5  C6  UNL d   1       1.033  -2.537  -0.266  0.00  0.00     0.000 A 
ATOM      6  C7  UNL d   1       2.426  -2.728  -0.288  0.00  0.00    -0.073 A 
ATOM      7  C8  UNL d   1       3.315  -1.607   0.176  0.00  0.00     0.078 C 
ENDROOT
BRANCH   1   8
ATOM      8  C1  UNL d   1       4.426  -4.269  -0.717  0.00  0.00     0.053 C 
ATOM      9  C   UNL d   1       4.762  -5.585  -0.034  0.00  0.00     0.018 C 
ENDBRANCH   1   8
TORSDOF 1
ENDMDL
