MODEL 1
REMARK minimizedAffinity -1.69752967
REMARK minimizedRMSD -1
REMARK  1 active torsions:
REMARK  status: ('A' for Active; 'I' for Inactive)
REMARK    1  A    between atoms: C1_2  and  C2_3 
ROOT
ATOM      1  C2  UNL d   1      -0.739   2.800  -1.534  0.00  0.00    -0.076 A 
ATOM      2  C3  UNL d   1      -1.148   1.797  -2.431  0.00  0.00     0.004 A 
ATOM      3  C4  UNL d   1      -1.007   0.448  -2.112  0.00  0.00    -0.003 A 
ATOM      4  C5  UNL d   1      -0.455   0.079  -0.890  0.00  0.00     0.000 A 
ATOM      5  C6  UNL d   1      -0.060   1.060   0.019  0.00  0.00     0.000 A 
ATOM      6  C7  UNL d   1      -0.211   2.424  -0.280  0.00  0.00    -0.073 A 
ATOM      7  C8  UNL d   1       0.237   3.440   0.735  0.00  0.00     0.078 C 
ENDROOT
BRANCH   1   8
ATOM      8  C1  UNL d   1      -0.892   4.246  -1.946  0.00  0.00     0.053 C 
ATOM      9  C   UNL d   1       0.443   4.911  -2.245  0.00  0.00     0.018 C 
ENDBRANCH   1   8
TORSDOF 1
ENDMDL
