MODEL 1
REMARK minimizedAffinity -1.64698982
REMARK minimizedRMSD -1
REMARK  1 active torsions:
REMARK  status: ('A' for Active; 'I' for Inactive)
REMARK    1  A    between atoms: N_2  and  C1_3 
ROOT
ATOM      1  C1  UNL d   1       0.468  -0.125  -1.802  0.00  0.00     0.143 A 
ATOM      2  C2  UNL d   1      -0.268  -0.644  -2.872  0.00  0.00    -0.057 A 
ATOM      3  C3  UNL d   1      -0.038  -0.217  -4.186  0.00  0.00     0.033 A 
ATOM      4  C4  UNL d   1       0.915   0.760  -4.450  0.00  0.00    -0.042 A 
ATOM      5  C5  UNL d   1       1.642   1.308  -3.398  0.00  0.00     0.033 A 
ATOM      6  C6  UNL d   1       1.412   0.874  -2.089  0.00  0.00    -0.057 A 
ENDROOT
BRANCH   1   7
ATOM      7  N   UNL d   1       0.219  -0.436  -0.463  0.00  0.00    -0.732 N 
ATOM      8  C   UNL d   1      -0.744   0.326   0.304  0.00  0.00     0.284 C 
ATOM      9  H3  UNL d   1       0.182  -1.439  -0.298  0.00  0.00     0.395 HD
ENDBRANCH   1   7
TORSDOF 1
ENDMDL
