MODEL 1
REMARK minimizedAffinity -4.54413795
REMARK minimizedRMSD -1
REMARK  1 active torsions:
REMARK  status: ('A' for Active; 'I' for Inactive)
REMARK    1  A    between atoms: N_2  and  C1_3 
ROOT
ATOM      1  C1  UNL d   1      -0.410   0.221   0.852  0.00  0.00     0.143 A 
ATOM      2  C2  UNL d   1      -1.541   0.551   1.607  0.00  0.00    -0.057 A 
ATOM      3  C3  UNL d   1      -1.427   0.988   2.932  0.00  0.00     0.033 A 
ATOM      4  C4  UNL d   1      -0.178   1.074   3.537  0.00  0.00    -0.042 A 
ATOM      5  C5  UNL d   1       0.958   0.728   2.814  0.00  0.00     0.033 A 
ATOM      6  C6  UNL d   1       0.838   0.299   1.488  0.00  0.00    -0.057 A 
ENDROOT
BRANCH   1   7
ATOM      7  N   UNL d   1      -0.465  -0.312  -0.438  0.00  0.00    -0.732 N 
ATOM      8  C   UNL d   1       0.736  -0.787  -1.091  0.00  0.00     0.284 C 
ATOM      9  H3  UNL d   1      -1.277  -0.909  -0.577  0.00  0.00     0.395 HD
ENDBRANCH   1   7
TORSDOF 1
ENDMDL
