MODEL 1
REMARK minimizedAffinity -4.37284088
REMARK minimizedRMSD -1
REMARK  1 active torsions:
REMARK  status: ('A' for Active; 'I' for Inactive)
REMARK    1  A    between atoms: N_2  and  C1_3 
ROOT
ATOM      1  C1  UNL d   1      -0.224   0.025  -0.169  0.00  0.00     0.143 A 
ATOM      2  C2  UNL d   1      -1.576   0.360  -0.031  0.00  0.00    -0.057 A 
ATOM      3  C3  UNL d   1      -2.064   0.939   1.146  0.00  0.00     0.033 A 
ATOM      4  C4  UNL d   1      -1.212   1.167   2.222  0.00  0.00    -0.042 A 
ATOM      5  C5  UNL d   1       0.130   0.819   2.117  0.00  0.00     0.033 A 
ATOM      6  C6  UNL d   1       0.613   0.247   0.936  0.00  0.00    -0.057 A 
ENDROOT
BRANCH   1   7
ATOM      7  N   UNL d   1       0.303  -0.643  -1.277  0.00  0.00    -0.732 N 
ATOM      8  C   UNL d   1       0.975   0.090  -2.328  0.00  0.00     0.284 C 
ATOM      9  H3  UNL d   1       0.757  -1.517  -1.023  0.00  0.00     0.395 HD
ENDBRANCH   1   7
TORSDOF 1
ENDMDL
