MODEL 1
REMARK minimizedAffinity -5.0762949
REMARK minimizedRMSD -1
REMARK  1 active torsions:
REMARK  status: ('A' for Active; 'I' for Inactive)
REMARK    1  A    between atoms: N_2  and  C1_3 
ROOT
ATOM      1  C1  UNL d   1       0.082   0.447   0.677  0.00  0.00     0.143 A 
ATOM      2  C2  UNL d   1       1.043  -0.278   1.390  0.00  0.00    -0.057 A 
ATOM      3  C3  UNL d   1       1.122  -0.202   2.786  0.00  0.00     0.033 A 
ATOM      4  C4  UNL d   1       0.257   0.627   3.493  0.00  0.00    -0.042 A 
ATOM      5  C5  UNL d   1      -0.689   1.375   2.803  0.00  0.00     0.033 A 
ATOM      6  C6  UNL d   1      -0.768   1.289   1.410  0.00  0.00    -0.057 A 
ENDROOT
BRANCH   1   7
ATOM      7  N   UNL d   1       0.017   0.489  -0.718  0.00  0.00    -0.732 N 
ATOM      8  C   UNL d   1       0.515  -0.613  -1.513  0.00  0.00     0.284 C 
ATOM      9  H3  UNL d   1      -0.860   0.881  -1.054  0.00  0.00     0.395 HD
ENDBRANCH   1   7
TORSDOF 1
ENDMDL
