MODEL 1
REMARK minimizedAffinity -5.45324707
REMARK minimizedRMSD -1
REMARK  1 active torsions:
REMARK  status: ('A' for Active; 'I' for Inactive)
REMARK    1  A    between atoms: N_2  and  C1_3 
ROOT
ATOM      1  C1  UNL d   1       0.136  -0.130   0.517  0.00  0.00     0.143 A 
ATOM      2  C2  UNL d   1      -1.232   0.127   0.659  0.00  0.00    -0.057 A 
ATOM      3  C3  UNL d   1      -1.723   0.865   1.743  0.00  0.00     0.033 A 
ATOM      4  C4  UNL d   1      -0.855   1.335   2.723  0.00  0.00    -0.042 A 
ATOM      5  C5  UNL d   1       0.505   1.069   2.616  0.00  0.00     0.033 A 
ATOM      6  C6  UNL d   1       0.991   0.338   1.527  0.00  0.00    -0.057 A 
ENDROOT
BRANCH   1   7
ATOM      7  N   UNL d   1       0.675  -0.940  -0.485  0.00  0.00    -0.732 N 
ATOM      8  C   UNL d   1       0.728  -0.481  -1.856  0.00  0.00     0.284 C 
ATOM      9  H3  UNL d   1       1.512  -1.432  -0.179  0.00  0.00     0.395 HD
ENDBRANCH   1   7
TORSDOF 1
ENDMDL
