MODEL 1
REMARK minimizedAffinity -5.07939005
REMARK minimizedRMSD -1
REMARK  1 active torsions:
REMARK  status: ('A' for Active; 'I' for Inactive)
REMARK    1  A    between atoms: N_2  and  C1_3 
ROOT
ATOM      1  C1  UNL d   1      -0.411   0.408   0.913  0.00  0.00     0.143 A 
ATOM      2  C2  UNL d   1      -1.243   0.936   1.905  0.00  0.00    -0.057 A 
ATOM      3  C3  UNL d   1      -0.811   1.049   3.232  0.00  0.00     0.033 A 
ATOM      4  C4  UNL d   1       0.457   0.606   3.597  0.00  0.00    -0.042 A 
ATOM      5  C5  UNL d   1       1.292   0.054   2.632  0.00  0.00     0.033 A 
ATOM      6  C6  UNL d   1       0.856  -0.049   1.307  0.00  0.00    -0.057 A 
ENDROOT
BRANCH   1   7
ATOM      7  N   UNL d   1      -0.818   0.179  -0.403  0.00  0.00    -0.732 N 
ATOM      8  C   UNL d   1       0.135  -0.241  -1.408  0.00  0.00     0.284 C 
ATOM      9  H3  UNL d   1      -1.715  -0.299  -0.455  0.00  0.00     0.395 HD
ENDBRANCH   1   7
TORSDOF 1
ENDMDL
