MODEL 1
REMARK minimizedAffinity -5.00133514
REMARK minimizedRMSD -1
REMARK  1 active torsions:
REMARK  status: ('A' for Active; 'I' for Inactive)
REMARK    1  A    between atoms: N_2  and  C1_3 
ROOT
ATOM      1  C1  UNL d   1       0.314  -0.280   0.696  0.00  0.00     0.143 A 
ATOM      2  C2  UNL d   1      -0.983   0.206   0.897  0.00  0.00    -0.057 A 
ATOM      3  C3  UNL d   1      -1.359   0.789   2.114  0.00  0.00     0.033 A 
ATOM      4  C4  UNL d   1      -0.450   0.870   3.164  0.00  0.00    -0.042 A 
ATOM      5  C5  UNL d   1       0.836   0.371   2.994  0.00  0.00     0.033 A 
ATOM      6  C6  UNL d   1       1.208  -0.204   1.775  0.00  0.00    -0.057 A 
ENDROOT
BRANCH   1   7
ATOM      7  N   UNL d   1       0.720  -0.959  -0.455  0.00  0.00    -0.732 N 
ATOM      8  C   UNL d   1       0.546  -0.363  -1.762  0.00  0.00     0.284 C 
ATOM      9  H3  UNL d   1       1.610  -1.436  -0.331  0.00  0.00     0.395 HD
ENDBRANCH   1   7
TORSDOF 1
ENDMDL
