MODEL 1
REMARK minimizedAffinity -3.84410763
REMARK minimizedRMSD -1
REMARK  1 active torsions:
REMARK  status: ('A' for Active; 'I' for Inactive)
REMARK    1  A    between atoms: N_2  and  C1_3 
ROOT
ATOM      1  C1  UNL d   1       0.398  -0.021   1.095  0.00  0.00     0.143 A 
ATOM      2  C2  UNL d   1       0.993  -0.109   2.358  0.00  0.00    -0.057 A 
ATOM      3  C3  UNL d   1       0.342   0.369   3.502  0.00  0.00     0.033 A 
ATOM      4  C4  UNL d   1      -0.906   0.973   3.398  0.00  0.00    -0.042 A 
ATOM      5  C5  UNL d   1      -1.506   1.094   2.149  0.00  0.00     0.033 A 
ATOM      6  C6  UNL d   1      -0.854   0.608   1.012  0.00  0.00    -0.057 A 
ENDROOT
BRANCH   1   7
ATOM      7  N   UNL d   1       1.036  -0.390  -0.092  0.00  0.00    -0.732 N 
ATOM      8  C   UNL d   1       0.281  -0.543  -1.317  0.00  0.00     0.284 C 
ATOM      9  H3  UNL d   1       1.933   0.076  -0.212  0.00  0.00     0.395 HD
ENDBRANCH   1   7
TORSDOF 1
ENDMDL
