MODEL 1
REMARK minimizedAffinity 5.26757812
REMARK minimizedRMSD -1
REMARK  1 active torsions:
REMARK  status: ('A' for Active; 'I' for Inactive)
REMARK    1  A    between atoms: C1_2  and  C2_3 
ROOT
ATOM      1  C2  UNL d   1       1.491  -1.069   2.777  0.00  0.00    -0.081 A 
ATOM      2  C3  UNL d   1       0.354  -1.838   3.053  0.00  0.00     0.006 A 
ATOM      3  C4  UNL d   1       0.479  -3.105   3.630  0.00  0.00     0.002 A 
ATOM      4  C5  UNL d   1       1.741  -3.619   3.947  0.00  0.00    -0.080 A 
ATOM      5  C6  UNL d   1       1.887  -4.964   4.594  0.00  0.00     0.076 C 
ATOM      6  C7  UNL d   1       2.878  -2.857   3.655  0.00  0.00     0.002 A 
ATOM      7  C8  UNL d   1       2.754  -1.592   3.078  0.00  0.00     0.006 A 
ENDROOT
BRANCH   1   8
ATOM      8  C1  UNL d   1       1.356   0.323   2.214  0.00  0.00     0.054 C 
ATOM      9  C   UNL d   1       1.191   1.354   3.322  0.00  0.00     0.018 C 
ENDBRANCH   1   8
TORSDOF 1
ENDMDL
