MODEL 1
REMARK minimizedAffinity -1.33378708
REMARK minimizedRMSD -1
REMARK  1 active torsions:
REMARK  status: ('A' for Active; 'I' for Inactive)
REMARK    1  A    between atoms: C1_2  and  C2_3 
ROOT
ATOM      1  C2  UNL d   1       0.933  -1.933   3.454  0.00  0.00    -0.081 A 
ATOM      2  C3  UNL d   1       0.386  -2.078   2.174  0.00  0.00     0.006 A 
ATOM      3  C4  UNL d   1       0.610  -1.108   1.194  0.00  0.00     0.002 A 
ATOM      4  C5  UNL d   1       1.391   0.018   1.476  0.00  0.00    -0.080 A 
ATOM      5  C6  UNL d   1       1.664   1.052   0.424  0.00  0.00     0.076 C 
ATOM      6  C7  UNL d   1       1.924   0.171   2.760  0.00  0.00     0.002 A 
ATOM      7  C8  UNL d   1       1.699  -0.798   3.740  0.00  0.00     0.006 A 
ENDROOT
BRANCH   1   8
ATOM      8  C1  UNL d   1       0.747  -3.009   4.494  0.00  0.00     0.054 C 
ATOM      9  C   UNL d   1       2.046  -3.293   5.235  0.00  0.00     0.018 C 
ENDBRANCH   1   8
TORSDOF 1
ENDMDL
