MODEL 1
REMARK minimizedAffinity 7.96099329
REMARK minimizedRMSD -1
REMARK  1 active torsions:
REMARK  status: ('A' for Active; 'I' for Inactive)
REMARK    1  A    between atoms: C1_2  and  C2_3 
ROOT
ATOM      1  C2  UNL d   1       1.779  -0.755   0.811  0.00  0.00    -0.081 A 
ATOM      2  C3  UNL d   1       0.518  -1.359   0.887  0.00  0.00     0.006 A 
ATOM      3  C4  UNL d   1       0.091  -2.234  -0.114  0.00  0.00     0.002 A 
ATOM      4  C5  UNL d   1       0.920  -2.527  -1.202  0.00  0.00    -0.080 A 
ATOM      5  C6  UNL d   1       0.486  -3.488  -2.268  0.00  0.00     0.076 C 
ATOM      6  C7  UNL d   1       2.173  -1.910  -1.287  0.00  0.00     0.002 A 
ATOM      7  C8  UNL d   1       2.600  -1.033  -0.287  0.00  0.00     0.006 A 
ENDROOT
BRANCH   1   8
ATOM      8  C1  UNL d   1       2.268   0.140   1.922  0.00  0.00     0.054 C 
ATOM      9  C   UNL d   1       2.587   1.536   1.408  0.00  0.00     0.018 C 
ENDBRANCH   1   8
TORSDOF 1
ENDMDL
