MODEL 1
REMARK minimizedAffinity 1.07392478
REMARK minimizedRMSD -1
REMARK  1 active torsions:
REMARK  status: ('A' for Active; 'I' for Inactive)
REMARK    1  A    between atoms: C1_2  and  C2_3 
ROOT
ATOM      1  C2  UNL d   1       3.275  -2.346   3.616  0.00  0.00    -0.081 A 
ATOM      2  C3  UNL d   1       1.929  -2.724   3.704  0.00  0.00     0.006 A 
ATOM      3  C4  UNL d   1       0.959  -2.071   2.939  0.00  0.00     0.002 A 
ATOM      4  C5  UNL d   1       1.319  -1.037   2.069  0.00  0.00    -0.080 A 
ATOM      5  C6  UNL d   1       0.292  -0.349   1.220  0.00  0.00     0.076 C 
ATOM      6  C7  UNL d   1       2.661  -0.648   1.994  0.00  0.00     0.002 A 
ATOM      7  C8  UNL d   1       3.631  -1.300   2.759  0.00  0.00     0.006 A 
ENDROOT
BRANCH   1   8
ATOM      8  C1  UNL d   1       4.332  -3.091   4.392  0.00  0.00     0.054 C 
ATOM      9  C   UNL d   1       5.664  -3.085   3.656  0.00  0.00     0.018 C 
ENDBRANCH   1   8
TORSDOF 1
ENDMDL
