MODEL 1
REMARK minimizedAffinity 5.66723013
REMARK minimizedRMSD -1
REMARK  1 active torsions:
REMARK  status: ('A' for Active; 'I' for Inactive)
REMARK    1  A    between atoms: C1_2  and  C2_3 
ROOT
ATOM      1  C2  UNL d   1       0.887  -1.725   0.907  0.00  0.00    -0.081 A 
ATOM      2  C3  UNL d   1       1.507  -0.522   1.267  0.00  0.00     0.006 A 
ATOM      3  C4  UNL d   1       1.909  -0.301   2.586  0.00  0.00     0.002 A 
ATOM      4  C5  UNL d   1       1.706  -1.280   3.565  0.00  0.00    -0.080 A 
ATOM      5  C6  UNL d   1       2.160  -1.066   4.978  0.00  0.00     0.076 C 
ATOM      6  C7  UNL d   1       1.070  -2.474   3.208  0.00  0.00     0.002 A 
ATOM      7  C8  UNL d   1       0.668  -2.696   1.890  0.00  0.00     0.006 A 
ENDROOT
BRANCH   1   8
ATOM      8  C1  UNL d   1       0.511  -1.993  -0.528  0.00  0.00     0.054 C 
ATOM      9  C   UNL d   1       0.848  -3.422  -0.930  0.00  0.00     0.018 C 
ENDBRANCH   1   8
TORSDOF 1
ENDMDL
