MODEL 1
REMARK minimizedAffinity 2.71629071
REMARK minimizedRMSD -1
REMARK  1 active torsions:
REMARK  status: ('A' for Active; 'I' for Inactive)
REMARK    1  A    between atoms: C1_2  and  C2_3 
ROOT
ATOM      1  C2  UNL d   1      -5.146   2.260  -1.288  0.00  0.00    -0.081 A 
ATOM      2  C3  UNL d   1      -6.000   3.353  -1.092  0.00  0.00     0.006 A 
ATOM      3  C4  UNL d   1      -5.998   4.043   0.123  0.00  0.00     0.002 A 
ATOM      4  C5  UNL d   1      -5.139   3.657   1.157  0.00  0.00    -0.080 A 
ATOM      5  C6  UNL d   1      -5.106   4.408   2.455  0.00  0.00     0.076 C 
ATOM      6  C7  UNL d   1      -4.299   2.555   0.967  0.00  0.00     0.002 A 
ATOM      7  C8  UNL d   1      -4.300   1.864  -0.247  0.00  0.00     0.006 A 
ENDROOT
BRANCH   1   8
ATOM      8  C1  UNL d   1      -5.099   1.555  -2.620  0.00  0.00     0.054 C 
ATOM      9  C   UNL d   1      -3.830   1.901  -3.385  0.00  0.00     0.018 C 
ENDBRANCH   1   8
TORSDOF 1
ENDMDL
