MODEL 1
REMARK minimizedAffinity 20.9126587
REMARK minimizedRMSD -1
REMARK  0 active torsions:
REMARK  status: ('A' for Active; 'I' for Inactive)
ROOT
ATOM      1  C4' PXY d   1       3.118  -0.378   3.002  0.00  0.00     0.077 C 
ATOM      2  C1' PXY d   1       1.770  -3.783  -1.471  0.00  0.00     0.077 C 
ATOM      3  C1  PXY d   1       2.133  -2.898  -0.295  0.00  0.00    -0.082 A 
ATOM      4  C2  PXY d   1       1.208  -2.130   0.256  0.00  0.00     0.003 A 
ATOM      5  C3  PXY d   1       1.527  -1.300   1.300  0.00  0.00     0.003 A 
ATOM      6  C4  PXY d   1       2.794  -1.295   1.819  0.00  0.00    -0.082 A 
ATOM      7  C5  PXY d   1       3.741  -2.083   1.269  0.00  0.00     0.003 A 
ATOM      8  C6  PXY d   1       3.407  -2.888   0.183  0.00  0.00     0.003 A 
ENDROOT
TORSDOF 0
ENDMDL
