MODEL 1
REMARK minimizedAffinity 14.4993019
REMARK minimizedRMSD -1
REMARK  0 active torsions:
REMARK  status: ('A' for Active; 'I' for Inactive)
ROOT
ATOM      1  C4' PXY d   1      -0.364   5.985  -5.999  0.00  0.00     0.077 C 
ATOM      2  C1' PXY d   1      -4.754   4.024  -2.791  0.00  0.00     0.077 C 
ATOM      3  C1  PXY d   1      -3.595   4.533  -3.624  0.00  0.00    -0.082 A 
ATOM      4  C2  PXY d   1      -3.780   5.547  -4.453  0.00  0.00     0.003 A 
ATOM      5  C3  PXY d   1      -2.751   6.000  -5.237  0.00  0.00     0.003 A 
ATOM      6  C4  PXY d   1      -1.504   5.443  -5.132  0.00  0.00    -0.082 A 
ATOM      7  C5  PXY d   1      -1.304   4.415  -4.281  0.00  0.00     0.003 A 
ATOM      8  C6  PXY d   1      -2.372   3.944  -3.524  0.00  0.00     0.003 A 
ENDROOT
TORSDOF 0
ENDMDL
