MODEL 1
REMARK minimizedAffinity 11.7210217
REMARK minimizedRMSD -1
REMARK  0 active torsions:
REMARK  status: ('A' for Active; 'I' for Inactive)
ROOT
ATOM      1  C4' PXY d   1       6.000  -5.025   1.134  0.00  0.00     0.077 C 
ATOM      2  C1' PXY d   1       2.446  -0.538   0.331  0.00  0.00     0.077 C 
ATOM      3  C1  PXY d   1       3.388  -1.707   0.540  0.00  0.00    -0.082 A 
ATOM      4  C2  PXY d   1       2.955  -2.940   0.338  0.00  0.00     0.003 A 
ATOM      5  C3  PXY d   1       3.784  -4.011   0.552  0.00  0.00     0.003 A 
ATOM      6  C4  PXY d   1       5.086  -3.814   0.926  0.00  0.00    -0.082 A 
ATOM      7  C5  PXY d   1       5.539  -2.558   1.124  0.00  0.00     0.003 A 
ATOM      8  C6  PXY d   1       4.670  -1.487   0.941  0.00  0.00     0.003 A 
ENDROOT
TORSDOF 0
ENDMDL
