MODEL 1
REMARK minimizedAffinity 14.4152288
REMARK minimizedRMSD -1
REMARK  0 active torsions:
REMARK  status: ('A' for Active; 'I' for Inactive)
ROOT
ATOM      1  C4' PXY d   1       1.343  -4.787  -2.255  0.00  0.00     0.077 C 
ATOM      2  C1' PXY d   1       3.617  -1.268   1.728  0.00  0.00     0.077 C 
ATOM      3  C1  PXY d   1       3.008  -2.186   0.686  0.00  0.00    -0.082 A 
ATOM      4  C2  PXY d   1       3.645  -3.292   0.338  0.00  0.00     0.003 A 
ATOM      5  C3  PXY d   1       3.125  -4.117  -0.626  0.00  0.00     0.003 A 
ATOM      6  C4  PXY d   1       1.915  -3.835  -1.200  0.00  0.00    -0.082 A 
ATOM      7  C5  PXY d   1       1.254  -2.713  -0.843  0.00  0.00     0.003 A 
ATOM      8  C6  PXY d   1       1.819  -1.868   0.107  0.00  0.00     0.003 A 
ENDROOT
TORSDOF 0
ENDMDL
