MODEL 1
REMARK minimizedAffinity 19.2169018
REMARK minimizedRMSD -1
REMARK  0 active torsions:
REMARK  status: ('A' for Active; 'I' for Inactive)
ROOT
ATOM      1  C4' PXY d   1       4.876  -3.526  -5.999  0.00  0.00     0.077 C 
ATOM      2  C1' PXY d   1       1.354  -4.382  -1.496  0.00  0.00     0.077 C 
ATOM      3  C1  PXY d   1       2.288  -4.155  -2.668  0.00  0.00    -0.082 A 
ATOM      4  C2  PXY d   1       1.788  -3.819  -3.847  0.00  0.00     0.003 A 
ATOM      5  C3  PXY d   1       2.615  -3.641  -4.926  0.00  0.00     0.003 A 
ATOM      6  C4  PXY d   1       3.972  -3.756  -4.785  0.00  0.00    -0.082 A 
ATOM      7  C5  PXY d   1       4.490  -4.088  -3.583  0.00  0.00     0.003 A 
ATOM      8  C6  PXY d   1       3.631  -4.305  -2.510  0.00  0.00     0.003 A 
ENDROOT
TORSDOF 0
ENDMDL
