MODEL 1
REMARK minimizedAffinity 12.2214212
REMARK minimizedRMSD -1
REMARK  0 active torsions:
REMARK  status: ('A' for Active; 'I' for Inactive)
ROOT
ATOM      1  C4' PXY d   1      -5.324   6.000   3.368  0.00  0.00     0.077 C 
ATOM      2  C1' PXY d   1      -4.009   5.447  -2.234  0.00  0.00     0.077 C 
ATOM      3  C1  PXY d   1      -4.366   5.597  -0.768  0.00  0.00    -0.082 A 
ATOM      4  C2  PXY d   1      -3.402   5.674   0.135  0.00  0.00     0.003 A 
ATOM      5  C3  PXY d   1      -3.706   5.778   1.468  0.00  0.00     0.003 A 
ATOM      6  C4  PXY d   1      -5.011   5.857   1.876  0.00  0.00    -0.082 A 
ATOM      7  C5  PXY d   1      -6.000   5.791   0.960  0.00  0.00     0.003 A 
ATOM      8  C6  PXY d   1      -5.670   5.644  -0.384  0.00  0.00     0.003 A 
ENDROOT
TORSDOF 0
ENDMDL
