MODEL 1
REMARK minimizedAffinity 2.65461302
REMARK minimizedRMSD -1
REMARK  0 active torsions:
REMARK  status: ('A' for Active; 'I' for Inactive)
ROOT
ATOM      1  C4' PXY d   1      -5.510   1.951  -4.564  0.00  0.00     0.077 C 
ATOM      2  C1' PXY d   1      -1.123   5.715  -4.611  0.00  0.00     0.077 C 
ATOM      3  C1  PXY d   1      -2.282   4.738  -4.597  0.00  0.00    -0.082 A 
ATOM      4  C2  PXY d   1      -2.070   3.477  -4.256  0.00  0.00     0.003 A 
ATOM      5  C3  PXY d   1      -3.101   2.573  -4.270  0.00  0.00     0.003 A 
ATOM      6  C4  PXY d   1      -4.371   2.975  -4.583  0.00  0.00    -0.082 A 
ATOM      7  C5  PXY d   1      -4.598   4.262  -4.921  0.00  0.00     0.003 A 
ATOM      8  C6  PXY d   1      -3.530   5.155  -4.941  0.00  0.00     0.003 A 
ENDROOT
TORSDOF 0
ENDMDL
