MODEL 1
REMARK minimizedAffinity 20.1729698
REMARK minimizedRMSD -1
REMARK  0 active torsions:
REMARK  status: ('A' for Active; 'I' for Inactive)
ROOT
ATOM      1  C4' PXY d   1       1.563   4.645   0.038  0.00  0.00     0.077 C 
ATOM      2  C1' PXY d   1       0.501   0.248   3.637  0.00  0.00     0.077 C 
ATOM      3  C1  PXY d   1       0.777   1.393   2.683  0.00  0.00    -0.082 A 
ATOM      4  C2  PXY d   1       1.550   2.394   3.069  0.00  0.00     0.003 A 
ATOM      5  C3  PXY d   1       1.784   3.454   2.231  0.00  0.00     0.003 A 
ATOM      6  C4  PXY d   1       1.264   3.463   0.964  0.00  0.00    -0.082 A 
ATOM      7  C5  PXY d   1       0.483   2.440   0.559  0.00  0.00     0.003 A 
ATOM      8  C6  PXY d   1       0.224   1.394   1.439  0.00  0.00     0.003 A 
ENDROOT
TORSDOF 0
ENDMDL
