MODEL 1
REMARK minimizedAffinity 9.10025024
REMARK minimizedRMSD -1
REMARK  0 active torsions:
REMARK  status: ('A' for Active; 'I' for Inactive)
ROOT
ATOM      1  C4' PXY d   1       5.736  -5.997   0.720  0.00  0.00     0.077 C 
ATOM      2  C1' PXY d   1       3.144  -0.830   0.750  0.00  0.00     0.077 C 
ATOM      3  C1  PXY d   1       3.835  -2.180   0.738  0.00  0.00    -0.082 A 
ATOM      4  C2  PXY d   1       3.113  -3.283   0.622  0.00  0.00     0.003 A 
ATOM      5  C3  PXY d   1       3.719  -4.513   0.642  0.00  0.00     0.003 A 
ATOM      6  C4  PXY d   1       5.082  -4.613   0.727  0.00  0.00    -0.082 A 
ATOM      7  C5  PXY d   1       5.826  -3.491   0.835  0.00  0.00     0.003 A 
ATOM      8  C6  PXY d   1       5.188  -2.254   0.854  0.00  0.00     0.003 A 
ENDROOT
TORSDOF 0
ENDMDL
