MODEL 1
REMARK minimizedAffinity 12.432827
REMARK minimizedRMSD -1
REMARK  0 active torsions:
REMARK  status: ('A' for Active; 'I' for Inactive)
ROOT
ATOM      1  C4' PXY d   1       5.824  -4.870   1.377  0.00  0.00     0.077 C 
ATOM      2  C1' PXY d   1       2.032  -0.643   0.296  0.00  0.00     0.077 C 
ATOM      3  C1  PXY d   1       3.036  -1.743   0.577  0.00  0.00    -0.082 A 
ATOM      4  C2  PXY d   1       2.674  -3.009   0.445  0.00  0.00     0.003 A 
ATOM      5  C3  PXY d   1       3.560  -4.017   0.727  0.00  0.00     0.003 A 
ATOM      6  C4  PXY d   1       4.846  -3.726   1.095  0.00  0.00    -0.082 A 
ATOM      7  C5  PXY d   1       5.227  -2.437   1.221  0.00  0.00     0.003 A 
ATOM      8  C6  PXY d   1       4.300  -1.429   0.971  0.00  0.00     0.003 A 
ENDROOT
TORSDOF 0
ENDMDL
