MODEL 1
REMARK minimizedAffinity 11.9605341
REMARK minimizedRMSD -1
REMARK  0 active torsions:
REMARK  status: ('A' for Active; 'I' for Inactive)
ROOT
ATOM      1  C4' PXY d   1      -2.551  -1.100   4.160  0.00  0.00     0.077 C 
ATOM      2  C1' PXY d   1      -0.065   2.443   0.328  0.00  0.00     0.077 C 
ATOM      3  C1  PXY d   1      -0.723   1.524   1.338  0.00  0.00    -0.082 A 
ATOM      4  C2  PXY d   1      -0.127   0.393   1.679  0.00  0.00     0.003 A 
ATOM      5  C3  PXY d   1      -0.724  -0.465   2.567  0.00  0.00     0.003 A 
ATOM      6  C4  PXY d   1      -1.918  -0.137   3.152  0.00  0.00    -0.082 A 
ATOM      7  C5  PXY d   1      -2.527   1.020   2.817  0.00  0.00     0.003 A 
ATOM      8  C6  PXY d   1      -1.924   1.858   1.883  0.00  0.00     0.003 A 
ENDROOT
TORSDOF 0
ENDMDL
