MODEL 1
REMARK minimizedAffinity 12.3554926
REMARK minimizedRMSD -1
REMARK  0 active torsions:
REMARK  status: ('A' for Active; 'I' for Inactive)
ROOT
ATOM      1  C4' PXY d   1      -5.984  -5.919   5.859  0.00  0.00     0.077 C 
ATOM      2  C1' PXY d   1      -5.864  -3.290   0.712  0.00  0.00     0.077 C 
ATOM      3  C1  PXY d   1      -5.890  -3.969   2.067  0.00  0.00    -0.082 A 
ATOM      4  C2  PXY d   1      -5.939  -5.289   2.136  0.00  0.00     0.003 A 
ATOM      5  C3  PXY d   1      -5.995  -5.919   3.353  0.00  0.00     0.003 A 
ATOM      6  C4  PXY d   1      -5.947  -5.191   4.512  0.00  0.00    -0.082 A 
ATOM      7  C5  PXY d   1      -5.886  -3.844   4.450  0.00  0.00     0.003 A 
ATOM      8  C6  PXY d   1      -5.871  -3.223   3.205  0.00  0.00     0.003 A 
ENDROOT
TORSDOF 0
ENDMDL
