MODEL 1
REMARK minimizedAffinity 9.34000874
REMARK minimizedRMSD -1
REMARK  0 active torsions:
REMARK  status: ('A' for Active; 'I' for Inactive)
ROOT
ATOM      1  C4' PXY d   1       4.862  -4.278   0.509  0.00  0.00     0.077 C 
ATOM      2  C1' PXY d   1       1.492   0.094   2.223  0.00  0.00     0.077 C 
ATOM      3  C1  PXY d   1       2.386  -1.044   1.773  0.00  0.00    -0.082 A 
ATOM      4  C2  PXY d   1       1.856  -2.086   1.152  0.00  0.00     0.003 A 
ATOM      5  C3  PXY d   1       2.646  -3.139   0.767  0.00  0.00     0.003 A 
ATOM      6  C4  PXY d   1       3.999  -3.102   0.973  0.00  0.00    -0.082 A 
ATOM      7  C5  PXY d   1       4.548  -2.038   1.596  0.00  0.00     0.003 A 
ATOM      8  C6  PXY d   1       3.724  -0.998   2.016  0.00  0.00     0.003 A 
ENDROOT
TORSDOF 0
ENDMDL
