MODEL 1
REMARK minimizedAffinity 14.4850864
REMARK minimizedRMSD -1
REMARK  0 active torsions:
REMARK  status: ('A' for Active; 'I' for Inactive)
ROOT
ATOM      1  C4' PXY d   1       1.517   4.439   0.004  0.00  0.00     0.077 C 
ATOM      2  C1' PXY d   1      -2.295   1.399  -3.101  0.00  0.00     0.077 C 
ATOM      3  C1  PXY d   1      -1.300   2.190  -2.276  0.00  0.00    -0.082 A 
ATOM      4  C2  PXY d   1      -0.821   3.330  -2.746  0.00  0.00     0.003 A 
ATOM      5  C3  PXY d   1       0.104   4.043  -2.027  0.00  0.00     0.003 A 
ATOM      6  C4  PXY d   1       0.503   3.611  -0.790  0.00  0.00    -0.082 A 
ATOM      7  C5  PXY d   1       0.010   2.455  -0.299  0.00  0.00     0.003 A 
ATOM      8  C6  PXY d   1      -0.897   1.725  -1.062  0.00  0.00     0.003 A 
ENDROOT
TORSDOF 0
ENDMDL
