MODEL 1
REMARK minimizedAffinity 2.52849221
REMARK minimizedRMSD -1
REMARK  0 active torsions:
REMARK  status: ('A' for Active; 'I' for Inactive)
ROOT
ATOM      1  C4' PXY d   1      -3.604  -1.850   5.613  0.00  0.00     0.077 C 
ATOM      2  C1' PXY d   1       0.421  -5.999   5.645  0.00  0.00     0.077 C 
ATOM      3  C1  PXY d   1      -0.625  -4.902   5.638  0.00  0.00    -0.082 A 
ATOM      4  C2  PXY d   1      -1.867  -5.180   6.000  0.00  0.00     0.003 A 
ATOM      5  C3  PXY d   1      -2.833  -4.207   5.969  0.00  0.00     0.003 A 
ATOM      6  C4  PXY d   1      -2.513  -2.924   5.614  0.00  0.00    -0.082 A 
ATOM      7  C5  PXY d   1      -1.246  -2.630   5.254  0.00  0.00     0.003 A 
ATOM      8  C6  PXY d   1      -0.289  -3.641   5.252  0.00  0.00     0.003 A 
ENDROOT
TORSDOF 0
ENDMDL
