MODEL 1
REMARK minimizedAffinity 5.3286438
REMARK minimizedRMSD -1
REMARK  0 active torsions:
REMARK  status: ('A' for Active; 'I' for Inactive)
ROOT
ATOM      1  C4' PXY d   1      -1.340   1.808   1.665  0.00  0.00     0.077 C 
ATOM      2  C1' PXY d   1       1.070   5.110  -2.422  0.00  0.00     0.077 C 
ATOM      3  C1  PXY d   1       0.436   4.255  -1.342  0.00  0.00    -0.082 A 
ATOM      4  C2  PXY d   1       0.725   2.965  -1.276  0.00  0.00     0.003 A 
ATOM      5  C3  PXY d   1       0.136   2.171  -0.326  0.00  0.00     0.003 A 
ATOM      6  C4  PXY d   1      -0.716   2.712   0.598  0.00  0.00    -0.082 A 
ATOM      7  C5  PXY d   1      -1.008   4.029   0.544  0.00  0.00     0.003 A 
ATOM      8  C6  PXY d   1      -0.432   4.810  -0.454  0.00  0.00     0.003 A 
ENDROOT
TORSDOF 0
ENDMDL
