MODEL 1
REMARK minimizedAffinity 19.073185
REMARK minimizedRMSD -1
REMARK  0 active torsions:
REMARK  status: ('A' for Active; 'I' for Inactive)
ROOT
ATOM      1  C4' PXY d   1       2.685  -2.621  -5.577  0.00  0.00     0.077 C 
ATOM      2  C1' PXY d   1       0.561   2.754  -5.475  0.00  0.00     0.077 C 
ATOM      3  C1  PXY d   1       1.130   1.349  -5.501  0.00  0.00    -0.082 A 
ATOM      4  C2  PXY d   1       0.404   0.359  -5.995  0.00  0.00     0.003 A 
ATOM      5  C3  PXY d   1       0.891  -0.923  -5.997  0.00  0.00     0.003 A 
ATOM      6  C4  PXY d   1       2.154  -1.185  -5.538  0.00  0.00    -0.082 A 
ATOM      7  C5  PXY d   1       2.905  -0.178  -5.043  0.00  0.00     0.003 A 
ATOM      8  C6  PXY d   1       2.376   1.109  -5.012  0.00  0.00     0.003 A 
ENDROOT
TORSDOF 0
ENDMDL
