MODEL 1
REMARK minimizedAffinity 17.3622246
REMARK minimizedRMSD -1
REMARK  0 active torsions:
REMARK  status: ('A' for Active; 'I' for Inactive)
ROOT
ATOM      1  C4' PXY d   1      -1.298   3.278  -2.245  0.00  0.00     0.077 C 
ATOM      2  C1' PXY d   1      -0.529   1.598   3.233  0.00  0.00     0.077 C 
ATOM      3  C1  PXY d   1      -0.718   2.040   1.795  0.00  0.00    -0.082 A 
ATOM      4  C2  PXY d   1      -1.884   2.534   1.410  0.00  0.00     0.003 A 
ATOM      5  C3  PXY d   1      -2.082   2.909   0.106  0.00  0.00     0.003 A 
ATOM      6  C4  PXY d   1      -1.059   2.828  -0.801  0.00  0.00    -0.082 A 
ATOM      7  C5  PXY d   1       0.136   2.335  -0.413  0.00  0.00     0.003 A 
ATOM      8  C6  PXY d   1       0.304   1.922   0.905  0.00  0.00     0.003 A 
ENDROOT
TORSDOF 0
ENDMDL
