MODEL 1
REMARK minimizedAffinity 24.3302422
REMARK minimizedRMSD -1
REMARK  0 active torsions:
REMARK  status: ('A' for Active; 'I' for Inactive)
ROOT
ATOM      1  C4' PXY d   1       0.583   1.442   3.789  0.00  0.00     0.077 C 
ATOM      2  C1' PXY d   1      -1.222   3.566  -1.275  0.00  0.00     0.077 C 
ATOM      3  C1  PXY d   1      -0.761   3.008   0.057  0.00  0.00    -0.082 A 
ATOM      4  C2  PXY d   1       0.443   3.314   0.513  0.00  0.00     0.003 A 
ATOM      5  C3  PXY d   1       0.888   2.792   1.700  0.00  0.00     0.003 A 
ATOM      6  C4  PXY d   1       0.072   1.991   2.454  0.00  0.00    -0.082 A 
ATOM      7  C5  PXY d   1      -1.161   1.682   2.000  0.00  0.00     0.003 A 
ATOM      8  C6  PXY d   1      -1.578   2.189   0.773  0.00  0.00     0.003 A 
ENDROOT
TORSDOF 0
ENDMDL
