MODEL 1
REMARK minimizedAffinity 11.5265846
REMARK minimizedRMSD -1
REMARK  0 active torsions:
REMARK  status: ('A' for Active; 'I' for Inactive)
ROOT
ATOM      1  C4' PXY d   1      -0.548   1.351   1.741  0.00  0.00     0.077 C 
ATOM      2  C1' PXY d   1       0.400   5.361  -2.313  0.00  0.00     0.077 C 
ATOM      3  C1  PXY d   1       0.144   4.303  -1.258  0.00  0.00    -0.082 A 
ATOM      4  C2  PXY d   1       0.245   4.618   0.023  0.00  0.00     0.003 A 
ATOM      5  C3  PXY d   1       0.048   3.665   0.989  0.00  0.00     0.003 A 
ATOM      6  C4  PXY d   1      -0.308   2.390   0.642  0.00  0.00    -0.082 A 
ATOM      7  C5  PXY d   1      -0.424   2.063  -0.663  0.00  0.00     0.003 A 
ATOM      8  C6  PXY d   1      -0.179   3.034  -1.629  0.00  0.00     0.003 A 
ENDROOT
TORSDOF 0
ENDMDL
