MODEL 1
REMARK minimizedAffinity 8.07809067
REMARK minimizedRMSD -1
REMARK  0 active torsions:
REMARK  status: ('A' for Active; 'I' for Inactive)
ROOT
ATOM      1  C2' OXE d   1       0.336  -2.009   0.388  0.00  0.00     0.078 C 
ATOM      2  C1' OXE d   1      -1.132   0.315  -0.182  0.00  0.00     0.078 C 
ATOM      3  C1  OXE d   1      -0.072   0.397   0.887  0.00  0.00    -0.078 A 
ATOM      4  C2  OXE d   1       0.610  -0.756   1.192  0.00  0.00    -0.078 A 
ATOM      5  C3  OXE d   1       1.636  -0.723   2.132  0.00  0.00     0.003 A 
ATOM      6  C4  OXE d   1       1.876   0.437   2.878  0.00  0.00    -0.002 A 
ATOM      7  C5  OXE d   1       1.166   1.613   2.611  0.00  0.00    -0.002 A 
ATOM      8  C6  OXE d   1       0.220   1.621   1.592  0.00  0.00     0.003 A 
ENDROOT
TORSDOF 0
ENDMDL
