MODEL 1
REMARK minimizedAffinity 1.51169789
REMARK minimizedRMSD -1
REMARK  0 active torsions:
REMARK  status: ('A' for Active; 'I' for Inactive)
ROOT
ATOM      1  C2' OXE d   1       0.731   3.630   1.898  0.00  0.00     0.078 C 
ATOM      2  C1' OXE d   1       2.305   1.876   3.423  0.00  0.00     0.078 C 
ATOM      3  C1  OXE d   1       1.466   1.287   2.317  0.00  0.00    -0.078 A 
ATOM      4  C2  OXE d   1       0.664   2.146   1.606  0.00  0.00    -0.078 A 
ATOM      5  C3  OXE d   1      -0.088   1.663   0.539  0.00  0.00     0.003 A 
ATOM      6  C4  OXE d   1      -0.153   0.289   0.282  0.00  0.00    -0.002 A 
ATOM      7  C5  OXE d   1       0.627  -0.609   1.019  0.00  0.00    -0.002 A 
ATOM      8  C6  OXE d   1       1.472  -0.122   2.010  0.00  0.00     0.003 A 
ENDROOT
TORSDOF 0
ENDMDL
