MODEL 1
REMARK minimizedAffinity -1.62611735
REMARK minimizedRMSD -1
REMARK  0 active torsions:
REMARK  status: ('A' for Active; 'I' for Inactive)
ROOT
ATOM      1  C2' OXE d   1       0.225   2.218   1.087  0.00  0.00     0.078 C 
ATOM      2  C1' OXE d   1       0.747   4.818   0.168  0.00  0.00     0.078 C 
ATOM      3  C1  OXE d   1       1.468   4.352   1.408  0.00  0.00    -0.078 A 
ATOM      4  C2  OXE d   1       1.172   3.095   1.877  0.00  0.00    -0.078 A 
ATOM      5  C3  OXE d   1       1.849   2.596   2.986  0.00  0.00     0.003 A 
ATOM      6  C4  OXE d   1       2.716   3.417   3.716  0.00  0.00    -0.002 A 
ATOM      7  C5  OXE d   1       3.002   4.715   3.278  0.00  0.00    -0.002 A 
ATOM      8  C6  OXE d   1       2.420   5.182   2.105  0.00  0.00     0.003 A 
ENDROOT
TORSDOF 0
ENDMDL
