MODEL 1
REMARK minimizedAffinity 0.289900362
REMARK minimizedRMSD -1
REMARK  0 active torsions:
REMARK  status: ('A' for Active; 'I' for Inactive)
ROOT
ATOM      1  C2' OXE d   1       1.525   1.312   2.555  0.00  0.00     0.078 C 
ATOM      2  C1' OXE d   1      -0.029   1.221   0.218  0.00  0.00     0.078 C 
ATOM      3  C1  OXE d   1       0.574   2.547   0.611  0.00  0.00    -0.078 A 
ATOM      4  C2  OXE d   1       1.294   2.592   1.781  0.00  0.00    -0.078 A 
ATOM      5  C3  OXE d   1       1.916   3.777   2.162  0.00  0.00     0.003 A 
ATOM      6  C4  OXE d   1       1.689   4.959   1.446  0.00  0.00    -0.002 A 
ATOM      7  C5  OXE d   1       0.927   4.943   0.273  0.00  0.00    -0.002 A 
ATOM      8  C6  OXE d   1       0.398   3.739  -0.180  0.00  0.00     0.003 A 
ENDROOT
TORSDOF 0
ENDMDL
