MODEL 1
REMARK minimizedAffinity -4.14447737
REMARK minimizedRMSD -1
REMARK  0 active torsions:
REMARK  status: ('A' for Active; 'I' for Inactive)
ROOT
ATOM      1  C2' OXE d   1       1.352  -0.286   1.997  0.00  0.00     0.078 C 
ATOM      2  C1' OXE d   1       0.932   0.333  -0.709  0.00  0.00     0.078 C 
ATOM      3  C1  OXE d   1       0.700   1.424   0.306  0.00  0.00    -0.078 A 
ATOM      4  C2  OXE d   1       0.863   1.099   1.632  0.00  0.00    -0.078 A 
ATOM      5  C3  OXE d   1       0.715   2.082   2.606  0.00  0.00     0.003 A 
ATOM      6  C4  OXE d   1       0.252   3.358   2.260  0.00  0.00    -0.002 A 
ATOM      7  C5  OXE d   1       0.042   3.698   0.920  0.00  0.00    -0.002 A 
ATOM      8  C6  OXE d   1       0.301   2.757  -0.071  0.00  0.00     0.003 A 
ENDROOT
TORSDOF 0
ENDMDL
