MODEL 1
REMARK minimizedAffinity -2.48105836
REMARK minimizedRMSD -1
REMARK  0 active torsions:
REMARK  status: ('A' for Active; 'I' for Inactive)
ROOT
ATOM      1  C2' OXE d   1       0.452  -0.273   2.194  0.00  0.00     0.078 C 
ATOM      2  C1' OXE d   1       0.890   0.068  -0.558  0.00  0.00     0.078 C 
ATOM      3  C1  OXE d   1       0.581   1.295   0.262  0.00  0.00    -0.078 A 
ATOM      4  C2  OXE d   1       0.322   1.113   1.599  0.00  0.00    -0.078 A 
ATOM      5  C3  OXE d   1       0.085   2.218   2.412  0.00  0.00     0.003 A 
ATOM      6  C4  OXE d   1      -0.044   3.495   1.853  0.00  0.00    -0.002 A 
ATOM      7  C5  OXE d   1       0.177   3.697   0.486  0.00  0.00    -0.002 A 
ATOM      8  C6  OXE d   1       0.531   2.616  -0.314  0.00  0.00     0.003 A 
ENDROOT
TORSDOF 0
ENDMDL
