MODEL 1
REMARK minimizedAffinity 1.2582581
REMARK minimizedRMSD -1
REMARK  0 active torsions:
REMARK  status: ('A' for Active; 'I' for Inactive)
ROOT
ATOM      1  C2' OXE d   1       1.596  -1.154  -0.280  0.00  0.00     0.078 C 
ATOM      2  C1' OXE d   1       0.624   1.305  -1.223  0.00  0.00     0.078 C 
ATOM      3  C1  OXE d   1       0.731   1.117   0.270  0.00  0.00    -0.078 A 
ATOM      4  C2  OXE d   1       1.164  -0.106   0.723  0.00  0.00    -0.078 A 
ATOM      5  C3  OXE d   1       1.334  -0.314   2.089  0.00  0.00     0.003 A 
ATOM      6  C4  OXE d   1       0.923   0.656   3.011  0.00  0.00    -0.002 A 
ATOM      7  C5  OXE d   1       0.442   1.894   2.571  0.00  0.00    -0.002 A 
ATOM      8  C6  OXE d   1       0.380   2.156   1.207  0.00  0.00     0.003 A 
ENDROOT
TORSDOF 0
ENDMDL
