MODEL 1
REMARK minimizedAffinity 3.24696803
REMARK minimizedRMSD -1
REMARK  0 active torsions:
REMARK  status: ('A' for Active; 'I' for Inactive)
ROOT
ATOM      1  C2' OXE d   1      -2.559  -0.107  -1.634  0.00  0.00     0.078 C 
ATOM      2  C1' OXE d   1      -3.931   0.517   0.735  0.00  0.00     0.078 C 
ATOM      3  C1  OXE d   1      -2.429   0.659   0.733  0.00  0.00    -0.078 A 
ATOM      4  C2  OXE d   1      -1.762   0.307  -0.416  0.00  0.00    -0.078 A 
ATOM      5  C3  OXE d   1      -0.382   0.471  -0.489  0.00  0.00     0.003 A 
ATOM      6  C4  OXE d   1       0.349   0.845   0.645  0.00  0.00    -0.002 A 
ATOM      7  C5  OXE d   1      -0.307   1.170   1.837  0.00  0.00    -0.002 A 
ATOM      8  C6  OXE d   1      -1.696   1.123   1.885  0.00  0.00     0.003 A 
ENDROOT
TORSDOF 0
ENDMDL
