MODEL 1
REMARK minimizedAffinity 2.6496942
REMARK minimizedRMSD -1
REMARK  1 active torsions:
REMARK  status: ('A' for Active; 'I' for Inactive)
REMARK    1  A    between atoms: C1_2  and  C2_3 
ROOT
ATOM      1  C2  UNL d   1       2.214  -2.094   3.249  0.00  0.00    -0.077 A 
ATOM      2  C3  UNL d   1       1.552  -3.326   3.351  0.00  0.00     0.002 A 
ATOM      3  C4  UNL d   1       2.124  -4.378   4.068  0.00  0.00     0.002 A 
ATOM      4  C5  UNL d   1       3.358  -4.209   4.692  0.00  0.00    -0.004 A 
ATOM      5  C6  UNL d   1       4.025  -2.988   4.596  0.00  0.00     0.002 A 
ATOM      6  C7  UNL d   1       3.455  -1.935   3.878  0.00  0.00     0.002 A 
ENDROOT
BRANCH   1   7
ATOM      7  C1  UNL d   1       1.575  -0.942   2.518  0.00  0.00     0.055 C 
ATOM      8  C   UNL d   1       2.582   0.166   2.245  0.00  0.00     0.019 C 
ENDBRANCH   1   7
TORSDOF 1
ENDMDL
