MODEL 1
REMARK minimizedAffinity 6.91966963
REMARK minimizedRMSD -1
REMARK  1 active torsions:
REMARK  status: ('A' for Active; 'I' for Inactive)
REMARK    1  A    between atoms: C1_2  and  C2_3 
ROOT
ATOM      1  C2  UNL d   1      -3.758   2.536  -0.832  0.00  0.00    -0.077 A 
ATOM      2  C3  UNL d   1      -3.420   2.590   0.527  0.00  0.00     0.002 A 
ATOM      3  C4  UNL d   1      -4.318   3.114   1.459  0.00  0.00     0.002 A 
ATOM      4  C5  UNL d   1      -5.562   3.584   1.041  0.00  0.00    -0.004 A 
ATOM      5  C6  UNL d   1      -5.907   3.536  -0.309  0.00  0.00     0.002 A 
ATOM      6  C7  UNL d   1      -5.010   3.014  -1.241  0.00  0.00     0.002 A 
ENDROOT
BRANCH   1   7
ATOM      7  C1  UNL d   1      -2.810   1.927  -1.831  0.00  0.00     0.055 C 
ATOM      8  C   UNL d   1      -3.456   1.805  -3.204  0.00  0.00     0.019 C 
ENDBRANCH   1   7
TORSDOF 1
ENDMDL
