MODEL 1
REMARK minimizedAffinity -4.19702053
REMARK minimizedRMSD -1
REMARK  1 active torsions:
REMARK  status: ('A' for Active; 'I' for Inactive)
REMARK    1  A    between atoms: C1_2  and  C2_3 
ROOT
ATOM      1  C2  UNL d   1       2.181  -2.934   3.925  0.00  0.00    -0.077 A 
ATOM      2  C3  UNL d   1       1.190  -3.925   3.885  0.00  0.00     0.002 A 
ATOM      3  C4  UNL d   1       1.117  -4.892   4.890  0.00  0.00     0.002 A 
ATOM      4  C5  UNL d   1       2.029  -4.875   5.943  0.00  0.00    -0.004 A 
ATOM      5  C6  UNL d   1       3.019  -3.895   5.991  0.00  0.00     0.002 A 
ATOM      6  C7  UNL d   1       3.095  -2.928   4.987  0.00  0.00     0.002 A 
ENDROOT
BRANCH   1   7
ATOM      7  C1  UNL d   1       2.232  -1.861   2.869  0.00  0.00     0.055 C 
ATOM      8  C   UNL d   1       1.420  -0.641   3.280  0.00  0.00     0.019 C 
ENDBRANCH   1   7
TORSDOF 1
ENDMDL
