MODEL 1
REMARK minimizedAffinity -1.58729756
REMARK minimizedRMSD -1
REMARK  1 active torsions:
REMARK  status: ('A' for Active; 'I' for Inactive)
REMARK    1  A    between atoms: C1_2  and  C2_3 
ROOT
ATOM      1  C2  UNL d   1       1.704  -2.463   3.067  0.00  0.00    -0.077 A 
ATOM      2  C3  UNL d   1       1.566  -2.271   4.449  0.00  0.00     0.002 A 
ATOM      3  C4  UNL d   1       1.988  -3.255   5.345  0.00  0.00     0.002 A 
ATOM      4  C5  UNL d   1       2.553  -4.437   4.869  0.00  0.00    -0.004 A 
ATOM      5  C6  UNL d   1       2.692  -4.638   3.496  0.00  0.00     0.002 A 
ATOM      6  C7  UNL d   1       2.271  -3.656   2.600  0.00  0.00     0.002 A 
ENDROOT
BRANCH   1   7
ATOM      7  C1  UNL d   1       1.296  -1.382   2.101  0.00  0.00     0.055 C 
ATOM      8  C   UNL d   1       2.213  -0.172   2.205  0.00  0.00     0.019 C 
ENDBRANCH   1   7
TORSDOF 1
ENDMDL
