MODEL 1
REMARK minimizedAffinity 3.81042147
REMARK minimizedRMSD -1
REMARK  1 active torsions:
REMARK  status: ('A' for Active; 'I' for Inactive)
REMARK    1  A    between atoms: C1_2  and  C2_3 
ROOT
ATOM      1  C2  UNL d   1       3.532  -2.181   2.737  0.00  0.00    -0.077 A 
ATOM      2  C3  UNL d   1       3.403  -1.078   1.882  0.00  0.00     0.002 A 
ATOM      3  C4  UNL d   1       2.145  -0.535   1.615  0.00  0.00     0.002 A 
ATOM      4  C5  UNL d   1       1.008  -1.086   2.201  0.00  0.00    -0.004 A 
ATOM      5  C6  UNL d   1       1.125  -2.185   3.051  0.00  0.00     0.002 A 
ATOM      6  C7  UNL d   1       2.382  -2.730   3.318  0.00  0.00     0.002 A 
ENDROOT
BRANCH   1   7
ATOM      7  C1  UNL d   1       4.893  -2.738   3.066  0.00  0.00     0.055 C 
ATOM      8  C   UNL d   1       5.968  -2.135   2.173  0.00  0.00     0.019 C 
ENDBRANCH   1   7
TORSDOF 1
ENDMDL
