MODEL 1
REMARK minimizedAffinity 4.07286215
REMARK minimizedRMSD -1
REMARK  1 active torsions:
REMARK  status: ('A' for Active; 'I' for Inactive)
REMARK    1  A    between atoms: C1_2  and  C2_3 
ROOT
ATOM      1  C2  UNL d   1      -3.831   3.034  -0.787  0.00  0.00    -0.077 A 
ATOM      2  C3  UNL d   1      -3.237   2.644   0.422  0.00  0.00     0.002 A 
ATOM      3  C4  UNL d   1      -3.992   2.596   1.596  0.00  0.00     0.002 A 
ATOM      4  C5  UNL d   1      -5.344   2.932   1.572  0.00  0.00    -0.004 A 
ATOM      5  C6  UNL d   1      -5.943   3.323   0.375  0.00  0.00     0.002 A 
ATOM      6  C7  UNL d   1      -5.190   3.373  -0.799  0.00  0.00     0.002 A 
ENDROOT
BRANCH   1   7
ATOM      7  C1  UNL d   1      -3.031   3.040  -2.063  0.00  0.00     0.055 C 
ATOM      8  C   UNL d   1      -3.048   1.673  -2.733  0.00  0.00     0.019 C 
ENDBRANCH   1   7
TORSDOF 1
ENDMDL
