MODEL 1
REMARK minimizedAffinity -0.771559179
REMARK minimizedRMSD -1
REMARK  1 active torsions:
REMARK  status: ('A' for Active; 'I' for Inactive)
REMARK    1  A    between atoms: C1_2  and  C2_3 
ROOT
ATOM      1  C2  UNL d   1       2.162  -1.181   2.600  0.00  0.00    -0.077 A 
ATOM      2  C3  UNL d   1       3.320  -1.971   2.554  0.00  0.00     0.002 A 
ATOM      3  C4  UNL d   1       3.349  -3.218   3.182  0.00  0.00     0.002 A 
ATOM      4  C5  UNL d   1       2.224  -3.687   3.856  0.00  0.00    -0.004 A 
ATOM      5  C6  UNL d   1       1.069  -2.908   3.910  0.00  0.00     0.002 A 
ATOM      6  C7  UNL d   1       1.038  -1.661   3.283  0.00  0.00     0.002 A 
ENDROOT
BRANCH   1   7
ATOM      7  C1  UNL d   1       2.112   0.142   1.882  0.00  0.00     0.055 C 
ATOM      8  C   UNL d   1       3.050   0.157   0.683  0.00  0.00     0.019 C 
ENDBRANCH   1   7
TORSDOF 1
ENDMDL
