MODEL 1
REMARK minimizedAffinity 1.83861244
REMARK minimizedRMSD -1
REMARK  1 active torsions:
REMARK  status: ('A' for Active; 'I' for Inactive)
REMARK    1  A    between atoms: C1_2  and  C2_3 
ROOT
ATOM      1  C2  UNL d   1       1.990  -0.461   2.254  0.00  0.00    -0.077 A 
ATOM      2  C3  UNL d   1       1.925   0.440   3.326  0.00  0.00     0.002 A 
ATOM      3  C4  UNL d   1       2.630   1.645   3.278  0.00  0.00     0.002 A 
ATOM      4  C5  UNL d   1       3.399   1.961   2.160  0.00  0.00    -0.004 A 
ATOM      5  C6  UNL d   1       3.471   1.069   1.090  0.00  0.00     0.002 A 
ATOM      6  C7  UNL d   1       2.769  -0.136   1.137  0.00  0.00     0.002 A 
ENDROOT
BRANCH   1   7
ATOM      7  C1  UNL d   1       1.192  -1.739   2.282  0.00  0.00     0.055 C 
ATOM      8  C   UNL d   1       2.033  -2.906   2.779  0.00  0.00     0.019 C 
ENDBRANCH   1   7
TORSDOF 1
ENDMDL
