MODEL 1
REMARK minimizedAffinity 7.56296492
REMARK minimizedRMSD -1
REMARK  1 active torsions:
REMARK  status: ('A' for Active; 'I' for Inactive)
REMARK    1  A    between atoms: C1_2  and  C2_3 
ROOT
ATOM      1  C2  UNL d   1      -5.416   3.840  -2.104  0.00  0.00    -0.077 A 
ATOM      2  C3  UNL d   1      -4.296   3.007  -1.966  0.00  0.00     0.002 A 
ATOM      3  C4  UNL d   1      -3.769   2.342  -3.075  0.00  0.00     0.002 A 
ATOM      4  C5  UNL d   1      -4.353   2.506  -4.330  0.00  0.00    -0.004 A 
ATOM      5  C6  UNL d   1      -5.468   3.330  -4.477  0.00  0.00     0.002 A 
ATOM      6  C7  UNL d   1      -5.996   3.995  -3.369  0.00  0.00     0.002 A 
ENDROOT
BRANCH   1   7
ATOM      7  C1  UNL d   1      -5.955   4.597  -0.918  0.00  0.00     0.055 C 
ATOM      8  C   UNL d   1      -5.535   3.946   0.391  0.00  0.00     0.019 C 
ENDBRANCH   1   7
TORSDOF 1
ENDMDL
