MODEL 1
REMARK minimizedAffinity -3.08600211
REMARK minimizedRMSD -1
REMARK  1 active torsions:
REMARK  status: ('A' for Active; 'I' for Inactive)
REMARK    1  A    between atoms: C1_2  and  C2_3 
ROOT
ATOM      1  C2  UNL d   1       0.411   0.073   0.406  0.00  0.00    -0.073 A 
ATOM      2  C3  UNL d   1       0.909  -0.995  -0.350  0.00  0.00    -0.002 A 
ATOM      3  C4  UNL d   1       0.605  -1.098  -1.708  0.00  0.00     0.004 A 
ATOM      4  C5  UNL d   1      -0.192  -0.134  -2.325  0.00  0.00    -0.004 A 
ATOM      5  C6  UNL d   1      -0.689   0.946  -1.590  0.00  0.00    -0.075 A 
ATOM      6  C7  UNL d   1      -1.549   1.991  -2.238  0.00  0.00     0.076 C 
ATOM      7  C8  UNL d   1      -0.382   1.042  -0.226  0.00  0.00     0.001 A 
ENDROOT
BRANCH   1   8
ATOM      8  C1  UNL d   1       0.741   0.193   1.871  0.00  0.00     0.053 C 
ATOM      9  C   UNL d   1       0.601  -1.136   2.597  0.00  0.00     0.018 C 
ENDBRANCH   1   8
TORSDOF 1
ENDMDL
