MODEL 1
REMARK minimizedAffinity -2.75315428
REMARK minimizedRMSD -1
REMARK  1 active torsions:
REMARK  status: ('A' for Active; 'I' for Inactive)
REMARK    1  A    between atoms: C1_2  and  C2_3 
ROOT
ATOM      1  C2  UNL d   1      -0.019   0.770  -0.626  0.00  0.00    -0.073 A 
ATOM      2  C3  UNL d   1      -1.274   0.151  -0.628  0.00  0.00    -0.002 A 
ATOM      3  C4  UNL d   1      -1.663  -0.659   0.440  0.00  0.00     0.004 A 
ATOM      4  C5  UNL d   1      -0.805  -0.852   1.523  0.00  0.00    -0.004 A 
ATOM      5  C6  UNL d   1       0.448  -0.232   1.549  0.00  0.00    -0.075 A 
ATOM      6  C7  UNL d   1       1.383  -0.431   2.706  0.00  0.00     0.076 C 
ATOM      7  C8  UNL d   1       0.832   0.578   0.472  0.00  0.00     0.001 A 
ENDROOT
BRANCH   1   8
ATOM      8  C1  UNL d   1       0.403   1.651  -1.774  0.00  0.00     0.053 C 
ATOM      9  C   UNL d   1      -0.755   2.473  -2.316  0.00  0.00     0.018 C 
ENDBRANCH   1   8
TORSDOF 1
ENDMDL
