MODEL 1
REMARK minimizedAffinity -0.467456669
REMARK minimizedRMSD -1
REMARK  1 active torsions:
REMARK  status: ('A' for Active; 'I' for Inactive)
REMARK    1  A    between atoms: C1_2  and  C2_3 
ROOT
ATOM      1  C2  UNL d   1       0.041   0.385  -0.371  0.00  0.00    -0.073 A 
ATOM      2  C3  UNL d   1      -1.232  -0.137  -0.114  0.00  0.00    -0.002 A 
ATOM      3  C4  UNL d   1      -1.456  -0.923   1.016  0.00  0.00     0.004 A 
ATOM      4  C5  UNL d   1      -0.414  -1.191   1.903  0.00  0.00    -0.004 A 
ATOM      5  C6  UNL d   1       0.863  -0.668   1.670  0.00  0.00    -0.075 A 
ATOM      6  C7  UNL d   1       1.995  -0.948   2.614  0.00  0.00     0.076 C 
ATOM      7  C8  UNL d   1       1.081   0.119   0.531  0.00  0.00     0.001 A 
ENDROOT
BRANCH   1   8
ATOM      8  C1  UNL d   1       0.287   1.240  -1.587  0.00  0.00     0.053 C 
ATOM      9  C   UNL d   1      -0.997   1.857  -2.119  0.00  0.00     0.018 C 
ENDBRANCH   1   8
TORSDOF 1
ENDMDL
