MODEL 1
REMARK minimizedAffinity 3.36195731
REMARK minimizedRMSD -1
REMARK  1 active torsions:
REMARK  status: ('A' for Active; 'I' for Inactive)
REMARK    1  A    between atoms: C3_4  and  O_7 
ROOT
ATOM      1  C   UNL d   1      -4.918   2.648  -3.392  0.00  0.00    -0.033 A 
ATOM      2  C1  UNL d   1      -6.000   2.891  -4.241  0.00  0.00     0.039 A 
ATOM      3  C2  UNL d   1      -6.000   4.013  -5.072  0.00  0.00    -0.080 A 
ATOM      4  C3  UNL d   1      -4.913   4.883  -5.045  0.00  0.00     0.150 A 
ATOM      5  C4  UNL d   1      -3.831   4.646  -4.205  0.00  0.00    -0.007 A 
ATOM      6  C5  UNL d   1      -3.833   3.525  -3.375  0.00  0.00     0.039 A 
ENDROOT
BRANCH   4   7
ATOM      7  O   UNL d   1      -4.870   5.994  -5.834  0.00  0.00    -0.526 OA
ATOM      8  H5  UNL d   1      -5.698   6.044  -6.340  0.00  0.00     0.418 HD
ENDBRANCH   4   7
TORSDOF 1
ENDMDL
