MODEL 1
REMARK minimizedAffinity 1.71541369
REMARK minimizedRMSD -1
REMARK  1 active torsions:
REMARK  status: ('A' for Active; 'I' for Inactive)
REMARK    1  A    between atoms: C3_4  and  O_7 
ROOT
ATOM      1  C   UNL d   1      -1.471   1.364  -2.862  0.00  0.00    -0.033 A 
ATOM      2  C1  UNL d   1      -2.634   0.623  -2.639  0.00  0.00     0.039 A 
ATOM      3  C2  UNL d   1      -2.613  -0.767  -2.764  0.00  0.00    -0.080 A 
ATOM      4  C3  UNL d   1      -1.424  -1.404  -3.111  0.00  0.00     0.150 A 
ATOM      5  C4  UNL d   1      -0.262  -0.673  -3.331  0.00  0.00    -0.007 A 
ATOM      6  C5  UNL d   1      -0.285   0.716  -3.207  0.00  0.00     0.039 A 
ENDROOT
BRANCH   4   7
ATOM      7  O   UNL d   1      -1.356  -2.759  -3.250  0.00  0.00    -0.526 OA
ATOM      8  H5  UNL d   1      -2.241  -3.129  -3.096  0.00  0.00     0.418 HD
ENDBRANCH   4   7
TORSDOF 1
ENDMDL
