MODEL 1
REMARK minimizedAffinity 2.99076986
REMARK minimizedRMSD -1
REMARK  1 active torsions:
REMARK  status: ('A' for Active; 'I' for Inactive)
REMARK    1  A    between atoms: C3_4  and  O_7 
ROOT
ATOM      1  C   UNL d   1       5.533  -3.401  -1.503  0.00  0.00    -0.033 A 
ATOM      2  C1  UNL d   1       4.914  -2.282  -2.064  0.00  0.00     0.039 A 
ATOM      3  C2  UNL d   1       4.107  -1.460  -1.276  0.00  0.00    -0.080 A 
ATOM      4  C3  UNL d   1       3.929  -1.765   0.071  0.00  0.00     0.150 A 
ATOM      5  C4  UNL d   1       4.546  -2.875   0.638  0.00  0.00    -0.007 A 
ATOM      6  C5  UNL d   1       5.351  -3.696  -0.152  0.00  0.00     0.039 A 
ENDROOT
BRANCH   4   7
ATOM      7  O   UNL d   1       3.147  -0.994   0.879  0.00  0.00    -0.526 OA
ATOM      8  H5  UNL d   1       2.763  -0.280   0.345  0.00  0.00     0.418 HD
ENDBRANCH   4   7
TORSDOF 1
ENDMDL
