MODEL 1
REMARK minimizedAffinity 4.37252426
REMARK minimizedRMSD -1
REMARK  1 active torsions:
REMARK  status: ('A' for Active; 'I' for Inactive)
REMARK    1  A    between atoms: C3_4  and  O_7 
ROOT
ATOM      1  C   UNL d   1      -0.523   2.373  -0.610  0.00  0.00    -0.033 A 
ATOM      2  C1  UNL d   1       0.712   1.727  -0.688  0.00  0.00     0.039 A 
ATOM      3  C2  UNL d   1       1.046   0.990  -1.826  0.00  0.00    -0.080 A 
ATOM      4  C3  UNL d   1       0.139   0.909  -2.878  0.00  0.00     0.150 A 
ATOM      5  C4  UNL d   1      -1.092   1.554  -2.809  0.00  0.00    -0.007 A 
ATOM      6  C5  UNL d   1      -1.424   2.288  -1.671  0.00  0.00     0.039 A 
ENDROOT
BRANCH   4   7
ATOM      7  O   UNL d   1       0.418   0.198  -4.007  0.00  0.00    -0.526 OA
ATOM      8  H5  UNL d   1       1.291  -0.217  -3.901  0.00  0.00     0.418 HD
ENDBRANCH   4   7
TORSDOF 1
ENDMDL
