MODEL 1
REMARK minimizedAffinity 0.789354444
REMARK minimizedRMSD -1
REMARK  1 active torsions:
REMARK  status: ('A' for Active; 'I' for Inactive)
REMARK    1  A    between atoms: C3_4  and  O_7 
ROOT
ATOM      1  C   UNL d   1      -4.103   5.379  -5.241  0.00  0.00    -0.033 A 
ATOM      2  C1  UNL d   1      -5.343   5.064  -5.800  0.00  0.00     0.039 A 
ATOM      3  C2  UNL d   1      -5.997   3.886  -5.433  0.00  0.00    -0.080 A 
ATOM      4  C3  UNL d   1      -5.402   3.034  -4.507  0.00  0.00     0.150 A 
ATOM      5  C4  UNL d   1      -4.168   3.343  -3.944  0.00  0.00    -0.007 A 
ATOM      6  C5  UNL d   1      -3.516   4.519  -4.312  0.00  0.00     0.039 A 
ENDROOT
BRANCH   4   7
ATOM      7  O   UNL d   1      -6.000   1.871  -4.122  0.00  0.00    -0.526 OA
ATOM      8  H5  UNL d   1      -6.832   1.775  -4.614  0.00  0.00     0.418 HD
ENDBRANCH   4   7
TORSDOF 1
ENDMDL
