MODEL 1
REMARK minimizedAffinity -0.146106988
REMARK minimizedRMSD -1
REMARK  1 active torsions:
REMARK  status: ('A' for Active; 'I' for Inactive)
REMARK    1  A    between atoms: C3_4  and  O_7 
ROOT
ATOM      1  C   UNL d   1       5.024  -4.316  -3.247  0.00  0.00    -0.033 A 
ATOM      2  C1  UNL d   1       5.983  -3.907  -2.318  0.00  0.00     0.039 A 
ATOM      3  C2  UNL d   1       6.000  -4.465  -1.038  0.00  0.00    -0.080 A 
ATOM      4  C3  UNL d   1       5.054  -5.429  -0.701  0.00  0.00     0.150 A 
ATOM      5  C4  UNL d   1       4.098  -5.843  -1.623  0.00  0.00    -0.007 A 
ATOM      6  C5  UNL d   1       4.083  -5.285  -2.900  0.00  0.00     0.039 A 
ENDROOT
BRANCH   4   7
ATOM      7  O   UNL d   1       5.027  -5.998   0.538  0.00  0.00    -0.526 OA
ATOM      8  H5  UNL d   1       5.727  -5.594   1.077  0.00  0.00     0.418 HD
ENDBRANCH   4   7
TORSDOF 1
ENDMDL
