MODEL 1
REMARK minimizedAffinity 1.82567
REMARK minimizedRMSD -1
REMARK  1 active torsions:
REMARK  status: ('A' for Active; 'I' for Inactive)
REMARK    1  A    between atoms: C3_4  and  O_7 
ROOT
ATOM      1  C   UNL d   1      -0.888   2.414  -1.572  0.00  0.00    -0.033 A 
ATOM      2  C1  UNL d   1      -0.168   2.412  -0.375  0.00  0.00     0.039 A 
ATOM      3  C2  UNL d   1       0.859   1.488  -0.178  0.00  0.00    -0.080 A 
ATOM      4  C3  UNL d   1       1.157   0.573  -1.184  0.00  0.00     0.150 A 
ATOM      5  C4  UNL d   1       0.447   0.572  -2.380  0.00  0.00    -0.007 A 
ATOM      6  C5  UNL d   1      -0.579   1.495  -2.575  0.00  0.00     0.039 A 
ENDROOT
BRANCH   4   7
ATOM      7  O   UNL d   1       2.148  -0.352  -1.035  0.00  0.00    -0.526 OA
ATOM      8  H5  UNL d   1       2.533  -0.251  -0.149  0.00  0.00     0.418 HD
ENDBRANCH   4   7
TORSDOF 1
ENDMDL
