MODEL 1
REMARK minimizedAffinity 3.19349551
REMARK minimizedRMSD -1
REMARK  1 active torsions:
REMARK  status: ('A' for Active; 'I' for Inactive)
REMARK    1  A    between atoms: C3_4  and  O_7 
ROOT
ATOM      1  C   UNL d   1      -0.341   3.446   0.429  0.00  0.00    -0.033 A 
ATOM      2  C1  UNL d   1       1.016   3.162   0.594  0.00  0.00     0.039 A 
ATOM      3  C2  UNL d   1       1.978   3.940  -0.054  0.00  0.00    -0.080 A 
ATOM      4  C3  UNL d   1       1.570   4.999  -0.861  0.00  0.00     0.150 A 
ATOM      5  C4  UNL d   1       0.219   5.289  -1.026  0.00  0.00    -0.007 A 
ATOM      6  C5  UNL d   1      -0.739   4.510  -0.380  0.00  0.00     0.039 A 
ENDROOT
BRANCH   4   7
ATOM      7  O   UNL d   1       2.471   5.783  -1.517  0.00  0.00    -0.526 OA
ATOM      8  H5  UNL d   1       3.364   5.447  -1.332  0.00  0.00     0.418 HD
ENDBRANCH   4   7
TORSDOF 1
ENDMDL
