MODEL 1
REMARK minimizedAffinity 6.73615837
REMARK minimizedRMSD -1
REMARK  1 active torsions:
REMARK  status: ('A' for Active; 'I' for Inactive)
REMARK    1  A    between atoms: C3_4  and  O_7 
ROOT
ATOM      1  C   UNL d   1      -3.971   3.087  -3.754  0.00  0.00    -0.033 A 
ATOM      2  C1  UNL d   1      -5.290   2.838  -4.137  0.00  0.00     0.039 A 
ATOM      3  C2  UNL d   1      -5.988   3.780  -4.895  0.00  0.00    -0.080 A 
ATOM      4  C3  UNL d   1      -5.356   4.964  -5.264  0.00  0.00     0.150 A 
ATOM      5  C4  UNL d   1      -4.041   5.217  -4.889  0.00  0.00    -0.007 A 
ATOM      6  C5  UNL d   1      -3.346   4.276  -4.131  0.00  0.00     0.039 A 
ENDROOT
BRANCH   4   7
ATOM      7  O   UNL d   1      -5.999   5.915  -6.000  0.00  0.00    -0.526 OA
ATOM      8  H5  UNL d   1      -6.909   5.617  -6.161  0.00  0.00     0.418 HD
ENDBRANCH   4   7
TORSDOF 1
ENDMDL
