MODEL 1
REMARK minimizedAffinity 6.1451149
REMARK minimizedRMSD -1
REMARK  2 active torsions:
REMARK  status: ('A' for Active; 'I' for Inactive)
REMARK    1  A    between atoms: C2'_3  and  C1'_4 
REMARK    2  A    between atoms: C1'_4  and  C1_5 
ROOT
ATOM      1  C1  I4B d   1       0.915  -0.041  -0.627  0.00  0.00    -0.075 A 
ATOM      2  C2  I4B d   1      -0.054  -0.996  -0.812  0.00  0.00     0.003 A 
ATOM      3  C3  I4B d   1       0.283  -2.370  -0.771  0.00  0.00     0.002 A 
ATOM      4  C4  I4B d   1       1.600  -2.742  -0.594  0.00  0.00    -0.004 A 
ATOM      5  C5  I4B d   1       2.577  -1.773  -0.384  0.00  0.00     0.002 A 
ATOM      6  C6  I4B d   1       2.231  -0.414  -0.388  0.00  0.00     0.003 A 
ENDROOT
BRANCH   1   7
ATOM      7  C1' I4B d   1       0.529   1.402  -0.709  0.00  0.00     0.060 C 
BRANCH   7   8
ATOM      8  C2' I4B d   1       0.955   2.073   0.581  0.00  0.00    -0.013 C 
ATOM      9  C4' I4B d   1       2.211   2.881   0.387  0.00  0.00     0.013 C 
ATOM     10  C3' I4B d   1      -0.178   2.937   1.049  0.00  0.00     0.013 C 
ENDBRANCH   7   8
ENDBRANCH   1   7
TORSDOF 2
ENDMDL
