MODEL 1
REMARK minimizedAffinity 4.56932354
REMARK minimizedRMSD -1
REMARK  2 active torsions:
REMARK  status: ('A' for Active; 'I' for Inactive)
REMARK    1  A    between atoms: C2'_3  and  C1'_4 
REMARK    2  A    between atoms: C1'_4  and  C1_5 
ROOT
ATOM      1  C1  I4B d   1      -4.912   0.723  -1.947  0.00  0.00    -0.075 A 
ATOM      2  C2  I4B d   1      -5.752   1.780  -2.198  0.00  0.00     0.003 A 
ATOM      3  C3  I4B d   1      -5.797   2.363  -3.488  0.00  0.00     0.002 A 
ATOM      4  C4  I4B d   1      -4.955   1.894  -4.475  0.00  0.00    -0.004 A 
ATOM      5  C5  I4B d   1      -4.121   0.808  -4.225  0.00  0.00     0.002 A 
ATOM      6  C6  I4B d   1      -4.108   0.211  -2.956  0.00  0.00     0.003 A 
ENDROOT
BRANCH   1   7
ATOM      7  C1' I4B d   1      -4.866   0.153  -0.565  0.00  0.00     0.060 C 
BRANCH   7   8
ATOM      8  C2' I4B d   1      -4.729   1.304   0.411  0.00  0.00    -0.013 C 
ATOM      9  C4' I4B d   1      -5.768   1.223   1.499  0.00  0.00     0.013 C 
ATOM     10  C3' I4B d   1      -3.343   1.264   0.982  0.00  0.00     0.013 C 
ENDBRANCH   7   8
ENDBRANCH   1   7
TORSDOF 2
ENDMDL
