MODEL 1
REMARK minimizedAffinity 7.51382637
REMARK minimizedRMSD -1
REMARK  2 active torsions:
REMARK  status: ('A' for Active; 'I' for Inactive)
REMARK    1  A    between atoms: C2'_3  and  C1'_4 
REMARK    2  A    between atoms: C1'_4  and  C1_5 
ROOT
ATOM      1  C1  I4B d   1      -1.849   2.760   1.726  0.00  0.00    -0.075 A 
ATOM      2  C2  I4B d   1      -1.264   1.873   2.594  0.00  0.00     0.003 A 
ATOM      3  C3  I4B d   1       0.134   1.654   2.555  0.00  0.00     0.002 A 
ATOM      4  C4  I4B d   1       0.897   2.301   1.605  0.00  0.00    -0.004 A 
ATOM      5  C5  I4B d   1       0.306   3.217   0.740  0.00  0.00     0.002 A 
ATOM      6  C6  I4B d   1      -1.074   3.458   0.808  0.00  0.00     0.003 A 
ENDROOT
BRANCH   1   7
ATOM      7  C1' I4B d   1      -3.333   2.943   1.773  0.00  0.00     0.060 C 
BRANCH   7   8
ATOM      8  C2' I4B d   1      -3.974   1.572   1.710  0.00  0.00    -0.013 C 
ATOM      9  C4' I4B d   1      -5.280   1.547   2.460  0.00  0.00     0.013 C 
ATOM     10  C3' I4B d   1      -4.172   1.218   0.266  0.00  0.00     0.013 C 
ENDBRANCH   7   8
ENDBRANCH   1   7
TORSDOF 2
ENDMDL
