MODEL 1
REMARK minimizedAffinity 9.70388985
REMARK minimizedRMSD -1
REMARK  2 active torsions:
REMARK  status: ('A' for Active; 'I' for Inactive)
REMARK    1  A    between atoms: C2'_3  and  C1'_4 
REMARK    2  A    between atoms: C1'_4  and  C1_5 
ROOT
ATOM      1  C1  I4B d   1       1.736   1.318   0.320  0.00  0.00    -0.075 A 
ATOM      2  C2  I4B d   1       1.943   2.325   1.229  0.00  0.00     0.003 A 
ATOM      3  C3  I4B d   1       0.943   3.301   1.453  0.00  0.00     0.002 A 
ATOM      4  C4  I4B d   1      -0.222   3.262   0.714  0.00  0.00    -0.004 A 
ATOM      5  C5  I4B d   1      -0.441   2.227  -0.191  0.00  0.00     0.002 A 
ATOM      6  C6  I4B d   1       0.539   1.242  -0.381  0.00  0.00     0.003 A 
ENDROOT
BRANCH   1   7
ATOM      7  C1' I4B d   1       2.827   0.323   0.085  0.00  0.00     0.060 C 
BRANCH   7   8
ATOM      8  C2' I4B d   1       2.183  -0.993  -0.304  0.00  0.00    -0.013 C 
ATOM      9  C4' I4B d   1       2.840  -1.581  -1.525  0.00  0.00     0.013 C 
ATOM     10  C3' I4B d   1       2.287  -1.923   0.868  0.00  0.00     0.013 C 
ENDBRANCH   7   8
ENDBRANCH   1   7
TORSDOF 2
ENDMDL
