MODEL 1
REMARK minimizedAffinity 2.56709743
REMARK minimizedRMSD -1
REMARK  2 active torsions:
REMARK  status: ('A' for Active; 'I' for Inactive)
REMARK    1  A    between atoms: C2'_3  and  C1'_4 
REMARK    2  A    between atoms: C1'_4  and  C1_5 
ROOT
ATOM      1  C1  I4B d   1       1.479  -0.110  -0.277  0.00  0.00    -0.075 A 
ATOM      2  C2  I4B d   1       0.371  -0.750  -0.776  0.00  0.00     0.003 A 
ATOM      3  C3  I4B d   1       0.318  -2.164  -0.804  0.00  0.00     0.002 A 
ATOM      4  C4  I4B d   1       1.407  -2.895  -0.374  0.00  0.00    -0.004 A 
ATOM      5  C5  I4B d   1       2.519  -2.245   0.152  0.00  0.00     0.002 A 
ATOM      6  C6  I4B d   1       2.551  -0.844   0.213  0.00  0.00     0.003 A 
ENDROOT
BRANCH   1   7
ATOM      7  C1' I4B d   1       1.516   1.385  -0.292  0.00  0.00     0.060 C 
BRANCH   7   8
ATOM      8  C2' I4B d   1       0.283   1.890   0.430  0.00  0.00    -0.013 C 
ATOM      9  C4' I4B d   1       0.428   1.744   1.922  0.00  0.00     0.013 C 
ATOM     10  C3' I4B d   1       0.075   3.324   0.044  0.00  0.00     0.013 C 
ENDBRANCH   7   8
ENDBRANCH   1   7
TORSDOF 2
ENDMDL
