MODEL 1
REMARK minimizedAffinity 3.30768991
REMARK minimizedRMSD -1
REMARK  2 active torsions:
REMARK  status: ('A' for Active; 'I' for Inactive)
REMARK    1  A    between atoms: C2'_3  and  C1'_4 
REMARK    2  A    between atoms: C1'_4  and  C1_5 
ROOT
ATOM      1  C1  I4B d   1       1.679   2.273   1.848  0.00  0.00    -0.075 A 
ATOM      2  C2  I4B d   1       0.523   2.989   2.034  0.00  0.00     0.003 A 
ATOM      3  C3  I4B d   1      -0.283   3.342   0.925  0.00  0.00     0.002 A 
ATOM      4  C4  I4B d   1       0.128   3.006  -0.349  0.00  0.00    -0.004 A 
ATOM      5  C5  I4B d   1       1.289   2.260  -0.534  0.00  0.00     0.002 A 
ATOM      6  C6  I4B d   1       2.064   1.881   0.572  0.00  0.00     0.003 A 
ENDROOT
BRANCH   1   7
ATOM      7  C1' I4B d   1       2.524   1.945   3.038  0.00  0.00     0.060 C 
BRANCH   7   8
ATOM      8  C2' I4B d   1       3.911   2.503   2.795  0.00  0.00    -0.013 C 
ATOM      9  C4' I4B d   1       3.976   3.969   3.134  0.00  0.00     0.013 C 
ATOM     10  C3' I4B d   1       4.880   1.713   3.622  0.00  0.00     0.013 C 
ENDBRANCH   7   8
ENDBRANCH   1   7
TORSDOF 2
ENDMDL
