MODEL 1
REMARK minimizedAffinity 6.11220312
REMARK minimizedRMSD -1
REMARK  2 active torsions:
REMARK  status: ('A' for Active; 'I' for Inactive)
REMARK    1  A    between atoms: C2'_3  and  C1'_4 
REMARK    2  A    between atoms: C1'_4  and  C1_5 
ROOT
ATOM      1  C1  I4B d   1      -2.476   2.149   1.507  0.00  0.00    -0.075 A 
ATOM      2  C2  I4B d   1      -1.845   2.583   0.367  0.00  0.00     0.003 A 
ATOM      3  C3  I4B d   1      -0.449   2.821   0.372  0.00  0.00     0.002 A 
ATOM      4  C4  I4B d   1       0.263   2.662   1.543  0.00  0.00    -0.004 A 
ATOM      5  C5  I4B d   1      -0.374   2.200   2.691  0.00  0.00     0.002 A 
ATOM      6  C6  I4B d   1      -1.750   1.930   2.670  0.00  0.00     0.003 A 
ENDROOT
BRANCH   1   7
ATOM      7  C1' I4B d   1      -3.957   1.939   1.475  0.00  0.00     0.060 C 
BRANCH   7   8
ATOM      8  C2' I4B d   1      -4.355   1.640   0.044  0.00  0.00    -0.013 C 
ATOM      9  C4' I4B d   1      -5.262   0.439  -0.029  0.00  0.00     0.013 C 
ATOM     10  C3' I4B d   1      -5.026   2.860  -0.514  0.00  0.00     0.013 C 
ENDBRANCH   7   8
ENDBRANCH   1   7
TORSDOF 2
ENDMDL
