MODEL 1
REMARK minimizedAffinity 3.99124169
REMARK minimizedRMSD -1
REMARK  2 active torsions:
REMARK  status: ('A' for Active; 'I' for Inactive)
REMARK    1  A    between atoms: C2'_3  and  C1'_4 
REMARK    2  A    between atoms: C1'_4  and  C1_5 
ROOT
ATOM      1  C1  I4B d   1      -1.688   2.560   1.059  0.00  0.00    -0.075 A 
ATOM      2  C2  I4B d   1      -1.486   2.150   2.353  0.00  0.00     0.003 A 
ATOM      3  C3  I4B d   1      -0.243   1.594   2.739  0.00  0.00     0.002 A 
ATOM      4  C4  I4B d   1       0.747   1.421   1.793  0.00  0.00    -0.004 A 
ATOM      5  C5  I4B d   1       0.549   1.858   0.487  0.00  0.00     0.002 A 
ATOM      6  C6  I4B d   1      -0.672   2.443   0.119  0.00  0.00     0.003 A 
ENDROOT
BRANCH   1   7
ATOM      7  C1' I4B d   1      -3.026   3.112   0.678  0.00  0.00     0.060 C 
BRANCH   7   8
ATOM      8  C2' I4B d   1      -4.089   2.237   1.309  0.00  0.00    -0.013 C 
ATOM      9  C4' I4B d   1      -5.102   3.063   2.057  0.00  0.00     0.013 C 
ATOM     10  C3' I4B d   1      -4.740   1.440   0.218  0.00  0.00     0.013 C 
ENDBRANCH   7   8
ENDBRANCH   1   7
TORSDOF 2
ENDMDL
