MODEL 1
REMARK minimizedAffinity 6.57543039
REMARK minimizedRMSD -1
REMARK  2 active torsions:
REMARK  status: ('A' for Active; 'I' for Inactive)
REMARK    1  A    between atoms: C2'_3  and  C1'_4 
REMARK    2  A    between atoms: C1'_4  and  C1_5 
ROOT
ATOM      1  C1  I4B d   1       1.585   0.479   0.401  0.00  0.00    -0.075 A 
ATOM      2  C2  I4B d   1       0.695   1.236  -0.318  0.00  0.00     0.003 A 
ATOM      3  C3  I4B d   1      -0.428   1.815   0.321  0.00  0.00     0.002 A 
ATOM      4  C4  I4B d   1      -0.647   1.572   1.662  0.00  0.00    -0.004 A 
ATOM      5  C5  I4B d   1       0.270   0.823   2.395  0.00  0.00     0.002 A 
ATOM      6  C6  I4B d   1       1.400   0.283   1.763  0.00  0.00     0.003 A 
ENDROOT
BRANCH   1   7
ATOM      7  C1' I4B d   1       2.742  -0.146  -0.313  0.00  0.00     0.060 C 
BRANCH   7   8
ATOM      8  C2' I4B d   1       2.247  -1.408  -0.988  0.00  0.00    -0.013 C 
ATOM      9  C4' I4B d   1       3.090  -1.751  -2.189  0.00  0.00     0.013 C 
ATOM     10  C3' I4B d   1       2.271  -2.515   0.024  0.00  0.00     0.013 C 
ENDBRANCH   7   8
ENDBRANCH   1   7
TORSDOF 2
ENDMDL
