MODEL 1
REMARK minimizedAffinity -3.41356015
REMARK minimizedRMSD -1
REMARK  0 active torsions:
REMARK  status: ('A' for Active; 'I' for Inactive)
ROOT
ATOM      1  C   UNL d   1       0.303   0.036  -0.426  0.00  0.00     0.172 C 
ATOM      2  N   UNL d   1       0.410  -0.211   0.993  0.00  0.00    -0.070 N 
ATOM      3  C1  UNL d   1       1.545  -0.063   1.745  0.00  0.00    -0.004 A 
ATOM      4  C2  UNL d   1       1.235  -0.395   3.046  0.00  0.00    -0.047 A 
ATOM      5  C3  UNL d   1      -0.133  -0.756   3.077  0.00  0.00    -0.047 A 
ATOM      6  C4  UNL d   1      -0.619  -0.632   1.792  0.00  0.00    -0.004 A 
ENDROOT
TORSDOF 0
ENDMDL
