MODEL 1
REMARK minimizedAffinity -3.0729928
REMARK minimizedRMSD -1
REMARK  0 active torsions:
REMARK  status: ('A' for Active; 'I' for Inactive)
ROOT
ATOM      1  C   UNL d   1      -0.786   0.060   1.087  0.00  0.00     0.172 C 
ATOM      2  N   UNL d   1       0.473  -0.598   1.348  0.00  0.00    -0.070 N 
ATOM      3  C1  UNL d   1       0.946  -0.953   2.583  0.00  0.00    -0.004 A 
ATOM      4  C2  UNL d   1       2.174  -1.555   2.408  0.00  0.00    -0.047 A 
ATOM      5  C3  UNL d   1       2.448  -1.560   1.019  0.00  0.00    -0.047 A 
ATOM      6  C4  UNL d   1       1.378  -0.962   0.387  0.00  0.00    -0.004 A 
ENDROOT
TORSDOF 0
ENDMDL
