MODEL 1
REMARK minimizedAffinity -3.4386642
REMARK minimizedRMSD -1
REMARK  0 active torsions:
REMARK  status: ('A' for Active; 'I' for Inactive)
ROOT
ATOM      1  C   UNL d   1       0.341  -0.532   2.456  0.00  0.00     0.172 C 
ATOM      2  N   UNL d   1       0.081  -0.365   1.045  0.00  0.00    -0.070 N 
ATOM      3  C1  UNL d   1       0.984  -0.575   0.038  0.00  0.00    -0.004 A 
ATOM      4  C2  UNL d   1       0.352  -0.310  -1.158  0.00  0.00    -0.047 A 
ATOM      5  C3  UNL d   1      -0.977   0.073  -0.858  0.00  0.00    -0.047 A 
ATOM      6  C4  UNL d   1      -1.117   0.031   0.513  0.00  0.00    -0.004 A 
ENDROOT
TORSDOF 0
ENDMDL
