MODEL 1
REMARK minimizedAffinity -2.75678515
REMARK minimizedRMSD -1
REMARK  0 active torsions:
REMARK  status: ('A' for Active; 'I' for Inactive)
ROOT
ATOM      1  C   UNL d   1       0.733  -0.521   2.390  0.00  0.00     0.172 C 
ATOM      2  N   UNL d   1       0.440  -0.396   0.981  0.00  0.00    -0.070 N 
ATOM      3  C1  UNL d   1       1.363  -0.421  -0.031  0.00  0.00    -0.004 A 
ATOM      4  C2  UNL d   1       0.686  -0.272  -1.222  0.00  0.00    -0.047 A 
ATOM      5  C3  UNL d   1      -0.690  -0.152  -0.916  0.00  0.00    -0.047 A 
ATOM      6  C4  UNL d   1      -0.814  -0.232   0.455  0.00  0.00    -0.004 A 
ENDROOT
TORSDOF 0
ENDMDL
