MODEL 1
REMARK minimizedAffinity -3.22213364
REMARK minimizedRMSD -1
REMARK  0 active torsions:
REMARK  status: ('A' for Active; 'I' for Inactive)
ROOT
ATOM      1  C   UNL d   1      -0.221   0.431  -0.802  0.00  0.00     0.172 C 
ATOM      2  N   UNL d   1       0.024  -0.177   0.485  0.00  0.00    -0.070 N 
ATOM      3  C1  UNL d   1       1.222  -0.184   1.148  0.00  0.00    -0.004 A 
ATOM      4  C2  UNL d   1       1.042  -0.860   2.336  0.00  0.00    -0.047 A 
ATOM      5  C3  UNL d   1      -0.310  -1.274   2.387  0.00  0.00    -0.047 A 
ATOM      6  C4  UNL d   1      -0.917  -0.838   1.228  0.00  0.00    -0.004 A 
ENDROOT
TORSDOF 0
ENDMDL
