MODEL 1
REMARK minimizedAffinity -3.37746644
REMARK minimizedRMSD -1
REMARK  0 active torsions:
REMARK  status: ('A' for Active; 'I' for Inactive)
ROOT
ATOM      1  C   UNL d   1       0.856  -0.713   2.850  0.00  0.00     0.172 C 
ATOM      2  N   UNL d   1       0.448  -0.377   1.506  0.00  0.00    -0.070 N 
ATOM      3  C1  UNL d   1       1.253  -0.394   0.399  0.00  0.00    -0.004 A 
ATOM      4  C2  UNL d   1       0.491  -0.012  -0.684  0.00  0.00    -0.047 A 
ATOM      5  C3  UNL d   1      -0.818   0.245  -0.210  0.00  0.00    -0.047 A 
ATOM      6  C4  UNL d   1      -0.817   0.011   1.149  0.00  0.00    -0.004 A 
ENDROOT
TORSDOF 0
ENDMDL
