MODEL 1
REMARK minimizedAffinity -3.00301313
REMARK minimizedRMSD -1
REMARK  0 active torsions:
REMARK  status: ('A' for Active; 'I' for Inactive)
ROOT
ATOM      1  C   UNL d   1      -0.350   0.535  -1.217  0.00  0.00     0.172 C 
ATOM      2  N   UNL d   1       0.047   0.165   0.121  0.00  0.00    -0.070 N 
ATOM      3  C1  UNL d   1      -0.733  -0.499   1.030  0.00  0.00    -0.004 A 
ATOM      4  C2  UNL d   1       0.007  -0.660   2.182  0.00  0.00    -0.047 A 
ATOM      5  C3  UNL d   1       1.274  -0.072   1.958  0.00  0.00    -0.047 A 
ATOM      6  C4  UNL d   1       1.272   0.432   0.674  0.00  0.00    -0.004 A 
ENDROOT
TORSDOF 0
ENDMDL
