MODEL 1
REMARK minimizedAffinity -3.82207608
REMARK minimizedRMSD -1
REMARK  0 active torsions:
REMARK  status: ('A' for Active; 'I' for Inactive)
ROOT
ATOM      1  C   UNL d   1      -0.319   0.399  -1.004  0.00  0.00     0.172 C 
ATOM      2  N   UNL d   1      -0.067   0.045   0.373  0.00  0.00    -0.070 N 
ATOM      3  C1  UNL d   1       1.150   0.085   0.998  0.00  0.00    -0.004 A 
ATOM      4  C2  UNL d   1       0.970  -0.325   2.301  0.00  0.00    -0.047 A 
ATOM      5  C3  UNL d   1      -0.404  -0.623   2.465  0.00  0.00    -0.047 A 
ATOM      6  C4  UNL d   1      -1.023  -0.385   1.256  0.00  0.00    -0.004 A 
ENDROOT
TORSDOF 0
ENDMDL
