MODEL 1
REMARK minimizedAffinity -2.36817217
REMARK minimizedRMSD -1
REMARK  0 active torsions:
REMARK  status: ('A' for Active; 'I' for Inactive)
ROOT
ATOM      1  C   UNL d   1      -1.620   0.150   1.004  0.00  0.00     0.172 C 
ATOM      2  N   UNL d   1      -0.248  -0.114   1.368  0.00  0.00    -0.070 N 
ATOM      3  C1  UNL d   1       0.831  -0.026   0.530  0.00  0.00    -0.004 A 
ATOM      4  C2  UNL d   1       1.957  -0.354   1.255  0.00  0.00    -0.047 A 
ATOM      5  C3  UNL d   1       1.539  -0.652   2.574  0.00  0.00    -0.047 A 
ATOM      6  C4  UNL d   1       0.169  -0.495   2.616  0.00  0.00    -0.004 A 
ENDROOT
TORSDOF 0
ENDMDL
