MODEL 1
REMARK minimizedAffinity -1.40520823
REMARK minimizedRMSD -1
REMARK  0 active torsions:
REMARK  status: ('A' for Active; 'I' for Inactive)
ROOT
ATOM      1  C   UNL d   1      -0.816   3.618  -3.620  0.00  0.00     0.023 A 
ATOM      2  C1  UNL d   1      -1.803   2.661  -3.383  0.00  0.00     0.003 A 
ATOM      3  C2  UNL d   1      -1.535   1.570  -2.554  0.00  0.00     0.048 A 
ATOM      4  C3  UNL d   1      -0.278   1.443  -1.964  0.00  0.00     0.023 A 
ATOM      5  C4  UNL d   1       0.713   2.398  -2.198  0.00  0.00     0.048 A 
ATOM      6  C5  UNL d   1       0.440   3.487  -3.028  0.00  0.00     0.003 A 
ATOM      7  I   UNL d   1       0.124  -0.180  -0.729  0.00  0.00    -0.146 I 
ENDROOT
TORSDOF 0
ENDMDL
