MODEL 1
REMARK minimizedAffinity -3.50565934
REMARK minimizedRMSD -1
REMARK  0 active torsions:
REMARK  status: ('A' for Active; 'I' for Inactive)
ROOT
ATOM      1  C   UNL d   1       0.735  -0.898   2.618  0.00  0.00     0.023 A 
ATOM      2  C1  UNL d   1       1.719  -0.657   1.658  0.00  0.00     0.003 A 
ATOM      3  C2  UNL d   1       1.374  -0.091   0.429  0.00  0.00     0.048 A 
ATOM      4  C3  UNL d   1       0.043   0.232   0.166  0.00  0.00     0.023 A 
ATOM      5  C4  UNL d   1      -0.944  -0.006   1.123  0.00  0.00     0.048 A 
ATOM      6  C5  UNL d   1      -0.595  -0.572   2.350  0.00  0.00     0.003 A 
ATOM      7  I   UNL d   1      -0.472   1.075  -1.663  0.00  0.00    -0.146 I 
ENDROOT
TORSDOF 0
ENDMDL
