MODEL 1
REMARK minimizedAffinity -0.0124252103
REMARK minimizedRMSD -1
REMARK  0 active torsions:
REMARK  status: ('A' for Active; 'I' for Inactive)
ROOT
ATOM      1  C   UNL d   1       0.896  -1.198   2.190  0.00  0.00     0.023 A 
ATOM      2  C1  UNL d   1       1.765  -0.456   1.390  0.00  0.00     0.003 A 
ATOM      3  C2  UNL d   1       1.271   0.259   0.296  0.00  0.00     0.048 A 
ATOM      4  C3  UNL d   1      -0.093   0.227   0.009  0.00  0.00     0.023 A 
ATOM      5  C4  UNL d   1      -0.966  -0.513   0.808  0.00  0.00     0.048 A 
ATOM      6  C5  UNL d   1      -0.468  -1.227   1.899  0.00  0.00     0.003 A 
ATOM      7  I   UNL d   1      -0.831   1.290  -1.617  0.00  0.00    -0.146 I 
ENDROOT
TORSDOF 0
ENDMDL
