MODEL 1
REMARK minimizedAffinity -1.22312343
REMARK minimizedRMSD -1
REMARK  0 active torsions:
REMARK  status: ('A' for Active; 'I' for Inactive)
ROOT
ATOM      1  C   UNL d   1       0.886  -0.120   0.670  0.00  0.00     0.023 A 
ATOM      2  C1  UNL d   1      -0.306   0.516   1.017  0.00  0.00     0.003 A 
ATOM      3  C2  UNL d   1      -1.047   1.191   0.045  0.00  0.00     0.048 A 
ATOM      4  C3  UNL d   1      -0.590   1.226  -1.272  0.00  0.00     0.023 A 
ATOM      5  C4  UNL d   1       0.602   0.591  -1.624  0.00  0.00     0.048 A 
ATOM      6  C5  UNL d   1       1.340  -0.083  -0.648  0.00  0.00     0.003 A 
ATOM      7  I   UNL d   1      -1.691   2.231  -2.720  0.00  0.00    -0.146 I 
ENDROOT
TORSDOF 0
ENDMDL
