MODEL 1
REMARK minimizedAffinity -4.10307026
REMARK minimizedRMSD -1
REMARK  0 active torsions:
REMARK  status: ('A' for Active; 'I' for Inactive)
ROOT
ATOM      1  C   UNL d   1      -0.134  -0.973   2.096  0.00  0.00     0.023 A 
ATOM      2  C1  UNL d   1      -1.343  -0.729   1.445  0.00  0.00     0.003 A 
ATOM      3  C2  UNL d   1      -1.398   0.182   0.388  0.00  0.00     0.048 A 
ATOM      4  C3  UNL d   1      -0.239   0.844  -0.015  0.00  0.00     0.023 A 
ATOM      5  C4  UNL d   1       0.974   0.602   0.633  0.00  0.00     0.048 A 
ATOM      6  C5  UNL d   1       1.024  -0.308   1.690  0.00  0.00     0.003 A 
ATOM      7  I   UNL d   1      -0.317   2.199  -1.588  0.00  0.00    -0.146 I 
ENDROOT
TORSDOF 0
ENDMDL
