MODEL 1
REMARK minimizedAffinity -1.88096571
REMARK minimizedRMSD -1
REMARK  0 active torsions:
REMARK  status: ('A' for Active; 'I' for Inactive)
ROOT
ATOM      1  C   UNL d   1      -0.189  -1.678   0.557  0.00  0.00     0.172 C 
ATOM      2  N   UNL d   1       0.462  -0.462   0.129  0.00  0.00    -0.070 N 
ATOM      3  C1  UNL d   1       0.456   0.728   0.807  0.00  0.00    -0.004 A 
ATOM      4  C2  UNL d   1       1.187   1.636   0.073  0.00  0.00    -0.047 A 
ATOM      5  C3  UNL d   1       1.648   0.969  -1.087  0.00  0.00    -0.047 A 
ATOM      6  C4  UNL d   1       1.185  -0.328  -1.027  0.00  0.00    -0.004 A 
ENDROOT
TORSDOF 0
ENDMDL
