MODEL 1
REMARK minimizedAffinity -1.1819557
REMARK minimizedRMSD -1
REMARK  0 active torsions:
REMARK  status: ('A' for Active; 'I' for Inactive)
ROOT
ATOM      1  C   UNL d   1       2.096   0.741  -1.212  0.00  0.00     0.172 C 
ATOM      2  N   UNL d   1       1.067   0.588  -0.211  0.00  0.00    -0.070 N 
ATOM      3  C1  UNL d   1       0.164  -0.439  -0.144  0.00  0.00    -0.004 A 
ATOM      4  C2  UNL d   1      -0.644  -0.220   0.951  0.00  0.00    -0.047 A 
ATOM      5  C3  UNL d   1      -0.213   0.980   1.563  0.00  0.00    -0.047 A 
ATOM      6  C4  UNL d   1       0.848   1.460   0.823  0.00  0.00    -0.004 A 
ENDROOT
TORSDOF 0
ENDMDL
