MODEL 1
REMARK minimizedAffinity -3.53027606
REMARK minimizedRMSD -1
REMARK  0 active torsions:
REMARK  status: ('A' for Active; 'I' for Inactive)
ROOT
ATOM      1  C   UNL d   1      -0.031  -0.348   1.323  0.00  0.00     0.172 C 
ATOM      2  N   UNL d   1       0.599  -0.168   0.036  0.00  0.00    -0.070 N 
ATOM      3  C1  UNL d   1       1.212   0.976  -0.401  0.00  0.00    -0.004 A 
ATOM      4  C2  UNL d   1       1.685   0.743  -1.674  0.00  0.00    -0.047 A 
ATOM      5  C3  UNL d   1       1.343  -0.588  -2.015  0.00  0.00    -0.047 A 
ATOM      6  C4  UNL d   1       0.672  -1.128  -0.939  0.00  0.00    -0.004 A 
ENDROOT
TORSDOF 0
ENDMDL
