MODEL 1
REMARK minimizedAffinity -2.29191923
REMARK minimizedRMSD -1
REMARK  0 active torsions:
REMARK  status: ('A' for Active; 'I' for Inactive)
ROOT
ATOM      1  C   UNL d   1      -1.884   0.796  -0.469  0.00  0.00     0.172 C 
ATOM      2  N   UNL d   1      -0.465   0.649  -0.694  0.00  0.00    -0.070 N 
ATOM      3  C1  UNL d   1       0.144  -0.434  -1.272  0.00  0.00    -0.004 A 
ATOM      4  C2  UNL d   1       1.499  -0.188  -1.305  0.00  0.00    -0.047 A 
ATOM      5  C3  UNL d   1       1.713   1.086  -0.727  0.00  0.00    -0.047 A 
ATOM      6  C4  UNL d   1       0.480   1.581  -0.358  0.00  0.00    -0.004 A 
ENDROOT
TORSDOF 0
ENDMDL
