MODEL 1
REMARK minimizedAffinity -0.974311233
REMARK minimizedRMSD -1
REMARK  0 active torsions:
REMARK  status: ('A' for Active; 'I' for Inactive)
ROOT
ATOM      1  C   UNL d   1       0.443   0.949   0.071  0.00  0.00     0.172 C 
ATOM      2  N   UNL d   1       0.636   0.057  -1.048  0.00  0.00    -0.070 N 
ATOM      3  C1  UNL d   1       1.053  -1.245  -0.968  0.00  0.00    -0.004 A 
ATOM      4  C2  UNL d   1       1.110  -1.750  -2.249  0.00  0.00    -0.047 A 
ATOM      5  C3  UNL d   1       0.713  -0.715  -3.129  0.00  0.00    -0.047 A 
ATOM      6  C4  UNL d   1       0.426   0.392  -2.359  0.00  0.00    -0.004 A 
ENDROOT
TORSDOF 0
ENDMDL
