MODEL 1
REMARK minimizedAffinity -1.48628223
REMARK minimizedRMSD -1
REMARK  0 active torsions:
REMARK  status: ('A' for Active; 'I' for Inactive)
ROOT
ATOM      1  C   UNL d   1       1.361   0.015  -3.379  0.00  0.00     0.172 C 
ATOM      2  N   UNL d   1       0.867  -0.307  -2.061  0.00  0.00    -0.070 N 
ATOM      3  C1  UNL d   1       0.271  -1.486  -1.698  0.00  0.00    -0.004 A 
ATOM      4  C2  UNL d   1      -0.054  -1.400  -0.361  0.00  0.00    -0.047 A 
ATOM      5  C3  UNL d   1       0.360  -0.126   0.095  0.00  0.00    -0.047 A 
ATOM      6  C4  UNL d   1       0.927   0.529  -0.978  0.00  0.00    -0.004 A 
ENDROOT
TORSDOF 0
ENDMDL
