MODEL 1
REMARK minimizedAffinity 0.233048111
REMARK minimizedRMSD -1
REMARK  0 active torsions:
REMARK  status: ('A' for Active; 'I' for Inactive)
ROOT
ATOM      1  C   UNL d   1       1.653  -0.600  -2.332  0.00  0.00     0.172 C 
ATOM      2  N   UNL d   1       0.831  -0.715  -1.150  0.00  0.00    -0.070 N 
ATOM      3  C1  UNL d   1       0.698   0.237  -0.174  0.00  0.00    -0.004 A 
ATOM      4  C2  UNL d   1      -0.170  -0.252   0.777  0.00  0.00    -0.047 A 
ATOM      5  C3  UNL d   1      -0.572  -1.543   0.360  0.00  0.00    -0.047 A 
ATOM      6  C4  UNL d   1       0.063  -1.804  -0.836  0.00  0.00    -0.004 A 
ENDROOT
TORSDOF 0
ENDMDL
