MODEL 1
REMARK minimizedAffinity -0.000376481912
REMARK minimizedRMSD -1
REMARK  0 active torsions:
REMARK  status: ('A' for Active; 'I' for Inactive)
ROOT
ATOM      1  C   UNL d   1      -2.951  -4.664  -5.992  0.00  0.00     0.172 C 
ATOM      2  N   UNL d   1      -3.873  -3.553  -5.995  0.00  0.00    -0.070 N 
ATOM      3  C1  UNL d   1      -5.239  -3.648  -5.997  0.00  0.00    -0.004 A 
ATOM      4  C2  UNL d   1      -5.752  -2.369  -5.999  0.00  0.00    -0.047 A 
ATOM      5  C3  UNL d   1      -4.656  -1.473  -5.999  0.00  0.00    -0.047 A 
ATOM      6  C4  UNL d   1      -3.505  -2.233  -5.997  0.00  0.00    -0.004 A 
ENDROOT
TORSDOF 0
ENDMDL
