MODEL 1
REMARK minimizedAffinity 2.40021396
REMARK minimizedRMSD -1
REMARK  0 active torsions:
REMARK  status: ('A' for Active; 'I' for Inactive)
ROOT
ATOM      1  C   UNL d   1      -3.021  -4.197  -5.990  0.00  0.00     0.172 C 
ATOM      2  N   UNL d   1      -3.554  -2.855  -5.993  0.00  0.00    -0.070 N 
ATOM      3  C1  UNL d   1      -2.814  -1.702  -5.991  0.00  0.00    -0.004 A 
ATOM      4  C2  UNL d   1      -3.690  -0.638  -5.996  0.00  0.00    -0.047 A 
ATOM      5  C3  UNL d   1      -5.001  -1.170  -6.000  0.00  0.00    -0.047 A 
ATOM      6  C4  UNL d   1      -4.888  -2.544  -5.998  0.00  0.00    -0.004 A 
ENDROOT
TORSDOF 0
ENDMDL
