MODEL 1
REMARK minimizedAffinity 1.4505024
REMARK minimizedRMSD -1
REMARK  0 active torsions:
REMARK  status: ('A' for Active; 'I' for Inactive)
ROOT
ATOM      1  C   UNL d   1      -2.517   1.397   5.456  0.00  0.00     0.172 C 
ATOM      2  N   UNL d   1      -3.200   1.355   4.184  0.00  0.00    -0.070 N 
ATOM      3  C1  UNL d   1      -3.035   2.247   3.159  0.00  0.00    -0.004 A 
ATOM      4  C2  UNL d   1      -3.861   1.861   2.126  0.00  0.00    -0.047 A 
ATOM      5  C3  UNL d   1      -4.547   0.697   2.545  0.00  0.00    -0.047 A 
ATOM      6  C4  UNL d   1      -4.119   0.405   3.823  0.00  0.00    -0.004 A 
ENDROOT
TORSDOF 0
ENDMDL
