MODEL 1
REMARK minimizedAffinity 2.5728972
REMARK minimizedRMSD -1
REMARK  0 active torsions:
REMARK  status: ('A' for Active; 'I' for Inactive)
ROOT
ATOM      1  C   UNL d   1      -1.786   1.660   5.650  0.00  0.00     0.172 C 
ATOM      2  N   UNL d   1      -2.541   1.875   4.438  0.00  0.00    -0.070 N 
ATOM      3  C1  UNL d   1      -2.406   2.944   3.593  0.00  0.00    -0.004 A 
ATOM      4  C2  UNL d   1      -3.301   2.779   2.557  0.00  0.00    -0.047 A 
ATOM      5  C3  UNL d   1      -3.999   1.570   2.789  0.00  0.00    -0.047 A 
ATOM      6  C4  UNL d   1      -3.509   1.031   3.960  0.00  0.00    -0.004 A 
ENDROOT
TORSDOF 0
ENDMDL
