MODEL 1
REMARK minimizedAffinity 8.56384373
REMARK minimizedRMSD -1
REMARK  0 active torsions:
REMARK  status: ('A' for Active; 'I' for Inactive)
ROOT
ATOM      1  C   UNL d   1      -5.750   1.124   3.240  0.00  0.00     0.172 C 
ATOM      2  N   UNL d   1      -4.527   1.840   2.963  0.00  0.00    -0.070 N 
ATOM      3  C1  UNL d   1      -4.114   2.267   1.729  0.00  0.00    -0.004 A 
ATOM      4  C2  UNL d   1      -2.903   2.906   1.887  0.00  0.00    -0.047 A 
ATOM      5  C3  UNL d   1      -2.577   2.860   3.263  0.00  0.00    -0.047 A 
ATOM      6  C4  UNL d   1      -3.599   2.194   3.906  0.00  0.00    -0.004 A 
ENDROOT
TORSDOF 0
ENDMDL
