MODEL 1
REMARK minimizedAffinity 4.56557608
REMARK minimizedRMSD -1
REMARK  0 active torsions:
REMARK  status: ('A' for Active; 'I' for Inactive)
ROOT
ATOM      1  C   UNL d   1      -3.750   3.373  -6.000  0.00  0.00     0.172 C 
ATOM      2  N   UNL d   1      -2.948   4.111  -5.052  0.00  0.00    -0.070 N 
ATOM      3  C1  UNL d   1      -1.846   4.865  -5.355  0.00  0.00    -0.004 A 
ATOM      4  C2  UNL d   1      -1.368   5.404  -4.180  0.00  0.00    -0.047 A 
ATOM      5  C3  UNL d   1      -2.211   4.958  -3.135  0.00  0.00    -0.047 A 
ATOM      6  C4  UNL d   1      -3.181   4.158  -3.703  0.00  0.00    -0.004 A 
ENDROOT
TORSDOF 0
ENDMDL
