MODEL 1
REMARK minimizedAffinity -1.84942901
REMARK minimizedRMSD -1
REMARK  0 active torsions:
REMARK  status: ('A' for Active; 'I' for Inactive)
ROOT
ATOM      1  C   UNL d   1       2.818  -1.466  -0.762  0.00  0.00     0.172 C 
ATOM      2  N   UNL d   1       1.853  -0.520  -0.252  0.00  0.00    -0.070 N 
ATOM      3  C1  UNL d   1       0.882  -0.791   0.674  0.00  0.00    -0.004 A 
ATOM      4  C2  UNL d   1       0.171   0.370   0.893  0.00  0.00    -0.047 A 
ATOM      5  C3  UNL d   1       0.735   1.373   0.068  0.00  0.00    -0.047 A 
ATOM      6  C4  UNL d   1       1.774   0.795  -0.630  0.00  0.00    -0.004 A 
ENDROOT
TORSDOF 0
ENDMDL
