MODEL 1
REMARK minimizedAffinity 0.213527709
REMARK minimizedRMSD -1
REMARK  0 active torsions:
REMARK  status: ('A' for Active; 'I' for Inactive)
ROOT
ATOM      1  C   UNL d   1       1.146  -1.012  -1.509  0.00  0.00     0.172 C 
ATOM      2  N   UNL d   1       1.259  -1.417  -0.127  0.00  0.00    -0.070 N 
ATOM      3  C1  UNL d   1       2.417  -1.786   0.504  0.00  0.00    -0.004 A 
ATOM      4  C2  UNL d   1       2.104  -2.098   1.810  0.00  0.00    -0.047 A 
ATOM      5  C3  UNL d   1       0.711  -1.912   1.968  0.00  0.00    -0.047 A 
ATOM      6  C4  UNL d   1       0.212  -1.490   0.753  0.00  0.00    -0.004 A 
ENDROOT
TORSDOF 0
ENDMDL
