MODEL 1
REMARK minimizedAffinity 1.18192935
REMARK minimizedRMSD -1
REMARK  0 active torsions:
REMARK  status: ('A' for Active; 'I' for Inactive)
ROOT
ATOM      1  C   UNL d   1       1.872  -1.473  -0.057  0.00  0.00     0.172 C 
ATOM      2  N   UNL d   1       1.362  -1.217   1.270  0.00  0.00    -0.070 N 
ATOM      3  C1  UNL d   1       0.044  -1.256   1.640  0.00  0.00    -0.004 A 
ATOM      4  C2  UNL d   1      -0.027  -0.955   2.983  0.00  0.00    -0.047 A 
ATOM      5  C3  UNL d   1       1.294  -0.726   3.435  0.00  0.00    -0.047 A 
ATOM      6  C4  UNL d   1       2.134  -0.895   2.355  0.00  0.00    -0.004 A 
ENDROOT
TORSDOF 0
ENDMDL
