MODEL 1
REMARK minimizedAffinity 0.278898954
REMARK minimizedRMSD -1
REMARK  0 active torsions:
REMARK  status: ('A' for Active; 'I' for Inactive)
ROOT
ATOM      1  C   UNL d   1      -0.388  -0.368   2.975  0.00  0.00     0.172 C 
ATOM      2  N   UNL d   1       0.677  -1.133   2.371  0.00  0.00    -0.070 N 
ATOM      3  C1  UNL d   1       1.476  -0.714   1.341  0.00  0.00    -0.004 A 
ATOM      4  C2  UNL d   1       2.364  -1.729   1.056  0.00  0.00    -0.047 A 
ATOM      5  C3  UNL d   1       2.088  -2.795   1.945  0.00  0.00    -0.047 A 
ATOM      6  C4  UNL d   1       1.039  -2.400   2.748  0.00  0.00    -0.004 A 
ENDROOT
TORSDOF 0
ENDMDL
