MODEL 1
REMARK minimizedAffinity 3.4980588
REMARK minimizedRMSD -1
REMARK  0 active torsions:
REMARK  status: ('A' for Active; 'I' for Inactive)
ROOT
ATOM      1  C   UNL d   1       0.447  -0.496  -0.469  0.00  0.00     0.172 C 
ATOM      2  N   UNL d   1       0.806  -0.753   0.906  0.00  0.00    -0.070 N 
ATOM      3  C1  UNL d   1       2.010  -1.241   1.339  0.00  0.00    -0.004 A 
ATOM      4  C2  UNL d   1       1.955  -1.343   2.712  0.00  0.00    -0.047 A 
ATOM      5  C3  UNL d   1       0.672  -0.903   3.118  0.00  0.00    -0.047 A 
ATOM      6  C4  UNL d   1      -0.018  -0.543   1.980  0.00  0.00    -0.004 A 
ENDROOT
TORSDOF 0
ENDMDL
