MODEL 1
REMARK minimizedAffinity 3.56588674
REMARK minimizedRMSD -1
REMARK  0 active torsions:
REMARK  status: ('A' for Active; 'I' for Inactive)
ROOT
ATOM      1  C   UNL d   1      -2.422   1.068   3.177  0.00  0.00     0.172 C 
ATOM      2  N   UNL d   1      -1.377   0.130   2.841  0.00  0.00    -0.070 N 
ATOM      3  C1  UNL d   1      -1.289  -0.584   1.676  0.00  0.00    -0.004 A 
ATOM      4  C2  UNL d   1      -0.153  -1.361   1.742  0.00  0.00    -0.047 A 
ATOM      5  C3  UNL d   1       0.464  -1.105   2.990  0.00  0.00    -0.047 A 
ATOM      6  C4  UNL d   1      -0.315  -0.178   3.650  0.00  0.00    -0.004 A 
ENDROOT
TORSDOF 0
ENDMDL
