MODEL 1
REMARK minimizedAffinity 2.69944787
REMARK minimizedRMSD -1
REMARK  0 active torsions:
REMARK  status: ('A' for Active; 'I' for Inactive)
ROOT
ATOM      1  C   UNL d   1       2.753  -2.391   1.006  0.00  0.00     0.172 C 
ATOM      2  N   UNL d   1       1.771  -1.689   1.798  0.00  0.00    -0.070 N 
ATOM      3  C1  UNL d   1       1.856  -1.445   3.143  0.00  0.00    -0.004 A 
ATOM      4  C2  UNL d   1       0.725  -0.752   3.519  0.00  0.00    -0.047 A 
ATOM      5  C3  UNL d   1      -0.067  -0.574   2.360  0.00  0.00    -0.047 A 
ATOM      6  C4  UNL d   1       0.604  -1.163   1.309  0.00  0.00    -0.004 A 
ENDROOT
TORSDOF 0
ENDMDL
