MODEL 1
REMARK minimizedAffinity 4.39821815
REMARK minimizedRMSD -1
REMARK  0 active torsions:
REMARK  status: ('A' for Active; 'I' for Inactive)
ROOT
ATOM      1  C   UNL d   1       1.462  -1.127   0.135  0.00  0.00     0.172 C 
ATOM      2  N   UNL d   1       0.686  -0.991   1.346  0.00  0.00    -0.070 N 
ATOM      3  C1  UNL d   1       1.005  -1.529   2.563  0.00  0.00    -0.004 A 
ATOM      4  C2  UNL d   1       0.017  -1.173   3.455  0.00  0.00    -0.047 A 
ATOM      5  C3  UNL d   1      -0.930  -0.394   2.748  0.00  0.00    -0.047 A 
ATOM      6  C4  UNL d   1      -0.491  -0.297   1.445  0.00  0.00    -0.004 A 
ENDROOT
TORSDOF 0
ENDMDL
