MODEL 1
REMARK minimizedAffinity 0.378956169
REMARK minimizedRMSD -1
REMARK  0 active torsions:
REMARK  status: ('A' for Active; 'I' for Inactive)
ROOT
ATOM      1  C   UNL d   1       3.185  -2.130   0.075  0.00  0.00     0.172 C 
ATOM      2  N   UNL d   1       2.231  -1.793   1.106  0.00  0.00    -0.070 N 
ATOM      3  C1  UNL d   1       1.162  -0.949   0.960  0.00  0.00    -0.004 A 
ATOM      4  C2  UNL d   1       0.500  -0.894   2.168  0.00  0.00    -0.047 A 
ATOM      5  C3  UNL d   1       1.195  -1.733   3.071  0.00  0.00    -0.047 A 
ATOM      6  C4  UNL d   1       2.262  -2.277   2.387  0.00  0.00    -0.004 A 
ENDROOT
TORSDOF 0
ENDMDL
