MODEL 1
REMARK minimizedAffinity 10.155942
REMARK minimizedRMSD -1
REMARK  0 active torsions:
REMARK  status: ('A' for Active; 'I' for Inactive)
ROOT
ATOM      1  C4' PXY d   1       4.479  -4.622   0.847  0.00  0.00     0.077 C 
ATOM      2  C1' PXY d   1       0.201  -0.838  -0.043  0.00  0.00     0.077 C 
ATOM      3  C1  PXY d   1       1.331  -1.823   0.183  0.00  0.00    -0.082 A 
ATOM      4  C2  PXY d   1       1.052  -3.076   0.504  0.00  0.00     0.003 A 
ATOM      5  C3  PXY d   1       2.062  -3.972   0.743  0.00  0.00     0.003 A 
ATOM      6  C4  PXY d   1       3.370  -3.595   0.601  0.00  0.00    -0.082 A 
ATOM      7  C5  PXY d   1       3.663  -2.322   0.263  0.00  0.00     0.003 A 
ATOM      8  C6  PXY d   1       2.624  -1.417   0.065  0.00  0.00     0.003 A 
ENDROOT
TORSDOF 0
ENDMDL
