MODEL 1
REMARK minimizedAffinity 10.1810808
REMARK minimizedRMSD -1
REMARK  0 active torsions:
REMARK  status: ('A' for Active; 'I' for Inactive)
ROOT
ATOM      1  C4' PXY d   1       4.534  -2.672   1.272  0.00  0.00     0.077 C 
ATOM      2  C1' PXY d   1      -1.057  -1.212   1.402  0.00  0.00     0.077 C 
ATOM      3  C1  PXY d   1       0.407  -1.603   1.359  0.00  0.00    -0.082 A 
ATOM      4  C2  PXY d   1       1.176  -1.374   2.411  0.00  0.00     0.003 A 
ATOM      5  C3  PXY d   1       2.510  -1.693   2.377  0.00  0.00     0.003 A 
ATOM      6  C4  PXY d   1       3.049  -2.301   1.275  0.00  0.00    -0.082 A 
ATOM      7  C5  PXY d   1       2.267  -2.548   0.202  0.00  0.00     0.003 A 
ATOM      8  C6  PXY d   1       0.926  -2.179   0.241  0.00  0.00     0.003 A 
ENDROOT
TORSDOF 0
ENDMDL
