MODEL 1
REMARK minimizedAffinity 1.86821949
REMARK minimizedRMSD -1
REMARK  0 active torsions:
REMARK  status: ('A' for Active; 'I' for Inactive)
ROOT
ATOM      1  C4' PXY d   1       4.371  -5.385   0.256  0.00  0.00     0.077 C 
ATOM      2  C1' PXY d   1       1.498  -0.753   2.181  0.00  0.00     0.077 C 
ATOM      3  C1  PXY d   1       2.261  -1.965   1.685  0.00  0.00    -0.082 A 
ATOM      4  C2  PXY d   1       1.995  -2.459   0.486  0.00  0.00     0.003 A 
ATOM      5  C3  PXY d   1       2.654  -3.574   0.034  0.00  0.00     0.003 A 
ATOM      6  C4  PXY d   1       3.631  -4.157   0.795  0.00  0.00    -0.082 A 
ATOM      7  C5  PXY d   1       3.916  -3.652   2.014  0.00  0.00     0.003 A 
ATOM      8  C6  PXY d   1       3.207  -2.545   2.472  0.00  0.00     0.003 A 
ENDROOT
TORSDOF 0
ENDMDL
