MODEL 1
REMARK minimizedAffinity 9.47559643
REMARK minimizedRMSD -1
REMARK  0 active torsions:
REMARK  status: ('A' for Active; 'I' for Inactive)
ROOT
ATOM      1  C4' PXY d   1       4.507  -3.494  -0.718  0.00  0.00     0.077 C 
ATOM      2  C1' PXY d   1      -0.010  -1.431   2.242  0.00  0.00     0.077 C 
ATOM      3  C1  PXY d   1       1.181  -1.975   1.477  0.00  0.00    -0.082 A 
ATOM      4  C2  PXY d   1       1.389  -1.587   0.229  0.00  0.00     0.003 A 
ATOM      5  C3  PXY d   1       2.442  -2.093  -0.488  0.00  0.00     0.003 A 
ATOM      6  C4  PXY d   1       3.323  -2.964   0.096  0.00  0.00    -0.082 A 
ATOM      7  C5  PXY d   1       3.124  -3.356   1.372  0.00  0.00     0.003 A 
ATOM      8  C6  PXY d   1       2.025  -2.862   2.069  0.00  0.00     0.003 A 
ENDROOT
TORSDOF 0
ENDMDL
