MODEL 1
REMARK minimizedAffinity 7.42894077
REMARK minimizedRMSD -1
REMARK  0 active torsions:
REMARK  status: ('A' for Active; 'I' for Inactive)
ROOT
ATOM      1  C4' PXY d   1       4.125  -3.735   0.261  0.00  0.00     0.077 C 
ATOM      2  C1' PXY d   1       4.727  -4.075   6.000  0.00  0.00     0.077 C 
ATOM      3  C1  PXY d   1       4.574  -3.998   4.493  0.00  0.00    -0.082 A 
ATOM      4  C2  PXY d   1       4.512  -2.816   3.902  0.00  0.00     0.003 A 
ATOM      5  C3  PXY d   1       4.342  -2.728   2.544  0.00  0.00     0.003 A 
ATOM      6  C4  PXY d   1       4.288  -3.861   1.778  0.00  0.00    -0.082 A 
ATOM      7  C5  PXY d   1       4.362  -5.071   2.373  0.00  0.00     0.003 A 
ATOM      8  C6  PXY d   1       4.493  -5.139   3.757  0.00  0.00     0.003 A 
ENDROOT
TORSDOF 0
ENDMDL
