MODEL 1
REMARK minimizedAffinity -1.80445588
REMARK minimizedRMSD -1
REMARK  0 active torsions:
REMARK  status: ('A' for Active; 'I' for Inactive)
ROOT
ATOM      1  C4' PXY d   1       5.989   2.097  -5.976  0.00  0.00     0.077 C 
ATOM      2  C1' PXY d   1       1.475   5.708  -6.000  0.00  0.00     0.077 C 
ATOM      3  C1  PXY d   1       2.666   4.770  -5.999  0.00  0.00    -0.082 A 
ATOM      4  C2  PXY d   1       2.469   3.462  -5.996  0.00  0.00     0.003 A 
ATOM      5  C3  PXY d   1       3.535   2.600  -5.963  0.00  0.00     0.003 A 
ATOM      6  C4  PXY d   1       4.816   3.081  -5.986  0.00  0.00    -0.082 A 
ATOM      7  C5  PXY d   1       5.026   4.414  -6.000  0.00  0.00     0.003 A 
ATOM      8  C6  PXY d   1       3.931   5.273  -5.992  0.00  0.00     0.003 A 
ENDROOT
TORSDOF 0
ENDMDL
