MODEL 1
REMARK minimizedAffinity 0.206848666
REMARK minimizedRMSD -1
REMARK  0 active torsions:
REMARK  status: ('A' for Active; 'I' for Inactive)
ROOT
ATOM      1  C4' PXY d   1       2.706   1.103  -5.884  0.00  0.00     0.077 C 
ATOM      2  C1' PXY d   1       5.785   5.994  -5.999  0.00  0.00     0.077 C 
ATOM      3  C1  PXY d   1       4.987   4.705  -5.975  0.00  0.00    -0.082 A 
ATOM      4  C2  PXY d   1       3.666   4.754  -5.931  0.00  0.00     0.003 A 
ATOM      5  C3  PXY d   1       2.930   3.598  -5.876  0.00  0.00     0.003 A 
ATOM      6  C4  PXY d   1       3.552   2.379  -5.920  0.00  0.00    -0.082 A 
ATOM      7  C5  PXY d   1       4.899   2.321  -5.975  0.00  0.00     0.003 A 
ATOM      8  C6  PXY d   1       5.629   3.506  -5.988  0.00  0.00     0.003 A 
ENDROOT
TORSDOF 0
ENDMDL
