MODEL 1
REMARK minimizedAffinity 7.66614676
REMARK minimizedRMSD -1
REMARK  1 active torsions:
REMARK  status: ('A' for Active; 'I' for Inactive)
REMARK    1  A    between atoms: C1_2  and  C2_3 
ROOT
ATOM      1  C2  UNL d   1      -0.142   2.464   1.104  0.00  0.00    -0.073 A 
ATOM      2  C3  UNL d   1      -1.002   3.533   0.831  0.00  0.00    -0.002 A 
ATOM      3  C4  UNL d   1      -1.470   3.749  -0.466  0.00  0.00     0.004 A 
ATOM      4  C5  UNL d   1      -1.088   2.896  -1.501  0.00  0.00    -0.004 A 
ATOM      5  C6  UNL d   1      -0.238   1.814  -1.246  0.00  0.00    -0.075 A 
ATOM      6  C7  UNL d   1       0.184   0.888  -2.349  0.00  0.00     0.076 C 
ATOM      7  C8  UNL d   1       0.229   1.606   0.059  0.00  0.00     0.001 A 
ENDROOT
BRANCH   1   8
ATOM      8  C1  UNL d   1       0.360   2.223   2.504  0.00  0.00     0.053 C 
ATOM      9  C   UNL d   1      -0.762   1.835   3.453  0.00  0.00     0.018 C 
ENDBRANCH   1   8
TORSDOF 1
ENDMDL
