MODEL 1
REMARK minimizedAffinity 7.38853836
REMARK minimizedRMSD -1
REMARK  1 active torsions:
REMARK  status: ('A' for Active; 'I' for Inactive)
REMARK    1  A    between atoms: C1_2  and  C2_3 
ROOT
ATOM      1  C2  UNL d   1      -2.968   3.855  -2.982  0.00  0.00    -0.073 A 
ATOM      2  C3  UNL d   1      -2.168   3.954  -4.126  0.00  0.00    -0.002 A 
ATOM      3  C4  UNL d   1      -2.611   4.677  -5.235  0.00  0.00     0.004 A 
ATOM      4  C5  UNL d   1      -3.852   5.312  -5.209  0.00  0.00    -0.004 A 
ATOM      5  C6  UNL d   1      -4.661   5.234  -4.070  0.00  0.00    -0.075 A 
ATOM      6  C7  UNL d   1      -6.000   5.910  -4.027  0.00  0.00     0.076 C 
ATOM      7  C8  UNL d   1      -4.210   4.504  -2.962  0.00  0.00     0.001 A 
ENDROOT
BRANCH   1   8
ATOM      8  C1  UNL d   1      -2.491   3.081  -1.780  0.00  0.00     0.053 C 
ATOM      9  C   UNL d   1      -1.117   2.471  -2.003  0.00  0.00     0.018 C 
ENDBRANCH   1   8
TORSDOF 1
ENDMDL
