MODEL 1
REMARK minimizedAffinity 0.544843793
REMARK minimizedRMSD -1
REMARK  1 active torsions:
REMARK  status: ('A' for Active; 'I' for Inactive)
REMARK    1  A    between atoms: C1_2  and  C2_3 
ROOT
ATOM      1  C2  UNL d   1      -0.957   0.998   2.942  0.00  0.00    -0.073 A 
ATOM      2  C3  UNL d   1      -0.078   0.892   1.858  0.00  0.00    -0.002 A 
ATOM      3  C4  UNL d   1      -0.018   1.902   0.897  0.00  0.00     0.004 A 
ATOM      4  C5  UNL d   1      -0.830   3.030   1.013  0.00  0.00    -0.004 A 
ATOM      5  C6  UNL d   1      -1.707   3.160   2.095  0.00  0.00    -0.075 A 
ATOM      6  C7  UNL d   1      -2.589   4.366   2.233  0.00  0.00     0.076 C 
ATOM      7  C8  UNL d   1      -1.763   2.140   3.054  0.00  0.00     0.001 A 
ENDROOT
BRANCH   1   8
ATOM      8  C1  UNL d   1      -1.021  -0.088   3.985  0.00  0.00     0.053 C 
ATOM      9  C   UNL d   1       0.182  -1.015   3.917  0.00  0.00     0.018 C 
ENDBRANCH   1   8
TORSDOF 1
ENDMDL
