MODEL 1
REMARK minimizedAffinity -1.85068214
REMARK minimizedRMSD -1
REMARK  1 active torsions:
REMARK  status: ('A' for Active; 'I' for Inactive)
REMARK    1  A    between atoms: C1_2  and  C2_3 
ROOT
ATOM      1  C2  UNL d   1      -4.259   3.295  -3.218  0.00  0.00    -0.073 A 
ATOM      2  C3  UNL d   1      -5.381   2.501  -2.955  0.00  0.00    -0.002 A 
ATOM      3  C4  UNL d   1      -5.227   1.203  -2.467  0.00  0.00     0.004 A 
ATOM      4  C5  UNL d   1      -3.952   0.688  -2.232  0.00  0.00    -0.004 A 
ATOM      5  C6  UNL d   1      -2.819   1.470  -2.478  0.00  0.00    -0.075 A 
ATOM      6  C7  UNL d   1      -1.441   0.930  -2.232  0.00  0.00     0.076 C 
ATOM      7  C8  UNL d   1      -2.982   2.772  -2.970  0.00  0.00     0.001 A 
ENDROOT
BRANCH   1   8
ATOM      8  C1  UNL d   1      -4.421   4.700  -3.739  0.00  0.00     0.053 C 
ATOM      9  C   UNL d   1      -5.499   4.792  -4.807  0.00  0.00     0.018 C 
ENDBRANCH   1   8
TORSDOF 1
ENDMDL
