MODEL 1
REMARK minimizedAffinity 7.52654219
REMARK minimizedRMSD -1
REMARK  1 active torsions:
REMARK  status: ('A' for Active; 'I' for Inactive)
REMARK    1  A    between atoms: C1_2  and  C2_3 
ROOT
ATOM      1  C2  UNL d   1      -2.522   1.630   2.482  0.00  0.00    -0.073 A 
ATOM      2  C3  UNL d   1      -1.985   2.714   1.777  0.00  0.00    -0.002 A 
ATOM      3  C4  UNL d   1      -0.607   2.937   1.771  0.00  0.00     0.004 A 
ATOM      4  C5  UNL d   1       0.247   2.077   2.462  0.00  0.00    -0.004 A 
ATOM      5  C6  UNL d   1      -0.270   0.982   3.162  0.00  0.00    -0.075 A 
ATOM      6  C7  UNL d   1       0.635   0.049   3.912  0.00  0.00     0.076 C 
ATOM      7  C8  UNL d   1      -1.655   0.766   3.165  0.00  0.00     0.001 A 
ENDROOT
BRANCH   1   8
ATOM      8  C1  UNL d   1      -4.008   1.381   2.486  0.00  0.00     0.053 C 
ATOM      9  C   UNL d   1      -4.340  -0.092   2.306  0.00  0.00     0.018 C 
ENDBRANCH   1   8
TORSDOF 1
ENDMDL
