MODEL 1
REMARK minimizedAffinity -0.677229464
REMARK minimizedRMSD -1
REMARK  1 active torsions:
REMARK  status: ('A' for Active; 'I' for Inactive)
REMARK    1  A    between atoms: C1_2  and  C2_3 
ROOT
ATOM      1  C2  UNL d   1      -0.065   2.342   1.755  0.00  0.00    -0.073 A 
ATOM      2  C3  UNL d   1      -1.451   2.511   1.854  0.00  0.00    -0.002 A 
ATOM      3  C4  UNL d   1      -2.104   3.455   1.061  0.00  0.00     0.004 A 
ATOM      4  C5  UNL d   1      -1.382   4.234   0.157  0.00  0.00    -0.004 A 
ATOM      5  C6  UNL d   1       0.002   4.071   0.035  0.00  0.00    -0.075 A 
ATOM      6  C7  UNL d   1       0.794   4.902  -0.931  0.00  0.00     0.076 C 
ATOM      7  C8  UNL d   1       0.652   3.123   0.837  0.00  0.00     0.001 A 
ENDROOT
BRANCH   1   8
ATOM      8  C1  UNL d   1       0.644   1.320   2.605  0.00  0.00     0.053 C 
ATOM      9  C   UNL d   1      -0.331   0.443   3.375  0.00  0.00     0.018 C 
ENDBRANCH   1   8
TORSDOF 1
ENDMDL
