MODEL 1
REMARK minimizedAffinity 13.2851534
REMARK minimizedRMSD -1
REMARK  0 active torsions:
REMARK  status: ('A' for Active; 'I' for Inactive)
ROOT
ATOM      1  C4' PXY d   1      -5.008   6.000   3.507  0.00  0.00     0.077 C 
ATOM      2  C1' PXY d   1      -4.266   5.945  -2.225  0.00  0.00     0.077 C 
ATOM      3  C1  PXY d   1      -4.472   5.965  -0.723  0.00  0.00    -0.082 A 
ATOM      4  C2  PXY d   1      -3.422   5.996   0.081  0.00  0.00     0.003 A 
ATOM      5  C3  PXY d   1      -3.590   5.982   1.442  0.00  0.00     0.003 A 
ATOM      6  C4  PXY d   1      -4.847   5.989   1.985  0.00  0.00    -0.082 A 
ATOM      7  C5  PXY d   1      -5.924   5.968   1.171  0.00  0.00     0.003 A 
ATOM      8  C6  PXY d   1      -5.731   5.941  -0.207  0.00  0.00     0.003 A 
ENDROOT
TORSDOF 0
ENDMDL
