MODEL 1
REMARK minimizedAffinity 8.6913929
REMARK minimizedRMSD -1
REMARK  0 active torsions:
REMARK  status: ('A' for Active; 'I' for Inactive)
ROOT
ATOM      1  C4' PXY d   1      -3.717   5.134  -3.356  0.00  0.00     0.077 C 
ATOM      2  C1' PXY d   1      -4.443   6.000   2.313  0.00  0.00     0.077 C 
ATOM      3  C1  PXY d   1      -4.265   5.771   0.825  0.00  0.00    -0.082 A 
ATOM      4  C2  PXY d   1      -3.096   5.359   0.362  0.00  0.00     0.003 A 
ATOM      5  C3  PXY d   1      -2.909   5.178  -0.984  0.00  0.00     0.003 A 
ATOM      6  C4  PXY d   1      -3.944   5.369  -1.860  0.00  0.00    -0.082 A 
ATOM      7  C5  PXY d   1      -5.143   5.779  -1.393  0.00  0.00     0.003 A 
ATOM      8  C6  PXY d   1      -5.301   5.997  -0.028  0.00  0.00     0.003 A 
ENDROOT
TORSDOF 0
ENDMDL
