MODEL 1
REMARK minimizedAffinity 16.6949081
REMARK minimizedRMSD -1
REMARK  0 active torsions:
REMARK  status: ('A' for Active; 'I' for Inactive)
ROOT
ATOM      1  C4' PXY d   1       0.551  -2.840   5.999  0.00  0.00     0.077 C 
ATOM      2  C1' PXY d   1      -4.507  -3.396   3.257  0.00  0.00     0.077 C 
ATOM      3  C1  PXY d   1      -3.178  -3.263   3.974  0.00  0.00    -0.082 A 
ATOM      4  C2  PXY d   1      -3.003  -2.287   4.851  0.00  0.00     0.003 A 
ATOM      5  C3  PXY d   1      -1.797  -2.133   5.485  0.00  0.00     0.003 A 
ATOM      6  C4  PXY d   1      -0.777  -3.019   5.259  0.00  0.00    -0.082 A 
ATOM      7  C5  PXY d   1      -0.952  -4.023   4.374  0.00  0.00     0.003 A 
ATOM      8  C6  PXY d   1      -2.170  -4.138   3.710  0.00  0.00     0.003 A 
ENDROOT
TORSDOF 0
ENDMDL
