MODEL 1
REMARK minimizedAffinity 18.0264874
REMARK minimizedRMSD -1
REMARK  0 active torsions:
REMARK  status: ('A' for Active; 'I' for Inactive)
ROOT
ATOM      1  C4' PXY d   1       1.643   5.648  -3.988  0.00  0.00     0.077 C 
ATOM      2  C1' PXY d   1      -1.140   2.152  -0.321  0.00  0.00     0.077 C 
ATOM      3  C1  PXY d   1      -0.418   3.065  -1.292  0.00  0.00    -0.082 A 
ATOM      4  C2  PXY d   1       0.814   3.464  -1.022  0.00  0.00     0.003 A 
ATOM      5  C3  PXY d   1       1.470   4.315  -1.873  0.00  0.00     0.003 A 
ATOM      6  C4  PXY d   1       0.879   4.719  -3.040  0.00  0.00    -0.082 A 
ATOM      7  C5  PXY d   1      -0.374   4.307  -3.329  0.00  0.00     0.003 A 
ATOM      8  C6  PXY d   1      -1.038   3.477  -2.431  0.00  0.00     0.003 A 
ENDROOT
TORSDOF 0
ENDMDL
