MODEL 1
REMARK minimizedAffinity 21.5851002
REMARK minimizedRMSD -1
REMARK  0 active torsions:
REMARK  status: ('A' for Active; 'I' for Inactive)
ROOT
ATOM      1  C4' PXY d   1      -5.996  -3.699   6.000  0.00  0.00     0.077 C 
ATOM      2  C1' PXY d   1      -0.680  -2.587   4.021  0.00  0.00     0.077 C 
ATOM      3  C1  PXY d   1      -2.077  -2.884   4.528  0.00  0.00    -0.082 A 
ATOM      4  C2  PXY d   1      -2.587  -2.154   5.507  0.00  0.00     0.003 A 
ATOM      5  C3  PXY d   1      -3.836  -2.430   6.000  0.00  0.00     0.003 A 
ATOM      6  C4  PXY d   1      -4.593  -3.429   5.449  0.00  0.00    -0.082 A 
ATOM      7  C5  PXY d   1      -4.085  -4.171   4.443  0.00  0.00     0.003 A 
ATOM      8  C6  PXY d   1      -2.798  -3.902   3.985  0.00  0.00     0.003 A 
ENDROOT
TORSDOF 0
ENDMDL
