MODEL 1
REMARK minimizedAffinity 12.2610922
REMARK minimizedRMSD -1
REMARK  0 active torsions:
REMARK  status: ('A' for Active; 'I' for Inactive)
ROOT
ATOM      1  C4' PXY d   1      -6.000  -4.230   5.246  0.00  0.00     0.077 C 
ATOM      2  C1' PXY d   1      -0.929  -1.564   4.479  0.00  0.00     0.077 C 
ATOM      3  C1  PXY d   1      -2.258  -2.261   4.693  0.00  0.00    -0.082 A 
ATOM      4  C2  PXY d   1      -2.691  -3.133   3.797  0.00  0.00     0.003 A 
ATOM      5  C3  PXY d   1      -3.905  -3.749   3.959  0.00  0.00     0.003 A 
ATOM      6  C4  PXY d   1      -4.660  -3.510   5.076  0.00  0.00    -0.082 A 
ATOM      7  C5  PXY d   1      -4.220  -2.629   6.000  0.00  0.00     0.003 A 
ATOM      8  C6  PXY d   1      -3.004  -1.984   5.797  0.00  0.00     0.003 A 
ENDROOT
TORSDOF 0
ENDMDL
