MODEL 1
REMARK minimizedAffinity 11.239996
REMARK minimizedRMSD -1
REMARK  0 active torsions:
REMARK  status: ('A' for Active; 'I' for Inactive)
ROOT
ATOM      1  C4' PXY d   1      -5.262   6.000   3.412  0.00  0.00     0.077 C 
ATOM      2  C1' PXY d   1      -4.190   5.249  -2.218  0.00  0.00     0.077 C 
ATOM      3  C1  PXY d   1      -4.481   5.454  -0.745  0.00  0.00    -0.082 A 
ATOM      4  C2  PXY d   1      -3.515   5.283   0.143  0.00  0.00     0.003 A 
ATOM      5  C3  PXY d   1      -3.769   5.433   1.482  0.00  0.00     0.003 A 
ATOM      6  C4  PXY d   1      -5.012   5.813   1.913  0.00  0.00    -0.082 A 
ATOM      7  C5  PXY d   1      -6.000   6.000   1.013  0.00  0.00     0.003 A 
ATOM      8  C6  PXY d   1      -5.732   5.803  -0.338  0.00  0.00     0.003 A 
ENDROOT
TORSDOF 0
ENDMDL
