MODEL 1
REMARK minimizedAffinity 20.0546169
REMARK minimizedRMSD -1
REMARK  0 active torsions:
REMARK  status: ('A' for Active; 'I' for Inactive)
ROOT
ATOM      1  C4' PXY d   1      -5.843   2.151  -3.897  0.00  0.00     0.077 C 
ATOM      2  C1' PXY d   1      -0.275   3.555  -3.238  0.00  0.00     0.077 C 
ATOM      3  C1  PXY d   1      -1.739   3.197  -3.403  0.00  0.00    -0.082 A 
ATOM      4  C2  PXY d   1      -2.076   1.962  -3.737  0.00  0.00     0.003 A 
ATOM      5  C3  PXY d   1      -3.393   1.628  -3.921  0.00  0.00     0.003 A 
ATOM      6  C4  PXY d   1      -4.379   2.555  -3.710  0.00  0.00    -0.082 A 
ATOM      7  C5  PXY d   1      -4.043   3.815  -3.359  0.00  0.00     0.003 A 
ATOM      8  C6  PXY d   1      -2.698   4.144  -3.217  0.00  0.00     0.003 A 
ENDROOT
TORSDOF 0
ENDMDL
