MODEL 1
REMARK minimizedAffinity 16.407814
REMARK minimizedRMSD -1
REMARK  0 active torsions:
REMARK  status: ('A' for Active; 'I' for Inactive)
ROOT
ATOM      1  C4' PXY d   1       1.148   5.978  -4.027  0.00  0.00     0.077 C 
ATOM      2  C1' PXY d   1      -0.483   1.972  -0.192  0.00  0.00     0.077 C 
ATOM      3  C1  PXY d   1      -0.061   3.016  -1.208  0.00  0.00    -0.082 A 
ATOM      4  C2  PXY d   1       0.999   3.770  -0.968  0.00  0.00     0.003 A 
ATOM      5  C3  PXY d   1       1.376   4.741  -1.861  0.00  0.00     0.003 A 
ATOM      6  C4  PXY d   1       0.691   4.905  -3.035  0.00  0.00    -0.082 A 
ATOM      7  C5  PXY d   1      -0.386   4.133  -3.291  0.00  0.00     0.003 A 
ATOM      8  C6  PXY d   1      -0.776   3.181  -2.354  0.00  0.00     0.003 A 
ENDROOT
TORSDOF 0
ENDMDL
