MODEL 1
REMARK minimizedAffinity 8.30750084
REMARK minimizedRMSD -1
REMARK  0 active torsions:
REMARK  status: ('A' for Active; 'I' for Inactive)
ROOT
ATOM      1  C4' PXY d   1      -1.658   1.670   1.440  0.00  0.00     0.077 C 
ATOM      2  C1' PXY d   1       1.014   5.169  -2.307  0.00  0.00     0.077 C 
ATOM      3  C1  PXY d   1       0.324   4.251  -1.317  0.00  0.00    -0.082 A 
ATOM      4  C2  PXY d   1      -0.688   3.499  -1.718  0.00  0.00     0.003 A 
ATOM      5  C3  PXY d   1      -1.344   2.687  -0.828  0.00  0.00     0.003 A 
ATOM      6  C4  PXY d   1      -0.925   2.604   0.473  0.00  0.00    -0.082 A 
ATOM      7  C5  PXY d   1       0.113   3.361   0.887  0.00  0.00     0.003 A 
ATOM      8  C6  PXY d   1       0.739   4.209  -0.022  0.00  0.00     0.003 A 
ENDROOT
TORSDOF 0
ENDMDL
