MODEL 1
REMARK minimizedAffinity 4.11607599
REMARK minimizedRMSD -1
REMARK  0 active torsions:
REMARK  status: ('A' for Active; 'I' for Inactive)
ROOT
ATOM      1  C4' PXY d   1      -3.027   1.484   2.435  0.00  0.00     0.077 C 
ATOM      2  C1' PXY d   1       0.404   4.744  -0.884  0.00  0.00     0.077 C 
ATOM      3  C1  PXY d   1      -0.490   3.878  -0.019  0.00  0.00    -0.082 A 
ATOM      4  C2  PXY d   1      -1.649   4.355   0.407  0.00  0.00     0.003 A 
ATOM      5  C3  PXY d   1      -2.456   3.597   1.217  0.00  0.00     0.003 A 
ATOM      6  C4  PXY d   1      -2.097   2.319   1.551  0.00  0.00    -0.082 A 
ATOM      7  C5  PXY d   1      -0.921   1.822   1.113  0.00  0.00     0.003 A 
ATOM      8  C6  PXY d   1      -0.098   2.622   0.325  0.00  0.00     0.003 A 
ENDROOT
TORSDOF 0
ENDMDL
