MODEL 1
REMARK minimizedAffinity 6.40175629
REMARK minimizedRMSD -1
REMARK  0 active torsions:
REMARK  status: ('A' for Active; 'I' for Inactive)
ROOT
ATOM      1  C4' PXY d   1      -0.314   1.784   1.348  0.00  0.00     0.077 C 
ATOM      2  C1' PXY d   1      -1.134   4.992  -3.390  0.00  0.00     0.077 C 
ATOM      3  C1  PXY d   1      -0.908   4.158  -2.144  0.00  0.00    -0.082 A 
ATOM      4  C2  PXY d   1      -1.396   2.930  -2.082  0.00  0.00     0.003 A 
ATOM      5  C3  PXY d   1      -1.229   2.173  -0.951  0.00  0.00     0.003 A 
ATOM      6  C4  PXY d   1      -0.509   2.659   0.107  0.00  0.00    -0.082 A 
ATOM      7  C5  PXY d   1       0.002   3.907   0.047  0.00  0.00     0.003 A 
ATOM      8  C6  PXY d   1      -0.215   4.674  -1.094  0.00  0.00     0.003 A 
ENDROOT
TORSDOF 0
ENDMDL
