MODEL 1
REMARK minimizedAffinity -1.43802595
REMARK minimizedRMSD -1
REMARK  0 active torsions:
REMARK  status: ('A' for Active; 'I' for Inactive)
ROOT
ATOM      1  C4' PXY d   1      -1.534   2.342  -3.377  0.00  0.00     0.077 C 
ATOM      2  C1' PXY d   1       0.695   4.663   1.425  0.00  0.00     0.077 C 
ATOM      3  C1  PXY d   1       0.108   4.066   0.161  0.00  0.00    -0.082 A 
ATOM      4  C2  PXY d   1      -0.328   2.817   0.169  0.00  0.00     0.003 A 
ATOM      5  C3  PXY d   1      -0.833   2.251  -0.973  0.00  0.00     0.003 A 
ATOM      6  C4  PXY d   1      -0.942   2.989  -2.121  0.00  0.00    -0.082 A 
ATOM      7  C5  PXY d   1      -0.510   4.267  -2.135  0.00  0.00     0.003 A 
ATOM      8  C6  PXY d   1       0.037   4.810  -0.976  0.00  0.00     0.003 A 
ENDROOT
TORSDOF 0
ENDMDL
