MODEL 1
REMARK minimizedAffinity 3.41802502
REMARK minimizedRMSD -1
REMARK  0 active torsions:
REMARK  status: ('A' for Active; 'I' for Inactive)
ROOT
ATOM      1  C4' PXY d   1      -1.209   0.797  -2.305  0.00  0.00     0.077 C 
ATOM      2  C1' PXY d   1       0.305   5.761   0.241  0.00  0.00     0.077 C 
ATOM      3  C1  PXY d   1      -0.082   4.453  -0.420  0.00  0.00    -0.082 A 
ATOM      4  C2  PXY d   1      -0.692   4.469  -1.594  0.00  0.00     0.003 A 
ATOM      5  C3  PXY d   1      -1.078   3.296  -2.191  0.00  0.00     0.003 A 
ATOM      6  C4  PXY d   1      -0.790   2.093  -1.605  0.00  0.00    -0.082 A 
ATOM      7  C5  PXY d   1      -0.159   2.068  -0.412  0.00  0.00     0.003 A 
ATOM      8  C6  PXY d   1       0.188   3.271   0.197  0.00  0.00     0.003 A 
ENDROOT
TORSDOF 0
ENDMDL
