MODEL 1
REMARK minimizedAffinity 0.659025252
REMARK minimizedRMSD -1
REMARK  0 active torsions:
REMARK  status: ('A' for Active; 'I' for Inactive)
ROOT
ATOM      1  C4' PXY d   1      -0.732   3.650  -1.977  0.00  0.00     0.077 C 
ATOM      2  C1' PXY d   1       1.979   5.880   2.616  0.00  0.00     0.077 C 
ATOM      3  C1  PXY d   1       1.271   5.283   1.415  0.00  0.00    -0.082 A 
ATOM      4  C2  PXY d   1       1.138   6.000   0.311  0.00  0.00     0.003 A 
ATOM      5  C3  PXY d   1       0.473   5.488  -0.773  0.00  0.00     0.003 A 
ATOM      6  C4  PXY d   1      -0.016   4.209  -0.744  0.00  0.00    -0.082 A 
ATOM      7  C5  PXY d   1       0.125   3.467   0.375  0.00  0.00     0.003 A 
ATOM      8  C6  PXY d   1       0.768   4.020   1.478  0.00  0.00     0.003 A 
ENDROOT
TORSDOF 0
ENDMDL
