MODEL 1
REMARK minimizedAffinity 4.47993183
REMARK minimizedRMSD -1
REMARK  0 active torsions:
REMARK  status: ('A' for Active; 'I' for Inactive)
ROOT
ATOM      1  C4' PXY d   1      -6.000  -3.039   0.802  0.00  0.00     0.077 C 
ATOM      2  C1' PXY d   1      -3.553   1.318  -2.105  0.00  0.00     0.077 C 
ATOM      3  C1  PXY d   1      -4.201   0.184  -1.335  0.00  0.00    -0.082 A 
ATOM      4  C2  PXY d   1      -3.603  -0.994  -1.279  0.00  0.00     0.003 A 
ATOM      5  C3  PXY d   1      -4.190  -2.040  -0.615  0.00  0.00     0.003 A 
ATOM      6  C4  PXY d   1      -5.377  -1.863   0.044  0.00  0.00    -0.082 A 
ATOM      7  C5  PXY d   1      -5.989  -0.660   0.001  0.00  0.00     0.003 A 
ATOM      8  C6  PXY d   1      -5.396   0.377  -0.714  0.00  0.00     0.003 A 
ENDROOT
TORSDOF 0
ENDMDL
