MODEL 1
REMARK minimizedAffinity 17.9250317
REMARK minimizedRMSD -1
REMARK  0 active torsions:
REMARK  status: ('A' for Active; 'I' for Inactive)
ROOT
ATOM      1  C4' PXY d   1      -1.879  -2.603   4.712  0.00  0.00     0.077 C 
ATOM      2  C1' PXY d   1       2.475  -1.948   0.967  0.00  0.00     0.077 C 
ATOM      3  C1  PXY d   1       1.329  -2.131   1.943  0.00  0.00    -0.082 A 
ATOM      4  C2  PXY d   1       0.850  -1.082   2.592  0.00  0.00     0.003 A 
ATOM      5  C3  PXY d   1      -0.165  -1.234   3.502  0.00  0.00     0.003 A 
ATOM      6  C4  PXY d   1      -0.730  -2.464   3.711  0.00  0.00    -0.082 A 
ATOM      7  C5  PXY d   1      -0.253  -3.537   3.044  0.00  0.00     0.003 A 
ATOM      8  C6  PXY d   1       0.805  -3.368   2.155  0.00  0.00     0.003 A 
ENDROOT
TORSDOF 0
ENDMDL
