MODEL 1
REMARK minimizedAffinity 12.7525759
REMARK minimizedRMSD -1
REMARK  0 active torsions:
REMARK  status: ('A' for Active; 'I' for Inactive)
ROOT
ATOM      1  C4' PXY d   1      -1.424   3.372  -3.475  0.00  0.00     0.077 C 
ATOM      2  C1' PXY d   1       1.552   4.781   1.276  0.00  0.00     0.077 C 
ATOM      3  C1  PXY d   1       0.775   4.423   0.025  0.00  0.00    -0.082 A 
ATOM      4  C2  PXY d   1      -0.215   3.548   0.097  0.00  0.00     0.003 A 
ATOM      5  C3  PXY d   1      -0.908   3.189  -1.030  0.00  0.00     0.003 A 
ATOM      6  C4  PXY d   1      -0.618   3.771  -2.236  0.00  0.00    -0.082 A 
ATOM      7  C5  PXY d   1       0.384   4.672  -2.316  0.00  0.00     0.003 A 
ATOM      8  C6  PXY d   1       1.101   4.992  -1.167  0.00  0.00     0.003 A 
ENDROOT
TORSDOF 0
ENDMDL
