MODEL 1
REMARK minimizedAffinity 5.62191343
REMARK minimizedRMSD -1
REMARK  0 active torsions:
REMARK  status: ('A' for Active; 'I' for Inactive)
ROOT
ATOM      1  C4' PXY d   1      -0.291   2.660   3.995  0.00  0.00     0.077 C 
ATOM      2  C1' PXY d   1      -0.669   2.714  -1.773  0.00  0.00     0.077 C 
ATOM      3  C1  PXY d   1      -0.581   2.692  -0.259  0.00  0.00    -0.082 A 
ATOM      4  C2  PXY d   1       0.058   3.664   0.372  0.00  0.00     0.003 A 
ATOM      5  C3  PXY d   1       0.175   3.643   1.738  0.00  0.00     0.003 A 
ATOM      6  C4  PXY d   1      -0.413   2.646   2.469  0.00  0.00    -0.082 A 
ATOM      7  C5  PXY d   1      -1.076   1.656   1.832  0.00  0.00     0.003 A 
ATOM      8  C6  PXY d   1      -1.148   1.674   0.442  0.00  0.00     0.003 A 
ENDROOT
TORSDOF 0
ENDMDL
