MODEL 1
REMARK minimizedAffinity 3.4058249
REMARK minimizedRMSD -1
REMARK  0 active torsions:
REMARK  status: ('A' for Active; 'I' for Inactive)
ROOT
ATOM      1  C4' PXY d   1      -4.114   0.545  -2.629  0.00  0.00     0.077 C 
ATOM      2  C1' PXY d   1      -6.000  -3.202   1.348  0.00  0.00     0.077 C 
ATOM      3  C1  PXY d   1      -5.516  -2.213   0.306  0.00  0.00    -0.082 A 
ATOM      4  C2  PXY d   1      -4.624  -2.594  -0.594  0.00  0.00     0.003 A 
ATOM      5  C3  PXY d   1      -4.152  -1.703  -1.523  0.00  0.00     0.003 A 
ATOM      6  C4  PXY d   1      -4.638  -0.423  -1.565  0.00  0.00    -0.082 A 
ATOM      7  C5  PXY d   1      -5.556  -0.030  -0.657  0.00  0.00     0.003 A 
ATOM      8  C6  PXY d   1      -5.992  -0.938   0.304  0.00  0.00     0.003 A 
ENDROOT
TORSDOF 0
ENDMDL
