MODEL 1
REMARK minimizedAffinity -5.27137232
REMARK minimizedRMSD -1
REMARK  0 active torsions:
REMARK  status: ('A' for Active; 'I' for Inactive)
ROOT
ATOM      1  C4' PXY d   1      -1.507   0.516  -2.578  0.00  0.00     0.077 C 
ATOM      2  C1' PXY d   1      -2.326  -1.606   2.737  0.00  0.00     0.077 C 
ATOM      3  C1  PXY d   1      -2.099  -1.047   1.346  0.00  0.00    -0.082 A 
ATOM      4  C2  PXY d   1      -3.125  -0.581   0.652  0.00  0.00     0.003 A 
ATOM      5  C3  PXY d   1      -2.942  -0.102  -0.619  0.00  0.00     0.003 A 
ATOM      6  C4  PXY d   1      -1.688  -0.049  -1.166  0.00  0.00    -0.082 A 
ATOM      7  C5  PXY d   1      -0.634  -0.513  -0.461  0.00  0.00     0.003 A 
ATOM      8  C6  PXY d   1      -0.847  -1.034   0.812  0.00  0.00     0.003 A 
ENDROOT
TORSDOF 0
ENDMDL
