MODEL 1
REMARK minimizedAffinity -3.49221539
REMARK minimizedRMSD -1
REMARK  0 active torsions:
REMARK  status: ('A' for Active; 'I' for Inactive)
ROOT
ATOM      1  C4' PXY d   1       2.508   1.327   0.718  0.00  0.00     0.077 C 
ATOM      2  C1' PXY d   1      -2.608  -1.114  -0.415  0.00  0.00     0.077 C 
ATOM      3  C1  PXY d   1      -1.270  -0.472  -0.106  0.00  0.00    -0.082 A 
ATOM      4  C2  PXY d   1      -0.548   0.041  -1.088  0.00  0.00     0.003 A 
ATOM      5  C3  PXY d   1       0.678   0.597  -0.831  0.00  0.00     0.003 A 
ATOM      6  C4  PXY d   1       1.147   0.677   0.453  0.00  0.00    -0.082 A 
ATOM      7  C5  PXY d   1       0.411   0.166   1.463  0.00  0.00     0.003 A 
ATOM      8  C6  PXY d   1      -0.813  -0.431   1.175  0.00  0.00     0.003 A 
ENDROOT
TORSDOF 0
ENDMDL
