MODEL 1
REMARK minimizedAffinity 2.65057707
REMARK minimizedRMSD -1
REMARK  0 active torsions:
REMARK  status: ('A' for Active; 'I' for Inactive)
ROOT
ATOM      1  C4' PXY d   1      -1.680   0.506  -2.416  0.00  0.00     0.077 C 
ATOM      2  C1' PXY d   1       0.631  -0.985   2.669  0.00  0.00     0.077 C 
ATOM      3  C1  PXY d   1       0.026  -0.606   1.331  0.00  0.00    -0.082 A 
ATOM      4  C2  PXY d   1       0.070   0.653   0.927  0.00  0.00     0.003 A 
ATOM      5  C3  PXY d   1      -0.500   1.018  -0.266  0.00  0.00     0.003 A 
ATOM      6  C4  PXY d   1      -1.074   0.076  -1.077  0.00  0.00    -0.082 A 
ATOM      7  C5  PXY d   1      -1.113  -1.212  -0.676  0.00  0.00     0.003 A 
ATOM      8  C6  PXY d   1      -0.565  -1.556   0.557  0.00  0.00     0.003 A 
ENDROOT
TORSDOF 0
ENDMDL
