MODEL 1
REMARK minimizedAffinity 1.6664269
REMARK minimizedRMSD -1
REMARK  0 active torsions:
REMARK  status: ('A' for Active; 'I' for Inactive)
ROOT
ATOM      1  C4' PXY d   1       2.491   3.322   1.175  0.00  0.00     0.077 C 
ATOM      2  C1' PXY d   1      -0.003  -1.893   1.184  0.00  0.00     0.077 C 
ATOM      3  C1  PXY d   1       0.644  -0.523   1.192  0.00  0.00    -0.082 A 
ATOM      4  C2  PXY d   1       1.113  -0.014   0.064  0.00  0.00     0.003 A 
ATOM      5  C3  PXY d   1       1.730   1.211   0.060  0.00  0.00     0.003 A 
ATOM      6  C4  PXY d   1       1.821   1.945   1.212  0.00  0.00    -0.082 A 
ATOM      7  C5  PXY d   1       1.335   1.438   2.364  0.00  0.00     0.003 A 
ATOM      8  C6  PXY d   1       0.749   0.175   2.355  0.00  0.00     0.003 A 
ENDROOT
TORSDOF 0
ENDMDL
