MODEL 1
REMARK minimizedAffinity 1.31341588
REMARK minimizedRMSD -1
REMARK  0 active torsions:
REMARK  status: ('A' for Active; 'I' for Inactive)
ROOT
ATOM      1  C4' PXY d   1       0.383  -1.964   1.926  0.00  0.00     0.077 C 
ATOM      2  C1' PXY d   1      -0.900   1.142  -2.777  0.00  0.00     0.077 C 
ATOM      3  C1  PXY d   1      -0.551   0.331  -1.544  0.00  0.00    -0.082 A 
ATOM      4  C2  PXY d   1      -1.269  -0.737  -1.239  0.00  0.00     0.003 A 
ATOM      5  C3  PXY d   1      -0.987  -1.463  -0.110  0.00  0.00     0.003 A 
ATOM      6  C4  PXY d   1       0.073  -1.122   0.686  0.00  0.00    -0.082 A 
ATOM      7  C5  PXY d   1       0.817  -0.039   0.376  0.00  0.00     0.003 A 
ATOM      8  C6  PXY d   1       0.489   0.708  -0.752  0.00  0.00     0.003 A 
ENDROOT
TORSDOF 0
ENDMDL
