MODEL 1
REMARK minimizedAffinity -1.64746368
REMARK minimizedRMSD -1
REMARK  0 active torsions:
REMARK  status: ('A' for Active; 'I' for Inactive)
ROOT
ATOM      1  C4' PXY d   1       1.935   1.668   1.527  0.00  0.00     0.077 C 
ATOM      2  C1' PXY d   1      -1.711  -1.602  -1.544  0.00  0.00     0.077 C 
ATOM      3  C1  PXY d   1      -0.757  -0.752  -0.728  0.00  0.00    -0.082 A 
ATOM      4  C2  PXY d   1      -0.555   0.512  -1.065  0.00  0.00     0.003 A 
ATOM      5  C3  PXY d   1       0.329   1.285  -0.358  0.00  0.00     0.003 A 
ATOM      6  C4  PXY d   1       0.973   0.776   0.738  0.00  0.00    -0.082 A 
ATOM      7  C5  PXY d   1       0.764  -0.509   1.095  0.00  0.00     0.003 A 
ATOM      8  C6  PXY d   1      -0.106  -1.290   0.339  0.00  0.00     0.003 A 
ENDROOT
TORSDOF 0
ENDMDL
