MODEL 1
REMARK minimizedAffinity -0.737646043
REMARK minimizedRMSD -1
REMARK  0 active torsions:
REMARK  status: ('A' for Active; 'I' for Inactive)
ROOT
ATOM      1  C4' PXY d   1       2.148   1.562   0.597  0.00  0.00     0.077 C 
ATOM      2  C1' PXY d   1      -2.440  -1.315  -1.424  0.00  0.00     0.077 C 
ATOM      3  C1  PXY d   1      -1.239  -0.566  -0.883  0.00  0.00    -0.082 A 
ATOM      4  C2  PXY d   1      -0.848   0.555  -1.467  0.00  0.00     0.003 A 
ATOM      5  C3  PXY d   1       0.255   1.228  -1.010  0.00  0.00     0.003 A 
ATOM      6  C4  PXY d   1       0.935   0.778   0.090  0.00  0.00    -0.082 A 
ATOM      7  C5  PXY d   1       0.536  -0.359   0.699  0.00  0.00     0.003 A 
ATOM      8  C6  PXY d   1      -0.561  -1.050   0.194  0.00  0.00     0.003 A 
ENDROOT
TORSDOF 0
ENDMDL
