MODEL 1
REMARK minimizedAffinity -3.65952969
REMARK minimizedRMSD -1
REMARK  0 active torsions:
REMARK  status: ('A' for Active; 'I' for Inactive)
ROOT
ATOM      1  C4' PXY d   1      -2.341  -2.766   4.144  0.00  0.00     0.077 C 
ATOM      2  C1' PXY d   1       1.386  -0.179   0.562  0.00  0.00     0.077 C 
ATOM      3  C1  PXY d   1       0.403  -0.846   1.503  0.00  0.00    -0.082 A 
ATOM      4  C2  PXY d   1       0.750  -1.957   2.132  0.00  0.00     0.003 A 
ATOM      5  C3  PXY d   1      -0.139  -2.591   2.962  0.00  0.00     0.003 A 
ATOM      6  C4  PXY d   1      -1.377  -2.053   3.192  0.00  0.00    -0.082 A 
ATOM      7  C5  PXY d   1      -1.735  -0.914   2.562  0.00  0.00     0.003 A 
ATOM      8  C6  PXY d   1      -0.833  -0.309   1.691  0.00  0.00     0.003 A 
ENDROOT
TORSDOF 0
ENDMDL
