MODEL 1
REMARK minimizedAffinity 1.38178468
REMARK minimizedRMSD -1
REMARK  0 active torsions:
REMARK  status: ('A' for Active; 'I' for Inactive)
ROOT
ATOM      1  C4' PXY d   1       2.600   3.047   0.857  0.00  0.00     0.077 C 
ATOM      2  C1' PXY d   1      -0.323  -1.860   1.745  0.00  0.00     0.077 C 
ATOM      3  C1  PXY d   1       0.435  -0.567   1.520  0.00  0.00    -0.082 A 
ATOM      4  C2  PXY d   1       1.220  -0.445   0.462  0.00  0.00     0.003 A 
ATOM      5  C3  PXY d   1       1.937   0.706   0.259  0.00  0.00     0.003 A 
ATOM      6  C4  PXY d   1       1.808   1.763   1.120  0.00  0.00    -0.082 A 
ATOM      7  C5  PXY d   1       1.001   1.650   2.196  0.00  0.00     0.003 A 
ATOM      8  C6  PXY d   1       0.314   0.459   2.406  0.00  0.00     0.003 A 
ENDROOT
TORSDOF 0
ENDMDL
