MODEL 1
REMARK minimizedAffinity 5.74784327
REMARK minimizedRMSD -1
REMARK  0 active torsions:
REMARK  status: ('A' for Active; 'I' for Inactive)
ROOT
ATOM      1  C4' PXY d   1      -3.820  -1.028   0.426  0.00  0.00     0.077 C 
ATOM      2  C1' PXY d   1       1.653  -1.837   2.104  0.00  0.00     0.077 C 
ATOM      3  C1  PXY d   1       0.222  -1.620   1.653  0.00  0.00    -0.082 A 
ATOM      4  C2  PXY d   1      -0.730  -1.445   2.555  0.00  0.00     0.003 A 
ATOM      5  C3  PXY d   1      -2.034  -1.280   2.165  0.00  0.00     0.003 A 
ATOM      6  C4  PXY d   1      -2.360  -1.240   0.836  0.00  0.00    -0.082 A 
ATOM      7  C5  PXY d   1      -1.393  -1.408  -0.091  0.00  0.00     0.003 A 
ATOM      8  C6  PXY d   1      -0.082  -1.615   0.326  0.00  0.00     0.003 A 
ENDROOT
TORSDOF 0
ENDMDL
