MODEL 1
REMARK minimizedAffinity -0.581416965
REMARK minimizedRMSD -1
REMARK  0 active torsions:
REMARK  status: ('A' for Active; 'I' for Inactive)
ROOT
ATOM      1  C4' PXY d   1      -5.001  -2.244   1.074  0.00  0.00     0.077 C 
ATOM      2  C1' PXY d   1      -1.326   0.761  -2.224  0.00  0.00     0.077 C 
ATOM      3  C1  PXY d   1      -2.285  -0.038  -1.364  0.00  0.00    -0.082 A 
ATOM      4  C2  PXY d   1      -3.402   0.525  -0.934  0.00  0.00     0.003 A 
ATOM      5  C3  PXY d   1      -4.265  -0.173  -0.128  0.00  0.00     0.003 A 
ATOM      6  C4  PXY d   1      -4.008  -1.478   0.196  0.00  0.00    -0.082 A 
ATOM      7  C5  PXY d   1      -2.876  -2.063  -0.249  0.00  0.00     0.003 A 
ATOM      8  C6  PXY d   1      -1.993  -1.325  -1.031  0.00  0.00     0.003 A 
ENDROOT
TORSDOF 0
ENDMDL
