MODEL 1
REMARK minimizedAffinity 3.09345627
REMARK minimizedRMSD -1
REMARK  0 active torsions:
REMARK  status: ('A' for Active; 'I' for Inactive)
ROOT
ATOM      1  C4' PXY d   1       6.000   2.102  -0.803  0.00  0.00     0.077 C 
ATOM      2  C1' PXY d   1       0.907   2.625   1.882  0.00  0.00     0.077 C 
ATOM      3  C1  PXY d   1       2.248   2.495   1.187  0.00  0.00    -0.082 A 
ATOM      4  C2  PXY d   1       2.291   2.247  -0.112  0.00  0.00     0.003 A 
ATOM      5  C3  PXY d   1       3.495   2.095  -0.750  0.00  0.00     0.003 A 
ATOM      6  C4  PXY d   1       4.668   2.251  -0.062  0.00  0.00    -0.082 A 
ATOM      7  C5  PXY d   1       4.633   2.515   1.262  0.00  0.00     0.003 A 
ATOM      8  C6  PXY d   1       3.401   2.625   1.899  0.00  0.00     0.003 A 
ENDROOT
TORSDOF 0
ENDMDL
