MODEL 1
REMARK minimizedAffinity 1.52976727
REMARK minimizedRMSD -1
REMARK  0 active torsions:
REMARK  status: ('A' for Active; 'I' for Inactive)
ROOT
ATOM      1  C4' PXY d   1       2.541   2.948   2.596  0.00  0.00     0.077 C 
ATOM      2  C1' PXY d   1      -0.754  -1.786   2.217  0.00  0.00     0.077 C 
ATOM      3  C1  PXY d   1       0.100  -0.537   2.314  0.00  0.00    -0.082 A 
ATOM      4  C2  PXY d   1       1.401  -0.615   2.087  0.00  0.00     0.003 A 
ATOM      5  C3  PXY d   1       2.193   0.499   2.202  0.00  0.00     0.003 A 
ATOM      6  C4  PXY d   1       1.639   1.715   2.500  0.00  0.00    -0.082 A 
ATOM      7  C5  PXY d   1       0.311   1.804   2.723  0.00  0.00     0.003 A 
ATOM      8  C6  PXY d   1      -0.470   0.654   2.642  0.00  0.00     0.003 A 
ENDROOT
TORSDOF 0
ENDMDL
