MODEL 1
REMARK minimizedAffinity 3.41866636
REMARK minimizedRMSD -1
REMARK  0 active torsions:
REMARK  status: ('A' for Active; 'I' for Inactive)
ROOT
ATOM      1  C4' PXY d   1      -2.385  -0.664  -1.321  0.00  0.00     0.077 C 
ATOM      2  C1' PXY d   1       1.785  -1.743   2.534  0.00  0.00     0.077 C 
ATOM      3  C1  PXY d   1       0.699  -1.451   1.517  0.00  0.00    -0.082 A 
ATOM      4  C2  PXY d   1      -0.563  -1.714   1.814  0.00  0.00     0.003 A 
ATOM      5  C3  PXY d   1      -1.554  -1.486   0.895  0.00  0.00     0.003 A 
ATOM      6  C4  PXY d   1      -1.256  -0.934  -0.322  0.00  0.00    -0.082 A 
ATOM      7  C5  PXY d   1       0.028  -0.653  -0.629  0.00  0.00     0.003 A 
ATOM      8  C6  PXY d   1       1.024  -0.930   0.303  0.00  0.00     0.003 A 
ENDROOT
TORSDOF 0
ENDMDL
