MODEL 1
REMARK minimizedAffinity 6.434587
REMARK minimizedRMSD -1
REMARK  0 active torsions:
REMARK  status: ('A' for Active; 'I' for Inactive)
ROOT
ATOM      1  C4' PXY d   1      -1.795  -2.668  -3.789  0.00  0.00     0.077 C 
ATOM      2  C1' PXY d   1      -2.845   0.721   0.775  0.00  0.00     0.077 C 
ATOM      3  C1  PXY d   1      -2.564  -0.158  -0.428  0.00  0.00    -0.082 A 
ATOM      4  C2  PXY d   1      -3.322  -1.218  -0.655  0.00  0.00     0.003 A 
ATOM      5  C3  PXY d   1      -3.062  -2.041  -1.720  0.00  0.00     0.003 A 
ATOM      6  C4  PXY d   1      -2.048  -1.747  -2.592  0.00  0.00    -0.082 A 
ATOM      7  C5  PXY d   1      -1.277  -0.661  -2.373  0.00  0.00     0.003 A 
ATOM      8  C6  PXY d   1      -1.531   0.139  -1.263  0.00  0.00     0.003 A 
ENDROOT
TORSDOF 0
ENDMDL
