MODEL 1
REMARK minimizedAffinity 3.5552578
REMARK minimizedRMSD -1
REMARK  0 active torsions:
REMARK  status: ('A' for Active; 'I' for Inactive)
ROOT
ATOM      1  C4' PXY d   1      -0.494   2.928  -4.514  0.00  0.00     0.077 C 
ATOM      2  C1' PXY d   1      -2.408  -1.171  -0.916  0.00  0.00     0.077 C 
ATOM      3  C1  PXY d   1      -1.918  -0.094  -1.863  0.00  0.00    -0.082 A 
ATOM      4  C2  PXY d   1      -0.684  -0.151  -2.337  0.00  0.00     0.003 A 
ATOM      5  C3  PXY d   1      -0.215   0.832  -3.169  0.00  0.00     0.003 A 
ATOM      6  C4  PXY d   1      -1.034   1.856  -3.562  0.00  0.00    -0.082 A 
ATOM      7  C5  PXY d   1      -2.297   1.916  -3.092  0.00  0.00     0.003 A 
ATOM      8  C6  PXY d   1      -2.742   0.930  -2.215  0.00  0.00     0.003 A 
ENDROOT
TORSDOF 0
ENDMDL
