MODEL 1
REMARK minimizedAffinity 4.5043478
REMARK minimizedRMSD -1
REMARK  0 active torsions:
REMARK  status: ('A' for Active; 'I' for Inactive)
ROOT
ATOM      1  C4' PXY d   1      -0.844   2.003  -3.796  0.00  0.00     0.077 C 
ATOM      2  C1' PXY d   1      -2.833  -1.907  -0.032  0.00  0.00     0.077 C 
ATOM      3  C1  PXY d   1      -2.324  -0.879  -1.023  0.00  0.00    -0.082 A 
ATOM      4  C2  PXY d   1      -1.092  -0.980  -1.495  0.00  0.00     0.003 A 
ATOM      5  C3  PXY d   1      -0.604  -0.040  -2.367  0.00  0.00     0.003 A 
ATOM      6  C4  PXY d   1      -1.404   0.983  -2.801  0.00  0.00    -0.082 A 
ATOM      7  C5  PXY d   1      -2.665   1.086  -2.333  0.00  0.00     0.003 A 
ATOM      8  C6  PXY d   1      -3.128   0.146  -1.417  0.00  0.00     0.003 A 
ENDROOT
TORSDOF 0
ENDMDL
