MODEL 1
REMARK minimizedAffinity 2.92078972
REMARK minimizedRMSD -1
REMARK  0 active torsions:
REMARK  status: ('A' for Active; 'I' for Inactive)
ROOT
ATOM      1  C4' PXY d   1       0.655   1.964  -3.960  0.00  0.00     0.077 C 
ATOM      2  C1' PXY d   1      -2.823  -1.087  -0.494  0.00  0.00     0.077 C 
ATOM      3  C1  PXY d   1      -1.900  -0.293  -1.398  0.00  0.00    -0.082 A 
ATOM      4  C2  PXY d   1      -2.299   0.875  -1.876  0.00  0.00     0.003 A 
ATOM      5  C3  PXY d   1      -1.490   1.591  -2.720  0.00  0.00     0.003 A 
ATOM      6  C4  PXY d   1      -0.239   1.132  -3.036  0.00  0.00    -0.082 A 
ATOM      7  C5  PXY d   1       0.179  -0.053  -2.545  0.00  0.00     0.003 A 
ATOM      8  C6  PXY d   1      -0.674  -0.784  -1.722  0.00  0.00     0.003 A 
ENDROOT
TORSDOF 0
ENDMDL
