MODEL 1
REMARK minimizedAffinity -2.50942659
REMARK minimizedRMSD -1
REMARK  0 active torsions:
REMARK  status: ('A' for Active; 'I' for Inactive)
ROOT
ATOM      1  C4' PXY d   1       6.000   3.760  -4.183  0.00  0.00     0.077 C 
ATOM      2  C1' PXY d   1       3.018   3.383   0.755  0.00  0.00     0.077 C 
ATOM      3  C1  PXY d   1       3.810   3.476  -0.534  0.00  0.00    -0.082 A 
ATOM      4  C2  PXY d   1       3.478   4.379  -1.442  0.00  0.00     0.003 A 
ATOM      5  C3  PXY d   1       4.164   4.456  -2.627  0.00  0.00     0.003 A 
ATOM      6  C4  PXY d   1       5.234   3.636  -2.863  0.00  0.00    -0.082 A 
ATOM      7  C5  PXY d   1       5.586   2.719  -1.937  0.00  0.00     0.003 A 
ATOM      8  C6  PXY d   1       4.851   2.629  -0.758  0.00  0.00     0.003 A 
ENDROOT
TORSDOF 0
ENDMDL
