MODEL 1
REMARK minimizedAffinity -2.94500566
REMARK minimizedRMSD -1
REMARK  1 active torsions:
REMARK  status: ('A' for Active; 'I' for Inactive)
REMARK    1  A    between atoms: C1_2  and  C2_3 
ROOT
ATOM      1  C2  UNL d   1       1.014   0.183  -0.200  0.00  0.00    -0.076 A 
ATOM      2  C3  UNL d   1       1.954  -0.815  -0.510  0.00  0.00     0.004 A 
ATOM      3  C4  UNL d   1       1.587  -2.159  -0.546  0.00  0.00    -0.003 A 
ATOM      4  C5  UNL d   1       0.275  -2.527  -0.273  0.00  0.00     0.000 A 
ATOM      5  C6  UNL d   1      -0.675  -1.548   0.019  0.00  0.00     0.000 A 
ATOM      6  C7  UNL d   1      -0.325  -0.187   0.043  0.00  0.00    -0.073 A 
ATOM      7  C8  UNL d   1      -1.389   0.825   0.370  0.00  0.00     0.078 C 
ENDROOT
BRANCH   1   8
ATOM      8  C1  UNL d   1       1.476   1.622  -0.149  0.00  0.00     0.053 C 
ATOM      9  C   UNL d   1       2.989   1.745  -0.047  0.00  0.00     0.018 C 
ENDBRANCH   1   8
TORSDOF 1
ENDMDL
