MODEL 1
REMARK minimizedAffinity -3.48038983
REMARK minimizedRMSD -1
REMARK  1 active torsions:
REMARK  status: ('A' for Active; 'I' for Inactive)
REMARK    1  A    between atoms: C1_2  and  C2_3 
ROOT
ATOM      1  C2  UNL d   1       0.712   0.096  -0.019  0.00  0.00    -0.076 A 
ATOM      2  C3  UNL d   1       1.172  -1.229  -0.102  0.00  0.00     0.004 A 
ATOM      3  C4  UNL d   1       2.529  -1.509  -0.257  0.00  0.00    -0.003 A 
ATOM      4  C5  UNL d   1       3.447  -0.468  -0.330  0.00  0.00     0.000 A 
ATOM      5  C6  UNL d   1       3.010   0.852  -0.232  0.00  0.00     0.000 A 
ATOM      6  C7  UNL d   1       1.648   1.152  -0.060  0.00  0.00    -0.073 A 
ATOM      7  C8  UNL d   1       1.232   2.594   0.034  0.00  0.00     0.078 C 
ENDROOT
BRANCH   1   8
ATOM      8  C1  UNL d   1      -0.774   0.340   0.120  0.00  0.00     0.053 C 
ATOM      9  C   UNL d   1      -1.541   0.007  -1.150  0.00  0.00     0.018 C 
ENDBRANCH   1   8
TORSDOF 1
ENDMDL
