MODEL 1
REMARK minimizedAffinity -4.44465828
REMARK minimizedRMSD -1
REMARK  1 active torsions:
REMARK  status: ('A' for Active; 'I' for Inactive)
REMARK    1  A    between atoms: C1_2  and  C2_3 
ROOT
ATOM      1  C2  UNL d   1       0.240   0.404  -0.276  0.00  0.00    -0.076 A 
ATOM      2  C3  UNL d   1       1.172   1.423  -0.013  0.00  0.00     0.004 A 
ATOM      3  C4  UNL d   1       2.528   1.134   0.133  0.00  0.00    -0.003 A 
ATOM      4  C5  UNL d   1       2.974  -0.178   0.019  0.00  0.00     0.000 A 
ATOM      5  C6  UNL d   1       2.065  -1.199  -0.258  0.00  0.00     0.000 A 
ATOM      6  C7  UNL d   1       0.697  -0.923  -0.425  0.00  0.00    -0.073 A 
ATOM      7  C8  UNL d   1      -0.239  -2.063  -0.717  0.00  0.00     0.078 C 
ENDROOT
BRANCH   1   8
ATOM      8  C1  UNL d   1      -1.221   0.773  -0.398  0.00  0.00     0.053 C 
ATOM      9  C   UNL d   1      -1.802   1.291   0.909  0.00  0.00     0.018 C 
ENDBRANCH   1   8
TORSDOF 1
ENDMDL
