MODEL 1
REMARK minimizedAffinity -4.24247789
REMARK minimizedRMSD -1
REMARK  1 active torsions:
REMARK  status: ('A' for Active; 'I' for Inactive)
REMARK    1  A    between atoms: C1_2  and  C2_3 
ROOT
ATOM      1  C2  UNL d   1       1.266  -0.675  -0.199  0.00  0.00    -0.076 A 
ATOM      2  C3  UNL d   1       2.641  -0.789   0.069  0.00  0.00     0.004 A 
ATOM      3  C4  UNL d   1       3.454   0.340   0.142  0.00  0.00    -0.003 A 
ATOM      4  C5  UNL d   1       2.904   1.603  -0.051  0.00  0.00     0.000 A 
ATOM      5  C6  UNL d   1       1.539   1.736  -0.301  0.00  0.00     0.000 A 
ATOM      6  C7  UNL d   1       0.702   0.608  -0.361  0.00  0.00    -0.073 A 
ATOM      7  C8  UNL d   1      -0.762   0.810  -0.639  0.00  0.00     0.078 C 
ENDROOT
BRANCH   1   8
ATOM      8  C1  UNL d   1       0.439  -1.938  -0.293  0.00  0.00     0.053 C 
ATOM      9  C   UNL d   1       0.373  -2.487  -1.709  0.00  0.00     0.018 C 
ENDBRANCH   1   8
TORSDOF 1
ENDMDL
