MODEL 1
REMARK minimizedAffinity -2.23775148
REMARK minimizedRMSD -1
REMARK  1 active torsions:
REMARK  status: ('A' for Active; 'I' for Inactive)
REMARK    1  A    between atoms: C1_2  and  C2_3 
ROOT
ATOM      1  C2  UNL d   1       0.888  -0.849  -0.452  0.00  0.00    -0.076 A 
ATOM      2  C3  UNL d   1       1.065   0.496  -0.082  0.00  0.00     0.004 A 
ATOM      3  C4  UNL d   1      -0.013   1.379  -0.051  0.00  0.00    -0.003 A 
ATOM      4  C5  UNL d   1      -1.285   0.932  -0.388  0.00  0.00     0.000 A 
ATOM      5  C6  UNL d   1      -1.482  -0.403  -0.740  0.00  0.00     0.000 A 
ATOM      6  C7  UNL d   1      -0.409  -1.311  -0.761  0.00  0.00    -0.073 A 
ATOM      7  C8  UNL d   1      -0.678  -2.738  -1.154  0.00  0.00     0.078 C 
ENDROOT
BRANCH   1   8
ATOM      8  C1  UNL d   1       2.099  -1.754  -0.494  0.00  0.00     0.053 C 
ATOM      9  C   UNL d   1       3.391  -1.013  -0.189  0.00  0.00     0.018 C 
ENDBRANCH   1   8
TORSDOF 1
ENDMDL
