MODEL 1
REMARK minimizedAffinity 1.56923866
REMARK minimizedRMSD -1
REMARK  1 active torsions:
REMARK  status: ('A' for Active; 'I' for Inactive)
REMARK    1  A    between atoms: N_2  and  C1_3 
ROOT
ATOM      1  C1  UNL d   1       3.647   3.348   5.967  0.00  0.00     0.143 A 
ATOM      2  C2  UNL d   1       4.516   4.444   5.954  0.00  0.00    -0.057 A 
ATOM      3  C3  UNL d   1       4.031   5.756   5.984  0.00  0.00     0.033 A 
ATOM      4  C4  UNL d   1       2.661   5.997   5.999  0.00  0.00    -0.042 A 
ATOM      5  C5  UNL d   1       1.777   4.924   5.987  0.00  0.00     0.033 A 
ATOM      6  C6  UNL d   1       2.269   3.615   5.963  0.00  0.00    -0.057 A 
ENDROOT
BRANCH   1   7
ATOM      7  N   UNL d   1       4.065   2.021   5.838  0.00  0.00    -0.732 N 
ATOM      8  C   UNL d   1       3.120   0.934   5.972  0.00  0.00     0.284 C 
ATOM      9  H3  UNL d   1       4.738   1.897   5.085  0.00  0.00     0.395 HD
ENDBRANCH   1   7
TORSDOF 1
ENDMDL
