MODEL 1
REMARK minimizedAffinity 2.54963231
REMARK minimizedRMSD -1
REMARK  1 active torsions:
REMARK  status: ('A' for Active; 'I' for Inactive)
REMARK    1  A    between atoms: N_2  and  C1_3 
ROOT
ATOM      1  C1  UNL d   1       3.468  -0.224   0.008  0.00  0.00     0.143 A 
ATOM      2  C2  UNL d   1       3.189   0.807  -0.895  0.00  0.00    -0.057 A 
ATOM      3  C3  UNL d   1       4.026   1.924  -1.003  0.00  0.00     0.033 A 
ATOM      4  C4  UNL d   1       5.145   2.043  -0.186  0.00  0.00    -0.042 A 
ATOM      5  C5  UNL d   1       5.428   1.042   0.737  0.00  0.00     0.033 A 
ATOM      6  C6  UNL d   1       4.592  -0.074   0.835  0.00  0.00    -0.057 A 
ENDROOT
BRANCH   1   7
ATOM      7  N   UNL d   1       2.621  -1.313   0.232  0.00  0.00    -0.732 N 
ATOM      8  C   UNL d   1       2.302  -2.231  -0.841  0.00  0.00     0.284 C 
ATOM      9  H3  UNL d   1       2.796  -1.764   1.127  0.00  0.00     0.395 HD
ENDBRANCH   1   7
TORSDOF 1
ENDMDL
