MODEL 1
REMARK minimizedAffinity 1.87124252
REMARK minimizedRMSD -1
REMARK  1 active torsions:
REMARK  status: ('A' for Active; 'I' for Inactive)
REMARK    1  A    between atoms: N_2  and  C1_3 
ROOT
ATOM      1  C1  UNL d   1       0.852  -3.269   4.586  0.00  0.00     0.143 A 
ATOM      2  C2  UNL d   1      -0.369  -3.948   4.531  0.00  0.00    -0.057 A 
ATOM      3  C3  UNL d   1      -0.562  -5.153   5.217  0.00  0.00     0.033 A 
ATOM      4  C4  UNL d   1       0.478  -5.716   5.951  0.00  0.00    -0.042 A 
ATOM      5  C5  UNL d   1       1.708  -5.071   6.000  0.00  0.00     0.033 A 
ATOM      6  C6  UNL d   1       1.892  -3.865   5.317  0.00  0.00    -0.057 A 
ENDROOT
BRANCH   1   7
ATOM      7  N   UNL d   1       1.137  -2.118   3.847  0.00  0.00    -0.732 N 
ATOM      8  C   UNL d   1       1.495  -0.884   4.512  0.00  0.00     0.284 C 
ATOM      9  H3  UNL d   1       1.688  -2.318   3.015  0.00  0.00     0.395 HD
ENDBRANCH   1   7
TORSDOF 1
ENDMDL
