MODEL 1
REMARK minimizedAffinity -0.888172567
REMARK minimizedRMSD -1
REMARK  1 active torsions:
REMARK  status: ('A' for Active; 'I' for Inactive)
REMARK    1  A    between atoms: N_2  and  C1_3 
ROOT
ATOM      1  C1  UNL d   1       3.081   4.508   5.432  0.00  0.00     0.143 A 
ATOM      2  C2  UNL d   1       4.374   4.567   4.899  0.00  0.00    -0.057 A 
ATOM      3  C3  UNL d   1       5.208   3.443   4.890  0.00  0.00     0.033 A 
ATOM      4  C4  UNL d   1       4.773   2.242   5.442  0.00  0.00    -0.042 A 
ATOM      5  C5  UNL d   1       3.502   2.166   5.999  0.00  0.00     0.033 A 
ATOM      6  C6  UNL d   1       2.671   3.291   5.999  0.00  0.00    -0.057 A 
ENDROOT
BRANCH   1   7
ATOM      7  N   UNL d   1       2.241   5.616   5.559  0.00  0.00    -0.732 N 
ATOM      8  C   UNL d   1       0.869   5.455   5.992  0.00  0.00     0.284 C 
ATOM      9  H3  UNL d   1       2.714   6.418   5.969  0.00  0.00     0.395 HD
ENDBRANCH   1   7
TORSDOF 1
ENDMDL
