MODEL 1
REMARK minimizedAffinity 10.7072029
REMARK minimizedRMSD -1
REMARK  1 active torsions:
REMARK  status: ('A' for Active; 'I' for Inactive)
REMARK    1  A    between atoms: N_2  and  C1_3 
ROOT
ATOM      1  C1  UNL d   1      -3.569   1.418  -4.054  0.00  0.00     0.143 A 
ATOM      2  C2  UNL d   1      -4.750   0.745  -4.386  0.00  0.00    -0.057 A 
ATOM      3  C3  UNL d   1      -5.950   1.438  -4.586  0.00  0.00     0.033 A 
ATOM      4  C4  UNL d   1      -5.996   2.819  -4.430  0.00  0.00    -0.042 A 
ATOM      5  C5  UNL d   1      -4.840   3.507  -4.076  0.00  0.00     0.033 A 
ATOM      6  C6  UNL d   1      -3.644   2.809  -3.883  0.00  0.00    -0.057 A 
ENDROOT
BRANCH   1   7
ATOM      7  N   UNL d   1      -2.368   0.776  -3.745  0.00  0.00    -0.732 N 
ATOM      8  C   UNL d   1      -2.078   0.366  -2.388  0.00  0.00     0.284 C 
ATOM      9  H3  UNL d   1      -2.099   0.094  -4.451  0.00  0.00     0.395 HD
ENDBRANCH   1   7
TORSDOF 1
ENDMDL
