MODEL 1
REMARK minimizedAffinity 0.223405808
REMARK minimizedRMSD -1
REMARK  1 active torsions:
REMARK  status: ('A' for Active; 'I' for Inactive)
REMARK    1  A    between atoms: N_2  and  C1_3 
ROOT
ATOM      1  C1  UNL d   1       3.947   2.881   5.395  0.00  0.00     0.143 A 
ATOM      2  C2  UNL d   1       3.092   3.809   6.000  0.00  0.00    -0.057 A 
ATOM      3  C3  UNL d   1       3.388   5.177   5.998  0.00  0.00     0.033 A 
ATOM      4  C4  UNL d   1       4.562   5.641   5.415  0.00  0.00    -0.042 A 
ATOM      5  C5  UNL d   1       5.439   4.734   4.830  0.00  0.00     0.033 A 
ATOM      6  C6  UNL d   1       5.135   3.370   4.829  0.00  0.00    -0.057 A 
ENDROOT
BRANCH   1   7
ATOM      7  N   UNL d   1       3.758   1.498   5.449  0.00  0.00    -0.732 N 
ATOM      8  C   UNL d   1       2.538   0.942   5.993  0.00  0.00     0.284 C 
ATOM      9  H3  UNL d   1       4.092   1.027   4.612  0.00  0.00     0.395 HD
ENDBRANCH   1   7
TORSDOF 1
ENDMDL
