MODEL 1
REMARK minimizedAffinity 8.3998251
REMARK minimizedRMSD -1
REMARK  1 active torsions:
REMARK  status: ('A' for Active; 'I' for Inactive)
REMARK    1  A    between atoms: N_2  and  C1_3 
ROOT
ATOM      1  C1  UNL d   1       3.763   3.952   5.010  0.00  0.00     0.143 A 
ATOM      2  C2  UNL d   1       4.837   4.820   4.788  0.00  0.00    -0.057 A 
ATOM      3  C3  UNL d   1       5.831   4.520   3.848  0.00  0.00     0.033 A 
ATOM      4  C4  UNL d   1       5.784   3.328   3.133  0.00  0.00    -0.042 A 
ATOM      5  C5  UNL d   1       4.739   2.438   3.356  0.00  0.00     0.033 A 
ATOM      6  C6  UNL d   1       3.746   2.746   4.291  0.00  0.00    -0.057 A 
ENDROOT
BRANCH   1   7
ATOM      7  N   UNL d   1       2.797   4.147   6.000  0.00  0.00    -0.732 N 
ATOM      8  C   UNL d   1       1.891   5.274   5.934  0.00  0.00     0.284 C 
ATOM      9  H3  UNL d   1       2.358   3.277   6.291  0.00  0.00     0.395 HD
ENDBRANCH   1   7
TORSDOF 1
ENDMDL
