MODEL 1
REMARK minimizedAffinity -2.91998243
REMARK minimizedRMSD -1
REMARK  1 active torsions:
REMARK  status: ('A' for Active; 'I' for Inactive)
REMARK    1  A    between atoms: C1_2  and  C2_3 
ROOT
ATOM      1  C2  UNL d   1      -0.596   1.034  -1.012  0.00  0.00    -0.073 A 
ATOM      2  C3  UNL d   1      -1.250   1.476   0.144  0.00  0.00    -0.002 A 
ATOM      3  C4  UNL d   1      -2.387   2.279   0.047  0.00  0.00     0.004 A 
ATOM      4  C5  UNL d   1      -2.885   2.642  -1.204  0.00  0.00    -0.004 A 
ATOM      5  C6  UNL d   1      -2.252   2.201  -2.371  0.00  0.00    -0.075 A 
ATOM      6  C7  UNL d   1      -2.775   2.585  -3.724  0.00  0.00     0.076 C 
ATOM      7  C8  UNL d   1      -1.110   1.397  -2.265  0.00  0.00     0.001 A 
ENDROOT
BRANCH   1   8
ATOM      8  C1  UNL d   1       0.628   0.161  -0.913  0.00  0.00     0.053 C 
ATOM      9  C   UNL d   1       1.083  -0.022   0.527  0.00  0.00     0.018 C 
ENDBRANCH   1   8
TORSDOF 1
ENDMDL
