MODEL 1
REMARK minimizedAffinity 10.4084568
REMARK minimizedRMSD -1
REMARK  1 active torsions:
REMARK  status: ('A' for Active; 'I' for Inactive)
REMARK    1  A    between atoms: C1_2  and  C2_3 
ROOT
ATOM      1  C2  UNL d   1       1.438  -3.530  -0.604  0.00  0.00    -0.073 A 
ATOM      2  C3  UNL d   1       2.140  -2.749  -1.529  0.00  0.00    -0.002 A 
ATOM      3  C4  UNL d   1       2.105  -1.357  -1.447  0.00  0.00     0.004 A 
ATOM      4  C5  UNL d   1       1.375  -0.731  -0.436  0.00  0.00    -0.004 A 
ATOM      5  C6  UNL d   1       0.677  -1.494   0.505  0.00  0.00    -0.075 A 
ATOM      6  C7  UNL d   1      -0.114  -0.837   1.598  0.00  0.00     0.076 C 
ATOM      7  C8  UNL d   1       0.715  -2.892   0.414  0.00  0.00     0.001 A 
ENDROOT
BRANCH   1   8
ATOM      8  C1  UNL d   1       1.477  -5.034  -0.685  0.00  0.00     0.053 C 
ATOM      9  C   UNL d   1       2.705  -5.610   0.003  0.00  0.00     0.018 C 
ENDBRANCH   1   8
TORSDOF 1
ENDMDL
