MODEL 1
REMARK minimizedAffinity 2.61040282
REMARK minimizedRMSD -1
REMARK  1 active torsions:
REMARK  status: ('A' for Active; 'I' for Inactive)
REMARK    1  A    between atoms: C1_2  and  C2_3 
ROOT
ATOM      1  C2  UNL d   1       1.304  -1.391  -1.580  0.00  0.00    -0.073 A 
ATOM      2  C3  UNL d   1       1.487  -0.011  -1.724  0.00  0.00    -0.002 A 
ATOM      3  C4  UNL d   1       0.406   0.814  -2.039  0.00  0.00     0.004 A 
ATOM      4  C5  UNL d   1      -0.867   0.271  -2.204  0.00  0.00    -0.004 A 
ATOM      5  C6  UNL d   1      -1.073  -1.104  -2.052  0.00  0.00    -0.075 A 
ATOM      6  C7  UNL d   1      -2.436  -1.705  -2.230  0.00  0.00     0.076 C 
ATOM      7  C8  UNL d   1       0.018  -1.927  -1.739  0.00  0.00     0.001 A 
ENDROOT
BRANCH   1   8
ATOM      8  C1  UNL d   1       2.466  -2.285  -1.234  0.00  0.00     0.053 C 
ATOM      9  C   UNL d   1       2.416  -3.603  -1.991  0.00  0.00     0.018 C 
ENDBRANCH   1   8
TORSDOF 1
ENDMDL
