MODEL 1
REMARK minimizedAffinity 9.1749754
REMARK minimizedRMSD -1
REMARK  0 active torsions:
REMARK  status: ('A' for Active; 'I' for Inactive)
ROOT
ATOM      1  C1  DEN d   1      -5.621  -0.014  -5.976  0.00  0.00     0.130 A 
ATOM      2  C2  DEN d   1      -5.815  -1.283  -5.280  0.00  0.00    -0.031 A 
ATOM      3  C3  DEN d   1      -5.995  -0.993  -3.843  0.00  0.00     0.027 A 
ATOM      4  C4  DEN d   1      -5.998   1.286  -2.636  0.00  0.00     0.027 A 
ATOM      5  C5  DEN d   1      -5.861   2.646  -2.805  0.00  0.00    -0.003 A 
ATOM      6  C6  DEN d   1      -5.602   3.207  -4.028  0.00  0.00     0.001 A 
ATOM      7  C7  DEN d   1      -5.517   2.408  -5.137  0.00  0.00     0.017 A 
ATOM      8  C8  DEN d   1      -5.647   1.035  -4.973  0.00  0.00    -0.094 A 
ATOM      9  C9  DEN d   1      -5.921   0.489  -3.731  0.00  0.00    -0.072 A 
ENDROOT
TORSDOF 0
ENDMDL
