MODEL 1
REMARK minimizedAffinity 10.0325994
REMARK minimizedRMSD -1
REMARK  0 active torsions:
REMARK  status: ('A' for Active; 'I' for Inactive)
ROOT
ATOM      1  C1  DEN d   1       1.726   1.066   2.895  0.00  0.00     0.130 A 
ATOM      2  C2  DEN d   1       2.533   1.370   1.716  0.00  0.00    -0.031 A 
ATOM      3  C3  DEN d   1       3.397   0.204   1.442  0.00  0.00     0.027 A 
ATOM      4  C4  DEN d   1       3.560  -2.031   2.719  0.00  0.00     0.027 A 
ATOM      5  C5  DEN d   1       3.081  -2.747   3.794  0.00  0.00    -0.003 A 
ATOM      6  C6  DEN d   1       2.149  -2.234   4.657  0.00  0.00     0.001 A 
ATOM      7  C7  DEN d   1       1.633  -0.985   4.434  0.00  0.00     0.017 A 
ATOM      8  C8  DEN d   1       2.117  -0.253   3.357  0.00  0.00    -0.094 A 
ATOM      9  C9  DEN d   1       3.050  -0.794   2.489  0.00  0.00    -0.072 A 
ENDROOT
TORSDOF 0
ENDMDL
