MODEL 1
REMARK minimizedAffinity 16.5994015
REMARK minimizedRMSD -1
REMARK  0 active torsions:
REMARK  status: ('A' for Active; 'I' for Inactive)
ROOT
ATOM      1  C1  DEN d   1       1.686  -2.092   2.163  0.00  0.00     0.130 A 
ATOM      2  C2  DEN d   1       1.525  -0.840   2.897  0.00  0.00    -0.031 A 
ATOM      3  C3  DEN d   1       2.177  -0.995   4.213  0.00  0.00     0.027 A 
ATOM      4  C4  DEN d   1       3.419  -3.039   5.178  0.00  0.00     0.027 A 
ATOM      5  C5  DEN d   1       3.805  -4.338   4.930  0.00  0.00    -0.003 A 
ATOM      6  C6  DEN d   1       3.485  -4.985   3.766  0.00  0.00     0.001 A 
ATOM      7  C7  DEN d   1       2.796  -4.320   2.786  0.00  0.00     0.017 A 
ATOM      8  C8  DEN d   1       2.398  -3.012   3.032  0.00  0.00    -0.094 A 
ATOM      9  C9  DEN d   1       2.741  -2.372   4.210  0.00  0.00    -0.072 A 
ENDROOT
TORSDOF 0
ENDMDL
