MODEL 1
REMARK minimizedAffinity 10.6630335
REMARK minimizedRMSD -1
REMARK  0 active torsions:
REMARK  status: ('A' for Active; 'I' for Inactive)
ROOT
ATOM      1  C1  DEN d   1       1.802  -0.368   2.918  0.00  0.00     0.130 A 
ATOM      2  C2  DEN d   1       3.214  -0.702   2.744  0.00  0.00    -0.031 A 
ATOM      3  C3  DEN d   1       3.393  -1.230   1.377  0.00  0.00     0.027 A 
ATOM      4  C4  DEN d   1       1.633  -1.558  -0.479  0.00  0.00     0.027 A 
ATOM      5  C5  DEN d   1       0.299  -1.429  -0.797  0.00  0.00    -0.003 A 
ATOM      6  C6  DEN d   1      -0.626  -0.973   0.105  0.00  0.00     0.001 A 
ATOM      7  C7  DEN d   1      -0.221  -0.586   1.355  0.00  0.00     0.017 A 
ATOM      8  C8  DEN d   1       1.121  -0.721   1.685  0.00  0.00    -0.094 A 
ATOM      9  C9  DEN d   1       2.043  -1.173   0.756  0.00  0.00    -0.072 A 
ENDROOT
TORSDOF 0
ENDMDL
