MODEL 1
REMARK minimizedAffinity 16.2582073
REMARK minimizedRMSD -1
REMARK  1 active torsions:
REMARK  status: ('A' for Active; 'I' for Inactive)
REMARK    1  A    between atoms: C1_2  and  C2_3 
ROOT
ATOM      1  C2  UNL d   1      -1.196   2.395  -2.982  0.00  0.00    -0.073 A 
ATOM      2  C3  UNL d   1      -2.558   2.702  -3.090  0.00  0.00    -0.002 A 
ATOM      3  C4  UNL d   1      -3.506   1.958  -2.387  0.00  0.00     0.004 A 
ATOM      4  C5  UNL d   1      -3.103   0.905  -1.566  0.00  0.00    -0.004 A 
ATOM      5  C6  UNL d   1      -1.747   0.590  -1.436  0.00  0.00    -0.075 A 
ATOM      6  C7  UNL d   1      -1.298  -0.541  -0.558  0.00  0.00     0.076 C 
ATOM      7  C8  UNL d   1      -0.801   1.341  -2.146  0.00  0.00     0.001 A 
ENDROOT
BRANCH   1   8
ATOM      8  C1  UNL d   1      -0.168   3.201  -3.733  0.00  0.00     0.053 C 
ATOM      9  C   UNL d   1       0.408   2.432  -4.912  0.00  0.00     0.018 C 
ENDBRANCH   1   8
TORSDOF 1
ENDMDL
