MODEL 1
REMARK minimizedAffinity 7.49446917
REMARK minimizedRMSD -1
REMARK  1 active torsions:
REMARK  status: ('A' for Active; 'I' for Inactive)
REMARK    1  A    between atoms: C1_2  and  C2_3 
ROOT
ATOM      1  C2  UNL d   1      -3.109   1.166  -2.268  0.00  0.00    -0.073 A 
ATOM      2  C3  UNL d   1      -2.402   2.326  -2.606  0.00  0.00    -0.002 A 
ATOM      3  C4  UNL d   1      -2.853   3.151  -3.638  0.00  0.00     0.004 A 
ATOM      4  C5  UNL d   1      -4.016   2.829  -4.337  0.00  0.00    -0.004 A 
ATOM      5  C6  UNL d   1      -4.743   1.681  -4.006  0.00  0.00    -0.075 A 
ATOM      6  C7  UNL d   1      -5.995   1.319  -4.750  0.00  0.00     0.076 C 
ATOM      7  C8  UNL d   1      -4.283   0.856  -2.971  0.00  0.00     0.001 A 
ENDROOT
BRANCH   1   8
ATOM      8  C1  UNL d   1      -2.631   0.276  -1.151  0.00  0.00     0.053 C 
ATOM      9  C   UNL d   1      -2.295  -1.124  -1.641  0.00  0.00     0.018 C 
ENDBRANCH   1   8
TORSDOF 1
ENDMDL
