MODEL 1
REMARK minimizedAffinity 3.31201339
REMARK minimizedRMSD -1
REMARK  1 active torsions:
REMARK  status: ('A' for Active; 'I' for Inactive)
REMARK    1  A    between atoms: C1_2  and  C2_3 
ROOT
ATOM      1  C2  UNL d   1       1.571   5.548   5.240  0.00  0.00    -0.073 A 
ATOM      2  C3  UNL d   1       1.520   5.058   3.930  0.00  0.00    -0.002 A 
ATOM      3  C4  UNL d   1       0.292   4.864   3.297  0.00  0.00     0.004 A 
ATOM      4  C5  UNL d   1      -0.896   5.165   3.963  0.00  0.00    -0.004 A 
ATOM      5  C6  UNL d   1      -0.865   5.668   5.268  0.00  0.00    -0.075 A 
ATOM      6  C7  UNL d   1      -2.134   5.994   5.999  0.00  0.00     0.076 C 
ATOM      7  C8  UNL d   1       0.372   5.857   5.898  0.00  0.00     0.001 A 
ENDROOT
BRANCH   1   8
ATOM      8  C1  UNL d   1       2.896   5.765   5.925  0.00  0.00     0.053 C 
ATOM      9  C   UNL d   1       4.069   5.486   4.999  0.00  0.00     0.018 C 
ENDBRANCH   1   8
TORSDOF 1
ENDMDL
