MODEL 1
REMARK minimizedAffinity 6.93836117
REMARK minimizedRMSD -1
REMARK  1 active torsions:
REMARK  status: ('A' for Active; 'I' for Inactive)
REMARK    1  A    between atoms: C1_2  and  C2_3 
ROOT
ATOM      1  C2  UNL d   1      -2.619   4.137   5.996  0.00  0.00    -0.073 A 
ATOM      2  C3  UNL d   1      -1.747   3.042   5.998  0.00  0.00    -0.002 A 
ATOM      3  C4  UNL d   1      -2.251   1.741   5.996  0.00  0.00     0.004 A 
ATOM      4  C5  UNL d   1      -3.628   1.521   5.985  0.00  0.00    -0.004 A 
ATOM      5  C6  UNL d   1      -4.515   2.603   5.971  0.00  0.00    -0.075 A 
ATOM      6  C7  UNL d   1      -6.000   2.383   5.962  0.00  0.00     0.076 C 
ATOM      7  C8  UNL d   1      -4.002   3.907   5.976  0.00  0.00     0.001 A 
ENDROOT
BRANCH   1   8
ATOM      8  C1  UNL d   1      -2.079   5.544   5.992  0.00  0.00     0.053 C 
ATOM      9  C   UNL d   1      -0.972   5.727   4.967  0.00  0.00     0.018 C 
ENDBRANCH   1   8
TORSDOF 1
ENDMDL
