MODEL 1
REMARK minimizedAffinity 13.5341473
REMARK minimizedRMSD -1
REMARK  1 active torsions:
REMARK  status: ('A' for Active; 'I' for Inactive)
REMARK    1  A    between atoms: C1_2  and  C2_3 
ROOT
ATOM      1  C2  UNL d   1      -2.597   0.600  -2.019  0.00  0.00    -0.073 A 
ATOM      2  C3  UNL d   1      -1.199   0.607  -2.087  0.00  0.00    -0.002 A 
ATOM      3  C4  UNL d   1      -0.531   1.627  -2.766  0.00  0.00     0.004 A 
ATOM      4  C5  UNL d   1      -1.252   2.653  -3.377  0.00  0.00    -0.004 A 
ATOM      5  C6  UNL d   1      -2.649   2.670  -3.310  0.00  0.00    -0.075 A 
ATOM      6  C7  UNL d   1      -3.439   3.766  -3.964  0.00  0.00     0.076 C 
ATOM      7  C8  UNL d   1      -3.312   1.641  -2.629  0.00  0.00     0.001 A 
ENDROOT
BRANCH   1   8
ATOM      8  C1  UNL d   1      -3.322  -0.495  -1.282  0.00  0.00     0.053 C 
ATOM      9  C   UNL d   1      -4.385  -1.156  -2.145  0.00  0.00     0.018 C 
ENDBRANCH   1   8
TORSDOF 1
ENDMDL
