MODEL 1
REMARK minimizedAffinity 13.5832548
REMARK minimizedRMSD -1
REMARK  1 active torsions:
REMARK  status: ('A' for Active; 'I' for Inactive)
REMARK    1  A    between atoms: C1_2  and  C2_3 
ROOT
ATOM      1  C2  UNL d   1       3.535   4.468  -5.614  0.00  0.00    -0.073 A 
ATOM      2  C3  UNL d   1       3.016   5.735  -5.903  0.00  0.00    -0.002 A 
ATOM      3  C4  UNL d   1       1.636   5.930  -5.981  0.00  0.00     0.004 A 
ATOM      4  C5  UNL d   1       0.763   4.864  -5.765  0.00  0.00    -0.004 A 
ATOM      5  C6  UNL d   1       1.263   3.593  -5.463  0.00  0.00    -0.075 A 
ATOM      6  C7  UNL d   1       0.337   2.435  -5.230  0.00  0.00     0.076 C 
ATOM      7  C8  UNL d   1       2.649   3.405  -5.389  0.00  0.00     0.001 A 
ENDROOT
BRANCH   1   8
ATOM      8  C1  UNL d   1       5.024   4.255  -5.522  0.00  0.00     0.053 C 
ATOM      9  C   UNL d   1       5.794   5.563  -5.609  0.00  0.00     0.018 C 
ENDBRANCH   1   8
TORSDOF 1
ENDMDL
