MODEL 1
REMARK minimizedAffinity 14.5267315
REMARK minimizedRMSD -1
REMARK  1 active torsions:
REMARK  status: ('A' for Active; 'I' for Inactive)
REMARK    1  A    between atoms: C1_2  and  C2_3 
ROOT
ATOM      1  C2  UNL d   1       1.813  -1.242   1.989  0.00  0.00    -0.073 A 
ATOM      2  C3  UNL d   1       1.149  -0.501   1.005  0.00  0.00    -0.002 A 
ATOM      3  C4  UNL d   1       0.831  -1.085  -0.222  0.00  0.00     0.004 A 
ATOM      4  C5  UNL d   1       1.167  -2.415  -0.475  0.00  0.00    -0.004 A 
ATOM      5  C6  UNL d   1       1.820  -3.175   0.500  0.00  0.00    -0.075 A 
ATOM      6  C7  UNL d   1       2.190  -4.607   0.243  0.00  0.00     0.076 C 
ATOM      7  C8  UNL d   1       2.139  -2.581   1.729  0.00  0.00     0.001 A 
ENDROOT
BRANCH   1   8
ATOM      8  C1  UNL d   1       2.153  -0.618   3.318  0.00  0.00     0.053 C 
ATOM      9  C   UNL d   1       1.432   0.704   3.528  0.00  0.00     0.018 C 
ENDBRANCH   1   8
TORSDOF 1
ENDMDL
