MODEL 1
REMARK minimizedAffinity -3.2560544
REMARK minimizedRMSD -1
REMARK  1 active torsions:
REMARK  status: ('A' for Active; 'I' for Inactive)
REMARK    1  A    between atoms: C1_2  and  C2_3 
ROOT
ATOM      1  C2  UNL d   1       0.119  -0.006  -0.088  0.00  0.00    -0.076 A 
ATOM      2  C3  UNL d   1       0.063  -1.390  -0.330  0.00  0.00     0.004 A 
ATOM      3  C4  UNL d   1       1.164  -2.207  -0.077  0.00  0.00    -0.003 A 
ATOM      4  C5  UNL d   1       2.338  -1.654   0.423  0.00  0.00     0.000 A 
ATOM      5  C6  UNL d   1       2.405  -0.286   0.685  0.00  0.00     0.000 A 
ATOM      6  C7  UNL d   1       1.299   0.550   0.451  0.00  0.00    -0.073 A 
ATOM      7  C8  UNL d   1       1.429   2.019   0.747  0.00  0.00     0.078 C 
ENDROOT
BRANCH   1   8
ATOM      8  C1  UNL d   1      -1.097   0.834  -0.406  0.00  0.00     0.053 C 
ATOM      9  C   UNL d   1      -2.136   0.800   0.703  0.00  0.00     0.018 C 
ENDBRANCH   1   8
TORSDOF 1
ENDMDL
