MODEL 1
REMARK minimizedAffinity -5.05661631
REMARK minimizedRMSD -1
REMARK  1 active torsions:
REMARK  status: ('A' for Active; 'I' for Inactive)
REMARK    1  A    between atoms: C1_2  and  C2_3 
ROOT
ATOM      1  C2  UNL d   1       0.343  -0.007  -0.160  0.00  0.00    -0.076 A 
ATOM      2  C3  UNL d   1       0.029  -1.361  -0.366  0.00  0.00     0.004 A 
ATOM      3  C4  UNL d   1       0.986  -2.357  -0.175  0.00  0.00    -0.003 A 
ATOM      4  C5  UNL d   1       2.273  -2.014   0.226  0.00  0.00     0.000 A 
ATOM      5  C6  UNL d   1       2.597  -0.676   0.452  0.00  0.00     0.000 A 
ATOM      6  C7  UNL d   1       1.639   0.338   0.280  0.00  0.00    -0.073 A 
ATOM      7  C8  UNL d   1       2.045   1.764   0.532  0.00  0.00     0.078 C 
ENDROOT
BRANCH   1   8
ATOM      8  C1  UNL d   1      -0.728   1.031  -0.409  0.00  0.00     0.053 C 
ATOM      9  C   UNL d   1      -2.061   0.654   0.217  0.00  0.00     0.018 C 
ENDBRANCH   1   8
TORSDOF 1
ENDMDL
