MODEL 1
REMARK minimizedAffinity -4.32864904
REMARK minimizedRMSD -1
REMARK  1 active torsions:
REMARK  status: ('A' for Active; 'I' for Inactive)
REMARK    1  A    between atoms: C1_2  and  C2_3 
ROOT
ATOM      1  C2  UNL d   1       0.018   0.166  -0.404  0.00  0.00    -0.076 A 
ATOM      2  C3  UNL d   1      -0.253  -1.154  -0.804  0.00  0.00     0.004 A 
ATOM      3  C4  UNL d   1       0.678  -2.171  -0.600  0.00  0.00    -0.003 A 
ATOM      4  C5  UNL d   1       1.895  -1.884   0.009  0.00  0.00     0.000 A 
ATOM      5  C6  UNL d   1       2.174  -0.583   0.428  0.00  0.00     0.000 A 
ATOM      6  C7  UNL d   1       1.239   0.450   0.244  0.00  0.00    -0.073 A 
ATOM      7  C8  UNL d   1       1.594   1.836   0.710  0.00  0.00     0.078 C 
ENDROOT
BRANCH   1   8
ATOM      8  C1  UNL d   1      -1.019   1.233  -0.676  0.00  0.00     0.053 C 
ATOM      9  C   UNL d   1      -2.345   0.944   0.010  0.00  0.00     0.018 C 
ENDBRANCH   1   8
TORSDOF 1
ENDMDL
