MODEL 1
REMARK minimizedAffinity -3.69629741
REMARK minimizedRMSD -1
REMARK  1 active torsions:
REMARK  status: ('A' for Active; 'I' for Inactive)
REMARK    1  A    between atoms: C1_2  and  C2_3 
ROOT
ATOM      1  C2  UNL d   1       1.331   0.485   0.410  0.00  0.00    -0.076 A 
ATOM      2  C3  UNL d   1       0.027   0.568  -0.107  0.00  0.00     0.004 A 
ATOM      3  C4  UNL d   1      -0.619  -0.560  -0.611  0.00  0.00    -0.003 A 
ATOM      4  C5  UNL d   1       0.030  -1.790  -0.606  0.00  0.00     0.000 A 
ATOM      5  C6  UNL d   1       1.318  -1.894  -0.082  0.00  0.00     0.000 A 
ATOM      6  C7  UNL d   1       1.977  -0.770   0.446  0.00  0.00    -0.073 A 
ATOM      7  C8  UNL d   1       3.367  -0.939   0.993  0.00  0.00     0.078 C 
ENDROOT
BRANCH   1   8
ATOM      8  C1  UNL d   1       1.991   1.747   0.918  0.00  0.00     0.053 C 
ATOM      9  C   UNL d   1       1.398   3.004   0.301  0.00  0.00     0.018 C 
ENDBRANCH   1   8
TORSDOF 1
ENDMDL
