MODEL 1
REMARK minimizedAffinity -5.17102861
REMARK minimizedRMSD -1
REMARK  1 active torsions:
REMARK  status: ('A' for Active; 'I' for Inactive)
REMARK    1  A    between atoms: C1_2  and  C2_3 
ROOT
ATOM      1  C2  UNL d   1       0.550  -0.055  -0.143  0.00  0.00    -0.076 A 
ATOM      2  C3  UNL d   1       0.444  -1.456  -0.176  0.00  0.00     0.004 A 
ATOM      3  C4  UNL d   1       1.468  -2.265   0.313  0.00  0.00    -0.003 A 
ATOM      4  C5  UNL d   1       2.615  -1.686   0.844  0.00  0.00     0.000 A 
ATOM      5  C6  UNL d   1       2.731  -0.297   0.900  0.00  0.00     0.000 A 
ATOM      6  C7  UNL d   1       1.700   0.533   0.426  0.00  0.00    -0.073 A 
ATOM      7  C8  UNL d   1       1.880   2.024   0.506  0.00  0.00     0.078 C 
ENDROOT
BRANCH   1   8
ATOM      8  C1  UNL d   1      -0.581   0.771  -0.713  0.00  0.00     0.053 C 
ATOM      9  C   UNL d   1      -1.649   1.089   0.322  0.00  0.00     0.018 C 
ENDBRANCH   1   8
TORSDOF 1
ENDMDL
