MODEL 1
REMARK minimizedAffinity -5.34663439
REMARK minimizedRMSD -1
REMARK  1 active torsions:
REMARK  status: ('A' for Active; 'I' for Inactive)
REMARK    1  A    between atoms: C1_2  and  C2_3 
ROOT
ATOM      1  C2  UNL d   1       0.373  -0.167  -0.156  0.00  0.00    -0.076 A 
ATOM      2  C3  UNL d   1       0.576  -1.528   0.130  0.00  0.00     0.004 A 
ATOM      3  C4  UNL d   1       1.813  -1.991   0.574  0.00  0.00    -0.003 A 
ATOM      4  C5  UNL d   1       2.868  -1.100   0.740  0.00  0.00     0.000 A 
ATOM      5  C6  UNL d   1       2.679   0.257   0.477  0.00  0.00     0.000 A 
ATOM      6  C7  UNL d   1       1.434   0.742   0.045  0.00  0.00    -0.073 A 
ATOM      7  C8  UNL d   1       1.288   2.214  -0.229  0.00  0.00     0.078 C 
ENDROOT
BRANCH   1   8
ATOM      8  C1  UNL d   1      -0.983   0.273  -0.661  0.00  0.00     0.053 C 
ATOM      9  C   UNL d   1      -1.970   0.529   0.468  0.00  0.00     0.018 C 
ENDBRANCH   1   8
TORSDOF 1
ENDMDL
