MODEL 1
REMARK minimizedAffinity -3.20990062
REMARK minimizedRMSD -1
REMARK  1 active torsions:
REMARK  status: ('A' for Active; 'I' for Inactive)
REMARK    1  A    between atoms: C1_2  and  C2_3 
ROOT
ATOM      1  C2  UNL d   1      -1.179   0.286   0.850  0.00  0.00    -0.076 A 
ATOM      2  C3  UNL d   1      -1.233  -1.024   1.358  0.00  0.00     0.004 A 
ATOM      3  C4  UNL d   1      -0.274  -1.971   1.002  0.00  0.00    -0.003 A 
ATOM      4  C5  UNL d   1       0.755  -1.624   0.134  0.00  0.00     0.000 A 
ATOM      5  C6  UNL d   1       0.834  -0.324  -0.365  0.00  0.00     0.000 A 
ATOM      6  C7  UNL d   1      -0.115   0.647  -0.004  0.00  0.00    -0.073 A 
ATOM      7  C8  UNL d   1       0.015   2.032  -0.577  0.00  0.00     0.078 C 
ENDROOT
BRANCH   1   8
ATOM      8  C1  UNL d   1      -2.262   1.262   1.250  0.00  0.00     0.053 C 
ATOM      9  C   UNL d   1      -3.643   0.626   1.267  0.00  0.00     0.018 C 
ENDBRANCH   1   8
TORSDOF 1
ENDMDL
