MODEL 1
REMARK minimizedAffinity -4.21511173
REMARK minimizedRMSD -1
REMARK  1 active torsions:
REMARK  status: ('A' for Active; 'I' for Inactive)
REMARK    1  A    between atoms: C1_2  and  C2_3 
ROOT
ATOM      1  C2  UNL d   1      -0.619   0.698  -0.214  0.00  0.00    -0.076 A 
ATOM      2  C3  UNL d   1       0.483   1.024   0.594  0.00  0.00     0.004 A 
ATOM      3  C4  UNL d   1       0.315   1.349   1.939  0.00  0.00    -0.003 A 
ATOM      4  C5  UNL d   1      -0.958   1.352   2.498  0.00  0.00     0.000 A 
ATOM      5  C6  UNL d   1      -2.061   1.014   1.715  0.00  0.00     0.000 A 
ATOM      6  C7  UNL d   1      -1.907   0.668   0.361  0.00  0.00    -0.073 A 
ATOM      7  C8  UNL d   1      -3.133   0.318  -0.438  0.00  0.00     0.078 C 
ENDROOT
BRANCH   1   8
ATOM      8  C1  UNL d   1      -0.379   0.381  -1.673  0.00  0.00     0.053 C 
ATOM      9  C   UNL d   1       1.003  -0.204  -1.922  0.00  0.00     0.018 C 
ENDBRANCH   1   8
TORSDOF 1
ENDMDL
