MODEL 1
REMARK minimizedAffinity -3.88349652
REMARK minimizedRMSD -1
REMARK  1 active torsions:
REMARK  status: ('A' for Active; 'I' for Inactive)
REMARK    1  A    between atoms: C1_2  and  C2_3 
ROOT
ATOM      1  C2  UNL d   1       0.450   0.796   1.319  0.00  0.00    -0.076 A 
ATOM      2  C3  UNL d   1       1.682   0.241   1.704  0.00  0.00     0.004 A 
ATOM      3  C4  UNL d   1       2.226  -0.844   1.018  0.00  0.00    -0.003 A 
ATOM      4  C5  UNL d   1       1.546  -1.391  -0.065  0.00  0.00     0.000 A 
ATOM      5  C6  UNL d   1       0.331  -0.842  -0.472  0.00  0.00     0.000 A 
ATOM      6  C7  UNL d   1      -0.223   0.262   0.199  0.00  0.00    -0.073 A 
ATOM      7  C8  UNL d   1      -1.540   0.810  -0.279  0.00  0.00     0.078 C 
ENDROOT
BRANCH   1   8
ATOM      8  C1  UNL d   1      -0.104   1.954   2.117  0.00  0.00     0.053 C 
ATOM      9  C   UNL d   1      -0.953   1.499   3.293  0.00  0.00     0.018 C 
ENDBRANCH   1   8
TORSDOF 1
ENDMDL
