MODEL 1
REMARK minimizedAffinity -3.6273241
REMARK minimizedRMSD -1
REMARK  1 active torsions:
REMARK  status: ('A' for Active; 'I' for Inactive)
REMARK    1  A    between atoms: C1_2  and  C2_3 
ROOT
ATOM      1  C2  UNL d   1      -0.527  -0.052   1.168  0.00  0.00    -0.076 A 
ATOM      2  C3  UNL d   1       0.855  -0.174   1.393  0.00  0.00     0.004 A 
ATOM      3  C4  UNL d   1       1.665  -0.888   0.512  0.00  0.00    -0.003 A 
ATOM      4  C5  UNL d   1       1.106  -1.490  -0.610  0.00  0.00     0.000 A 
ATOM      5  C6  UNL d   1      -0.260  -1.364  -0.859  0.00  0.00     0.000 A 
ATOM      6  C7  UNL d   1      -1.088  -0.634   0.011  0.00  0.00    -0.073 A 
ATOM      7  C8  UNL d   1      -2.556  -0.535  -0.302  0.00  0.00     0.078 C 
ENDROOT
BRANCH   1   8
ATOM      8  C1  UNL d   1      -1.360   0.711   2.173  0.00  0.00     0.053 C 
ATOM      9  C   UNL d   1      -0.665   1.970   2.670  0.00  0.00     0.018 C 
ENDBRANCH   1   8
TORSDOF 1
ENDMDL
