MODEL 1
REMARK minimizedAffinity -3.20462346
REMARK minimizedRMSD -1
REMARK  1 active torsions:
REMARK  status: ('A' for Active; 'I' for Inactive)
REMARK    1  A    between atoms: C1_2  and  C2_3 
ROOT
ATOM      1  C2  UNL d   1       0.482   0.213   1.107  0.00  0.00    -0.076 A 
ATOM      2  C3  UNL d   1       0.518  -0.352  -0.179  0.00  0.00     0.004 A 
ATOM      3  C4  UNL d   1      -0.617  -0.368  -0.988  0.00  0.00    -0.003 A 
ATOM      4  C5  UNL d   1      -1.807   0.181  -0.524  0.00  0.00     0.000 A 
ATOM      5  C6  UNL d   1      -1.856   0.762   0.743  0.00  0.00     0.000 A 
ATOM      6  C7  UNL d   1      -0.717   0.801   1.565  0.00  0.00    -0.073 A 
ATOM      7  C8  UNL d   1      -0.829   1.434   2.925  0.00  0.00     0.078 C 
ENDROOT
BRANCH   1   8
ATOM      8  C1  UNL d   1       1.737   0.177   1.950  0.00  0.00     0.053 C 
ATOM      9  C   UNL d   1       2.553  -1.087   1.725  0.00  0.00     0.018 C 
ENDBRANCH   1   8
TORSDOF 1
ENDMDL
