MODEL 1
REMARK minimizedAffinity -2.3497591
REMARK minimizedRMSD -1
REMARK  1 active torsions:
REMARK  status: ('A' for Active; 'I' for Inactive)
REMARK    1  A    between atoms: C1_2  and  C2_3 
ROOT
ATOM      1  C2  UNL d   1       0.045  -0.288   0.089  0.00  0.00    -0.076 A 
ATOM      2  C3  UNL d   1       0.866   0.276   1.081  0.00  0.00     0.004 A 
ATOM      3  C4  UNL d   1       0.314   0.934   2.179  0.00  0.00    -0.003 A 
ATOM      4  C5  UNL d   1      -1.067   1.037   2.304  0.00  0.00     0.000 A 
ATOM      5  C6  UNL d   1      -1.896   0.468   1.338  0.00  0.00     0.000 A 
ATOM      6  C7  UNL d   1      -1.357  -0.213   0.233  0.00  0.00    -0.073 A 
ATOM      7  C8  UNL d   1      -2.298  -0.804  -0.781  0.00  0.00     0.078 C 
ENDROOT
BRANCH   1   8
ATOM      8  C1  UNL d   1       0.700  -0.966  -1.093  0.00  0.00     0.053 C 
ATOM      9  C   UNL d   1       1.031   0.008  -2.213  0.00  0.00     0.018 C 
ENDBRANCH   1   8
TORSDOF 1
ENDMDL
