MODEL 1
REMARK minimizedAffinity -4.61120129
REMARK minimizedRMSD -1
REMARK  1 active torsions:
REMARK  status: ('A' for Active; 'I' for Inactive)
REMARK    1  A    between atoms: C1_2  and  C2_3 
ROOT
ATOM      1  C2  UNL d   1       0.108  -0.088   0.055  0.00  0.00    -0.076 A 
ATOM      2  C3  UNL d   1      -1.211   0.120  -0.385  0.00  0.00     0.004 A 
ATOM      3  C4  UNL d   1      -2.163   0.701   0.451  0.00  0.00    -0.003 A 
ATOM      4  C5  UNL d   1      -1.812   1.084   1.740  0.00  0.00     0.000 A 
ATOM      5  C6  UNL d   1      -0.504   0.901   2.187  0.00  0.00     0.000 A 
ATOM      6  C7  UNL d   1       0.472   0.332   1.352  0.00  0.00    -0.073 A 
ATOM      7  C8  UNL d   1       1.866   0.153   1.888  0.00  0.00     0.078 C 
ENDROOT
BRANCH   1   8
ATOM      8  C1  UNL d   1       1.090  -0.747  -0.887  0.00  0.00     0.053 C 
ATOM      9  C   UNL d   1       1.043  -0.154  -2.287  0.00  0.00     0.018 C 
ENDBRANCH   1   8
TORSDOF 1
ENDMDL
