MODEL 1
REMARK minimizedAffinity -2.3527391
REMARK minimizedRMSD -1
REMARK  1 active torsions:
REMARK  status: ('A' for Active; 'I' for Inactive)
REMARK    1  A    between atoms: C1_2  and  C2_3 
ROOT
ATOM      1  C2  UNL d   1      -2.432   0.455   1.841  0.00  0.00    -0.076 A 
ATOM      2  C3  UNL d   1      -3.286  -0.656   1.955  0.00  0.00     0.004 A 
ATOM      3  C4  UNL d   1      -3.400  -1.352   3.157  0.00  0.00    -0.003 A 
ATOM      4  C5  UNL d   1      -2.662  -0.949   4.264  0.00  0.00     0.000 A 
ATOM      5  C6  UNL d   1      -1.823   0.161   4.174  0.00  0.00     0.000 A 
ATOM      6  C7  UNL d   1      -1.709   0.884   2.974  0.00  0.00    -0.073 A 
ATOM      7  C8  UNL d   1      -0.785   2.070   2.931  0.00  0.00     0.078 C 
ENDROOT
BRANCH   1   8
ATOM      8  C1  UNL d   1      -2.329   1.155   0.504  0.00  0.00     0.053 C 
ATOM      9  C   UNL d   1      -1.231   0.574  -0.374  0.00  0.00     0.018 C 
ENDBRANCH   1   8
TORSDOF 1
ENDMDL
