MODEL 1
REMARK minimizedAffinity -1.6157459
REMARK minimizedRMSD -1
REMARK  1 active torsions:
REMARK  status: ('A' for Active; 'I' for Inactive)
REMARK    1  A    between atoms: C1_2  and  C2_3 
ROOT
ATOM      1  C2  UNL d   1       0.265   0.470  -0.821  0.00  0.00    -0.076 A 
ATOM      2  C3  UNL d   1       0.948   1.550  -1.408  0.00  0.00     0.004 A 
ATOM      3  C4  UNL d   1       2.233   1.390  -1.925  0.00  0.00    -0.003 A 
ATOM      4  C5  UNL d   1       2.855   0.149  -1.863  0.00  0.00     0.000 A 
ATOM      5  C6  UNL d   1       2.186  -0.937  -1.300  0.00  0.00     0.000 A 
ATOM      6  C7  UNL d   1       0.884  -0.798  -0.789  0.00  0.00    -0.073 A 
ATOM      7  C8  UNL d   1       0.212  -2.001  -0.187  0.00  0.00     0.078 C 
ENDROOT
BRANCH   1   8
ATOM      8  C1  UNL d   1      -1.115   0.709  -0.253  0.00  0.00     0.053 C 
ATOM      9  C   UNL d   1      -1.138   1.836   0.768  0.00  0.00     0.018 C 
ENDBRANCH   1   8
TORSDOF 1
ENDMDL
