MODEL 1
REMARK minimizedAffinity -2.55279279
REMARK minimizedRMSD -1
REMARK  1 active torsions:
REMARK  status: ('A' for Active; 'I' for Inactive)
REMARK    1  A    between atoms: C1_2  and  C2_3 
ROOT
ATOM      1  C2  UNL d   1       0.640   0.396  -2.258  0.00  0.00    -0.076 A 
ATOM      2  C3  UNL d   1       1.119  -0.899  -2.523  0.00  0.00     0.004 A 
ATOM      3  C4  UNL d   1       1.142  -1.873  -1.527  0.00  0.00    -0.003 A 
ATOM      4  C5  UNL d   1       0.685  -1.569  -0.250  0.00  0.00     0.000 A 
ATOM      5  C6  UNL d   1       0.190  -0.295   0.027  0.00  0.00     0.000 A 
ATOM      6  C7  UNL d   1       0.145   0.694  -0.970  0.00  0.00    -0.073 A 
ATOM      7  C8  UNL d   1      -0.393   2.053  -0.615  0.00  0.00     0.078 C 
ENDROOT
BRANCH   1   8
ATOM      8  C1  UNL d   1       0.666   1.420  -3.371  0.00  0.00     0.053 C 
ATOM      9  C   UNL d   1       1.003   0.805  -4.720  0.00  0.00     0.018 C 
ENDBRANCH   1   8
TORSDOF 1
ENDMDL
