MODEL 1
REMARK minimizedAffinity -1.3762852
REMARK minimizedRMSD -1
REMARK  1 active torsions:
REMARK  status: ('A' for Active; 'I' for Inactive)
REMARK    1  A    between atoms: C1_2  and  C2_3 
ROOT
ATOM      1  C2  UNL d   1      -0.829  -0.122  -0.007  0.00  0.00    -0.076 A 
ATOM      2  C3  UNL d   1      -0.332  -1.420   0.205  0.00  0.00     0.004 A 
ATOM      3  C4  UNL d   1       0.815  -1.864  -0.450  0.00  0.00    -0.003 A 
ATOM      4  C5  UNL d   1       1.485  -1.018  -1.327  0.00  0.00     0.000 A 
ATOM      5  C6  UNL d   1       1.016   0.278  -1.536  0.00  0.00     0.000 A 
ATOM      6  C7  UNL d   1      -0.130   0.748  -0.871  0.00  0.00    -0.073 A 
ATOM      7  C8  UNL d   1      -0.595   2.153  -1.139  0.00  0.00     0.078 C 
ENDROOT
BRANCH   1   8
ATOM      8  C1  UNL d   1      -2.093   0.296   0.710  0.00  0.00     0.053 C 
ATOM      9  C   UNL d   1      -1.927   0.311   2.222  0.00  0.00     0.018 C 
ENDBRANCH   1   8
TORSDOF 1
ENDMDL
