MODEL 1
REMARK minimizedAffinity -1.81191444
REMARK minimizedRMSD -1
REMARK  1 active torsions:
REMARK  status: ('A' for Active; 'I' for Inactive)
REMARK    1  A    between atoms: C1_2  and  C2_3 
ROOT
ATOM      1  C2  UNL d   1       0.668  -0.097  -0.630  0.00  0.00    -0.076 A 
ATOM      2  C3  UNL d   1      -0.239  -0.862   0.124  0.00  0.00     0.004 A 
ATOM      3  C4  UNL d   1      -1.458  -0.327   0.537  0.00  0.00    -0.003 A 
ATOM      4  C5  UNL d   1      -1.790   0.981   0.201  0.00  0.00     0.000 A 
ATOM      5  C6  UNL d   1      -0.910   1.748  -0.562  0.00  0.00     0.000 A 
ATOM      6  C7  UNL d   1       0.316   1.218  -1.000  0.00  0.00    -0.073 A 
ATOM      7  C8  UNL d   1       1.230   2.092  -1.815  0.00  0.00     0.078 C 
ENDROOT
BRANCH   1   8
ATOM      8  C1  UNL d   1       1.987  -0.722  -1.027  0.00  0.00     0.053 C 
ATOM      9  C   UNL d   1       1.850  -2.192  -1.390  0.00  0.00     0.018 C 
ENDBRANCH   1   8
TORSDOF 1
ENDMDL
