MODEL 1
REMARK minimizedAffinity 1.82784748
REMARK minimizedRMSD -1
REMARK  1 active torsions:
REMARK  status: ('A' for Active; 'I' for Inactive)
REMARK    1  A    between atoms: C1_2  and  C2_3 
ROOT
ATOM      1  C2  UNL d   1       1.593  -0.485  -1.658  0.00  0.00    -0.076 A 
ATOM      2  C3  UNL d   1       0.703  -0.751  -2.713  0.00  0.00     0.004 A 
ATOM      3  C4  UNL d   1       0.417  -2.060  -3.098  0.00  0.00    -0.003 A 
ATOM      4  C5  UNL d   1       1.016  -3.124  -2.433  0.00  0.00     0.000 A 
ATOM      5  C6  UNL d   1       1.888  -2.879  -1.373  0.00  0.00     0.000 A 
ATOM      6  C7  UNL d   1       2.174  -1.566  -0.962  0.00  0.00    -0.073 A 
ATOM      7  C8  UNL d   1       3.126  -1.360   0.184  0.00  0.00     0.078 C 
ENDROOT
BRANCH   1   8
ATOM      8  C1  UNL d   1       1.886   0.956  -1.303  0.00  0.00     0.053 C 
ATOM      9  C   UNL d   1       1.859   1.872  -2.517  0.00  0.00     0.018 C 
ENDBRANCH   1   8
TORSDOF 1
ENDMDL
