MODEL 1
REMARK minimizedAffinity 1.35562909
REMARK minimizedRMSD -1
REMARK  1 active torsions:
REMARK  status: ('A' for Active; 'I' for Inactive)
REMARK    1  A    between atoms: C3_4  and  O_7 
ROOT
ATOM      1  C   UNL d   1      -2.750   0.023   5.115  0.00  0.00    -0.033 A 
ATOM      2  C1  UNL d   1      -3.046   0.136   3.755  0.00  0.00     0.039 A 
ATOM      3  C2  UNL d   1      -3.697   1.272   3.273  0.00  0.00    -0.080 A 
ATOM      4  C3  UNL d   1      -4.047   2.287   4.159  0.00  0.00     0.150 A 
ATOM      5  C4  UNL d   1      -3.752   2.183   5.514  0.00  0.00    -0.007 A 
ATOM      6  C5  UNL d   1      -3.102   1.047   5.994  0.00  0.00     0.039 A 
ENDROOT
BRANCH   4   7
ATOM      7  O   UNL d   1      -4.688   3.413   3.735  0.00  0.00    -0.526 OA
ATOM      8  H5  UNL d   1      -4.852   3.334   2.781  0.00  0.00     0.418 HD
ENDBRANCH   4   7
TORSDOF 1
ENDMDL
