MODEL 1
REMARK minimizedAffinity 6.13646603
REMARK minimizedRMSD -1
REMARK  1 active torsions:
REMARK  status: ('A' for Active; 'I' for Inactive)
REMARK    1  A    between atoms: C3_4  and  O_7 
ROOT
ATOM      1  C   UNL d   1      -3.927  -5.388   1.871  0.00  0.00    -0.033 A 
ATOM      2  C1  UNL d   1      -3.225  -5.790   0.732  0.00  0.00     0.039 A 
ATOM      3  C2  UNL d   1      -3.903  -5.999  -0.470  0.00  0.00    -0.080 A 
ATOM      4  C3  UNL d   1      -5.280  -5.802  -0.521  0.00  0.00     0.150 A 
ATOM      5  C4  UNL d   1      -5.985  -5.398   0.608  0.00  0.00    -0.007 A 
ATOM      6  C5  UNL d   1      -5.306  -5.191   1.808  0.00  0.00     0.039 A 
ENDROOT
BRANCH   4   7
ATOM      7  O   UNL d   1      -5.986  -5.998  -1.671  0.00  0.00    -0.526 OA
ATOM      8  H5  UNL d   1      -5.372  -6.303  -2.360  0.00  0.00     0.418 HD
ENDBRANCH   4   7
TORSDOF 1
ENDMDL
