MODEL 1
REMARK minimizedAffinity 15.9791584
REMARK minimizedRMSD -1
REMARK  1 active torsions:
REMARK  status: ('A' for Active; 'I' for Inactive)
REMARK    1  A    between atoms: C3_4  and  O_7 
ROOT
ATOM      1  C   UNL d   1      -5.920  -4.636  -5.978  0.00  0.00    -0.033 A 
ATOM      2  C1  UNL d   1      -5.998  -3.242  -5.985  0.00  0.00     0.039 A 
ATOM      3  C2  UNL d   1      -5.025  -2.483  -5.331  0.00  0.00    -0.080 A 
ATOM      4  C3  UNL d   1      -3.980  -3.130  -4.677  0.00  0.00     0.150 A 
ATOM      5  C4  UNL d   1      -3.894  -4.518  -4.669  0.00  0.00    -0.007 A 
ATOM      6  C5  UNL d   1      -4.868  -5.274  -5.321  0.00  0.00     0.039 A 
ENDROOT
BRANCH   4   7
ATOM      7  O   UNL d   1      -3.010  -2.432  -4.021  0.00  0.00    -0.526 OA
ATOM      8  H5  UNL d   1      -3.214  -1.484  -4.087  0.00  0.00     0.418 HD
ENDBRANCH   4   7
TORSDOF 1
ENDMDL
