MODEL 1
REMARK minimizedAffinity 3.2056663
REMARK minimizedRMSD -1
REMARK  1 active torsions:
REMARK  status: ('A' for Active; 'I' for Inactive)
REMARK    1  A    between atoms: C3_4  and  O_7 
ROOT
ATOM      1  C   UNL d   1      -5.930  -4.535  -6.000  0.00  0.00    -0.033 A 
ATOM      2  C1  UNL d   1      -4.726  -5.182  -5.718  0.00  0.00     0.039 A 
ATOM      3  C2  UNL d   1      -3.587  -4.437  -5.403  0.00  0.00    -0.080 A 
ATOM      4  C3  UNL d   1      -3.667  -3.048  -5.373  0.00  0.00     0.150 A 
ATOM      5  C4  UNL d   1      -4.864  -2.396  -5.649  0.00  0.00    -0.007 A 
ATOM      6  C5  UNL d   1      -6.000  -3.142  -5.964  0.00  0.00     0.039 A 
ENDROOT
BRANCH   4   7
ATOM      7  O   UNL d   1      -2.581  -2.278  -5.076  0.00  0.00    -0.526 OA
ATOM      8  H5  UNL d   1      -1.818  -2.864  -4.936  0.00  0.00     0.418 HD
ENDBRANCH   4   7
TORSDOF 1
ENDMDL
