MODEL 1
REMARK minimizedAffinity 3.63281155
REMARK minimizedRMSD -1
REMARK  1 active torsions:
REMARK  status: ('A' for Active; 'I' for Inactive)
REMARK    1  A    between atoms: C3_4  and  O_7 
ROOT
ATOM      1  C   UNL d   1       3.605   1.035  -1.670  0.00  0.00    -0.033 A 
ATOM      2  C1  UNL d   1       2.867  -0.144  -1.797  0.00  0.00     0.039 A 
ATOM      3  C2  UNL d   1       3.286  -1.306  -1.147  0.00  0.00    -0.080 A 
ATOM      4  C3  UNL d   1       4.443  -1.276  -0.372  0.00  0.00     0.150 A 
ATOM      5  C4  UNL d   1       5.181  -0.104  -0.238  0.00  0.00    -0.007 A 
ATOM      6  C5  UNL d   1       4.761   1.055  -0.889  0.00  0.00     0.039 A 
ENDROOT
BRANCH   4   7
ATOM      7  O   UNL d   1       4.895  -2.386   0.277  0.00  0.00    -0.526 OA
ATOM      8  H5  UNL d   1       4.301  -3.127   0.070  0.00  0.00     0.418 HD
ENDBRANCH   4   7
TORSDOF 1
ENDMDL
