MODEL 1
REMARK minimizedAffinity 12.864274
REMARK minimizedRMSD -1
REMARK  1 active torsions:
REMARK  status: ('A' for Active; 'I' for Inactive)
REMARK    1  A    between atoms: C3_4  and  O_7 
ROOT
ATOM      1  C   UNL d   1       1.291   1.206   5.997  0.00  0.00    -0.033 A 
ATOM      2  C1  UNL d   1      -0.021   1.683   5.999  0.00  0.00     0.039 A 
ATOM      3  C2  UNL d   1      -0.757   1.713   4.813  0.00  0.00    -0.080 A 
ATOM      4  C3  UNL d   1      -0.170   1.264   3.633  0.00  0.00     0.150 A 
ATOM      5  C4  UNL d   1       1.136   0.784   3.624  0.00  0.00    -0.007 A 
ATOM      6  C5  UNL d   1       1.869   0.755   4.809  0.00  0.00     0.039 A 
ENDROOT
BRANCH   4   7
ATOM      7  O   UNL d   1      -0.846   1.279   2.450  0.00  0.00    -0.526 OA
ATOM      8  H5  UNL d   1      -1.726   1.663   2.603  0.00  0.00     0.418 HD
ENDBRANCH   4   7
TORSDOF 1
ENDMDL
