MODEL 1
REMARK minimizedAffinity 13.0336542
REMARK minimizedRMSD -1
REMARK  1 active torsions:
REMARK  status: ('A' for Active; 'I' for Inactive)
REMARK    1  A    between atoms: C3_4  and  O_7 
ROOT
ATOM      1  C   UNL d   1       2.465   0.269  -1.801  0.00  0.00    -0.033 A 
ATOM      2  C1  UNL d   1       2.912   1.559  -2.093  0.00  0.00     0.039 A 
ATOM      3  C2  UNL d   1       3.668   2.267  -1.157  0.00  0.00    -0.080 A 
ATOM      4  C3  UNL d   1       3.971   1.674   0.066  0.00  0.00     0.150 A 
ATOM      5  C4  UNL d   1       3.532   0.388   0.362  0.00  0.00    -0.007 A 
ATOM      6  C5  UNL d   1       2.776  -0.317  -0.573  0.00  0.00     0.039 A 
ENDROOT
BRANCH   4   7
ATOM      7  O   UNL d   1       4.702   2.327   1.013  0.00  0.00    -0.526 OA
ATOM      8  H5  UNL d   1       4.912   3.216   0.681  0.00  0.00     0.418 HD
ENDBRANCH   4   7
TORSDOF 1
ENDMDL
