MODEL 1
REMARK minimizedAffinity 11.1141453
REMARK minimizedRMSD -1
REMARK  1 active torsions:
REMARK  status: ('A' for Active; 'I' for Inactive)
REMARK    1  A    between atoms: C3_4  and  O_7 
ROOT
ATOM      1  C   UNL d   1      -4.850   2.733   5.935  0.00  0.00    -0.033 A 
ATOM      2  C1  UNL d   1      -5.536   3.020   4.753  0.00  0.00     0.039 A 
ATOM      3  C2  UNL d   1      -5.108   2.469   3.544  0.00  0.00    -0.080 A 
ATOM      4  C3  UNL d   1      -3.995   1.634   3.530  0.00  0.00     0.150 A 
ATOM      5  C4  UNL d   1      -3.309   1.340   4.703  0.00  0.00    -0.007 A 
ATOM      6  C5  UNL d   1      -3.737   1.892   5.910  0.00  0.00     0.039 A 
ENDROOT
BRANCH   4   7
ATOM      7  O   UNL d   1      -3.537   1.077   2.373  0.00  0.00    -0.526 OA
ATOM      8  H5  UNL d   1      -4.092   1.391   1.639  0.00  0.00     0.418 HD
ENDBRANCH   4   7
TORSDOF 1
ENDMDL
