MODEL 1
REMARK minimizedAffinity 12.6446056
REMARK minimizedRMSD -1
REMARK  1 active torsions:
REMARK  status: ('A' for Active; 'I' for Inactive)
REMARK    1  A    between atoms: C3_4  and  O_7 
ROOT
ATOM      1  C   UNL d   1       0.836   2.151   1.582  0.00  0.00    -0.033 A 
ATOM      2  C1  UNL d   1       2.060   2.373   2.215  0.00  0.00     0.039 A 
ATOM      3  C2  UNL d   1       2.194   2.132   3.584  0.00  0.00    -0.080 A 
ATOM      4  C3  UNL d   1       1.098   1.668   4.306  0.00  0.00     0.150 A 
ATOM      5  C4  UNL d   1      -0.123   1.441   3.681  0.00  0.00    -0.007 A 
ATOM      6  C5  UNL d   1      -0.256   1.683   2.314  0.00  0.00     0.039 A 
ENDROOT
BRANCH   4   7
ATOM      7  O   UNL d   1       1.180   1.423   5.645  0.00  0.00    -0.526 OA
ATOM      8  H5  UNL d   1       2.075   1.652   5.946  0.00  0.00     0.418 HD
ENDBRANCH   4   7
TORSDOF 1
ENDMDL
