MODEL 1
REMARK minimizedAffinity 2.75845122
REMARK minimizedRMSD -1
REMARK  1 active torsions:
REMARK  status: ('A' for Active; 'I' for Inactive)
REMARK    1  A    between atoms: C3_4  and  O_7 
ROOT
ATOM      1  C   UNL d   1       1.432  -1.590  -2.166  0.00  0.00    -0.033 A 
ATOM      2  C1  UNL d   1       1.819  -2.857  -2.607  0.00  0.00     0.039 A 
ATOM      3  C2  UNL d   1       2.588  -3.680  -1.782  0.00  0.00    -0.080 A 
ATOM      4  C3  UNL d   1       2.962  -3.226  -0.520  0.00  0.00     0.150 A 
ATOM      5  C4  UNL d   1       2.577  -1.967  -0.073  0.00  0.00    -0.007 A 
ATOM      6  C5  UNL d   1       1.810  -1.145  -0.898  0.00  0.00     0.039 A 
ENDROOT
BRANCH   4   7
ATOM      7  O   UNL d   1       3.716  -3.992   0.318  0.00  0.00    -0.526 OA
ATOM      8  H5  UNL d   1       3.932  -4.824  -0.135  0.00  0.00     0.418 HD
ENDBRANCH   4   7
TORSDOF 1
ENDMDL
