MODEL 1
REMARK minimizedAffinity 12.7806683
REMARK minimizedRMSD -1
REMARK  1 active torsions:
REMARK  status: ('A' for Active; 'I' for Inactive)
REMARK    1  A    between atoms: C3_4  and  O_7 
ROOT
ATOM      1  C   UNL d   1      -4.874  -3.851  -6.000  0.00  0.00    -0.033 A 
ATOM      2  C1  UNL d   1      -4.623  -2.842  -5.068  0.00  0.00     0.039 A 
ATOM      3  C2  UNL d   1      -3.598  -2.993  -4.132  0.00  0.00    -0.080 A 
ATOM      4  C3  UNL d   1      -2.832  -4.155  -4.139  0.00  0.00     0.150 A 
ATOM      5  C4  UNL d   1      -3.074  -5.163  -5.066  0.00  0.00    -0.007 A 
ATOM      6  C5  UNL d   1      -4.098  -5.011  -6.000  0.00  0.00     0.039 A 
ENDROOT
BRANCH   4   7
ATOM      7  O   UNL d   1      -1.825  -4.350  -3.241  0.00  0.00    -0.526 OA
ATOM      8  H5  UNL d   1      -1.792  -3.584  -2.644  0.00  0.00     0.418 HD
ENDBRANCH   4   7
TORSDOF 1
ENDMDL
