MODEL 1
REMARK minimizedAffinity 7.60929155
REMARK minimizedRMSD -1
REMARK  1 active torsions:
REMARK  status: ('A' for Active; 'I' for Inactive)
REMARK    1  A    between atoms: C3_4  and  O_7 
ROOT
ATOM      1  C   UNL d   1      -3.010   0.384   4.926  0.00  0.00    -0.033 A 
ATOM      2  C1  UNL d   1      -3.625   0.376   3.672  0.00  0.00     0.039 A 
ATOM      3  C2  UNL d   1      -4.634   1.297   3.382  0.00  0.00    -0.080 A 
ATOM      4  C3  UNL d   1      -5.017   2.220   4.351  0.00  0.00     0.150 A 
ATOM      5  C4  UNL d   1      -4.406   2.236   5.601  0.00  0.00    -0.007 A 
ATOM      6  C5  UNL d   1      -3.400   1.315   5.890  0.00  0.00     0.039 A 
ENDROOT
BRANCH   4   7
ATOM      7  O   UNL d   1      -6.000   3.134   4.115  0.00  0.00    -0.526 OA
ATOM      8  H5  UNL d   1      -6.350   2.986   3.221  0.00  0.00     0.418 HD
ENDBRANCH   4   7
TORSDOF 1
ENDMDL
