MODEL 1
REMARK minimizedAffinity -4.63299656
REMARK minimizedRMSD -1
REMARK  0 active torsions:
REMARK  status: ('A' for Active; 'I' for Inactive)
ROOT
ATOM      1  C1  BNZ d   1       1.534  -0.506   1.342  0.00  0.00     0.000 A 
ATOM      2  C2  BNZ d   1       0.962  -0.858   2.536  0.00  0.00     0.000 A 
ATOM      3  C3  BNZ d   1      -0.393  -0.797   2.707  0.00  0.00     0.000 A 
ATOM      4  C4  BNZ d   1      -1.169  -0.348   1.700  0.00  0.00     0.000 A 
ATOM      5  C5  BNZ d   1      -0.606   0.019   0.494  0.00  0.00     0.000 A 
ATOM      6  C6  BNZ d   1       0.754  -0.080   0.312  0.00  0.00     0.000 A 
ENDROOT
TORSDOF 0
ENDMDL
