MODEL 1
REMARK minimizedAffinity -4.18558931
REMARK minimizedRMSD -1
REMARK  0 active torsions:
REMARK  status: ('A' for Active; 'I' for Inactive)
ROOT
ATOM      1  C1  BNZ d   1      -1.074   0.528   0.431  0.00  0.00     0.000 A 
ATOM      2  C2  BNZ d   1      -0.970   0.554   1.796  0.00  0.00     0.000 A 
ATOM      3  C3  BNZ d   1       0.200   0.217   2.416  0.00  0.00     0.000 A 
ATOM      4  C4  BNZ d   1       1.252  -0.183   1.673  0.00  0.00     0.000 A 
ATOM      5  C5  BNZ d   1       1.161  -0.223   0.296  0.00  0.00     0.000 A 
ATOM      6  C6  BNZ d   1      -0.007   0.154  -0.326  0.00  0.00     0.000 A 
ENDROOT
TORSDOF 0
ENDMDL
