MODEL 1
REMARK minimizedAffinity -5.24189806
REMARK minimizedRMSD -1
REMARK  0 active torsions:
REMARK  status: ('A' for Active; 'I' for Inactive)
ROOT
ATOM      1  C1  BNZ d   1      -1.324  -0.387   1.225  0.00  0.00     0.000 A 
ATOM      2  C2  BNZ d   1      -0.384  -0.583   2.203  0.00  0.00     0.000 A 
ATOM      3  C3  BNZ d   1       0.947  -0.622   1.896  0.00  0.00     0.000 A 
ATOM      4  C4  BNZ d   1       1.335  -0.507   0.609  0.00  0.00     0.000 A 
ATOM      5  C5  BNZ d   1       0.399  -0.318  -0.389  0.00  0.00     0.000 A 
ATOM      6  C6  BNZ d   1      -0.938  -0.240  -0.071  0.00  0.00     0.000 A 
ENDROOT
TORSDOF 0
ENDMDL
