MODEL 1
REMARK minimizedAffinity -4.76686192
REMARK minimizedRMSD -1
REMARK  0 active torsions:
REMARK  status: ('A' for Active; 'I' for Inactive)
ROOT
ATOM      1  C1  BNZ d   1       2.474  -1.877   1.315  0.00  0.00     0.000 A 
ATOM      2  C2  BNZ d   1       1.850  -1.324   0.228  0.00  0.00     0.000 A 
ATOM      3  C3  BNZ d   1       0.630  -0.720   0.354  0.00  0.00     0.000 A 
ATOM      4  C4  BNZ d   1       0.019  -0.705   1.556  0.00  0.00     0.000 A 
ATOM      5  C5  BNZ d   1       0.631  -1.266   2.659  0.00  0.00     0.000 A 
ATOM      6  C6  BNZ d   1       1.876  -1.838   2.536  0.00  0.00     0.000 A 
ENDROOT
TORSDOF 0
ENDMDL
