MODEL 1
REMARK minimizedAffinity -3.68011689
REMARK minimizedRMSD -1
REMARK  0 active torsions:
REMARK  status: ('A' for Active; 'I' for Inactive)
ROOT
ATOM      1  C1  BNZ d   1      -1.465   0.094   0.486  0.00  0.00     0.000 A 
ATOM      2  C2  BNZ d   1      -0.663  -0.578   1.369  0.00  0.00     0.000 A 
ATOM      3  C3  BNZ d   1       0.652  -0.814   1.080  0.00  0.00     0.000 A 
ATOM      4  C4  BNZ d   1       1.152  -0.414  -0.106  0.00  0.00     0.000 A 
ATOM      5  C5  BNZ d   1       0.354   0.257  -1.011  0.00  0.00     0.000 A 
ATOM      6  C6  BNZ d   1      -0.959   0.527  -0.701  0.00  0.00     0.000 A 
ENDROOT
TORSDOF 0
ENDMDL
