MODEL 1
REMARK minimizedAffinity -4.61446381
REMARK minimizedRMSD -1
REMARK  0 active torsions:
REMARK  status: ('A' for Active; 'I' for Inactive)
ROOT
ATOM      1  C1  BNZ d   1       1.394  -0.208   1.241  0.00  0.00     0.000 A 
ATOM      2  C2  BNZ d   1       0.673  -0.121   0.081  0.00  0.00     0.000 A 
ATOM      3  C3  BNZ d   1      -0.690  -0.220   0.095  0.00  0.00     0.000 A 
ATOM      4  C4  BNZ d   1      -1.327  -0.447   1.262  0.00  0.00     0.000 A 
ATOM      5  C5  BNZ d   1      -0.613  -0.546   2.440  0.00  0.00     0.000 A 
ATOM      6  C6  BNZ d   1       0.756  -0.406   2.427  0.00  0.00     0.000 A 
ENDROOT
TORSDOF 0
ENDMDL
