MODEL 1
REMARK minimizedAffinity -3.25953293
REMARK minimizedRMSD -1
REMARK  0 active torsions:
REMARK  status: ('A' for Active; 'I' for Inactive)
ROOT
ATOM      1  C   UNL d   1       1.047  -0.455  -0.260  0.00  0.00     0.020 A 
ATOM      2  C1  UNL d   1       1.650   0.026   0.902  0.00  0.00     0.020 A 
ATOM      3  C2  UNL d   1       0.867   0.588   1.913  0.00  0.00     0.034 A 
ATOM      4  C3  UNL d   1      -0.522   0.671   1.764  0.00  0.00     0.017 A 
ATOM      5  C4  UNL d   1      -1.126   0.187   0.597  0.00  0.00     0.017 A 
ATOM      6  C5  UNL d   1      -0.337  -0.375  -0.412  0.00  0.00     0.034 A 
ATOM      7 Cl   UNL d   1      -2.834   0.255   0.341  0.00  0.00    -0.070 Cl
ATOM      8 Cl1  UNL d   1      -1.428   1.378   3.054  0.00  0.00    -0.070 Cl
ENDROOT
TORSDOF 0
ENDMDL
