MODEL 1
REMARK minimizedAffinity -4.6444869
REMARK minimizedRMSD -1
REMARK  0 active torsions:
REMARK  status: ('A' for Active; 'I' for Inactive)
ROOT
ATOM      1  C   UNL d   1      -1.308   0.320   2.556  0.00  0.00     0.020 A 
ATOM      2  C1  UNL d   1      -1.989   0.601   1.372  0.00  0.00     0.020 A 
ATOM      3  C2  UNL d   1      -1.345   0.444   0.142  0.00  0.00     0.034 A 
ATOM      4  C3  UNL d   1      -0.017   0.005   0.094  0.00  0.00     0.017 A 
ATOM      5  C4  UNL d   1       0.666  -0.276   1.283  0.00  0.00     0.017 A 
ATOM      6  C5  UNL d   1       0.017  -0.117   2.511  0.00  0.00     0.034 A 
ATOM      7 Cl   UNL d   1       2.306  -0.821   1.304  0.00  0.00    -0.070 Cl
ATOM      8 Cl1  UNL d   1       0.716  -0.167  -1.461  0.00  0.00    -0.070 Cl
ENDROOT
TORSDOF 0
ENDMDL
