MODEL 1
REMARK minimizedAffinity -3.49194574
REMARK minimizedRMSD -1
REMARK  0 active torsions:
REMARK  status: ('A' for Active; 'I' for Inactive)
ROOT
ATOM      1  C   UNL d   1      -1.928   0.729   0.908  0.00  0.00     0.020 A 
ATOM      2  C1  UNL d   1      -1.385   1.208   2.099  0.00  0.00     0.020 A 
ATOM      3  C2  UNL d   1      -0.029   1.022   2.374  0.00  0.00     0.034 A 
ATOM      4  C3  UNL d   1       0.790   0.355   1.456  0.00  0.00     0.017 A 
ATOM      5  C4  UNL d   1       0.245  -0.126   0.260  0.00  0.00     0.017 A 
ATOM      6  C5  UNL d   1      -1.114   0.063  -0.010  0.00  0.00     0.034 A 
ATOM      7 Cl   UNL d   1       1.192  -0.959  -0.922  0.00  0.00    -0.070 Cl
ATOM      8 Cl1  UNL d   1       2.459   0.160   1.860  0.00  0.00    -0.070 Cl
ENDROOT
TORSDOF 0
ENDMDL
