MODEL 1
REMARK minimizedAffinity -4.5274477
REMARK minimizedRMSD -1
REMARK  0 active torsions:
REMARK  status: ('A' for Active; 'I' for Inactive)
ROOT
ATOM      1  C   UNL d   1      -1.643   0.475   1.149  0.00  0.00     0.020 A 
ATOM      2  C1  UNL d   1      -0.754   0.637   2.211  0.00  0.00     0.020 A 
ATOM      3  C2  UNL d   1       0.606   0.378   2.029  0.00  0.00     0.034 A 
ATOM      4  C3  UNL d   1       1.081  -0.046   0.783  0.00  0.00     0.017 A 
ATOM      5  C4  UNL d   1       0.188  -0.208  -0.282  0.00  0.00     0.017 A 
ATOM      6  C5  UNL d   1      -1.173   0.053  -0.095  0.00  0.00     0.034 A 
ATOM      7 Cl   UNL d   1       0.700  -0.727  -1.850  0.00  0.00    -0.070 Cl
ATOM      8 Cl1  UNL d   1       2.775  -0.348   0.629  0.00  0.00    -0.070 Cl
ENDROOT
TORSDOF 0
ENDMDL
