MODEL 1
REMARK minimizedAffinity -5.48652601
REMARK minimizedRMSD -1
REMARK  0 active torsions:
REMARK  status: ('A' for Active; 'I' for Inactive)
ROOT
ATOM      1  C   UNL d   1      -0.159   1.203   3.629  0.00  0.00     0.020 A 
ATOM      2  C1  UNL d   1       1.155   0.741   3.571  0.00  0.00     0.020 A 
ATOM      3  C2  UNL d   1       1.609   0.068   2.434  0.00  0.00     0.034 A 
ATOM      4  C3  UNL d   1       0.748  -0.145   1.352  0.00  0.00     0.017 A 
ATOM      5  C4  UNL d   1      -0.571   0.320   1.411  0.00  0.00     0.017 A 
ATOM      6  C5  UNL d   1      -1.020   0.993   2.551  0.00  0.00     0.034 A 
ATOM      7 Cl   UNL d   1      -1.692   0.095   0.115  0.00  0.00    -0.070 Cl
ATOM      8 Cl1  UNL d   1       1.376  -0.984  -0.022  0.00  0.00    -0.070 Cl
ENDROOT
TORSDOF 0
ENDMDL
