MODEL 1
REMARK minimizedAffinity -3.50328398
REMARK minimizedRMSD -1
REMARK  0 active torsions:
REMARK  status: ('A' for Active; 'I' for Inactive)
ROOT
ATOM      1  C   UNL d   1      -0.217   1.197   2.688  0.00  0.00     0.020 A 
ATOM      2  C1  UNL d   1       1.126   1.019   2.356  0.00  0.00     0.020 A 
ATOM      3  C2  UNL d   1       1.473   0.499   1.107  0.00  0.00     0.034 A 
ATOM      4  C3  UNL d   1       0.477   0.154   0.186  0.00  0.00     0.017 A 
ATOM      5  C4  UNL d   1      -0.871   0.333   0.521  0.00  0.00     0.017 A 
ATOM      6  C5  UNL d   1      -1.213   0.855   1.773  0.00  0.00     0.034 A 
ATOM      7 Cl   UNL d   1      -2.156  -0.068  -0.563  0.00  0.00    -0.070 Cl
ATOM      8 Cl1  UNL d   1       0.978  -0.483  -1.339  0.00  0.00    -0.070 Cl
ENDROOT
TORSDOF 0
ENDMDL
