MODEL 1
REMARK minimizedAffinity 2.16091204
REMARK minimizedRMSD -1
REMARK  0 active torsions:
REMARK  status: ('A' for Active; 'I' for Inactive)
ROOT
ATOM      1  C   UNL d   1       0.074  -1.050  -0.300  0.00  0.00     0.020 A 
ATOM      2  C1  UNL d   1      -1.256  -0.829  -0.654  0.00  0.00     0.020 A 
ATOM      3  C2  UNL d   1      -1.578  -0.460  -1.961  0.00  0.00     0.034 A 
ATOM      4  C3  UNL d   1      -0.569  -0.312  -2.920  0.00  0.00     0.017 A 
ATOM      5  C4  UNL d   1       0.766  -0.535  -2.564  0.00  0.00     0.017 A 
ATOM      6  C5  UNL d   1       1.083  -0.904  -1.253  0.00  0.00     0.034 A 
ATOM      7 Cl   UNL d   1       2.065  -0.372  -3.691  0.00  0.00    -0.070 Cl
ATOM      8 Cl1  UNL d   1      -1.040   0.145  -4.518  0.00  0.00    -0.070 Cl
ENDROOT
TORSDOF 0
ENDMDL
