MODEL 1
REMARK minimizedAffinity -4.41571522
REMARK minimizedRMSD -1
REMARK  0 active torsions:
REMARK  status: ('A' for Active; 'I' for Inactive)
ROOT
ATOM      1  C   UNL d   1       0.252   1.858   1.887  0.00  0.00     0.020 A 
ATOM      2  C1  UNL d   1      -1.087   1.798   2.270  0.00  0.00     0.020 A 
ATOM      3  C2  UNL d   1      -1.949   0.889   1.654  0.00  0.00     0.034 A 
ATOM      4  C3  UNL d   1      -1.473   0.036   0.651  0.00  0.00     0.017 A 
ATOM      5  C4  UNL d   1      -0.129   0.097   0.268  0.00  0.00     0.017 A 
ATOM      6  C5  UNL d   1       0.730   1.010   0.888  0.00  0.00     0.034 A 
ATOM      7 Cl   UNL d   1       0.532  -0.923  -0.961  0.00  0.00    -0.070 Cl
ATOM      8 Cl1  UNL d   1      -2.595  -1.064  -0.068  0.00  0.00    -0.070 Cl
ENDROOT
TORSDOF 0
ENDMDL
