MODEL 1
REMARK minimizedAffinity -4.65305042
REMARK minimizedRMSD -1
REMARK  0 active torsions:
REMARK  status: ('A' for Active; 'I' for Inactive)
ROOT
ATOM      1  C   UNL d   1       0.511   0.880   2.424  0.00  0.00     0.020 A 
ATOM      2  C1  UNL d   1      -0.743   0.515   2.914  0.00  0.00     0.020 A 
ATOM      3  C2  UNL d   1      -1.714   0.017   2.044  0.00  0.00     0.034 A 
ATOM      4  C3  UNL d   1      -1.435  -0.117   0.679  0.00  0.00     0.017 A 
ATOM      5  C4  UNL d   1      -0.177   0.250   0.188  0.00  0.00     0.017 A 
ATOM      6  C5  UNL d   1       0.793   0.748   1.064  0.00  0.00     0.034 A 
ATOM      7 Cl   UNL d   1       0.242   0.114  -1.483  0.00  0.00    -0.070 Cl
ATOM      8 Cl1  UNL d   1      -2.684  -0.740  -0.340  0.00  0.00    -0.070 Cl
ENDROOT
TORSDOF 0
ENDMDL
