MODEL 1
REMARK minimizedAffinity -5.32211876
REMARK minimizedRMSD -1
REMARK  0 active torsions:
REMARK  status: ('A' for Active; 'I' for Inactive)
ROOT
ATOM      1  C   UNL d   1      -1.918   0.397   0.859  0.00  0.00     0.020 A 
ATOM      2  C1  UNL d   1      -1.414   1.257   1.834  0.00  0.00     0.020 A 
ATOM      3  C2  UNL d   1      -0.062   1.208   2.177  0.00  0.00     0.034 A 
ATOM      4  C3  UNL d   1       0.793   0.298   1.545  0.00  0.00     0.017 A 
ATOM      5  C4  UNL d   1       0.286  -0.565   0.566  0.00  0.00     0.017 A 
ATOM      6  C5  UNL d   1      -1.069  -0.512   0.226  0.00  0.00     0.034 A 
ATOM      7 Cl   UNL d   1       1.279  -1.715  -0.259  0.00  0.00    -0.070 Cl
ATOM      8 Cl1  UNL d   1       2.454   0.292   2.018  0.00  0.00    -0.070 Cl
ENDROOT
TORSDOF 0
ENDMDL
