MODEL 1
REMARK minimizedAffinity 6.50502729
REMARK minimizedRMSD -1
REMARK  0 active torsions:
REMARK  status: ('A' for Active; 'I' for Inactive)
ROOT
ATOM      1  C2' OXE d   1      -0.997   2.038   1.160  0.00  0.00     0.078 C 
ATOM      2  C1' OXE d   1       1.803   1.854   1.238  0.00  0.00     0.078 C 
ATOM      3  C1  OXE d   1       1.188   2.821   0.256  0.00  0.00    -0.078 A 
ATOM      4  C2  OXE d   1      -0.184   2.870   0.192  0.00  0.00    -0.078 A 
ATOM      5  C3  OXE d   1      -0.802   3.783  -0.657  0.00  0.00     0.003 A 
ATOM      6  C4  OXE d   1      -0.042   4.542  -1.556  0.00  0.00    -0.002 A 
ATOM      7  C5  OXE d   1       1.355   4.478  -1.535  0.00  0.00    -0.002 A 
ATOM      8  C6  OXE d   1       1.986   3.655  -0.608  0.00  0.00     0.003 A 
ENDROOT
TORSDOF 0
ENDMDL
