MODEL 1
REMARK minimizedAffinity 9.1153841
REMARK minimizedRMSD -1
REMARK  0 active torsions:
REMARK  status: ('A' for Active; 'I' for Inactive)
ROOT
ATOM      1  C2' OXE d   1       4.503  -5.990  -1.441  0.00  0.00     0.078 C 
ATOM      2  C1' OXE d   1       4.074  -5.202  -4.100  0.00  0.00     0.078 C 
ATOM      3  C1  OXE d   1       2.963  -4.963  -3.108  0.00  0.00    -0.078 A 
ATOM      4  C2  OXE d   1       3.164  -5.395  -1.819  0.00  0.00    -0.078 A 
ATOM      5  C3  OXE d   1       2.193  -5.151  -0.851  0.00  0.00     0.003 A 
ATOM      6  C4  OXE d   1       0.954  -4.608  -1.212  0.00  0.00    -0.002 A 
ATOM      7  C5  OXE d   1       0.714  -4.198  -2.528  0.00  0.00    -0.002 A 
ATOM      8  C6  OXE d   1       1.721  -4.330  -3.477  0.00  0.00     0.003 A 
ENDROOT
TORSDOF 0
ENDMDL
