MODEL 1
REMARK minimizedAffinity 4.7819953
REMARK minimizedRMSD -1
REMARK  0 active torsions:
REMARK  status: ('A' for Active; 'I' for Inactive)
ROOT
ATOM      1  C2' OXE d   1       1.070   3.426  -1.067  0.00  0.00     0.078 C 
ATOM      2  C1' OXE d   1      -1.626   3.962  -0.497  0.00  0.00     0.078 C 
ATOM      3  C1  OXE d   1      -0.851   3.125   0.490  0.00  0.00    -0.078 A 
ATOM      4  C2  OXE d   1       0.455   2.829   0.180  0.00  0.00    -0.078 A 
ATOM      5  C3  OXE d   1       1.231   2.106   1.082  0.00  0.00     0.003 A 
ATOM      6  C4  OXE d   1       0.651   1.549   2.228  0.00  0.00    -0.002 A 
ATOM      7  C5  OXE d   1      -0.687   1.806   2.543  0.00  0.00    -0.002 A 
ATOM      8  C6  OXE d   1      -1.439   2.625   1.708  0.00  0.00     0.003 A 
ENDROOT
TORSDOF 0
ENDMDL
