MODEL 1
REMARK minimizedAffinity 4.77197742
REMARK minimizedRMSD -1
REMARK  0 active torsions:
REMARK  status: ('A' for Active; 'I' for Inactive)
ROOT
ATOM      1  C2' OXE d   1      -2.453   2.802   3.070  0.00  0.00     0.078 C 
ATOM      2  C1' OXE d   1       0.258   2.074   3.103  0.00  0.00     0.078 C 
ATOM      3  C1  OXE d   1      -0.369   2.391   1.768  0.00  0.00    -0.078 A 
ATOM      4  C2  OXE d   1      -1.708   2.701   1.757  0.00  0.00    -0.078 A 
ATOM      5  C3  OXE d   1      -2.323   3.054   0.559  0.00  0.00     0.003 A 
ATOM      6  C4  OXE d   1      -1.629   2.948  -0.653  0.00  0.00    -0.002 A 
ATOM      7  C5  OXE d   1      -0.276   2.595  -0.667  0.00  0.00    -0.002 A 
ATOM      8  C6  OXE d   1       0.379   2.356   0.536  0.00  0.00     0.003 A 
ENDROOT
TORSDOF 0
ENDMDL
