MODEL 1
REMARK minimizedAffinity 16.8513069
REMARK minimizedRMSD -1
REMARK  0 active torsions:
REMARK  status: ('A' for Active; 'I' for Inactive)
ROOT
ATOM      1  C2' OXE d   1       4.155  -4.544  -3.043  0.00  0.00     0.078 C 
ATOM      2  C1' OXE d   1       1.940  -4.569  -4.767  0.00  0.00     0.078 C 
ATOM      3  C1  OXE d   1       1.676  -4.580  -3.282  0.00  0.00    -0.078 A 
ATOM      4  C2  OXE d   1       2.766  -4.616  -2.446  0.00  0.00    -0.078 A 
ATOM      5  C3  OXE d   1       2.580  -4.572  -1.068  0.00  0.00     0.003 A 
ATOM      6  C4  OXE d   1       1.292  -4.649  -0.524  0.00  0.00    -0.002 A 
ATOM      7  C5  OXE d   1       0.168  -4.654  -1.357  0.00  0.00    -0.002 A 
ATOM      8  C6  OXE d   1       0.341  -4.577  -2.735  0.00  0.00     0.003 A 
ENDROOT
TORSDOF 0
ENDMDL
