MODEL 1
REMARK minimizedAffinity 6.97933865
REMARK minimizedRMSD -1
REMARK  0 active torsions:
REMARK  status: ('A' for Active; 'I' for Inactive)
ROOT
ATOM      1  C2' OXE d   1      -3.975   5.253  -2.502  0.00  0.00     0.078 C 
ATOM      2  C1' OXE d   1      -1.341   5.255  -1.530  0.00  0.00     0.078 C 
ATOM      3  C1  OXE d   1      -2.455   5.503  -0.544  0.00  0.00    -0.078 A 
ATOM      4  C2  OXE d   1      -3.737   5.547  -1.036  0.00  0.00    -0.078 A 
ATOM      5  C3  OXE d   1      -4.806   5.718  -0.161  0.00  0.00     0.003 A 
ATOM      6  C4  OXE d   1      -4.577   6.000   1.191  0.00  0.00    -0.002 A 
ATOM      7  C5  OXE d   1      -3.276   6.000   1.706  0.00  0.00    -0.002 A 
ATOM      8  C6  OXE d   1      -2.209   5.712   0.862  0.00  0.00     0.003 A 
ENDROOT
TORSDOF 0
ENDMDL
