MODEL 1
REMARK minimizedAffinity 9.12062168
REMARK minimizedRMSD -1
REMARK  0 active torsions:
REMARK  status: ('A' for Active; 'I' for Inactive)
ROOT
ATOM      1  C2' OXE d   1       1.615  -2.877  -4.547  0.00  0.00     0.078 C 
ATOM      2  C1' OXE d   1       3.593  -4.660  -3.659  0.00  0.00     0.078 C 
ATOM      3  C1  OXE d   1       2.440  -4.370  -2.731  0.00  0.00    -0.078 A 
ATOM      4  C2  OXE d   1       1.501  -3.461  -3.155  0.00  0.00    -0.078 A 
ATOM      5  C3  OXE d   1       0.388  -3.198  -2.361  0.00  0.00     0.003 A 
ATOM      6  C4  OXE d   1       0.295  -3.734  -1.071  0.00  0.00    -0.002 A 
ATOM      7  C5  OXE d   1       1.262  -4.631  -0.604  0.00  0.00    -0.002 A 
ATOM      8  C6  OXE d   1       2.316  -4.992  -1.436  0.00  0.00     0.003 A 
ENDROOT
TORSDOF 0
ENDMDL
