MODEL 1
REMARK minimizedAffinity 2.25183773
REMARK minimizedRMSD -1
REMARK  0 active torsions:
REMARK  status: ('A' for Active; 'I' for Inactive)
ROOT
ATOM      1  C2' OXE d   1       1.339  -0.452  -2.638  0.00  0.00     0.078 C 
ATOM      2  C1' OXE d   1       0.948  -2.935  -1.387  0.00  0.00     0.078 C 
ATOM      3  C1  OXE d   1       0.335  -1.717  -0.742  0.00  0.00    -0.078 A 
ATOM      4  C2  OXE d   1       0.571  -0.501  -1.335  0.00  0.00    -0.078 A 
ATOM      5  C3  OXE d   1      -0.017   0.647  -0.811  0.00  0.00     0.003 A 
ATOM      6  C4  OXE d   1      -0.718   0.595   0.400  0.00  0.00    -0.002 A 
ATOM      7  C5  OXE d   1      -0.936  -0.628   1.042  0.00  0.00    -0.002 A 
ATOM      8  C6  OXE d   1      -0.453  -1.797   0.463  0.00  0.00     0.003 A 
ENDROOT
TORSDOF 0
ENDMDL
