MODEL 1
REMARK minimizedAffinity -1.96553421
REMARK minimizedRMSD -1
REMARK  0 active torsions:
REMARK  status: ('A' for Active; 'I' for Inactive)
ROOT
ATOM      1  C2' OXE d   1       0.948   2.234  -0.354  0.00  0.00     0.078 C 
ATOM      2  C1' OXE d   1       2.356   0.507  -2.060  0.00  0.00     0.078 C 
ATOM      3  C1  OXE d   1       1.353  -0.104  -1.114  0.00  0.00    -0.078 A 
ATOM      4  C2  OXE d   1       0.702   0.744  -0.250  0.00  0.00    -0.078 A 
ATOM      5  C3  OXE d   1      -0.274   0.240   0.606  0.00  0.00     0.003 A 
ATOM      6  C4  OXE d   1      -0.488  -1.140   0.702  0.00  0.00    -0.002 A 
ATOM      7  C5  OXE d   1       0.193  -2.025  -0.141  0.00  0.00    -0.002 A 
ATOM      8  C6  OXE d   1       1.084  -1.520  -1.082  0.00  0.00     0.003 A 
ENDROOT
TORSDOF 0
ENDMDL
