MODEL 1
REMARK minimizedAffinity 1.21557403
REMARK minimizedRMSD -1
REMARK  0 active torsions:
REMARK  status: ('A' for Active; 'I' for Inactive)
ROOT
ATOM      1  C2' OXE d   1      -1.191   1.723  -0.483  0.00  0.00     0.078 C 
ATOM      2  C1' OXE d   1      -1.990   0.219   1.748  0.00  0.00     0.078 C 
ATOM      3  C1  OXE d   1      -0.972  -0.391   0.817  0.00  0.00    -0.078 A 
ATOM      4  C2  OXE d   1      -0.622   0.333  -0.297  0.00  0.00    -0.078 A 
ATOM      5  C3  OXE d   1       0.354  -0.159  -1.160  0.00  0.00     0.003 A 
ATOM      6  C4  OXE d   1       0.868  -1.449  -0.986  0.00  0.00    -0.002 A 
ATOM      7  C5  OXE d   1       0.495  -2.219   0.121  0.00  0.00    -0.002 A 
ATOM      8  C6  OXE d   1      -0.390  -1.689   1.053  0.00  0.00     0.003 A 
ENDROOT
TORSDOF 0
ENDMDL
