MODEL 1
REMARK minimizedAffinity -0.557160199
REMARK minimizedRMSD -1
REMARK  0 active torsions:
REMARK  status: ('A' for Active; 'I' for Inactive)
ROOT
ATOM      1  C2' OXE d   1      -0.265  -2.417  -0.817  0.00  0.00     0.078 C 
ATOM      2  C1' OXE d   1      -0.833  -0.417   1.069  0.00  0.00     0.078 C 
ATOM      3  C1  OXE d   1       0.050  -0.053  -0.098  0.00  0.00    -0.078 A 
ATOM      4  C2  OXE d   1       0.361  -1.050  -0.991  0.00  0.00    -0.078 A 
ATOM      5  C3  OXE d   1       1.127  -0.755  -2.115  0.00  0.00     0.003 A 
ATOM      6  C4  OXE d   1       1.711   0.509  -2.263  0.00  0.00    -0.002 A 
ATOM      7  C5  OXE d   1       1.440   1.528  -1.344  0.00  0.00    -0.002 A 
ATOM      8  C6  OXE d   1       0.579   1.276  -0.281  0.00  0.00     0.003 A 
ENDROOT
TORSDOF 0
ENDMDL
