MODEL 1
REMARK minimizedAffinity -1.83220088
REMARK minimizedRMSD -1
REMARK  0 active torsions:
REMARK  status: ('A' for Active; 'I' for Inactive)
ROOT
ATOM      1  C2' OXE d   1      -1.678   3.355  -5.974  0.00  0.00     0.078 C 
ATOM      2  C1' OXE d   1      -3.816   1.537  -5.956  0.00  0.00     0.078 C 
ATOM      3  C1  OXE d   1      -4.145   3.009  -5.970  0.00  0.00    -0.078 A 
ATOM      4  C2  OXE d   1      -3.092   3.892  -5.931  0.00  0.00    -0.078 A 
ATOM      5  C3  OXE d   1      -3.338   5.260  -5.997  0.00  0.00     0.003 A 
ATOM      6  C4  OXE d   1      -4.649   5.748  -5.947  0.00  0.00    -0.002 A 
ATOM      7  C5  OXE d   1      -5.735   4.867  -5.946  0.00  0.00    -0.002 A 
ATOM      8  C6  OXE d   1      -5.501   3.497  -6.000  0.00  0.00     0.003 A 
ENDROOT
TORSDOF 0
ENDMDL
