MODEL 1
REMARK minimizedAffinity -4.58380413
REMARK minimizedRMSD -1
REMARK  0 active torsions:
REMARK  status: ('A' for Active; 'I' for Inactive)
ROOT
ATOM      1  C2' OXE d   1       4.082   1.519  -0.839  0.00  0.00     0.078 C 
ATOM      2  C1' OXE d   1       2.127   2.267   1.031  0.00  0.00     0.078 C 
ATOM      3  C1  OXE d   1       1.679   1.492  -0.183  0.00  0.00    -0.078 A 
ATOM      4  C2  OXE d   1       2.636   1.171  -1.116  0.00  0.00    -0.078 A 
ATOM      5  C3  OXE d   1       2.286   0.411  -2.228  0.00  0.00     0.003 A 
ATOM      6  C4  OXE d   1       0.944   0.102  -2.482  0.00  0.00    -0.002 A 
ATOM      7  C5  OXE d   1      -0.051   0.454  -1.565  0.00  0.00    -0.002 A 
ATOM      8  C6  OXE d   1       0.304   1.111  -0.392  0.00  0.00     0.003 A 
ENDROOT
TORSDOF 0
ENDMDL
