MODEL 1
REMARK minimizedAffinity -4.22236919
REMARK minimizedRMSD -1
REMARK  0 active torsions:
REMARK  status: ('A' for Active; 'I' for Inactive)
ROOT
ATOM      1  C2' OXE d   1       2.003  -0.682  -2.948  0.00  0.00     0.078 C 
ATOM      2  C1' OXE d   1       0.684  -2.455  -1.216  0.00  0.00     0.078 C 
ATOM      3  C1  OXE d   1       0.822  -1.018  -0.781  0.00  0.00    -0.078 A 
ATOM      4  C2  OXE d   1       1.509  -0.168  -1.613  0.00  0.00    -0.078 A 
ATOM      5  C3  OXE d   1       1.618   1.181  -1.285  0.00  0.00     0.003 A 
ATOM      6  C4  OXE d   1       1.168   1.646  -0.044  0.00  0.00    -0.002 A 
ATOM      7  C5  OXE d   1       0.500   0.789   0.837  0.00  0.00    -0.002 A 
ATOM      8  C6  OXE d   1       0.282  -0.534   0.466  0.00  0.00     0.003 A 
ENDROOT
TORSDOF 0
ENDMDL
