MODEL 1
REMARK minimizedAffinity -3.05050611
REMARK minimizedRMSD -1
REMARK  0 active torsions:
REMARK  status: ('A' for Active; 'I' for Inactive)
ROOT
ATOM      1  C2' OXE d   1       1.699  -0.185  -2.965  0.00  0.00     0.078 C 
ATOM      2  C1' OXE d   1       0.605  -2.373  -1.588  0.00  0.00     0.078 C 
ATOM      3  C1  OXE d   1       0.665  -1.049  -0.869  0.00  0.00    -0.078 A 
ATOM      4  C2  OXE d   1       1.245   0.005  -1.534  0.00  0.00    -0.078 A 
ATOM      5  C3  OXE d   1       1.277   1.262  -0.937  0.00  0.00     0.003 A 
ATOM      6  C4  OXE d   1       0.865   1.427   0.391  0.00  0.00    -0.002 A 
ATOM      7  C5  OXE d   1       0.308   0.358   1.099  0.00  0.00    -0.002 A 
ATOM      8  C6  OXE d   1       0.162  -0.874   0.471  0.00  0.00     0.003 A 
ENDROOT
TORSDOF 0
ENDMDL
