MODEL 1
REMARK minimizedAffinity -2.44188929
REMARK minimizedRMSD -1
REMARK  0 active torsions:
REMARK  status: ('A' for Active; 'I' for Inactive)
ROOT
ATOM      1  C2' OXE d   1      -3.127   0.009   1.758  0.00  0.00     0.078 C 
ATOM      2  C1' OXE d   1      -0.640  -0.690   0.661  0.00  0.00     0.078 C 
ATOM      3  C1  OXE d   1      -0.645   0.124   1.930  0.00  0.00    -0.078 A 
ATOM      4  C2  OXE d   1      -1.866   0.501   2.434  0.00  0.00    -0.078 A 
ATOM      5  C3  OXE d   1      -1.929   1.206   3.633  0.00  0.00     0.003 A 
ATOM      6  C4  OXE d   1      -0.758   1.666   4.247  0.00  0.00    -0.002 A 
ATOM      7  C5  OXE d   1       0.496   1.327   3.728  0.00  0.00    -0.002 A 
ATOM      8  C6  OXE d   1       0.570   0.523   2.597  0.00  0.00     0.003 A 
ENDROOT
TORSDOF 0
ENDMDL
