MODEL 1
REMARK minimizedAffinity -2.1447463
REMARK minimizedRMSD -1
REMARK  0 active torsions:
REMARK  status: ('A' for Active; 'I' for Inactive)
ROOT
ATOM      1  C2' OXE d   1       0.720  -2.944  -1.478  0.00  0.00     0.078 C 
ATOM      2  C1' OXE d   1       1.180  -0.450  -2.681  0.00  0.00     0.078 C 
ATOM      3  C1  OXE d   1       0.421  -0.473  -1.378  0.00  0.00    -0.078 A 
ATOM      4  C2  OXE d   1       0.160  -1.701  -0.820  0.00  0.00    -0.078 A 
ATOM      5  C3  OXE d   1      -0.489  -1.776   0.409  0.00  0.00     0.003 A 
ATOM      6  C4  OXE d   1      -1.013  -0.622   1.006  0.00  0.00    -0.002 A 
ATOM      7  C5  OXE d   1      -0.792   0.635   0.434  0.00  0.00    -0.002 A 
ATOM      8  C6  OXE d   1      -0.042   0.731  -0.733  0.00  0.00     0.003 A 
ENDROOT
TORSDOF 0
ENDMDL
