MODEL 1
REMARK minimizedAffinity -3.78545666
REMARK minimizedRMSD -1
REMARK  0 active torsions:
REMARK  status: ('A' for Active; 'I' for Inactive)
ROOT
ATOM      1  C2' OXE d   1      -1.805   0.712  -0.330  0.00  0.00     0.078 C 
ATOM      2  C1' OXE d   1       0.408  -0.261   1.097  0.00  0.00     0.078 C 
ATOM      3  C1  OXE d   1       0.601   0.066  -0.363  0.00  0.00    -0.078 A 
ATOM      4  C2  OXE d   1      -0.499   0.498  -1.065  0.00  0.00    -0.078 A 
ATOM      5  C3  OXE d   1      -0.364   0.865  -2.400  0.00  0.00     0.003 A 
ATOM      6  C4  OXE d   1       0.845   0.655  -3.075  0.00  0.00    -0.002 A 
ATOM      7  C5  OXE d   1       1.967   0.179  -2.389  0.00  0.00    -0.002 A 
ATOM      8  C6  OXE d   1       1.873  -0.079  -1.025  0.00  0.00     0.003 A 
ENDROOT
TORSDOF 0
ENDMDL
