MODEL 1
REMARK minimizedAffinity 0.514587164
REMARK minimizedRMSD -1
REMARK  0 active torsions:
REMARK  status: ('A' for Active; 'I' for Inactive)
ROOT
ATOM      1  C2' OXE d   1       0.293  -2.671  -1.447  0.00  0.00     0.078 C 
ATOM      2  C1' OXE d   1       0.843  -0.294  -2.834  0.00  0.00     0.078 C 
ATOM      3  C1  OXE d   1       0.541  -0.194  -1.360  0.00  0.00    -0.078 A 
ATOM      4  C2  OXE d   1       0.227  -1.357  -0.699  0.00  0.00    -0.078 A 
ATOM      5  C3  OXE d   1      -0.007  -1.328   0.673  0.00  0.00     0.003 A 
ATOM      6  C4  OXE d   1      -0.076  -0.108   1.355  0.00  0.00    -0.002 A 
ATOM      7  C5  OXE d   1       0.202   1.093   0.692  0.00  0.00    -0.002 A 
ATOM      8  C6  OXE d   1       0.553   1.063  -0.653  0.00  0.00     0.003 A 
ENDROOT
TORSDOF 0
ENDMDL
