MODEL 1
REMARK minimizedAffinity -5.10306501
REMARK minimizedRMSD -1
REMARK  0 active torsions:
REMARK  status: ('A' for Active; 'I' for Inactive)
ROOT
ATOM      1  C2' OXE d   1      -1.293   0.017   0.168  0.00  0.00     0.078 C 
ATOM      2  C1' OXE d   1       1.226   1.142   0.683  0.00  0.00     0.078 C 
ATOM      3  C1  OXE d   1       0.982   0.562  -0.687  0.00  0.00    -0.078 A 
ATOM      4  C2  OXE d   1      -0.237  -0.028  -0.916  0.00  0.00    -0.078 A 
ATOM      5  C3  OXE d   1      -0.534  -0.530  -2.180  0.00  0.00     0.003 A 
ATOM      6  C4  OXE d   1       0.451  -0.578  -3.173  0.00  0.00    -0.002 A 
ATOM      7  C5  OXE d   1       1.713  -0.018  -2.948  0.00  0.00    -0.002 A 
ATOM      8  C6  OXE d   1       1.980   0.593  -1.728  0.00  0.00     0.003 A 
ENDROOT
TORSDOF 0
ENDMDL
