MODEL 1
REMARK minimizedAffinity -0.881785691
REMARK minimizedRMSD -1
REMARK  0 active torsions:
REMARK  status: ('A' for Active; 'I' for Inactive)
ROOT
ATOM      1  C2' OXE d   1       0.892  -0.248  -2.627  0.00  0.00     0.078 C 
ATOM      2  C1' OXE d   1       0.023  -2.539  -1.258  0.00  0.00     0.078 C 
ATOM      3  C1  OXE d   1       0.151  -1.257  -0.474  0.00  0.00    -0.078 A 
ATOM      4  C2  OXE d   1       0.621  -0.152  -1.141  0.00  0.00    -0.078 A 
ATOM      5  C3  OXE d   1       0.705   1.070  -0.479  0.00  0.00     0.003 A 
ATOM      6  C4  OXE d   1       0.463   1.148   0.898  0.00  0.00    -0.002 A 
ATOM      7  C5  OXE d   1       0.021   0.025   1.605  0.00  0.00    -0.002 A 
ATOM      8  C6  OXE d   1      -0.181  -1.172   0.927  0.00  0.00     0.003 A 
ENDROOT
TORSDOF 0
ENDMDL
