MODEL 1
REMARK minimizedAffinity -4.91708422
REMARK minimizedRMSD -1
REMARK  0 active torsions:
REMARK  status: ('A' for Active; 'I' for Inactive)
ROOT
ATOM      1  C2' OXE d   1      -1.128   0.143   0.146  0.00  0.00     0.078 C 
ATOM      2  C1' OXE d   1       1.226   1.423   0.983  0.00  0.00     0.078 C 
ATOM      3  C1  OXE d   1       1.231   0.756  -0.369  0.00  0.00    -0.078 A 
ATOM      4  C2  OXE d   1       0.090   0.092  -0.751  0.00  0.00    -0.078 A 
ATOM      5  C3  OXE d   1       0.023  -0.494  -2.012  0.00  0.00     0.003 A 
ATOM      6  C4  OXE d   1       1.157  -0.545  -2.831  0.00  0.00    -0.002 A 
ATOM      7  C5  OXE d   1       2.341   0.091  -2.445  0.00  0.00    -0.002 A 
ATOM      8  C6  OXE d   1       2.382   0.781  -1.238  0.00  0.00     0.003 A 
ENDROOT
TORSDOF 0
ENDMDL
