MODEL 1
REMARK minimizedAffinity -1.02790248
REMARK minimizedRMSD -1
REMARK  0 active torsions:
REMARK  status: ('A' for Active; 'I' for Inactive)
ROOT
ATOM      1  C2' OXE d   1       1.720   2.971  -0.549  0.00  0.00     0.078 C 
ATOM      2  C1' OXE d   1       0.546   0.606   0.404  0.00  0.00     0.078 C 
ATOM      3  C1  OXE d   1       1.225   1.507   1.405  0.00  0.00    -0.078 A 
ATOM      4  C2  OXE d   1       1.838   2.639   0.923  0.00  0.00    -0.078 A 
ATOM      5  C3  OXE d   1       2.431   3.533   1.810  0.00  0.00     0.003 A 
ATOM      6  C4  OXE d   1       2.544   3.213   3.168  0.00  0.00    -0.002 A 
ATOM      7  C5  OXE d   1       1.962   2.046   3.674  0.00  0.00    -0.002 A 
ATOM      8  C6  OXE d   1       1.264   1.205   2.814  0.00  0.00     0.003 A 
ENDROOT
TORSDOF 0
ENDMDL
