MODEL 1
REMARK minimizedAffinity -3.21890974
REMARK minimizedRMSD -1
REMARK  0 active torsions:
REMARK  status: ('A' for Active; 'I' for Inactive)
ROOT
ATOM      1  C2' OXE d   1      -2.116   2.280  -5.470  0.00  0.00     0.078 C 
ATOM      2  C1' OXE d   1      -4.393   0.647  -5.642  0.00  0.00     0.078 C 
ATOM      3  C1  OXE d   1      -4.587   2.139  -5.754  0.00  0.00    -0.078 A 
ATOM      4  C2  OXE d   1      -3.473   2.933  -5.623  0.00  0.00    -0.078 A 
ATOM      5  C3  OXE d   1      -3.588   4.312  -5.773  0.00  0.00     0.003 A 
ATOM      6  C4  OXE d   1      -4.848   4.908  -5.903  0.00  0.00    -0.002 A 
ATOM      7  C5  OXE d   1      -6.000   4.120  -6.000  0.00  0.00    -0.002 A 
ATOM      8  C6  OXE d   1      -5.882   2.735  -5.970  0.00  0.00     0.003 A 
ENDROOT
TORSDOF 0
ENDMDL
