MODEL 1
REMARK minimizedAffinity 8.39166927
REMARK minimizedRMSD -1
REMARK  0 active torsions:
REMARK  status: ('A' for Active; 'I' for Inactive)
ROOT
ATOM      1  C2' OXE d   1      -2.380   1.627  -5.143  0.00  0.00     0.078 C 
ATOM      2  C1' OXE d   1      -5.141   1.862  -5.593  0.00  0.00     0.078 C 
ATOM      3  C1  OXE d   1      -4.305   3.115  -5.676  0.00  0.00    -0.078 A 
ATOM      4  C2  OXE d   1      -2.963   2.998  -5.408  0.00  0.00    -0.078 A 
ATOM      5  C3  OXE d   1      -2.137   4.113  -5.524  0.00  0.00     0.003 A 
ATOM      6  C4  OXE d   1      -2.686   5.380  -5.760  0.00  0.00    -0.002 A 
ATOM      7  C5  OXE d   1      -4.057   5.527  -5.996  0.00  0.00    -0.002 A 
ATOM      8  C6  OXE d   1      -4.872   4.401  -6.000  0.00  0.00     0.003 A 
ENDROOT
TORSDOF 0
ENDMDL
