MODEL 1
REMARK minimizedAffinity 9.30369473
REMARK minimizedRMSD -1
REMARK  0 active torsions:
REMARK  status: ('A' for Active; 'I' for Inactive)
ROOT
ATOM      1  C   UNL d   1      -6.000   2.128  -4.696  0.00  0.00     0.077 C 
ATOM      2  C1  UNL d   1      -4.581   2.611  -4.755  0.00  0.00    -0.074 A 
ATOM      3  C2  UNL d   1      -4.019   3.041  -5.961  0.00  0.00    -0.005 A 
ATOM      4  C3  UNL d   1      -2.701   3.497  -6.000  0.00  0.00     0.006 A 
ATOM      5  C4  UNL d   1      -1.934   3.527  -4.835  0.00  0.00    -0.005 A 
ATOM      6  C5  UNL d   1      -2.480   3.101  -3.619  0.00  0.00    -0.074 A 
ATOM      7  C6  UNL d   1      -1.672   3.136  -2.356  0.00  0.00     0.077 C 
ATOM      8  C7  UNL d   1      -3.807   2.651  -3.588  0.00  0.00    -0.001 A 
ENDROOT
TORSDOF 0
ENDMDL
