MODEL 1
REMARK minimizedAffinity 0.068259351
REMARK minimizedRMSD -1
REMARK  0 active torsions:
REMARK  status: ('A' for Active; 'I' for Inactive)
ROOT
ATOM      1  C   UNL d   1      -5.959   0.682  -0.349  0.00  0.00     0.077 C 
ATOM      2  C1  UNL d   1      -5.411   1.203  -1.645  0.00  0.00    -0.074 A 
ATOM      3  C2  UNL d   1      -5.897   2.388  -2.206  0.00  0.00    -0.005 A 
ATOM      4  C3  UNL d   1      -5.372   2.865  -3.407  0.00  0.00     0.006 A 
ATOM      5  C4  UNL d   1      -4.356   2.163  -4.057  0.00  0.00    -0.005 A 
ATOM      6  C5  UNL d   1      -3.857   0.977  -3.511  0.00  0.00    -0.074 A 
ATOM      7  C6  UNL d   1      -2.759   0.215  -4.192  0.00  0.00     0.077 C 
ATOM      8  C7  UNL d   1      -4.385   0.508  -2.301  0.00  0.00    -0.001 A 
ENDROOT
TORSDOF 0
ENDMDL
