MODEL 1
REMARK minimizedAffinity 0.492109239
REMARK minimizedRMSD -1
REMARK  0 active torsions:
REMARK  status: ('A' for Active; 'I' for Inactive)
ROOT
ATOM      1  C   UNL d   1      -5.624   3.122  -3.930  0.00  0.00     0.077 C 
ATOM      2  C1  UNL d   1      -4.808   1.926  -3.539  0.00  0.00    -0.074 A 
ATOM      3  C2  UNL d   1      -3.738   1.497  -4.331  0.00  0.00    -0.005 A 
ATOM      4  C3  UNL d   1      -2.982   0.388  -3.950  0.00  0.00     0.006 A 
ATOM      5  C4  UNL d   1      -3.287  -0.301  -2.776  0.00  0.00    -0.005 A 
ATOM      6  C5  UNL d   1      -4.352   0.115  -1.971  0.00  0.00    -0.074 A 
ATOM      7  C6  UNL d   1      -4.688  -0.608  -0.700  0.00  0.00     0.077 C 
ATOM      8  C7  UNL d   1      -5.103   1.234  -2.357  0.00  0.00    -0.001 A 
ENDROOT
TORSDOF 0
ENDMDL
