MODEL 1
REMARK minimizedAffinity 1.12496471
REMARK minimizedRMSD -1
REMARK  0 active torsions:
REMARK  status: ('A' for Active; 'I' for Inactive)
ROOT
ATOM      1  C   UNL d   1      -2.280   3.502  -3.619  0.00  0.00     0.077 C 
ATOM      2  C1  UNL d   1      -3.362   2.464  -3.570  0.00  0.00    -0.074 A 
ATOM      3  C2  UNL d   1      -4.167   2.212  -4.685  0.00  0.00    -0.005 A 
ATOM      4  C3  UNL d   1      -5.163   1.238  -4.628  0.00  0.00     0.006 A 
ATOM      5  C4  UNL d   1      -5.364   0.507  -3.456  0.00  0.00    -0.005 A 
ATOM      6  C5  UNL d   1      -4.568   0.744  -2.331  0.00  0.00    -0.074 A 
ATOM      7  C6  UNL d   1      -4.764  -0.040  -1.068  0.00  0.00     0.077 C 
ATOM      8  C7  UNL d   1      -3.565   1.720  -2.399  0.00  0.00    -0.001 A 
ENDROOT
TORSDOF 0
ENDMDL
