MODEL 1
REMARK minimizedAffinity 1.74828351
REMARK minimizedRMSD -1
REMARK  0 active torsions:
REMARK  status: ('A' for Active; 'I' for Inactive)
ROOT
ATOM      1  C   UNL d   1       5.789   1.795   0.079  0.00  0.00     0.077 C 
ATOM      2  C1  UNL d   1       4.359   1.344   0.082  0.00  0.00    -0.074 A 
ATOM      3  C2  UNL d   1       3.869   0.499  -0.919  0.00  0.00    -0.005 A 
ATOM      4  C3  UNL d   1       2.539   0.080  -0.898  0.00  0.00     0.006 A 
ATOM      5  C4  UNL d   1       1.686   0.502   0.123  0.00  0.00    -0.005 A 
ATOM      6  C5  UNL d   1       2.158   1.346   1.133  0.00  0.00    -0.074 A 
ATOM      7  C6  UNL d   1       1.257   1.800   2.243  0.00  0.00     0.077 C 
ATOM      8  C7  UNL d   1       3.498   1.757   1.109  0.00  0.00    -0.001 A 
ENDROOT
TORSDOF 0
ENDMDL
