MODEL 1
REMARK minimizedAffinity -1.3921361
REMARK minimizedRMSD -1
REMARK  0 active torsions:
REMARK  status: ('A' for Active; 'I' for Inactive)
ROOT
ATOM      1  C   UNL d   1      -4.610   3.865  -1.948  0.00  0.00     0.077 C 
ATOM      2  C1  UNL d   1      -4.200   2.688  -2.783  0.00  0.00    -0.074 A 
ATOM      3  C2  UNL d   1      -2.850   2.416  -3.028  0.00  0.00    -0.005 A 
ATOM      4  C3  UNL d   1      -2.484   1.313  -3.799  0.00  0.00     0.006 A 
ATOM      5  C4  UNL d   1      -3.462   0.473  -4.333  0.00  0.00    -0.005 A 
ATOM      6  C5  UNL d   1      -4.817   0.729  -4.098  0.00  0.00    -0.074 A 
ATOM      7  C6  UNL d   1      -5.880  -0.170  -4.655  0.00  0.00     0.077 C 
ATOM      8  C7  UNL d   1      -5.176   1.835  -3.316  0.00  0.00    -0.001 A 
ENDROOT
TORSDOF 0
ENDMDL
