MODEL 1
REMARK minimizedAffinity 0.652436078
REMARK minimizedRMSD -1
REMARK  0 active torsions:
REMARK  status: ('A' for Active; 'I' for Inactive)
ROOT
ATOM      1  C   UNL d   1      -2.063   0.747  -2.422  0.00  0.00     0.077 C 
ATOM      2  C1  UNL d   1      -3.306   1.331  -3.025  0.00  0.00    -0.074 A 
ATOM      3  C2  UNL d   1      -3.729   2.622  -2.691  0.00  0.00    -0.005 A 
ATOM      4  C3  UNL d   1      -4.882   3.156  -3.267  0.00  0.00     0.006 A 
ATOM      5  C4  UNL d   1      -5.622   2.405  -4.181  0.00  0.00    -0.005 A 
ATOM      6  C5  UNL d   1      -5.214   1.113  -4.528  0.00  0.00    -0.074 A 
ATOM      7  C6  UNL d   1      -5.993   0.297  -5.516  0.00  0.00     0.077 C 
ATOM      8  C7  UNL d   1      -4.051   0.587  -3.950  0.00  0.00    -0.001 A 
ENDROOT
TORSDOF 0
ENDMDL
