MODEL 1
REMARK minimizedAffinity -5.41987896
REMARK minimizedRMSD -1
REMARK  3 active torsions:
REMARK  status: ('A' for Active; 'I' for Inactive)
REMARK    1  A    between atoms: C3'_2  and  C2'_3 
REMARK    2  A    between atoms: C2'_3  and  C1'_4 
REMARK    3  A    between atoms: C1'_4  and  C1_5 
ROOT
ATOM      1  C1  N4B d   1       3.287  -0.086  -5.077  0.00  0.00    -0.075 A 
ATOM      2  C2  N4B d   1       3.808   1.082  -5.677  0.00  0.00     0.002 A 
ATOM      3  C3  N4B d   1       5.157   1.332  -5.635  0.00  0.00     0.002 A 
ATOM      4  C4  N4B d   1       6.000   0.442  -4.986  0.00  0.00    -0.004 A 
ATOM      5  C5  N4B d   1       5.492  -0.696  -4.431  0.00  0.00     0.002 A 
ATOM      6  C6  N4B d   1       4.138  -0.962  -4.468  0.00  0.00     0.002 A 
ENDROOT
BRANCH   1   7
ATOM      7  C1' N4B d   1       1.809  -0.359  -5.022  0.00  0.00     0.057 C 
BRANCH   7   8
ATOM      8  C2' N4B d   1       1.395  -0.586  -3.571  0.00  0.00     0.009 C 
BRANCH   8   9
ATOM      9  C3' N4B d   1       1.796   0.575  -2.677  0.00  0.00     0.004 C 
ATOM     10  C4' N4B d   1       0.831   1.721  -2.745  0.00  0.00     0.003 C 
ENDBRANCH   8   9
ENDBRANCH   7   8
ENDBRANCH   1   7
TORSDOF 3
ENDMDL
