MODEL 1
REMARK minimizedAffinity 2.85658693
REMARK minimizedRMSD -1
REMARK  3 active torsions:
REMARK  status: ('A' for Active; 'I' for Inactive)
REMARK    1  A    between atoms: C3'_2  and  C2'_3 
REMARK    2  A    between atoms: C2'_3  and  C1'_4 
REMARK    3  A    between atoms: C1'_4  and  C1_5 
ROOT
ATOM      1  C1  N4B d   1      -2.771  -0.138   1.210  0.00  0.00    -0.075 A 
ATOM      2  C2  N4B d   1      -2.976  -1.388   1.835  0.00  0.00     0.002 A 
ATOM      3  C3  N4B d   1      -2.990  -1.476   3.205  0.00  0.00     0.002 A 
ATOM      4  C4  N4B d   1      -2.782  -0.336   3.968  0.00  0.00    -0.004 A 
ATOM      5  C5  N4B d   1      -2.609   0.871   3.357  0.00  0.00     0.002 A 
ATOM      6  C6  N4B d   1      -2.597   0.975   1.980  0.00  0.00     0.002 A 
ENDROOT
BRANCH   1   7
ATOM      7  C1' N4B d   1      -2.662  -0.006  -0.285  0.00  0.00     0.057 C 
BRANCH   7   8
ATOM      8  C2' N4B d   1      -1.508   0.933  -0.622  0.00  0.00     0.009 C 
BRANCH   8   9
ATOM      9  C3' N4B d   1      -0.427   0.237  -1.432  0.00  0.00     0.004 C 
ATOM     10  C4' N4B d   1       0.331   1.178  -2.319  0.00  0.00     0.003 C 
ENDBRANCH   8   9
ENDBRANCH   7   8
ENDBRANCH   1   7
TORSDOF 3
ENDMDL
