MODEL 1
REMARK minimizedAffinity -2.53837156
REMARK minimizedRMSD -1
REMARK  3 active torsions:
REMARK  status: ('A' for Active; 'I' for Inactive)
REMARK    1  A    between atoms: C3'_2  and  C2'_3 
REMARK    2  A    between atoms: C2'_3  and  C1'_4 
REMARK    3  A    between atoms: C1'_4  and  C1_5 
ROOT
ATOM      1  C1  N4B d   1       3.871   1.004  -4.180  0.00  0.00    -0.075 A 
ATOM      2  C2  N4B d   1       3.746   2.068  -5.100  0.00  0.00     0.002 A 
ATOM      3  C3  N4B d   1       4.753   2.320  -5.999  0.00  0.00     0.002 A 
ATOM      4  C4  N4B d   1       5.898   1.537  -5.985  0.00  0.00    -0.004 A 
ATOM      5  C5  N4B d   1       6.000   0.495  -5.110  0.00  0.00     0.002 A 
ATOM      6  C6  N4B d   1       4.994   0.228  -4.203  0.00  0.00     0.002 A 
ENDROOT
BRANCH   1   7
ATOM      7  C1' N4B d   1       2.835   0.743  -3.122  0.00  0.00     0.057 C 
BRANCH   7   8
ATOM      8  C2' N4B d   1       1.445   0.910  -3.730  0.00  0.00     0.009 C 
BRANCH   8   9
ATOM      9  C3' N4B d   1       0.406   1.272  -2.683  0.00  0.00     0.004 C 
ATOM     10  C4' N4B d   1       0.771   2.501  -1.905  0.00  0.00     0.003 C 
ENDBRANCH   8   9
ENDBRANCH   7   8
ENDBRANCH   1   7
TORSDOF 3
ENDMDL
