MODEL 1
REMARK minimizedAffinity -2.1908195
REMARK minimizedRMSD -1
REMARK  3 active torsions:
REMARK  status: ('A' for Active; 'I' for Inactive)
REMARK    1  A    between atoms: C3'_2  and  C2'_3 
REMARK    2  A    between atoms: C2'_3  and  C1'_4 
REMARK    3  A    between atoms: C1'_4  and  C1_5 
ROOT
ATOM      1  C1  N4B d   1      -2.771   0.598   1.237  0.00  0.00    -0.075 A 
ATOM      2  C2  N4B d   1      -2.267  -0.721   1.236  0.00  0.00     0.002 A 
ATOM      3  C3  N4B d   1      -2.457  -1.529   2.331  0.00  0.00     0.002 A 
ATOM      4  C4  N4B d   1      -3.127  -1.035   3.440  0.00  0.00    -0.004 A 
ATOM      5  C5  N4B d   1      -3.632   0.232   3.423  0.00  0.00     0.002 A 
ATOM      6  C6  N4B d   1      -3.453   1.054   2.328  0.00  0.00     0.002 A 
ENDROOT
BRANCH   1   7
ATOM      7  C1' N4B d   1      -2.514   1.547   0.098  0.00  0.00     0.057 C 
BRANCH   7   8
ATOM      8  C2' N4B d   1      -2.850   2.967   0.543  0.00  0.00     0.009 C 
BRANCH   8   9
ATOM      9  C3' N4B d   1      -3.801   3.655  -0.421  0.00  0.00     0.004 C 
ATOM     10  C4' N4B d   1      -4.022   5.100  -0.087  0.00  0.00     0.003 C 
ENDBRANCH   8   9
ENDBRANCH   7   8
ENDBRANCH   1   7
TORSDOF 3
ENDMDL
