MODEL 1
REMARK minimizedAffinity 1.43413544
REMARK minimizedRMSD -1
REMARK  3 active torsions:
REMARK  status: ('A' for Active; 'I' for Inactive)
REMARK    1  A    between atoms: C3'_2  and  C2'_3 
REMARK    2  A    between atoms: C2'_3  and  C1'_4 
REMARK    3  A    between atoms: C1'_4  and  C1_5 
ROOT
ATOM      1  C1  N4B d   1       3.903  -0.830   3.305  0.00  0.00    -0.075 A 
ATOM      2  C2  N4B d   1       3.563   0.089   2.288  0.00  0.00     0.002 A 
ATOM      3  C3  N4B d   1       4.219   1.293   2.205  0.00  0.00     0.002 A 
ATOM      4  C4  N4B d   1       5.199   1.606   3.135  0.00  0.00    -0.004 A 
ATOM      5  C5  N4B d   1       5.538   0.702   4.098  0.00  0.00     0.002 A 
ATOM      6  C6  N4B d   1       4.891  -0.513   4.192  0.00  0.00     0.002 A 
ENDROOT
BRANCH   1   7
ATOM      7  C1' N4B d   1       3.155  -2.123   3.489  0.00  0.00     0.057 C 
BRANCH   7   8
ATOM      8  C2' N4B d   1       2.685  -2.627   2.128  0.00  0.00     0.009 C 
BRANCH   8   9
ATOM      9  C3' N4B d   1       1.960  -3.958   2.234  0.00  0.00     0.004 C 
ATOM     10  C4' N4B d   1       0.971  -4.170   1.127  0.00  0.00     0.003 C 
ENDBRANCH   8   9
ENDBRANCH   7   8
ENDBRANCH   1   7
TORSDOF 3
ENDMDL
