MODEL 1
REMARK minimizedAffinity 8.25578117
REMARK minimizedRMSD -1
REMARK  3 active torsions:
REMARK  status: ('A' for Active; 'I' for Inactive)
REMARK    1  A    between atoms: C3'_2  and  C2'_3 
REMARK    2  A    between atoms: C2'_3  and  C1'_4 
REMARK    3  A    between atoms: C1'_4  and  C1_5 
ROOT
ATOM      1  C1  N4B d   1       5.040   0.491   4.527  0.00  0.00    -0.075 A 
ATOM      2  C2  N4B d   1       3.838   0.447   5.267  0.00  0.00     0.002 A 
ATOM      3  C3  N4B d   1       2.951  -0.584   5.077  0.00  0.00     0.002 A 
ATOM      4  C4  N4B d   1       3.235  -1.569   4.142  0.00  0.00    -0.004 A 
ATOM      5  C5  N4B d   1       4.410  -1.533   3.450  0.00  0.00     0.002 A 
ATOM      6  C6  N4B d   1       5.312  -0.505   3.634  0.00  0.00     0.002 A 
ENDROOT
BRANCH   1   7
ATOM      7  C1' N4B d   1       6.000   1.643   4.639  0.00  0.00     0.057 C 
BRANCH   7   8
ATOM      8  C2' N4B d   1       5.615   2.715   3.624  0.00  0.00     0.009 C 
BRANCH   8   9
ATOM      9  C3' N4B d   1       4.427   2.295   2.775  0.00  0.00     0.004 C 
ATOM     10  C4' N4B d   1       3.690   3.462   2.189  0.00  0.00     0.003 C 
ENDBRANCH   8   9
ENDBRANCH   7   8
ENDBRANCH   1   7
TORSDOF 3
ENDMDL
