MODEL 1
REMARK minimizedAffinity -2.79241061
REMARK minimizedRMSD -1
REMARK  3 active torsions:
REMARK  status: ('A' for Active; 'I' for Inactive)
REMARK    1  A    between atoms: C3'_2  and  C2'_3 
REMARK    2  A    between atoms: C2'_3  and  C1'_4 
REMARK    3  A    between atoms: C1'_4  and  C1_5 
ROOT
ATOM      1  C1  N4B d   1      -2.600   0.415   1.034  0.00  0.00    -0.075 A 
ATOM      2  C2  N4B d   1      -2.236   1.216   2.138  0.00  0.00     0.002 A 
ATOM      3  C3  N4B d   1      -2.610   0.847   3.407  0.00  0.00     0.002 A 
ATOM      4  C4  N4B d   1      -3.361  -0.305   3.593  0.00  0.00    -0.004 A 
ATOM      5  C5  N4B d   1      -3.686  -1.087   2.523  0.00  0.00     0.002 A 
ATOM      6  C6  N4B d   1      -3.314  -0.730   1.243  0.00  0.00     0.002 A 
ENDROOT
BRANCH   1   7
ATOM      7  C1' N4B d   1      -2.288   0.823  -0.380  0.00  0.00     0.057 C 
BRANCH   7   8
ATOM      8  C2' N4B d   1      -0.777   0.973  -0.536  0.00  0.00     0.009 C 
BRANCH   8   9
ATOM      9  C3' N4B d   1      -0.284   0.415  -1.860  0.00  0.00     0.004 C 
ATOM     10  C4' N4B d   1       0.437   1.435  -2.689  0.00  0.00     0.003 C 
ENDBRANCH   8   9
ENDBRANCH   7   8
ENDBRANCH   1   7
TORSDOF 3
ENDMDL
