MODEL 1
REMARK minimizedAffinity 11.0474253
REMARK minimizedRMSD -1
REMARK  3 active torsions:
REMARK  status: ('A' for Active; 'I' for Inactive)
REMARK    1  A    between atoms: C3'_2  and  C2'_3 
REMARK    2  A    between atoms: C2'_3  and  C1'_4 
REMARK    3  A    between atoms: C1'_4  and  C1_5 
ROOT
ATOM      1  C1  N4B d   1      -3.521  -5.620  -0.016  0.00  0.00    -0.075 A 
ATOM      2  C2  N4B d   1      -3.228  -5.598   1.365  0.00  0.00     0.002 A 
ATOM      3  C3  N4B d   1      -4.238  -5.749   2.284  0.00  0.00     0.002 A 
ATOM      4  C4  N4B d   1      -5.545  -5.905   1.847  0.00  0.00    -0.004 A 
ATOM      5  C5  N4B d   1      -5.816  -5.951   0.511  0.00  0.00     0.002 A 
ATOM      6  C6  N4B d   1      -4.810  -5.804  -0.424  0.00  0.00     0.002 A 
ENDROOT
BRANCH   1   7
ATOM      7  C1' N4B d   1      -2.463  -5.373  -1.056  0.00  0.00     0.057 C 
BRANCH   7   8
ATOM      8  C2' N4B d   1      -1.746  -4.064  -0.740  0.00  0.00     0.009 C 
BRANCH   8   9
ATOM      9  C3' N4B d   1      -1.252  -3.369  -1.997  0.00  0.00     0.004 C 
ATOM     10  C4' N4B d   1       0.214  -3.573  -2.237  0.00  0.00     0.003 C 
ENDBRANCH   8   9
ENDBRANCH   7   8
ENDBRANCH   1   7
TORSDOF 3
ENDMDL
