MODEL 1
REMARK minimizedAffinity 4.51359463
REMARK minimizedRMSD -1
REMARK  3 active torsions:
REMARK  status: ('A' for Active; 'I' for Inactive)
REMARK    1  A    between atoms: C3'_2  and  C2'_3 
REMARK    2  A    between atoms: C2'_3  and  C1'_4 
REMARK    3  A    between atoms: C1'_4  and  C1_5 
ROOT
ATOM      1  C1  N4B d   1      -2.683  -0.051   0.724  0.00  0.00    -0.075 A 
ATOM      2  C2  N4B d   1      -3.010  -1.151   1.547  0.00  0.00     0.002 A 
ATOM      3  C3  N4B d   1      -3.261  -0.957   2.884  0.00  0.00     0.002 A 
ATOM      4  C4  N4B d   1      -3.172   0.319   3.420  0.00  0.00    -0.004 A 
ATOM      5  C5  N4B d   1      -2.881   1.380   2.612  0.00  0.00     0.002 A 
ATOM      6  C6  N4B d   1      -2.631   1.200   1.267  0.00  0.00     0.002 A 
ENDROOT
BRANCH   1   7
ATOM      7  C1' N4B d   1      -2.317  -0.225  -0.725  0.00  0.00     0.057 C 
BRANCH   7   8
ATOM      8  C2' N4B d   1      -1.176   0.727  -1.071  0.00  0.00     0.009 C 
BRANCH   8   9
ATOM      9  C3' N4B d   1      -0.062   0.026  -1.830  0.00  0.00     0.004 C 
ATOM     10  C4' N4B d   1       0.726   0.961  -2.698  0.00  0.00     0.003 C 
ENDBRANCH   8   9
ENDBRANCH   7   8
ENDBRANCH   1   7
TORSDOF 3
ENDMDL
