MODEL 1
REMARK minimizedAffinity -0.132902026
REMARK minimizedRMSD -1
REMARK  3 active torsions:
REMARK  status: ('A' for Active; 'I' for Inactive)
REMARK    1  A    between atoms: C3'_2  and  C2'_3 
REMARK    2  A    between atoms: C2'_3  and  C1'_4 
REMARK    3  A    between atoms: C1'_4  and  C1_5 
ROOT
ATOM      1  C1  N4B d   1      -2.281   2.662   0.011  0.00  0.00    -0.075 A 
ATOM      2  C2  N4B d   1      -2.692   3.765  -0.769  0.00  0.00     0.002 A 
ATOM      3  C3  N4B d   1      -3.432   4.772  -0.198  0.00  0.00     0.002 A 
ATOM      4  C4  N4B d   1      -3.787   4.688   1.140  0.00  0.00    -0.004 A 
ATOM      5  C5  N4B d   1      -3.364   3.632   1.892  0.00  0.00     0.002 A 
ATOM      6  C6  N4B d   1      -2.617   2.615   1.333  0.00  0.00     0.002 A 
ENDROOT
BRANCH   1   7
ATOM      7  C1' N4B d   1      -1.544   1.496  -0.589  0.00  0.00     0.057 C 
BRANCH   7   8
ATOM      8  C2' N4B d   1      -0.341   2.013  -1.372  0.00  0.00     0.009 C 
BRANCH   8   9
ATOM      9  C3' N4B d   1       0.266   0.937  -2.256  0.00  0.00     0.004 C 
ATOM     10  C4' N4B d   1       0.572   1.427  -3.640  0.00  0.00     0.003 C 
ENDBRANCH   8   9
ENDBRANCH   7   8
ENDBRANCH   1   7
TORSDOF 3
ENDMDL
