MODEL 1
REMARK minimizedAffinity 2.69030285
REMARK minimizedRMSD -1
REMARK  3 active torsions:
REMARK  status: ('A' for Active; 'I' for Inactive)
REMARK    1  A    between atoms: C3'_2  and  C2'_3 
REMARK    2  A    between atoms: C2'_3  and  C1'_4 
REMARK    3  A    between atoms: C1'_4  and  C1_5 
ROOT
ATOM      1  C1  N4B d   1      -3.851  -0.756   0.863  0.00  0.00    -0.075 A 
ATOM      2  C2  N4B d   1      -3.404  -0.771  -0.477  0.00  0.00     0.002 A 
ATOM      3  C3  N4B d   1      -4.268  -0.440  -1.492  0.00  0.00     0.002 A 
ATOM      4  C4  N4B d   1      -5.582  -0.111  -1.195  0.00  0.00    -0.004 A 
ATOM      5  C5  N4B d   1      -5.998  -0.073   0.104  0.00  0.00     0.002 A 
ATOM      6  C6  N4B d   1      -5.140  -0.400   1.135  0.00  0.00     0.002 A 
ENDROOT
BRANCH   1   7
ATOM      7  C1' N4B d   1      -2.967  -1.193   1.999  0.00  0.00     0.057 C 
BRANCH   7   8
ATOM      8  C2' N4B d   1      -3.828  -1.448   3.233  0.00  0.00     0.009 C 
BRANCH   8   9
ATOM      9  C3' N4B d   1      -3.334  -0.671   4.441  0.00  0.00     0.004 C 
ATOM     10  C4' N4B d   1      -2.200   0.254   4.113  0.00  0.00     0.003 C 
ENDBRANCH   8   9
ENDBRANCH   7   8
ENDBRANCH   1   7
TORSDOF 3
ENDMDL
