MODEL 1
REMARK minimizedAffinity -3.82309031
REMARK minimizedRMSD -1
REMARK  1 active torsions:
REMARK  status: ('A' for Active; 'I' for Inactive)
REMARK    1  A    between atoms: C1_2  and  C2_3 
ROOT
ATOM      1  C2  UNL d   1      -1.155  -0.179  -0.879  0.00  0.00    -0.073 A 
ATOM      2  C3  UNL d   1      -2.367   0.082  -0.230  0.00  0.00    -0.002 A 
ATOM      3  C4  UNL d   1      -2.612  -0.436   1.042  0.00  0.00     0.004 A 
ATOM      4  C5  UNL d   1      -1.646  -1.214   1.681  0.00  0.00    -0.004 A 
ATOM      5  C6  UNL d   1      -0.424  -1.476   1.054  0.00  0.00    -0.075 A 
ATOM      6  C7  UNL d   1       0.625  -2.313   1.727  0.00  0.00     0.076 C 
ATOM      7  C8  UNL d   1      -0.186  -0.954  -0.225  0.00  0.00     0.001 A 
ENDROOT
BRANCH   1   8
ATOM      8  C1  UNL d   1      -0.883   0.384  -2.250  0.00  0.00     0.053 C 
ATOM      9  C   UNL d   1       0.486  -0.022  -2.772  0.00  0.00     0.018 C 
ENDBRANCH   1   8
TORSDOF 1
ENDMDL
