MODEL 1
REMARK minimizedAffinity -4.91087055
REMARK minimizedRMSD -1
REMARK  1 active torsions:
REMARK  status: ('A' for Active; 'I' for Inactive)
REMARK    1  A    between atoms: C1_2  and  C2_3 
ROOT
ATOM      1  C2  UNL d   1       0.382   0.091  -0.422  0.00  0.00    -0.073 A 
ATOM      2  C3  UNL d   1      -0.652   0.241  -1.353  0.00  0.00    -0.002 A 
ATOM      3  C4  UNL d   1      -1.850  -0.457  -1.194  0.00  0.00     0.004 A 
ATOM      4  C5  UNL d   1      -2.029  -1.304  -0.100  0.00  0.00    -0.004 A 
ATOM      5  C6  UNL d   1      -1.012  -1.457   0.847  0.00  0.00    -0.075 A 
ATOM      6  C7  UNL d   1      -1.187  -2.366   2.028  0.00  0.00     0.076 C 
ATOM      7  C8  UNL d   1       0.190  -0.755   0.679  0.00  0.00     0.001 A 
ENDROOT
BRANCH   1   8
ATOM      8  C1  UNL d   1       1.675   0.847  -0.587  0.00  0.00     0.053 C 
ATOM      9  C   UNL d   1       1.926   1.807   0.566  0.00  0.00     0.018 C 
ENDBRANCH   1   8
TORSDOF 1
ENDMDL
