MODEL 1
REMARK minimizedAffinity -4.34310484
REMARK minimizedRMSD -1
REMARK  1 active torsions:
REMARK  status: ('A' for Active; 'I' for Inactive)
REMARK    1  A    between atoms: C1_2  and  C2_3 
ROOT
ATOM      1  C2  UNL d   1      -0.959  -0.934  -0.264  0.00  0.00    -0.073 A 
ATOM      2  C3  UNL d   1      -0.762  -1.872   0.755  0.00  0.00    -0.002 A 
ATOM      3  C4  UNL d   1       0.501  -2.037   1.326  0.00  0.00     0.004 A 
ATOM      4  C5  UNL d   1       1.575  -1.262   0.891  0.00  0.00    -0.004 A 
ATOM      5  C6  UNL d   1       1.395  -0.310  -0.118  0.00  0.00    -0.075 A 
ATOM      6  C7  UNL d   1       2.541   0.530  -0.600  0.00  0.00     0.076 C 
ATOM      7  C8  UNL d   1       0.125  -0.152  -0.689  0.00  0.00     0.001 A 
ENDROOT
BRANCH   1   8
ATOM      8  C1  UNL d   1      -2.322  -0.748  -0.880  0.00  0.00     0.053 C 
ATOM      9  C   UNL d   1      -3.412  -0.629   0.173  0.00  0.00     0.018 C 
ENDBRANCH   1   8
TORSDOF 1
ENDMDL
