MODEL 1
REMARK minimizedAffinity -3.63307858
REMARK minimizedRMSD -1
REMARK  1 active torsions:
REMARK  status: ('A' for Active; 'I' for Inactive)
REMARK    1  A    between atoms: C1_2  and  C2_3 
ROOT
ATOM      1  C2  UNL d   1       0.358   0.084  -0.103  0.00  0.00    -0.073 A 
ATOM      2  C3  UNL d   1       0.582   0.246  -1.475  0.00  0.00    -0.002 A 
ATOM      3  C4  UNL d   1      -0.470   0.110  -2.381  0.00  0.00     0.004 A 
ATOM      4  C5  UNL d   1      -1.756  -0.181  -1.926  0.00  0.00    -0.004 A 
ATOM      5  C6  UNL d   1      -2.002  -0.335  -0.558  0.00  0.00    -0.075 A 
ATOM      6  C7  UNL d   1      -3.379  -0.652  -0.052  0.00  0.00     0.076 C 
ATOM      7  C8  UNL d   1      -0.939  -0.200   0.346  0.00  0.00     0.001 A 
ENDROOT
BRANCH   1   8
ATOM      8  C1  UNL d   1       1.490   0.236   0.880  0.00  0.00     0.053 C 
ATOM      9  C   UNL d   1       2.269   1.523   0.658  0.00  0.00     0.018 C 
ENDBRANCH   1   8
TORSDOF 1
ENDMDL
