MODEL 1
REMARK minimizedAffinity -5.64415741
REMARK minimizedRMSD -1
REMARK  1 active torsions:
REMARK  status: ('A' for Active; 'I' for Inactive)
REMARK    1  A    between atoms: C1_2  and  C2_3 
ROOT
ATOM      1  C2  UNL d   1       0.214   0.116  -0.153  0.00  0.00    -0.073 A 
ATOM      2  C3  UNL d   1       0.229   0.508  -1.497  0.00  0.00    -0.002 A 
ATOM      3  C4  UNL d   1      -0.949   0.504  -2.245  0.00  0.00     0.004 A 
ATOM      4  C5  UNL d   1      -2.153   0.116  -1.658  0.00  0.00    -0.004 A 
ATOM      5  C6  UNL d   1      -2.190  -0.268  -0.313  0.00  0.00    -0.075 A 
ATOM      6  C7  UNL d   1      -3.477  -0.690   0.333  0.00  0.00     0.076 C 
ATOM      7  C8  UNL d   1      -1.003  -0.264   0.431  0.00  0.00     0.001 A 
ENDROOT
BRANCH   1   8
ATOM      8  C1  UNL d   1       1.482   0.125   0.661  0.00  0.00     0.053 C 
ATOM      9  C   UNL d   1       2.118   1.505   0.711  0.00  0.00     0.018 C 
ENDBRANCH   1   8
TORSDOF 1
ENDMDL
