MODEL 1
REMARK minimizedAffinity -1.02897966
REMARK minimizedRMSD -1
REMARK  1 active torsions:
REMARK  status: ('A' for Active; 'I' for Inactive)
REMARK    1  A    between atoms: C1_2  and  C2_3 
ROOT
ATOM      1  C2  UNL d   1       0.747   0.610   0.020  0.00  0.00    -0.073 A 
ATOM      2  C3  UNL d   1       1.070   0.730  -1.336  0.00  0.00    -0.002 A 
ATOM      3  C4  UNL d   1       0.199   0.246  -2.313  0.00  0.00     0.004 A 
ATOM      4  C5  UNL d   1      -1.005  -0.355  -1.945  0.00  0.00    -0.004 A 
ATOM      5  C6  UNL d   1      -1.351  -0.473  -0.595  0.00  0.00    -0.075 A 
ATOM      6  C7  UNL d   1      -2.641  -1.119  -0.183  0.00  0.00     0.076 C 
ATOM      7  C8  UNL d   1      -0.469   0.013   0.380  0.00  0.00     0.001 A 
ENDROOT
BRANCH   1   8
ATOM      8  C1  UNL d   1       1.682   1.136   1.079  0.00  0.00     0.053 C 
ATOM      9  C   UNL d   1       2.727   2.076   0.500  0.00  0.00     0.018 C 
ENDBRANCH   1   8
TORSDOF 1
ENDMDL
