MODEL 1
REMARK minimizedAffinity -3.25727415
REMARK minimizedRMSD -1
REMARK  1 active torsions:
REMARK  status: ('A' for Active; 'I' for Inactive)
REMARK    1  A    between atoms: C1_2  and  C2_3 
ROOT
ATOM      1  C2  UNL d   1      -0.669   0.478  -1.375  0.00  0.00    -0.073 A 
ATOM      2  C3  UNL d   1       0.279   0.326  -0.357  0.00  0.00    -0.002 A 
ATOM      3  C4  UNL d   1      -0.075  -0.274   0.852  0.00  0.00     0.004 A 
ATOM      4  C5  UNL d   1      -1.377  -0.732   1.054  0.00  0.00    -0.004 A 
ATOM      5  C6  UNL d   1      -2.336  -0.599   0.044  0.00  0.00    -0.075 A 
ATOM      6  C7  UNL d   1      -3.741  -1.085   0.246  0.00  0.00     0.076 C 
ATOM      7  C8  UNL d   1      -1.973   0.006  -1.166  0.00  0.00     0.001 A 
ENDROOT
BRANCH   1   8
ATOM      8  C1  UNL d   1      -0.289   1.119  -2.685  0.00  0.00     0.053 C 
ATOM      9  C   UNL d   1       0.857   0.388  -3.366  0.00  0.00     0.018 C 
ENDBRANCH   1   8
TORSDOF 1
ENDMDL
