MODEL 1
REMARK minimizedAffinity -3.77335501
REMARK minimizedRMSD -1
REMARK  1 active torsions:
REMARK  status: ('A' for Active; 'I' for Inactive)
REMARK    1  A    between atoms: C1_2  and  C2_3 
ROOT
ATOM      1  C2  UNL d   1       0.450   0.117   0.185  0.00  0.00    -0.073 A 
ATOM      2  C3  UNL d   1       0.700   0.487  -1.142  0.00  0.00    -0.002 A 
ATOM      3  C4  UNL d   1      -0.314   0.413  -2.098  0.00  0.00     0.004 A 
ATOM      4  C5  UNL d   1      -1.588  -0.024  -1.737  0.00  0.00    -0.004 A 
ATOM      5  C6  UNL d   1      -1.861  -0.387  -0.414  0.00  0.00    -0.075 A 
ATOM      6  C7  UNL d   1      -3.226  -0.862  -0.011  0.00  0.00     0.076 C 
ATOM      7  C8  UNL d   1      -0.837  -0.313   0.539  0.00  0.00     0.001 A 
ENDROOT
BRANCH   1   8
ATOM      8  C1  UNL d   1       1.540   0.201   1.222  0.00  0.00     0.053 C 
ATOM      9  C   UNL d   1       2.454   1.393   0.992  0.00  0.00     0.018 C 
ENDBRANCH   1   8
TORSDOF 1
ENDMDL
