MODEL 1
REMARK minimizedAffinity -3.46143103
REMARK minimizedRMSD -1
REMARK  1 active torsions:
REMARK  status: ('A' for Active; 'I' for Inactive)
REMARK    1  A    between atoms: C1_2  and  C2_3 
ROOT
ATOM      1  C2  UNL d   1       0.414   0.242   0.513  0.00  0.00    -0.073 A 
ATOM      2  C3  UNL d   1       0.798   0.426  -0.820  0.00  0.00    -0.002 A 
ATOM      3  C4  UNL d   1      -0.129   0.261  -1.850  0.00  0.00     0.004 A 
ATOM      4  C5  UNL d   1      -1.449  -0.082  -1.559  0.00  0.00    -0.004 A 
ATOM      5  C6  UNL d   1      -1.855  -0.259  -0.232  0.00  0.00    -0.075 A 
ATOM      6  C7  UNL d   1      -3.271  -0.631   0.098  0.00  0.00     0.076 C 
ATOM      7  C8  UNL d   1      -0.918  -0.094   0.797  0.00  0.00     0.001 A 
ENDROOT
BRANCH   1   8
ATOM      8  C1  UNL d   1       1.409   0.426   1.629  0.00  0.00     0.053 C 
ATOM      9  C   UNL d   1       1.824   1.880   1.789  0.00  0.00     0.018 C 
ENDBRANCH   1   8
TORSDOF 1
ENDMDL
