MODEL 1
REMARK minimizedAffinity -3.99122715
REMARK minimizedRMSD -1
REMARK  1 active torsions:
REMARK  status: ('A' for Active; 'I' for Inactive)
REMARK    1  A    between atoms: C1_2  and  C2_3 
ROOT
ATOM      1  C2  UNL d   1       0.398  -0.034   0.092  0.00  0.00    -0.073 A 
ATOM      2  C3  UNL d   1       0.671   0.498  -1.173  0.00  0.00    -0.002 A 
ATOM      3  C4  UNL d   1      -0.333   0.572  -2.139  0.00  0.00     0.004 A 
ATOM      4  C5  UNL d   1      -1.621   0.122  -1.848  0.00  0.00    -0.004 A 
ATOM      5  C6  UNL d   1      -1.917  -0.402  -0.586  0.00  0.00    -0.075 A 
ATOM      6  C7  UNL d   1      -3.297  -0.893  -0.258  0.00  0.00     0.076 C 
ATOM      7  C8  UNL d   1      -0.902  -0.475   0.378  0.00  0.00     0.001 A 
ENDROOT
BRANCH   1   8
ATOM      8  C1  UNL d   1       1.478  -0.110   1.140  0.00  0.00     0.053 C 
ATOM      9  C   UNL d   1       2.427   1.076   1.067  0.00  0.00     0.018 C 
ENDBRANCH   1   8
TORSDOF 1
ENDMDL
