MODEL 1
REMARK minimizedAffinity -0.762997508
REMARK minimizedRMSD -1
REMARK  1 active torsions:
REMARK  status: ('A' for Active; 'I' for Inactive)
REMARK    1  A    between atoms: C1_2  and  C2_3 
ROOT
ATOM      1  C2  UNL d   1      -0.215  -1.326   1.029  0.00  0.00    -0.073 A 
ATOM      2  C3  UNL d   1       0.604  -0.591   0.163  0.00  0.00    -0.002 A 
ATOM      3  C4  UNL d   1       0.039   0.204  -0.835  0.00  0.00     0.004 A 
ATOM      4  C5  UNL d   1      -1.347   0.279  -0.973  0.00  0.00    -0.004 A 
ATOM      5  C6  UNL d   1      -2.181  -0.438  -0.110  0.00  0.00    -0.075 A 
ATOM      6  C7  UNL d   1      -3.674  -0.370  -0.247  0.00  0.00     0.076 C 
ATOM      7  C8  UNL d   1      -1.607  -1.237   0.888  0.00  0.00     0.001 A 
ENDROOT
BRANCH   1   8
ATOM      8  C1  UNL d   1       0.390  -2.181   2.112  0.00  0.00     0.053 C 
ATOM      9  C   UNL d   1      -0.668  -2.945   2.893  0.00  0.00     0.018 C 
ENDBRANCH   1   8
TORSDOF 1
ENDMDL
