MODEL 1
REMARK minimizedAffinity 12.8687487
REMARK minimizedRMSD -1
REMARK  0 active torsions:
REMARK  status: ('A' for Active; 'I' for Inactive)
ROOT
ATOM      1  C   UNL d   1      -3.671  -2.983  -0.006  0.00  0.00     0.023 A 
ATOM      2  C1  UNL d   1      -2.524  -3.028  -0.799  0.00  0.00     0.003 A 
ATOM      3  C2  UNL d   1      -1.399  -2.280  -0.445  0.00  0.00     0.048 A 
ATOM      4  C3  UNL d   1      -1.428  -1.490   0.704  0.00  0.00     0.023 A 
ATOM      5  C4  UNL d   1      -2.573  -1.442   1.501  0.00  0.00     0.048 A 
ATOM      6  C5  UNL d   1      -3.696  -2.191   1.142  0.00  0.00     0.003 A 
ATOM      7  I   UNL d   1       0.245  -0.376   1.233  0.00  0.00    -0.146 I 
ENDROOT
TORSDOF 0
ENDMDL
