MODEL 1
REMARK minimizedAffinity 19.977356
REMARK minimizedRMSD -1
REMARK  0 active torsions:
REMARK  status: ('A' for Active; 'I' for Inactive)
ROOT
ATOM      1  C   UNL d   1      -0.575   1.577  -4.154  0.00  0.00     0.023 A 
ATOM      2  C1  UNL d   1       0.426   2.542  -4.043  0.00  0.00     0.003 A 
ATOM      3  C2  UNL d   1       0.122   3.812  -3.548  0.00  0.00     0.048 A 
ATOM      4  C3  UNL d   1      -1.186   4.109  -3.166  0.00  0.00     0.023 A 
ATOM      5  C4  UNL d   1      -2.191   3.146  -3.275  0.00  0.00     0.048 A 
ATOM      6  C5  UNL d   1      -1.882   1.879  -3.771  0.00  0.00     0.003 A 
ATOM      7  I   UNL d   1      -1.642   5.999  -2.429  0.00  0.00    -0.146 I 
ENDROOT
TORSDOF 0
ENDMDL
