MODEL 1
REMARK minimizedAffinity 5.0436945
REMARK minimizedRMSD -1
REMARK  0 active torsions:
REMARK  status: ('A' for Active; 'I' for Inactive)
ROOT
ATOM      1  C   UNL d   1      -1.546  -1.918   1.566  0.00  0.00     0.023 A 
ATOM      2  C1  UNL d   1      -1.035  -1.301   2.708  0.00  0.00     0.003 A 
ATOM      3  C2  UNL d   1       0.252  -0.758   2.693  0.00  0.00     0.048 A 
ATOM      4  C3  UNL d   1       1.021  -0.834   1.533  0.00  0.00     0.023 A 
ATOM      5  C4  UNL d   1       0.514  -1.449   0.388  0.00  0.00     0.048 A 
ATOM      6  C5  UNL d   1      -0.772  -1.992   0.407  0.00  0.00     0.003 A 
ATOM      7  I   UNL d   1       2.936  -0.026   1.509  0.00  0.00    -0.146 I 
ENDROOT
TORSDOF 0
ENDMDL
