MODEL 1
REMARK minimizedAffinity -0.800438583
REMARK minimizedRMSD -1
REMARK  0 active torsions:
REMARK  status: ('A' for Active; 'I' for Inactive)
ROOT
ATOM      1  C   UNL d   1       4.489  -5.883  -5.434  0.00  0.00     0.023 A 
ATOM      2  C1  UNL d   1       5.563  -5.702  -4.563  0.00  0.00     0.003 A 
ATOM      3  C2  UNL d   1       5.998  -4.414  -4.247  0.00  0.00     0.048 A 
ATOM      4  C3  UNL d   1       5.354  -3.310  -4.805  0.00  0.00     0.023 A 
ATOM      5  C4  UNL d   1       4.278  -3.486  -5.676  0.00  0.00     0.048 A 
ATOM      6  C5  UNL d   1       3.847  -4.777  -5.990  0.00  0.00     0.003 A 
ATOM      7  I   UNL d   1       6.000  -1.391  -4.336  0.00  0.00    -0.146 I 
ENDROOT
TORSDOF 0
ENDMDL
