MODEL 1
REMARK minimizedAffinity 5.08949471
REMARK minimizedRMSD -1
REMARK  0 active torsions:
REMARK  status: ('A' for Active; 'I' for Inactive)
ROOT
ATOM      1  C   UNL d   1       5.998  -5.936   4.704  0.00  0.00     0.023 A 
ATOM      2  C1  UNL d   1       5.336  -5.953   5.932  0.00  0.00     0.003 A 
ATOM      3  C2  UNL d   1       3.941  -5.970   5.974  0.00  0.00     0.048 A 
ATOM      4  C3  UNL d   1       3.213  -5.971   4.785  0.00  0.00     0.023 A 
ATOM      5  C4  UNL d   1       3.871  -5.955   3.554  0.00  0.00     0.048 A 
ATOM      6  C5  UNL d   1       5.266  -5.937   3.516  0.00  0.00     0.003 A 
ATOM      7  I   UNL d   1       1.135  -5.997   4.845  0.00  0.00    -0.146 I 
ENDROOT
TORSDOF 0
ENDMDL
