MODEL 1
REMARK minimizedAffinity 5.57544899
REMARK minimizedRMSD -1
REMARK  0 active torsions:
REMARK  status: ('A' for Active; 'I' for Inactive)
ROOT
ATOM      1  C   UNL d   1       2.081   0.980  -0.466  0.00  0.00     0.023 A 
ATOM      2  C1  UNL d   1       2.282  -0.378  -0.717  0.00  0.00     0.003 A 
ATOM      3  C2  UNL d   1       3.406  -0.798  -1.432  0.00  0.00     0.048 A 
ATOM      4  C3  UNL d   1       4.325   0.145  -1.891  0.00  0.00     0.023 A 
ATOM      5  C4  UNL d   1       4.128   1.504  -1.642  0.00  0.00     0.048 A 
ATOM      6  C5  UNL d   1       3.002   1.919  -0.927  0.00  0.00     0.003 A 
ATOM      7  I   UNL d   1       5.998  -0.478  -2.955  0.00  0.00    -0.146 I 
ENDROOT
TORSDOF 0
ENDMDL
