MODEL 1
REMARK minimizedAffinity 7.82143831
REMARK minimizedRMSD -1
REMARK  0 active torsions:
REMARK  status: ('A' for Active; 'I' for Inactive)
ROOT
ATOM      1  C   UNL d   1      -0.644   2.010  -4.710  0.00  0.00     0.023 A 
ATOM      2  C1  UNL d   1       0.483   2.707  -4.274  0.00  0.00     0.003 A 
ATOM      3  C2  UNL d   1       0.336   3.853  -3.489  0.00  0.00     0.048 A 
ATOM      4  C3  UNL d   1      -0.940   4.294  -3.142  0.00  0.00     0.023 A 
ATOM      5  C4  UNL d   1      -2.070   3.599  -3.575  0.00  0.00     0.048 A 
ATOM      6  C5  UNL d   1      -1.919   2.455  -4.361  0.00  0.00     0.003 A 
ATOM      7  I   UNL d   1      -1.161   5.999  -1.974  0.00  0.00    -0.146 I 
ENDROOT
TORSDOF 0
ENDMDL
