MODEL 1
REMARK minimizedAffinity 5.07628345
REMARK minimizedRMSD -1
REMARK  0 active torsions:
REMARK  status: ('A' for Active; 'I' for Inactive)
ROOT
ATOM      1  C   UNL d   1      -1.138  -1.614   1.305  0.00  0.00     0.023 A 
ATOM      2  C1  UNL d   1      -0.774  -0.274   1.441  0.00  0.00     0.003 A 
ATOM      3  C2  UNL d   1       0.566   0.071   1.631  0.00  0.00     0.048 A 
ATOM      4  C3  UNL d   1       1.536  -0.928   1.684  0.00  0.00     0.023 A 
ATOM      5  C4  UNL d   1       1.177  -2.270   1.548  0.00  0.00     0.048 A 
ATOM      6  C5  UNL d   1      -0.164  -2.611   1.359  0.00  0.00     0.003 A 
ATOM      7  I   UNL d   1       3.531  -0.417   1.968  0.00  0.00    -0.146 I 
ENDROOT
TORSDOF 0
ENDMDL
