MODEL 1
REMARK minimizedAffinity 13.3922787
REMARK minimizedRMSD -1
REMARK  0 active torsions:
REMARK  status: ('A' for Active; 'I' for Inactive)
ROOT
ATOM      1  C   UNL d   1      -0.494   1.921  -5.167  0.00  0.00     0.023 A 
ATOM      2  C1  UNL d   1       0.562   2.702  -4.697  0.00  0.00     0.003 A 
ATOM      3  C2  UNL d   1       0.306   3.801  -3.874  0.00  0.00     0.048 A 
ATOM      4  C3  UNL d   1      -1.007   4.112  -3.524  0.00  0.00     0.023 A 
ATOM      5  C4  UNL d   1      -2.067   3.333  -3.992  0.00  0.00     0.048 A 
ATOM      6  C5  UNL d   1      -1.806   2.236  -4.815  0.00  0.00     0.003 A 
ATOM      7  I   UNL d   1      -1.390   5.747  -2.299  0.00  0.00    -0.146 I 
ENDROOT
TORSDOF 0
ENDMDL
