MODEL 1
REMARK minimizedAffinity 3.97366428
REMARK minimizedRMSD -1
REMARK  0 active torsions:
REMARK  status: ('A' for Active; 'I' for Inactive)
ROOT
ATOM      1  C   UNL d   1       1.887   0.371  -0.388  0.00  0.00     0.023 A 
ATOM      2  C1  UNL d   1       2.364  -0.891  -0.741  0.00  0.00     0.003 A 
ATOM      3  C2  UNL d   1       3.544  -1.011  -1.478  0.00  0.00     0.048 A 
ATOM      4  C3  UNL d   1       4.243   0.135  -1.857  0.00  0.00     0.023 A 
ATOM      5  C4  UNL d   1       3.770   1.400  -1.504  0.00  0.00     0.048 A 
ATOM      6  C5  UNL d   1       2.589   1.515  -0.768  0.00  0.00     0.003 A 
ATOM      7  I   UNL d   1       6.000  -0.042  -2.953  0.00  0.00    -0.146 I 
ENDROOT
TORSDOF 0
ENDMDL
