MODEL 1
REMARK minimizedAffinity 4.2130065
REMARK minimizedRMSD -1
REMARK  0 active torsions:
REMARK  status: ('A' for Active; 'I' for Inactive)
ROOT
ATOM      1  C   UNL d   1      -1.421  -1.072   2.268  0.00  0.00     0.023 A 
ATOM      2  C1  UNL d   1      -0.768  -0.685   1.098  0.00  0.00     0.003 A 
ATOM      3  C2  UNL d   1       0.615  -0.489   1.100  0.00  0.00     0.048 A 
ATOM      4  C3  UNL d   1       1.339  -0.684   2.276  0.00  0.00     0.023 A 
ATOM      5  C4  UNL d   1       0.690  -1.072   3.449  0.00  0.00     0.048 A 
ATOM      6  C5  UNL d   1      -0.693  -1.265   3.443  0.00  0.00     0.003 A 
ATOM      7  I   UNL d   1       3.397  -0.393   2.281  0.00  0.00    -0.146 I 
ENDROOT
TORSDOF 0
ENDMDL
