MODEL 1
REMARK minimizedAffinity 8.02696419
REMARK minimizedRMSD -1
REMARK  0 active torsions:
REMARK  status: ('A' for Active; 'I' for Inactive)
ROOT
ATOM      1  C   UNL d   1      -0.743   1.711  -4.608  0.00  0.00     0.023 A 
ATOM      2  C1  UNL d   1       0.370   2.524  -4.388  0.00  0.00     0.003 A 
ATOM      3  C2  UNL d   1       0.221   3.755  -3.746  0.00  0.00     0.048 A 
ATOM      4  C3  UNL d   1      -1.043   4.167  -3.325  0.00  0.00     0.023 A 
ATOM      5  C4  UNL d   1      -2.159   3.357  -3.542  0.00  0.00     0.048 A 
ATOM      6  C5  UNL d   1      -2.006   2.128  -4.185  0.00  0.00     0.003 A 
ATOM      7  I   UNL d   1      -1.267   5.999  -2.369  0.00  0.00    -0.146 I 
ENDROOT
TORSDOF 0
ENDMDL
