MODEL 1
REMARK minimizedAffinity 7.72237253
REMARK minimizedRMSD -1
REMARK  0 active torsions:
REMARK  status: ('A' for Active; 'I' for Inactive)
ROOT
ATOM      1  C   UNL d   1      -0.998   2.133  -4.571  0.00  0.00     0.023 A 
ATOM      2  C1  UNL d   1      -0.028   2.963  -4.007  0.00  0.00     0.003 A 
ATOM      3  C2  UNL d   1      -0.411   4.066  -3.241  0.00  0.00     0.048 A 
ATOM      4  C3  UNL d   1      -1.765   4.333  -3.042  0.00  0.00     0.023 A 
ATOM      5  C4  UNL d   1      -2.739   3.505  -3.602  0.00  0.00     0.048 A 
ATOM      6  C5  UNL d   1      -2.351   2.403  -4.368  0.00  0.00     0.003 A 
ATOM      7  I   UNL d   1      -2.337   5.974  -1.902  0.00  0.00    -0.146 I 
ENDROOT
TORSDOF 0
ENDMDL
