MODEL 1
REMARK minimizedAffinity 8.74388885
REMARK minimizedRMSD -1
REMARK  0 active torsions:
REMARK  status: ('A' for Active; 'I' for Inactive)
ROOT
ATOM      1  C   UNL d   1      -1.439  -1.702   2.231  0.00  0.00     0.023 A 
ATOM      2  C1  UNL d   1      -0.734  -0.600   2.715  0.00  0.00     0.003 A 
ATOM      3  C2  UNL d   1       0.367  -0.110   2.010  0.00  0.00     0.048 A 
ATOM      4  C3  UNL d   1       0.756  -0.725   0.820  0.00  0.00     0.023 A 
ATOM      5  C4  UNL d   1       0.052  -1.827   0.331  0.00  0.00     0.048 A 
ATOM      6  C5  UNL d   1      -1.047  -2.314   1.041  0.00  0.00     0.003 A 
ATOM      7  I   UNL d   1       2.394   0.003  -0.232  0.00  0.00    -0.146 I 
ENDROOT
TORSDOF 0
ENDMDL
