MODEL 1
REMARK minimizedAffinity 0.406792611
REMARK minimizedRMSD -1
REMARK  0 active torsions:
REMARK  status: ('A' for Active; 'I' for Inactive)
ROOT
ATOM      1  N1  IND d   1      -2.117   1.247  -0.506  0.00  0.00    -0.196 N 
ATOM      2  C2  IND d   1      -1.437   0.306  -1.229  0.00  0.00     0.054 A 
ATOM      3  C3  IND d   1      -0.351  -0.119  -0.544  0.00  0.00    -0.031 A 
ATOM      4  C4  IND d   1       0.444   0.518   1.820  0.00  0.00     0.051 A 
ATOM      5  C5  IND d   1       0.170   1.365   2.857  0.00  0.00    -0.031 A 
ATOM      6  C6  IND d   1      -0.904   2.231   2.827  0.00  0.00     0.015 A 
ATOM      7  C7  IND d   1      -1.754   2.274   1.758  0.00  0.00    -0.016 A 
ATOM      8  C8  IND d   1      -1.475   1.421   0.700  0.00  0.00    -0.047 A 
ATOM      9  C9  IND d   1      -0.362   0.571   0.707  0.00  0.00    -0.096 A 
ATOM     10  HN1 IND d   1      -2.827   1.659  -0.762  0.00  0.00     0.298 HD
ENDROOT
TORSDOF 0
ENDMDL
