MODEL 1
REMARK minimizedAffinity -4.4242425
REMARK minimizedRMSD -1
REMARK  0 active torsions:
REMARK  status: ('A' for Active; 'I' for Inactive)
ROOT
ATOM      1  N1  IND d   1      -1.342   0.354  -0.745  0.00  0.00    -0.196 N 
ATOM      2  C2  IND d   1      -0.632  -0.785  -1.002  0.00  0.00     0.054 A 
ATOM      3  C3  IND d   1       0.184  -1.075   0.036  0.00  0.00    -0.031 A 
ATOM      4  C4  IND d   1       0.439   0.124   2.300  0.00  0.00     0.051 A 
ATOM      5  C5  IND d   1       0.027   1.232   2.984  0.00  0.00    -0.031 A 
ATOM      6  C6  IND d   1      -0.883   2.122   2.451  0.00  0.00     0.015 A 
ATOM      7  C7  IND d   1      -1.426   1.928   1.212  0.00  0.00    -0.016 A 
ATOM      8  C8  IND d   1      -1.005   0.807   0.511  0.00  0.00    -0.047 A 
ATOM      9  C9  IND d   1      -0.049  -0.076   1.030  0.00  0.00    -0.096 A 
ATOM     10  HN1 IND d   1      -1.906   0.725  -1.278  0.00  0.00     0.298 HD
ENDROOT
TORSDOF 0
ENDMDL
