MODEL 1
REMARK minimizedAffinity 0.313056141
REMARK minimizedRMSD -1
REMARK  0 active torsions:
REMARK  status: ('A' for Active; 'I' for Inactive)
ROOT
ATOM      1  N1  IND d   1       0.112   1.649   2.462  0.00  0.00    -0.196 N 
ATOM      2  C2  IND d   1      -0.444   2.866   2.181  0.00  0.00     0.054 A 
ATOM      3  C3  IND d   1      -0.672   2.983   0.853  0.00  0.00    -0.031 A 
ATOM      4  C4  IND d   1      -0.303   1.264  -1.028  0.00  0.00     0.051 A 
ATOM      5  C5  IND d   1       0.218   0.023  -1.266  0.00  0.00    -0.031 A 
ATOM      6  C6  IND d   1       0.738  -0.756  -0.253  0.00  0.00     0.015 A 
ATOM      7  C7  IND d   1       0.747  -0.326   1.044  0.00  0.00    -0.016 A 
ATOM      8  C8  IND d   1       0.225   0.937   1.289  0.00  0.00    -0.047 A 
ATOM      9  C9  IND d   1      -0.266   1.749   0.258  0.00  0.00    -0.096 A 
ATOM     10  HN1 IND d   1       0.351   1.375   3.241  0.00  0.00     0.298 HD
ENDROOT
TORSDOF 0
ENDMDL
