MODEL 1
REMARK minimizedAffinity -3.62493229
REMARK minimizedRMSD -1
REMARK  0 active torsions:
REMARK  status: ('A' for Active; 'I' for Inactive)
ROOT
ATOM      1  N1  IND d   1       0.467  -0.926   0.615  0.00  0.00    -0.196 N 
ATOM      2  C2  IND d   1       0.303  -1.354  -0.673  0.00  0.00     0.054 A 
ATOM      3  C3  IND d   1      -0.449  -0.473  -1.369  0.00  0.00    -0.031 A 
ATOM      4  C4  IND d   1      -1.431   1.787  -0.624  0.00  0.00     0.051 A 
ATOM      5  C5  IND d   1      -1.579   2.588   0.474  0.00  0.00    -0.031 A 
ATOM      6  C6  IND d   1      -1.039   2.253   1.698  0.00  0.00     0.015 A 
ATOM      7  C7  IND d   1      -0.318   1.105   1.869  0.00  0.00    -0.016 A 
ATOM      8  C8  IND d   1      -0.172   0.286   0.759  0.00  0.00    -0.047 A 
ATOM      9  C9  IND d   1      -0.754   0.599  -0.476  0.00  0.00    -0.096 A 
ATOM     10  HN1 IND d   1       0.896  -1.344   1.232  0.00  0.00     0.298 HD
ENDROOT
TORSDOF 0
ENDMDL
