MODEL 1
REMARK minimizedAffinity -4.11782789
REMARK minimizedRMSD -1
REMARK  0 active torsions:
REMARK  status: ('A' for Active; 'I' for Inactive)
ROOT
ATOM      1  N1  IND d   1      -1.008  -0.579  -1.091  0.00  0.00    -0.196 N 
ATOM      2  C2  IND d   1       0.183  -1.232  -1.243  0.00  0.00     0.054 A 
ATOM      3  C3  IND d   1       1.098  -0.752  -0.372  0.00  0.00    -0.031 A 
ATOM      4  C4  IND d   1       0.830   1.034   1.463  0.00  0.00     0.051 A 
ATOM      5  C5  IND d   1      -0.064   1.939   1.963  0.00  0.00    -0.031 A 
ATOM      6  C6  IND d   1      -1.344   2.052   1.461  0.00  0.00     0.015 A 
ATOM      7  C7  IND d   1      -1.785   1.252   0.445  0.00  0.00    -0.016 A 
ATOM      8  C8  IND d   1      -0.878   0.337  -0.069  0.00  0.00    -0.047 A 
ATOM      9  C9  IND d   1       0.437   0.247   0.407  0.00  0.00    -0.096 A 
ATOM     10  HN1 IND d   1      -1.718  -0.716  -1.555  0.00  0.00     0.298 HD
ENDROOT
TORSDOF 0
ENDMDL
