MODEL 1
REMARK minimizedAffinity 7.1049037
REMARK minimizedRMSD -1
REMARK  0 active torsions:
REMARK  status: ('A' for Active; 'I' for Inactive)
ROOT
ATOM      1  O1  BZF d   1       0.721  -3.120   0.627  0.00  0.00    -0.204 OA
ATOM      2  C2  BZF d   1       1.812  -3.059   1.472  0.00  0.00     0.174 A 
ATOM      3  C3  BZF d   1       2.662  -2.085   1.087  0.00  0.00    -0.012 A 
ATOM      4  C3A BZF d   1       2.020  -1.440  -0.017  0.00  0.00    -0.107 A 
ATOM      5  C4  BZF d   1       2.360  -0.387  -0.817  0.00  0.00     0.055 A 
ATOM      6  C5  BZF d   1       1.546  -0.055  -1.853  0.00  0.00    -0.016 A 
ATOM      7  C6  BZF d   1       0.388  -0.755  -2.121  0.00  0.00     0.022 A 
ATOM      8  C7  BZF d   1       0.006  -1.804  -1.352  0.00  0.00     0.029 A 
ATOM      9  C7A BZF d   1       0.810  -2.122  -0.284  0.00  0.00     0.058 A 
ENDROOT
TORSDOF 0
ENDMDL
