MODEL 1
REMARK minimizedAffinity 0.922638834
REMARK minimizedRMSD -1
REMARK  0 active torsions:
REMARK  status: ('A' for Active; 'I' for Inactive)
ROOT
ATOM      1  O1  BZF d   1      -0.397  -3.988   1.031  0.00  0.00    -0.204 OA
ATOM      2  C2  BZF d   1       0.697  -4.768   1.353  0.00  0.00     0.174 A 
ATOM      3  C3  BZF d   1       1.835  -4.206   0.897  0.00  0.00    -0.012 A 
ATOM      4  C3A BZF d   1       1.437  -2.954   0.331  0.00  0.00    -0.107 A 
ATOM      5  C4  BZF d   1       2.121  -1.935  -0.267  0.00  0.00     0.055 A 
ATOM      6  C5  BZF d   1       1.427  -0.884  -0.777  0.00  0.00    -0.016 A 
ATOM      7  C6  BZF d   1       0.050  -0.822  -0.711  0.00  0.00     0.022 A 
ATOM      8  C7  BZF d   1      -0.671  -1.807  -0.122  0.00  0.00     0.029 A 
ATOM      9  C7A BZF d   1       0.030  -2.855   0.423  0.00  0.00     0.058 A 
ENDROOT
TORSDOF 0
ENDMDL
