MODEL 1
REMARK minimizedAffinity 5.8449955
REMARK minimizedRMSD -1
REMARK  0 active torsions:
REMARK  status: ('A' for Active; 'I' for Inactive)
ROOT
ATOM      1  O1  BZF d   1       2.673  -2.173   1.352  0.00  0.00    -0.204 OA
ATOM      2  C2  BZF d   1       1.895  -3.305   1.500  0.00  0.00     0.174 A 
ATOM      3  C3  BZF d   1       1.002  -3.407   0.495  0.00  0.00    -0.012 A 
ATOM      4  C3A BZF d   1       1.298  -2.316  -0.383  0.00  0.00    -0.107 A 
ATOM      5  C4  BZF d   1       0.764  -1.893  -1.566  0.00  0.00     0.055 A 
ATOM      6  C5  BZF d   1       1.233  -0.749  -2.130  0.00  0.00    -0.016 A 
ATOM      7  C6  BZF d   1       2.229  -0.002  -1.536  0.00  0.00     0.022 A 
ATOM      8  C7  BZF d   1       2.793  -0.384  -0.364  0.00  0.00     0.029 A 
ATOM      9  C7A BZF d   1       2.344  -1.557   0.191  0.00  0.00     0.058 A 
ENDROOT
TORSDOF 0
ENDMDL
