MODEL 1
REMARK minimizedAffinity -2.13694239
REMARK minimizedRMSD -1
REMARK  0 active torsions:
REMARK  status: ('A' for Active; 'I' for Inactive)
ROOT
ATOM      1  O1  BZF d   1       2.254  -1.400  -0.569  0.00  0.00    -0.204 OA
ATOM      2  C2  BZF d   1       1.601  -0.437  -1.314  0.00  0.00     0.174 A 
ATOM      3  C3  BZF d   1       0.269  -0.646  -1.305  0.00  0.00    -0.012 A 
ATOM      4  C3A BZF d   1       0.069  -1.759  -0.428  0.00  0.00    -0.107 A 
ATOM      5  C4  BZF d   1      -1.041  -2.430   0.001  0.00  0.00     0.055 A 
ATOM      6  C5  BZF d   1      -0.888  -3.519   0.798  0.00  0.00    -0.016 A 
ATOM      7  C6  BZF d   1       0.359  -3.968   1.182  0.00  0.00     0.022 A 
ATOM      8  C7  BZF d   1       1.489  -3.333   0.786  0.00  0.00     0.029 A 
ATOM      9  C7A BZF d   1       1.336  -2.212   0.007  0.00  0.00     0.058 A 
ENDROOT
TORSDOF 0
ENDMDL
