MODEL 1
REMARK minimizedAffinity 5.63301182
REMARK minimizedRMSD -1
REMARK  0 active torsions:
REMARK  status: ('A' for Active; 'I' for Inactive)
ROOT
ATOM      1  O1  BZF d   1       0.372  -1.861  -3.973  0.00  0.00    -0.204 OA
ATOM      2  C2  BZF d   1      -0.832  -2.536  -4.004  0.00  0.00     0.174 A 
ATOM      3  C3  BZF d   1      -1.391  -2.573  -2.777  0.00  0.00    -0.012 A 
ATOM      4  C3A BZF d   1      -0.523  -1.798  -1.944  0.00  0.00    -0.107 A 
ATOM      5  C4  BZF d   1      -0.552  -1.452  -0.623  0.00  0.00     0.055 A 
ATOM      6  C5  BZF d   1       0.487  -0.746  -0.103  0.00  0.00    -0.016 A 
ATOM      7  C6  BZF d   1       1.570  -0.375  -0.872  0.00  0.00     0.022 A 
ATOM      8  C7  BZF d   1       1.640  -0.691  -2.188  0.00  0.00     0.029 A 
ATOM      9  C7A BZF d   1       0.577  -1.375  -2.725  0.00  0.00     0.058 A 
ENDROOT
TORSDOF 0
ENDMDL
