MODEL 1
REMARK minimizedAffinity 0.19592832
REMARK minimizedRMSD -1
REMARK  0 active torsions:
REMARK  status: ('A' for Active; 'I' for Inactive)
ROOT
ATOM      1  O1  BZF d   1      -0.625  -3.599   0.390  0.00  0.00    -0.204 OA
ATOM      2  C2  BZF d   1       0.201  -4.399   1.154  0.00  0.00     0.174 A 
ATOM      3  C3  BZF d   1       1.432  -3.858   1.255  0.00  0.00    -0.012 A 
ATOM      4  C3A BZF d   1       1.345  -2.597   0.585  0.00  0.00    -0.107 A 
ATOM      5  C4  BZF d   1       2.238  -1.588   0.361  0.00  0.00     0.055 A 
ATOM      6  C5  BZF d   1       1.857  -0.523  -0.392  0.00  0.00    -0.016 A 
ATOM      7  C6  BZF d   1       0.595  -0.437  -0.941  0.00  0.00     0.022 A 
ATOM      8  C7  BZF d   1      -0.327  -1.410  -0.743  0.00  0.00     0.029 A 
ATOM      9  C7A BZF d   1       0.044  -2.472   0.045  0.00  0.00     0.058 A 
ENDROOT
TORSDOF 0
ENDMDL
