MODEL 1
REMARK minimizedAffinity 10.5185957
REMARK minimizedRMSD -1
REMARK  0 active torsions:
REMARK  status: ('A' for Active; 'I' for Inactive)
ROOT
ATOM      1  O1  BZF d   1      -5.308   0.994   2.958  0.00  0.00    -0.204 OA
ATOM      2  C2  BZF d   1      -5.851  -0.130   2.367  0.00  0.00     0.174 A 
ATOM      3  C3  BZF d   1      -4.972  -1.153   2.384  0.00  0.00    -0.012 A 
ATOM      4  C3A BZF d   1      -3.839  -0.663   3.108  0.00  0.00    -0.107 A 
ATOM      5  C4  BZF d   1      -2.646  -1.218   3.472  0.00  0.00     0.055 A 
ATOM      6  C5  BZF d   1      -1.727  -0.448   4.111  0.00  0.00    -0.016 A 
ATOM      7  C6  BZF d   1      -1.965   0.880   4.397  0.00  0.00     0.022 A 
ATOM      8  C7  BZF d   1      -3.136   1.474   4.061  0.00  0.00     0.029 A 
ATOM      9  C7A BZF d   1      -4.080   0.689   3.444  0.00  0.00     0.058 A 
ENDROOT
TORSDOF 0
ENDMDL
