MODEL 1
REMARK minimizedAffinity -3.76403499
REMARK minimizedRMSD -1
REMARK  0 active torsions:
REMARK  status: ('A' for Active; 'I' for Inactive)
ROOT
ATOM      1  O1  BZF d   1      -0.739  -3.780   0.804  0.00  0.00    -0.204 OA
ATOM      2  C2  BZF d   1       0.256  -4.619   1.268  0.00  0.00     0.174 A 
ATOM      3  C3  BZF d   1       1.474  -4.147   0.935  0.00  0.00    -0.012 A 
ATOM      4  C3A BZF d   1       1.228  -2.889   0.298  0.00  0.00    -0.107 A 
ATOM      5  C4  BZF d   1       2.043  -1.934  -0.240  0.00  0.00     0.055 A 
ATOM      6  C5  BZF d   1       1.484  -0.857  -0.850  0.00  0.00    -0.016 A 
ATOM      7  C6  BZF d   1       0.116  -0.705  -0.945  0.00  0.00     0.022 A 
ATOM      8  C7  BZF d   1      -0.732  -1.623  -0.422  0.00  0.00     0.029 A 
ATOM      9  C7A BZF d   1      -0.170  -2.696   0.225  0.00  0.00     0.058 A 
ENDROOT
TORSDOF 0
ENDMDL
