MODEL 1
REMARK minimizedAffinity 7.63094854
REMARK minimizedRMSD -1
REMARK  0 active torsions:
REMARK  status: ('A' for Active; 'I' for Inactive)
ROOT
ATOM      1  O1  BZF d   1       0.175  -1.845   1.723  0.00  0.00    -0.204 OA
ATOM      2  C2  BZF d   1      -0.818  -2.491   1.012  0.00  0.00     0.174 A 
ATOM      3  C3  BZF d   1      -0.536  -2.496  -0.306  0.00  0.00    -0.012 A 
ATOM      4  C3A BZF d   1       0.756  -1.891  -0.417  0.00  0.00    -0.107 A 
ATOM      5  C4  BZF d   1       1.581  -1.625  -1.473  0.00  0.00     0.055 A 
ATOM      6  C5  BZF d   1       2.744  -0.958  -1.250  0.00  0.00    -0.016 A 
ATOM      7  C6  BZF d   1       3.110  -0.538   0.011  0.00  0.00     0.022 A 
ATOM      8  C7  BZF d   1       2.327  -0.783   1.090  0.00  0.00     0.029 A 
ATOM      9  C7A BZF d   1       1.167  -1.486   0.874  0.00  0.00     0.058 A 
ENDROOT
TORSDOF 0
ENDMDL
