MODEL 1
REMARK minimizedAffinity 4.07748842
REMARK minimizedRMSD -1
REMARK  0 active torsions:
REMARK  status: ('A' for Active; 'I' for Inactive)
ROOT
ATOM      1  O1  BZF d   1       0.603  -3.414   0.426  0.00  0.00    -0.204 OA
ATOM      2  C2  BZF d   1       1.926  -3.438   0.822  0.00  0.00     0.174 A 
ATOM      3  C3  BZF d   1       2.560  -2.308   0.445  0.00  0.00    -0.012 A 
ATOM      4  C3A BZF d   1       1.547  -1.490  -0.148  0.00  0.00    -0.107 A 
ATOM      5  C4  BZF d   1       1.554  -0.240  -0.699  0.00  0.00     0.055 A 
ATOM      6  C5  BZF d   1       0.412   0.242  -1.256  0.00  0.00    -0.016 A 
ATOM      7  C6  BZF d   1      -0.752  -0.499  -1.284  0.00  0.00     0.022 A 
ATOM      8  C7  BZF d   1      -0.808  -1.741  -0.745  0.00  0.00     0.029 A 
ATOM      9  C7A BZF d   1       0.335  -2.218  -0.152  0.00  0.00     0.058 A 
ENDROOT
TORSDOF 0
ENDMDL
