MODEL 1
REMARK minimizedAffinity 1.06598771
REMARK minimizedRMSD -1
REMARK  0 active torsions:
REMARK  status: ('A' for Active; 'I' for Inactive)
ROOT
ATOM      1  O1  BZF d   1       1.607  -5.025   1.561  0.00  0.00    -0.204 OA
ATOM      2  C2  BZF d   1       0.548  -5.906   1.455  0.00  0.00     0.174 A 
ATOM      3  C3  BZF d   1      -0.531  -5.295   0.924  0.00  0.00    -0.012 A 
ATOM      4  C3A BZF d   1      -0.092  -3.973   0.598  0.00  0.00    -0.107 A 
ATOM      5  C4  BZF d   1      -0.705  -2.894   0.028  0.00  0.00     0.055 A 
ATOM      6  C5  BZF d   1      -0.019  -1.726  -0.083  0.00  0.00    -0.016 A 
ATOM      7  C6  BZF d   1       1.279  -1.601   0.369  0.00  0.00     0.022 A 
ATOM      8  C7  BZF d   1       1.930  -2.645   0.936  0.00  0.00     0.029 A 
ATOM      9  C7A BZF d   1       1.250  -3.835   1.021  0.00  0.00     0.058 A 
ENDROOT
TORSDOF 0
ENDMDL
