MODEL 1
REMARK minimizedAffinity 2.27364469
REMARK minimizedRMSD -1
REMARK  0 active torsions:
REMARK  status: ('A' for Active; 'I' for Inactive)
ROOT
ATOM      1  O1  BZF d   1       1.650  -1.023  -2.625  0.00  0.00    -0.204 OA
ATOM      2  C2  BZF d   1       1.236  -1.301  -1.337  0.00  0.00     0.174 A 
ATOM      3  C3  BZF d   1       0.713  -0.202  -0.755  0.00  0.00    -0.012 A 
ATOM      4  C3A BZF d   1       0.722   0.803  -1.774  0.00  0.00    -0.107 A 
ATOM      5  C4  BZF d   1       0.314   2.106  -1.811  0.00  0.00     0.055 A 
ATOM      6  C5  BZF d   1       0.530   2.834  -2.938  0.00  0.00    -0.016 A 
ATOM      7  C6  BZF d   1       1.154   2.293  -4.043  0.00  0.00     0.022 A 
ATOM      8  C7  BZF d   1       1.571   1.003  -4.056  0.00  0.00     0.029 A 
ATOM      9  C7A BZF d   1       1.325   0.256  -2.930  0.00  0.00     0.058 A 
ENDROOT
TORSDOF 0
ENDMDL
