MODEL 1
REMARK minimizedAffinity 1.54519451
REMARK minimizedRMSD -1
REMARK  0 active torsions:
REMARK  status: ('A' for Active; 'I' for Inactive)
ROOT
ATOM      1  O1  BZF d   1       1.003   0.351  -4.156  0.00  0.00    -0.204 OA
ATOM      2  C2  BZF d   1       0.954   1.680  -3.784  0.00  0.00     0.174 A 
ATOM      3  C3  BZF d   1       0.790   1.798  -2.451  0.00  0.00    -0.012 A 
ATOM      4  C3A BZF d   1       0.826   0.460  -1.947  0.00  0.00    -0.107 A 
ATOM      5  C4  BZF d   1       0.733  -0.075  -0.694  0.00  0.00     0.055 A 
ATOM      6  C5  BZF d   1       0.731  -1.426  -0.551  0.00  0.00    -0.016 A 
ATOM      7  C6  BZF d   1       0.816  -2.272  -1.637  0.00  0.00     0.022 A 
ATOM      8  C7  BZF d   1       0.915  -1.788  -2.900  0.00  0.00     0.029 A 
ATOM      9  C7A BZF d   1       0.950  -0.423  -3.045  0.00  0.00     0.058 A 
ENDROOT
TORSDOF 0
ENDMDL
