MODEL 1
REMARK minimizedAffinity 0.919141114
REMARK minimizedRMSD -1
REMARK  0 active torsions:
REMARK  status: ('A' for Active; 'I' for Inactive)
ROOT
ATOM      1  O1  BZF d   1       0.692   1.217  -3.359  0.00  0.00    -0.204 OA
ATOM      2  C2  BZF d   1       0.407   1.855  -2.167  0.00  0.00     0.174 A 
ATOM      3  C3  BZF d   1       0.410   0.979  -1.142  0.00  0.00    -0.012 A 
ATOM      4  C3A BZF d   1       0.806  -0.270  -1.716  0.00  0.00    -0.107 A 
ATOM      5  C4  BZF d   1       1.007  -1.519  -1.200  0.00  0.00     0.055 A 
ATOM      6  C5  BZF d   1       1.319  -2.539  -2.042  0.00  0.00    -0.016 A 
ATOM      7  C6  BZF d   1       1.433  -2.347  -3.404  0.00  0.00     0.022 A 
ATOM      8  C7  BZF d   1       1.248  -1.126  -3.961  0.00  0.00     0.029 A 
ATOM      9  C7A BZF d   1       0.964  -0.087  -3.109  0.00  0.00     0.058 A 
ENDROOT
TORSDOF 0
ENDMDL
