MODEL 1
REMARK minimizedAffinity 1.69261086
REMARK minimizedRMSD -1
REMARK  0 active torsions:
REMARK  status: ('A' for Active; 'I' for Inactive)
ROOT
ATOM      1  O1  BZF d   1       6.000   2.949  -4.087  0.00  0.00    -0.204 OA
ATOM      2  C2  BZF d   1       5.999   1.953  -5.043  0.00  0.00     0.174 A 
ATOM      3  C3  BZF d   1       4.854   1.974  -5.756  0.00  0.00    -0.012 A 
ATOM      4  C3A BZF d   1       4.131   3.110  -5.271  0.00  0.00    -0.107 A 
ATOM      5  C4  BZF d   1       2.927   3.666  -5.598  0.00  0.00     0.055 A 
ATOM      6  C5  BZF d   1       2.476   4.730  -4.884  0.00  0.00    -0.016 A 
ATOM      7  C6  BZF d   1       3.198   5.261  -3.836  0.00  0.00     0.022 A 
ATOM      8  C7  BZF d   1       4.400   4.747  -3.478  0.00  0.00     0.029 A 
ATOM      9  C7A BZF d   1       4.874   3.692  -4.218  0.00  0.00     0.058 A 
ENDROOT
TORSDOF 0
ENDMDL
