MODEL 1
REMARK minimizedAffinity -0.47640869
REMARK minimizedRMSD -1
REMARK  0 active torsions:
REMARK  status: ('A' for Active; 'I' for Inactive)
ROOT
ATOM      1  O1  BZF d   1      -5.596   2.511   6.000  0.00  0.00    -0.204 OA
ATOM      2  C2  BZF d   1      -4.668   1.551   5.647  0.00  0.00     0.174 A 
ATOM      3  C3  BZF d   1      -3.664   2.097   4.930  0.00  0.00    -0.012 A 
ATOM      4  C3A BZF d   1      -3.939   3.502   4.908  0.00  0.00    -0.107 A 
ATOM      5  C4  BZF d   1      -3.294   4.576   4.363  0.00  0.00     0.055 A 
ATOM      6  C5  BZF d   1      -3.864   5.806   4.459  0.00  0.00    -0.016 A 
ATOM      7  C6  BZF d   1      -5.077   5.997   5.086  0.00  0.00     0.022 A 
ATOM      8  C7  BZF d   1      -5.752   4.963   5.646  0.00  0.00     0.029 A 
ATOM      9  C7A BZF d   1      -5.163   3.724   5.580  0.00  0.00     0.058 A 
ENDROOT
TORSDOF 0
ENDMDL
