MODEL 1
REMARK minimizedAffinity 3.5989778
REMARK minimizedRMSD -1
REMARK  0 active torsions:
REMARK  status: ('A' for Active; 'I' for Inactive)
ROOT
ATOM      1  O1  BZF d   1       5.999   2.351  -4.475  0.00  0.00    -0.204 OA
ATOM      2  C2  BZF d   1       5.900   1.258  -5.315  0.00  0.00     0.174 A 
ATOM      3  C3  BZF d   1       4.739   1.285  -6.000  0.00  0.00    -0.012 A 
ATOM      4  C3A BZF d   1       4.112   2.517  -5.629  0.00  0.00    -0.107 A 
ATOM      5  C4  BZF d   1       2.940   3.119  -5.990  0.00  0.00     0.055 A 
ATOM      6  C5  BZF d   1       2.586   4.286  -5.389  0.00  0.00    -0.016 A 
ATOM      7  C6  BZF d   1       3.375   4.874  -4.422  0.00  0.00     0.022 A 
ATOM      8  C7  BZF d   1       4.548   4.316  -4.036  0.00  0.00     0.029 A 
ATOM      9  C7A BZF d   1       4.925   3.154  -4.664  0.00  0.00     0.058 A 
ENDROOT
TORSDOF 0
ENDMDL
