MODEL 1
REMARK minimizedAffinity 7.24479961
REMARK minimizedRMSD -1
REMARK  0 active torsions:
REMARK  status: ('A' for Active; 'I' for Inactive)
ROOT
ATOM      1  O1  BZF d   1       1.816   1.594  -3.830  0.00  0.00    -0.204 OA
ATOM      2  C2  BZF d   1       2.503   0.923  -4.824  0.00  0.00     0.174 A 
ATOM      3  C3  BZF d   1       2.492  -0.407  -4.599  0.00  0.00    -0.012 A 
ATOM      4  C3A BZF d   1       1.674  -0.585  -3.439  0.00  0.00    -0.107 A 
ATOM      5  C4  BZF d   1       1.271  -1.683  -2.734  0.00  0.00     0.055 A 
ATOM      6  C5  BZF d   1       0.534  -1.510  -1.605  0.00  0.00    -0.016 A 
ATOM      7  C6  BZF d   1       0.187  -0.255  -1.151  0.00  0.00     0.022 A 
ATOM      8  C7  BZF d   1       0.559   0.864  -1.819  0.00  0.00     0.029 A 
ATOM      9  C7A BZF d   1       1.276   0.691  -2.978  0.00  0.00     0.058 A 
ENDROOT
TORSDOF 0
ENDMDL
