MODEL 1
REMARK minimizedAffinity 5.70195723
REMARK minimizedRMSD -1
REMARK  0 active torsions:
REMARK  status: ('A' for Active; 'I' for Inactive)
ROOT
ATOM      1  O1  BZF d   1       2.373  -1.492  -2.491  0.00  0.00    -0.204 OA
ATOM      2  C2  BZF d   1       1.997  -0.166  -2.588  0.00  0.00     0.174 A 
ATOM      3  C3  BZF d   1       1.722   0.343  -1.370  0.00  0.00    -0.012 A 
ATOM      4  C3A BZF d   1       2.028  -0.706  -0.446  0.00  0.00    -0.107 A 
ATOM      5  C4  BZF d   1       1.975  -0.803   0.915  0.00  0.00     0.055 A 
ATOM      6  C5  BZF d   1       2.271  -1.991   1.505  0.00  0.00    -0.016 A 
ATOM      7  C6  BZF d   1       2.619  -3.102   0.765  0.00  0.00     0.022 A 
ATOM      8  C7  BZF d   1       2.690  -3.053  -0.588  0.00  0.00     0.029 A 
ATOM      9  C7A BZF d   1       2.423  -1.845  -1.184  0.00  0.00     0.058 A 
ENDROOT
TORSDOF 0
ENDMDL
