MODEL 1
REMARK minimizedAffinity 8.49151039
REMARK minimizedRMSD -1
REMARK  0 active torsions:
REMARK  status: ('A' for Active; 'I' for Inactive)
ROOT
ATOM      1  O1  BZF d   1       0.662   0.419  -2.177  0.00  0.00    -0.204 OA
ATOM      2  C2  BZF d   1       1.910   0.974  -1.967  0.00  0.00     0.174 A 
ATOM      3  C3  BZF d   1       2.366   0.674  -0.734  0.00  0.00    -0.012 A 
ATOM      4  C3A BZF d   1       1.381  -0.196  -0.169  0.00  0.00    -0.107 A 
ATOM      5  C4  BZF d   1       1.275  -0.843   1.029  0.00  0.00     0.055 A 
ATOM      6  C5  BZF d   1       0.150  -1.557   1.297  0.00  0.00    -0.016 A 
ATOM      7  C6  BZF d   1      -0.889  -1.642   0.393  0.00  0.00     0.022 A 
ATOM      8  C7  BZF d   1      -0.828  -1.021  -0.810  0.00  0.00     0.029 A 
ATOM      9  C7A BZF d   1       0.321  -0.326  -1.097  0.00  0.00     0.058 A 
ENDROOT
TORSDOF 0
ENDMDL
