MODEL 1
REMARK minimizedAffinity 4.06665802
REMARK minimizedRMSD -1
REMARK  0 active torsions:
REMARK  status: ('A' for Active; 'I' for Inactive)
ROOT
ATOM      1  O1  BZF d   1       2.919  -1.437   2.145  0.00  0.00    -0.204 OA
ATOM      2  C2  BZF d   1       3.091  -2.204   1.009  0.00  0.00     0.174 A 
ATOM      3  C3  BZF d   1       1.904  -2.472   0.428  0.00  0.00    -0.012 A 
ATOM      4  C3A BZF d   1       0.937  -1.754   1.200  0.00  0.00    -0.107 A 
ATOM      5  C4  BZF d   1      -0.418  -1.611   1.109  0.00  0.00     0.055 A 
ATOM      6  C5  BZF d   1      -1.073  -0.900   2.065  0.00  0.00    -0.016 A 
ATOM      7  C6  BZF d   1      -0.406  -0.324   3.126  0.00  0.00     0.022 A 
ATOM      8  C7  BZF d   1       0.939  -0.435   3.256  0.00  0.00     0.029 A 
ATOM      9  C7A BZF d   1       1.607  -1.125   2.274  0.00  0.00     0.058 A 
ENDROOT
TORSDOF 0
ENDMDL
