MODEL 1
REMARK minimizedAffinity 5.45248365
REMARK minimizedRMSD -1
REMARK  0 active torsions:
REMARK  status: ('A' for Active; 'I' for Inactive)
ROOT
ATOM      1  O1  BZF d   1       0.720  -1.088   3.899  0.00  0.00    -0.204 OA
ATOM      2  C2  BZF d   1      -0.401  -0.456   3.397  0.00  0.00     0.174 A 
ATOM      3  C3  BZF d   1      -0.407  -0.494   2.049  0.00  0.00    -0.012 A 
ATOM      4  C3A BZF d   1       0.737  -1.272   1.688  0.00  0.00    -0.107 A 
ATOM      5  C4  BZF d   1       1.259  -1.677   0.493  0.00  0.00     0.055 A 
ATOM      6  C5  BZF d   1       2.430  -2.367   0.483  0.00  0.00    -0.016 A 
ATOM      7  C6  BZF d   1       3.108  -2.664   1.647  0.00  0.00     0.022 A 
ATOM      8  C7  BZF d   1       2.627  -2.288   2.858  0.00  0.00     0.029 A 
ATOM      9  C7A BZF d   1       1.427  -1.620   2.873  0.00  0.00     0.058 A 
ENDROOT
TORSDOF 0
ENDMDL
