MODEL 1
REMARK minimizedAffinity 13.6578627
REMARK minimizedRMSD -1
REMARK  0 active torsions:
REMARK  status: ('A' for Active; 'I' for Inactive)
ROOT
ATOM      1  O1  BZF d   1       2.486  -0.247   1.898  0.00  0.00    -0.204 OA
ATOM      2  C2  BZF d   1       2.175  -1.591   1.831  0.00  0.00     0.174 A 
ATOM      3  C3  BZF d   1       1.611  -1.894   0.644  0.00  0.00    -0.012 A 
ATOM      4  C3A BZF d   1       1.652  -0.679  -0.112  0.00  0.00    -0.107 A 
ATOM      5  C4  BZF d   1       1.255  -0.346  -1.375  0.00  0.00     0.055 A 
ATOM      6  C5  BZF d   1       1.369   0.945  -1.784  0.00  0.00    -0.016 A 
ATOM      7  C6  BZF d   1       1.870   1.928  -0.956  0.00  0.00     0.022 A 
ATOM      8  C7  BZF d   1       2.281   1.644   0.304  0.00  0.00     0.029 A 
ATOM      9  C7A BZF d   1       2.198   0.334   0.709  0.00  0.00     0.058 A 
ENDROOT
TORSDOF 0
ENDMDL
