MODEL 1
REMARK minimizedAffinity 0.0486366227
REMARK minimizedRMSD -1
REMARK  0 active torsions:
REMARK  status: ('A' for Active; 'I' for Inactive)
ROOT
ATOM      1  O1  BZF d   1      -1.337  -0.926   1.937  0.00  0.00    -0.204 OA
ATOM      2  C2  BZF d   1      -0.502  -1.072   3.028  0.00  0.00     0.174 A 
ATOM      3  C3  BZF d   1       0.784  -1.175   2.636  0.00  0.00    -0.012 A 
ATOM      4  C3A BZF d   1       0.759  -0.997   1.216  0.00  0.00    -0.107 A 
ATOM      5  C4  BZF d   1       1.730  -0.978   0.256  0.00  0.00     0.055 A 
ATOM      6  C5  BZF d   1       1.366  -0.854  -1.048  0.00  0.00    -0.016 A 
ATOM      7  C6  BZF d   1       0.044  -0.752  -1.427  0.00  0.00     0.022 A 
ATOM      8  C7  BZF d   1      -0.954  -0.761  -0.509  0.00  0.00     0.029 A 
ATOM      9  C7A BZF d   1      -0.588  -0.853   0.811  0.00  0.00     0.058 A 
ENDROOT
TORSDOF 0
ENDMDL
