MODEL 1
REMARK minimizedAffinity 7.75423527
REMARK minimizedRMSD -1
REMARK  0 active torsions:
REMARK  status: ('A' for Active; 'I' for Inactive)
ROOT
ATOM      1  O1  BZF d   1       2.627  -1.078  -1.676  0.00  0.00    -0.204 OA
ATOM      2  C2  BZF d   1       3.199  -1.677  -0.570  0.00  0.00     0.174 A 
ATOM      3  C3  BZF d   1       3.386  -0.778   0.418  0.00  0.00    -0.012 A 
ATOM      4  C3A BZF d   1       2.815   0.441  -0.069  0.00  0.00    -0.107 A 
ATOM      5  C4  BZF d   1       2.678   1.691   0.462  0.00  0.00     0.055 A 
ATOM      6  C5  BZF d   1       2.140   2.678  -0.302  0.00  0.00    -0.016 A 
ATOM      7  C6  BZF d   1       1.733   2.451  -1.601  0.00  0.00     0.022 A 
ATOM      8  C7  BZF d   1       1.845   1.226  -2.169  0.00  0.00     0.029 A 
ATOM      9  C7A BZF d   1       2.358   0.219  -1.389  0.00  0.00     0.058 A 
ENDROOT
TORSDOF 0
ENDMDL
