MODEL 1
REMARK minimizedAffinity 5.20817423
REMARK minimizedRMSD -1
REMARK  0 active torsions:
REMARK  status: ('A' for Active; 'I' for Inactive)
ROOT
ATOM      1  O1  BZF d   1       1.968  -2.398   0.128  0.00  0.00    -0.204 OA
ATOM      2  C2  BZF d   1       2.584  -2.397   1.365  0.00  0.00     0.174 A 
ATOM      3  C3  BZF d   1       2.856  -1.138   1.763  0.00  0.00    -0.012 A 
ATOM      4  C3A BZF d   1       2.297  -0.294   0.751  0.00  0.00    -0.107 A 
ATOM      5  C4  BZF d   1       2.230   1.060   0.589  0.00  0.00     0.055 A 
ATOM      6  C5  BZF d   1       1.680   1.563  -0.547  0.00  0.00    -0.016 A 
ATOM      7  C6  BZF d   1       1.193   0.742  -1.543  0.00  0.00     0.022 A 
ATOM      8  C7  BZF d   1       1.232  -0.608  -1.425  0.00  0.00     0.029 A 
ATOM      9  C7A BZF d   1       1.758  -1.119  -0.264  0.00  0.00     0.058 A 
ENDROOT
TORSDOF 0
ENDMDL
