MODEL 1
REMARK minimizedAffinity 5.45695972
REMARK minimizedRMSD -1
REMARK  0 active torsions:
REMARK  status: ('A' for Active; 'I' for Inactive)
ROOT
ATOM      1  O1  BZF d   1       0.572  -1.176   3.672  0.00  0.00    -0.204 OA
ATOM      2  C2  BZF d   1      -0.555  -0.988   2.895  0.00  0.00     0.174 A 
ATOM      3  C3  BZF d   1      -0.270  -1.166   1.589  0.00  0.00    -0.012 A 
ATOM      4  C3A BZF d   1       1.101  -1.576   1.554  0.00  0.00    -0.107 A 
ATOM      5  C4  BZF d   1       1.954  -1.917   0.544  0.00  0.00     0.055 A 
ATOM      6  C5  BZF d   1       3.250  -2.198   0.841  0.00  0.00    -0.016 A 
ATOM      7  C6  BZF d   1       3.727  -2.142   2.134  0.00  0.00     0.022 A 
ATOM      8  C7  BZF d   1       2.918  -1.813   3.170  0.00  0.00     0.029 A 
ATOM      9  C7A BZF d   1       1.600  -1.561   2.877  0.00  0.00     0.058 A 
ENDROOT
TORSDOF 0
ENDMDL
