MODEL 1
REMARK minimizedAffinity -4.20120478
REMARK minimizedRMSD -1
REMARK  0 active torsions:
REMARK  status: ('A' for Active; 'I' for Inactive)
ROOT
ATOM      1  C   UNL d   1       0.152   1.001   0.421  0.00  0.00     0.077 C 
ATOM      2  C1  UNL d   1      -0.087  -0.463   0.200  0.00  0.00    -0.074 A 
ATOM      3  C2  UNL d   1      -0.487  -1.293   1.253  0.00  0.00    -0.005 A 
ATOM      4  C3  UNL d   1      -0.715  -2.650   1.030  0.00  0.00     0.006 A 
ATOM      5  C4  UNL d   1      -0.546  -3.192  -0.245  0.00  0.00    -0.005 A 
ATOM      6  C5  UNL d   1      -0.148  -2.377  -1.310  0.00  0.00    -0.074 A 
ATOM      7  C6  UNL d   1       0.028  -2.941  -2.689  0.00  0.00     0.077 C 
ATOM      8  C7  UNL d   1       0.073  -1.012  -1.080  0.00  0.00    -0.001 A 
ENDROOT
TORSDOF 0
ENDMDL
