MODEL 1
REMARK minimizedAffinity -2.56068754
REMARK minimizedRMSD -1
REMARK  0 active torsions:
REMARK  status: ('A' for Active; 'I' for Inactive)
ROOT
ATOM      1  C   UNL d   1       0.015  -3.349   0.168  0.00  0.00     0.077 C 
ATOM      2  C1  UNL d   1      -0.250  -1.885   0.356  0.00  0.00    -0.074 A 
ATOM      3  C2  UNL d   1      -1.048  -1.428   1.410  0.00  0.00    -0.005 A 
ATOM      4  C3  UNL d   1      -1.278  -0.063   1.577  0.00  0.00     0.006 A 
ATOM      5  C4  UNL d   1      -0.713   0.858   0.695  0.00  0.00    -0.005 A 
ATOM      6  C5  UNL d   1       0.089   0.421  -0.364  0.00  0.00    -0.074 A 
ATOM      7  C6  UNL d   1       0.712   1.398  -1.316  0.00  0.00     0.077 C 
ATOM      8  C7  UNL d   1       0.321  -0.953  -0.522  0.00  0.00    -0.001 A 
ENDROOT
TORSDOF 0
ENDMDL
