MODEL 1
REMARK minimizedAffinity -5.0527215
REMARK minimizedRMSD -1
REMARK  0 active torsions:
REMARK  status: ('A' for Active; 'I' for Inactive)
ROOT
ATOM      1  C   UNL d   1       0.731  -2.911  -2.412  0.00  0.00     0.077 C 
ATOM      2  C1  UNL d   1       0.327  -2.260  -1.122  0.00  0.00    -0.074 A 
ATOM      3  C2  UNL d   1       0.054  -3.026   0.015  0.00  0.00    -0.005 A 
ATOM      4  C3  UNL d   1      -0.312  -2.406   1.210  0.00  0.00     0.006 A 
ATOM      5  C4  UNL d   1      -0.408  -1.015   1.279  0.00  0.00    -0.005 A 
ATOM      6  C5  UNL d   1      -0.138  -0.233   0.151  0.00  0.00    -0.074 A 
ATOM      7  C6  UNL d   1      -0.227   1.263   0.211  0.00  0.00     0.077 C 
ATOM      8  C7  UNL d   1       0.236  -0.863  -1.043  0.00  0.00    -0.001 A 
ENDROOT
TORSDOF 0
ENDMDL
