MODEL 1
REMARK minimizedAffinity -5.87023067
REMARK minimizedRMSD -1
REMARK  0 active torsions:
REMARK  status: ('A' for Active; 'I' for Inactive)
ROOT
ATOM      1  C   UNL d   1       0.248   0.839   0.283  0.00  0.00     0.077 C 
ATOM      2  C1  UNL d   1       0.050  -0.620  -0.002  0.00  0.00    -0.074 A 
ATOM      3  C2  UNL d   1      -0.257  -1.518   1.025  0.00  0.00    -0.005 A 
ATOM      4  C3  UNL d   1      -0.448  -2.871   0.743  0.00  0.00     0.006 A 
ATOM      5  C4  UNL d   1      -0.334  -3.338  -0.567  0.00  0.00    -0.005 A 
ATOM      6  C5  UNL d   1      -0.029  -2.454  -1.607  0.00  0.00    -0.074 A 
ATOM      7  C6  UNL d   1       0.087  -2.938  -3.022  0.00  0.00     0.077 C 
ATOM      8  C7  UNL d   1       0.155  -1.096  -1.317  0.00  0.00    -0.001 A 
ENDROOT
TORSDOF 0
ENDMDL
