MODEL 1
REMARK minimizedAffinity -5.55004072
REMARK minimizedRMSD -1
REMARK  0 active torsions:
REMARK  status: ('A' for Active; 'I' for Inactive)
ROOT
ATOM      1  C   UNL d   1       0.233   1.326  -0.116  0.00  0.00     0.077 C 
ATOM      2  C1  UNL d   1       0.099  -0.167  -0.122  0.00  0.00    -0.074 A 
ATOM      3  C2  UNL d   1      -0.418  -0.847   0.985  0.00  0.00    -0.005 A 
ATOM      4  C3  UNL d   1      -0.545  -2.236   0.961  0.00  0.00     0.006 A 
ATOM      5  C4  UNL d   1      -0.156  -2.958  -0.168  0.00  0.00    -0.005 A 
ATOM      6  C5  UNL d   1       0.363  -2.295  -1.285  0.00  0.00    -0.074 A 
ATOM      7  C6  UNL d   1       0.776  -3.055  -2.510  0.00  0.00     0.077 C 
ATOM      8  C7  UNL d   1       0.481  -0.899  -1.256  0.00  0.00    -0.001 A 
ENDROOT
TORSDOF 0
ENDMDL
