MODEL 1
REMARK minimizedAffinity -5.21841192
REMARK minimizedRMSD -1
REMARK  0 active torsions:
REMARK  status: ('A' for Active; 'I' for Inactive)
ROOT
ATOM      1  C   UNL d   1       0.700  -1.103  -3.176  0.00  0.00     0.077 C 
ATOM      2  C1  UNL d   1       0.175  -1.626  -1.872  0.00  0.00    -0.074 A 
ATOM      3  C2  UNL d   1       0.034  -3.000  -1.653  0.00  0.00    -0.005 A 
ATOM      4  C3  UNL d   1      -0.445  -3.472  -0.432  0.00  0.00     0.006 A 
ATOM      5  C4  UNL d   1      -0.788  -2.577   0.582  0.00  0.00    -0.005 A 
ATOM      6  C5  UNL d   1      -0.653  -1.199   0.382  0.00  0.00    -0.074 A 
ATOM      7  C6  UNL d   1      -1.008  -0.223   1.464  0.00  0.00     0.077 C 
ATOM      8  C7  UNL d   1      -0.164  -0.733  -0.846  0.00  0.00    -0.001 A 
ENDROOT
TORSDOF 0
ENDMDL
