MODEL 1
REMARK minimizedAffinity -5.62221193
REMARK minimizedRMSD -1
REMARK  0 active torsions:
REMARK  status: ('A' for Active; 'I' for Inactive)
ROOT
ATOM      1  C   UNL d   1       0.049   1.456   0.023  0.00  0.00     0.077 C 
ATOM      2  C1  UNL d   1      -0.018  -0.042  -0.002  0.00  0.00    -0.074 A 
ATOM      3  C2  UNL d   1      -0.530  -0.756   1.086  0.00  0.00    -0.005 A 
ATOM      4  C3  UNL d   1      -0.594  -2.149   1.045  0.00  0.00     0.006 A 
ATOM      5  C4  UNL d   1      -0.149  -2.840  -0.082  0.00  0.00    -0.005 A 
ATOM      6  C5  UNL d   1       0.364  -2.143  -1.180  0.00  0.00    -0.074 A 
ATOM      7  C6  UNL d   1       0.837  -2.869  -2.404  0.00  0.00     0.077 C 
ATOM      8  C7  UNL d   1       0.419  -0.743  -1.134  0.00  0.00    -0.001 A 
ENDROOT
TORSDOF 0
ENDMDL
