MODEL 1
REMARK minimizedAffinity -1.1259551
REMARK minimizedRMSD -1
REMARK  0 active torsions:
REMARK  status: ('A' for Active; 'I' for Inactive)
ROOT
ATOM      1  C   UNL d   1       0.031  -3.575   0.357  0.00  0.00     0.077 C 
ATOM      2  C1  UNL d   1      -0.318  -2.136   0.595  0.00  0.00    -0.074 A 
ATOM      3  C2  UNL d   1      -1.398  -1.784   1.411  0.00  0.00    -0.005 A 
ATOM      4  C3  UNL d   1      -1.705  -0.441   1.630  0.00  0.00     0.006 A 
ATOM      5  C4  UNL d   1      -0.937   0.562   1.036  0.00  0.00    -0.005 A 
ATOM      6  C5  UNL d   1       0.146   0.228   0.217  0.00  0.00    -0.074 A 
ATOM      7  C6  UNL d   1       0.988   1.294  -0.421  0.00  0.00     0.077 C 
ATOM      8  C7  UNL d   1       0.453  -1.123   0.008  0.00  0.00    -0.001 A 
ENDROOT
TORSDOF 0
ENDMDL
