MODEL 1
REMARK minimizedAffinity -6.63949013
REMARK minimizedRMSD -1
REMARK  0 active torsions:
REMARK  status: ('A' for Active; 'I' for Inactive)
ROOT
ATOM      1  C   UNL d   1       0.521  -1.939  -3.067  0.00  0.00     0.077 C 
ATOM      2  C1  UNL d   1       0.306  -2.182  -1.603  0.00  0.00    -0.074 A 
ATOM      3  C2  UNL d   1       0.186  -3.481  -1.100  0.00  0.00    -0.005 A 
ATOM      4  C3  UNL d   1      -0.005  -3.692   0.266  0.00  0.00     0.006 A 
ATOM      5  C4  UNL d   1      -0.076  -2.607   1.141  0.00  0.00    -0.005 A 
ATOM      6  C5  UNL d   1       0.043  -1.301   0.656  0.00  0.00    -0.074 A 
ATOM      7  C6  UNL d   1      -0.022  -0.124   1.584  0.00  0.00     0.077 C 
ATOM      8  C7  UNL d   1       0.241  -1.098  -0.717  0.00  0.00    -0.001 A 
ENDROOT
TORSDOF 0
ENDMDL
