MODEL 1
REMARK minimizedAffinity -4.6895318
REMARK minimizedRMSD -1
REMARK  0 active torsions:
REMARK  status: ('A' for Active; 'I' for Inactive)
ROOT
ATOM      1  C   UNL d   1      -0.472  -1.029   0.702  0.00  0.00     0.077 C 
ATOM      2  C1  UNL d   1       0.086   0.344   0.471  0.00  0.00    -0.074 A 
ATOM      3  C2  UNL d   1      -0.579   1.261  -0.349  0.00  0.00    -0.005 A 
ATOM      4  C3  UNL d   1      -0.052   2.538  -0.547  0.00  0.00     0.006 A 
ATOM      5  C4  UNL d   1       1.142   2.909   0.072  0.00  0.00    -0.005 A 
ATOM      6  C5  UNL d   1       1.820   2.005   0.895  0.00  0.00    -0.074 A 
ATOM      7  C6  UNL d   1       3.100   2.391   1.576  0.00  0.00     0.077 C 
ATOM      8  C7  UNL d   1       1.281   0.727   1.095  0.00  0.00    -0.001 A 
ENDROOT
TORSDOF 0
ENDMDL
