MODEL 1
REMARK minimizedAffinity -5.88211775
REMARK minimizedRMSD -1
REMARK  0 active torsions:
REMARK  status: ('A' for Active; 'I' for Inactive)
ROOT
ATOM      1  C   UNL d   1       0.078  -3.067  -2.718  0.00  0.00     0.077 C 
ATOM      2  C1  UNL d   1       0.098  -2.485  -1.336  0.00  0.00    -0.074 A 
ATOM      3  C2  UNL d   1      -0.175  -3.279  -0.217  0.00  0.00    -0.005 A 
ATOM      4  C3  UNL d   1      -0.143  -2.726   1.063  0.00  0.00     0.006 A 
ATOM      5  C4  UNL d   1       0.162  -1.375   1.237  0.00  0.00    -0.005 A 
ATOM      6  C5  UNL d   1       0.439  -0.566   0.131  0.00  0.00    -0.074 A 
ATOM      7  C6  UNL d   1       0.778   0.885   0.301  0.00  0.00     0.077 C 
ATOM      8  C7  UNL d   1       0.412  -1.131  -1.152  0.00  0.00    -0.001 A 
ENDROOT
TORSDOF 0
ENDMDL
