MODEL 1
REMARK minimizedAffinity -4.21007156
REMARK minimizedRMSD -1
REMARK  0 active torsions:
REMARK  status: ('A' for Active; 'I' for Inactive)
ROOT
ATOM      1  C   UNL d   1       0.378  -3.085  -0.388  0.00  0.00     0.077 C 
ATOM      2  C1  UNL d   1      -0.026  -1.846   0.355  0.00  0.00    -0.074 A 
ATOM      3  C2  UNL d   1      -0.913  -1.912   1.434  0.00  0.00    -0.005 A 
ATOM      4  C3  UNL d   1      -1.272  -0.752   2.121  0.00  0.00     0.006 A 
ATOM      5  C4  UNL d   1      -0.748   0.483   1.737  0.00  0.00    -0.005 A 
ATOM      6  C5  UNL d   1       0.142   0.568   0.662  0.00  0.00    -0.074 A 
ATOM      7  C6  UNL d   1       0.723   1.886   0.242  0.00  0.00     0.077 C 
ATOM      8  C7  UNL d   1       0.503  -0.603  -0.020  0.00  0.00    -0.001 A 
ENDROOT
TORSDOF 0
ENDMDL
