MODEL 1
REMARK minimizedAffinity -5.3435092
REMARK minimizedRMSD -1
REMARK  0 active torsions:
REMARK  status: ('A' for Active; 'I' for Inactive)
ROOT
ATOM      1  C   UNL d   1      -0.041   1.372   0.023  0.00  0.00     0.077 C 
ATOM      2  C1  UNL d   1      -0.095  -0.126   0.082  0.00  0.00    -0.074 A 
ATOM      3  C2  UNL d   1      -0.367  -0.789   1.283  0.00  0.00    -0.005 A 
ATOM      4  C3  UNL d   1      -0.424  -2.182   1.320  0.00  0.00     0.006 A 
ATOM      5  C4  UNL d   1      -0.208  -2.925   0.159  0.00  0.00    -0.005 A 
ATOM      6  C5  UNL d   1       0.065  -2.280  -1.052  0.00  0.00    -0.074 A 
ATOM      7  C6  UNL d   1       0.289  -3.063  -2.311  0.00  0.00     0.077 C 
ATOM      8  C7  UNL d   1       0.113  -0.879  -1.082  0.00  0.00    -0.001 A 
ENDROOT
TORSDOF 0
ENDMDL
