MODEL 1
REMARK minimizedAffinity -3.87903166
REMARK minimizedRMSD -1
REMARK  0 active torsions:
REMARK  status: ('A' for Active; 'I' for Inactive)
ROOT
ATOM      1  C   UNL d   1       0.470   1.317  -0.678  0.00  0.00     0.077 C 
ATOM      2  C1  UNL d   1      -0.010   0.029  -0.079  0.00  0.00    -0.074 A 
ATOM      3  C2  UNL d   1      -0.743   0.020   1.113  0.00  0.00    -0.005 A 
ATOM      4  C3  UNL d   1      -1.192  -1.185   1.653  0.00  0.00     0.006 A 
ATOM      5  C4  UNL d   1      -0.913  -2.391   1.009  0.00  0.00    -0.005 A 
ATOM      6  C5  UNL d   1      -0.182  -2.401  -0.183  0.00  0.00    -0.074 A 
ATOM      7  C6  UNL d   1       0.119  -3.688  -0.893  0.00  0.00     0.077 C 
ATOM      8  C7  UNL d   1       0.260  -1.186  -0.724  0.00  0.00    -0.001 A 
ENDROOT
TORSDOF 0
ENDMDL
