MODEL 1
REMARK minimizedAffinity -5.56043005
REMARK minimizedRMSD -1
REMARK  0 active torsions:
REMARK  status: ('A' for Active; 'I' for Inactive)
ROOT
ATOM      1  C   UNL d   1       0.408  -2.921  -2.478  0.00  0.00     0.077 C 
ATOM      2  C1  UNL d   1       0.014  -2.211  -1.217  0.00  0.00    -0.074 A 
ATOM      3  C2  UNL d   1      -0.542  -2.911  -0.142  0.00  0.00    -0.005 A 
ATOM      4  C3  UNL d   1      -0.895  -2.239   1.028  0.00  0.00     0.006 A 
ATOM      5  C4  UNL d   1      -0.696  -0.862   1.134  0.00  0.00    -0.005 A 
ATOM      6  C5  UNL d   1      -0.141  -0.145   0.070  0.00  0.00    -0.074 A 
ATOM      7  C6  UNL d   1       0.089   1.334   0.171  0.00  0.00     0.077 C 
ATOM      8  C7  UNL d   1       0.218  -0.829  -1.100  0.00  0.00    -0.001 A 
ENDROOT
TORSDOF 0
ENDMDL
