MODEL 1
REMARK minimizedAffinity -5.72888184
REMARK minimizedRMSD -1
REMARK  0 active torsions:
REMARK  status: ('A' for Active; 'I' for Inactive)
ROOT
ATOM      1  C   UNL d   1      -0.295   0.053   0.814  0.00  0.00     0.077 C 
ATOM      2  C1  UNL d   1      -0.226  -1.266   0.103  0.00  0.00    -0.074 A 
ATOM      3  C2  UNL d   1      -0.641  -2.445   0.732  0.00  0.00    -0.005 A 
ATOM      4  C3  UNL d   1      -0.580  -3.662   0.055  0.00  0.00     0.006 A 
ATOM      5  C4  UNL d   1      -0.104  -3.715  -1.256  0.00  0.00    -0.005 A 
ATOM      6  C5  UNL d   1       0.314  -2.547  -1.901  0.00  0.00    -0.074 A 
ATOM      7  C6  UNL d   1       0.819  -2.584  -3.313  0.00  0.00     0.077 C 
ATOM      8  C7  UNL d   1       0.243  -1.326  -1.217  0.00  0.00    -0.001 A 
ENDROOT
TORSDOF 0
ENDMDL
