MODEL 1
REMARK minimizedAffinity -5.09229803
REMARK minimizedRMSD -1
REMARK  0 active torsions:
REMARK  status: ('A' for Active; 'I' for Inactive)
ROOT
ATOM      1  O1  BZF d   1      -0.597  -0.352   1.140  0.00  0.00    -0.204 OA
ATOM      2  C2  BZF d   1      -1.761   0.225   1.609  0.00  0.00     0.174 A 
ATOM      3  C3  BZF d   1      -1.761   1.554   1.380  0.00  0.00    -0.012 A 
ATOM      4  C3A BZF d   1      -0.561   1.810   0.644  0.00  0.00    -0.107 A 
ATOM      5  C4  BZF d   1      -0.008   2.940   0.113  0.00  0.00     0.055 A 
ATOM      6  C5  BZF d   1       1.210   2.861  -0.483  0.00  0.00    -0.016 A 
ATOM      7  C6  BZF d   1       1.905   1.672  -0.561  0.00  0.00     0.022 A 
ATOM      8  C7  BZF d   1       1.395   0.524  -0.053  0.00  0.00     0.029 A 
ATOM      9  C7A BZF d   1       0.149   0.594   0.521  0.00  0.00     0.058 A 
ENDROOT
TORSDOF 0
ENDMDL
