MODEL 1
REMARK minimizedAffinity -2.65174127
REMARK minimizedRMSD -1
REMARK  0 active torsions:
REMARK  status: ('A' for Active; 'I' for Inactive)
ROOT
ATOM      1  O1  BZF d   1      -0.342   2.975   1.200  0.00  0.00    -0.204 OA
ATOM      2  C2  BZF d   1      -1.120   2.708   2.309  0.00  0.00     0.174 A 
ATOM      3  C3  BZF d   1      -1.590   1.444   2.271  0.00  0.00    -0.012 A 
ATOM      4  C3A BZF d   1      -0.997   0.857   1.109  0.00  0.00    -0.107 A 
ATOM      5  C4  BZF d   1      -1.066  -0.384   0.545  0.00  0.00     0.055 A 
ATOM      6  C5  BZF d   1      -0.424  -0.612  -0.632  0.00  0.00    -0.016 A 
ATOM      7  C6  BZF d   1       0.290   0.379  -1.273  0.00  0.00     0.022 A 
ATOM      8  C7  BZF d   1       0.392   1.625  -0.749  0.00  0.00     0.029 A 
ATOM      9  C7A BZF d   1      -0.228   1.849   0.456  0.00  0.00     0.058 A 
ENDROOT
TORSDOF 0
ENDMDL
