MODEL 1
REMARK minimizedAffinity -4.62745237
REMARK minimizedRMSD -1
REMARK  0 active torsions:
REMARK  status: ('A' for Active; 'I' for Inactive)
ROOT
ATOM      1  O1  BZF d   1      -0.212  -0.281   0.995  0.00  0.00    -0.204 OA
ATOM      2  C2  BZF d   1      -1.490   0.021   1.424  0.00  0.00     0.174 A 
ATOM      3  C3  BZF d   1      -1.819   1.287   1.093  0.00  0.00    -0.012 A 
ATOM      4  C3A BZF d   1      -0.710   1.777   0.334  0.00  0.00    -0.107 A 
ATOM      5  C4  BZF d   1      -0.449   2.966  -0.286  0.00  0.00     0.055 A 
ATOM      6  C5  BZF d   1       0.759   3.150  -0.880  0.00  0.00    -0.016 A 
ATOM      7  C6  BZF d   1       1.730   2.170  -0.869  0.00  0.00     0.022 A 
ATOM      8  C7  BZF d   1       1.515   0.972  -0.272  0.00  0.00     0.029 A 
ATOM      9  C7A BZF d   1       0.283   0.772   0.301  0.00  0.00     0.058 A 
ENDROOT
TORSDOF 0
ENDMDL
