MODEL 1
REMARK minimizedAffinity -3.11516643
REMARK minimizedRMSD -1
REMARK  0 active torsions:
REMARK  status: ('A' for Active; 'I' for Inactive)
ROOT
ATOM      1  O1  BZF d   1       1.059  -0.583   0.727  0.00  0.00    -0.204 OA
ATOM      2  C2  BZF d   1       0.172  -1.492   0.182  0.00  0.00     0.174 A 
ATOM      3  C3  BZF d   1      -0.993  -0.892  -0.136  0.00  0.00    -0.012 A 
ATOM      4  C3A BZF d   1      -0.792   0.496   0.147  0.00  0.00    -0.107 A 
ATOM      5  C4  BZF d   1      -1.581   1.604   0.023  0.00  0.00     0.055 A 
ATOM      6  C5  BZF d   1      -1.109   2.802   0.458  0.00  0.00    -0.016 A 
ATOM      7  C6  BZF d   1       0.142   2.928   1.025  0.00  0.00     0.022 A 
ATOM      8  C7  BZF d   1       0.963   1.858   1.164  0.00  0.00     0.029 A 
ATOM      9  C7A BZF d   1       0.502   0.652   0.696  0.00  0.00     0.058 A 
ENDROOT
TORSDOF 0
ENDMDL
