MODEL 1
REMARK minimizedAffinity -3.0793457
REMARK minimizedRMSD -1
REMARK  0 active torsions:
REMARK  status: ('A' for Active; 'I' for Inactive)
ROOT
ATOM      1  O1  BZF d   1       0.674   2.846   0.484  0.00  0.00    -0.204 OA
ATOM      2  C2  BZF d   1      -0.197   3.660   1.181  0.00  0.00     0.174 A 
ATOM      3  C3  BZF d   1      -1.264   2.959   1.615  0.00  0.00    -0.012 A 
ATOM      4  C3A BZF d   1      -1.002   1.604   1.241  0.00  0.00    -0.107 A 
ATOM      5  C4  BZF d   1      -1.685   0.433   1.410  0.00  0.00     0.055 A 
ATOM      6  C5  BZF d   1      -1.190  -0.706   0.861  0.00  0.00    -0.016 A 
ATOM      7  C6  BZF d   1      -0.018  -0.712   0.133  0.00  0.00     0.022 A 
ATOM      8  C7  BZF d   1       0.698   0.423  -0.057  0.00  0.00     0.029 A 
ATOM      9  C7A BZF d   1       0.217   1.571   0.524  0.00  0.00     0.058 A 
ENDROOT
TORSDOF 0
ENDMDL
