MODEL 1
REMARK minimizedAffinity -4.637537
REMARK minimizedRMSD -1
REMARK  0 active torsions:
REMARK  status: ('A' for Active; 'I' for Inactive)
ROOT
ATOM      1  O1  BZF d   1      -0.601  -0.909   0.518  0.00  0.00    -0.204 OA
ATOM      2  C2  BZF d   1       0.625  -1.409   0.125  0.00  0.00     0.174 A 
ATOM      3  C3  BZF d   1       1.446  -0.413  -0.265  0.00  0.00    -0.012 A 
ATOM      4  C3A BZF d   1       0.717   0.793  -0.019  0.00  0.00    -0.107 A 
ATOM      5  C4  BZF d   1       1.008   2.117  -0.188  0.00  0.00     0.055 A 
ATOM      6  C5  BZF d   1       0.050   3.043   0.081  0.00  0.00    -0.016 A 
ATOM      7  C6  BZF d   1      -1.209   2.681   0.514  0.00  0.00     0.022 A 
ATOM      8  C7  BZF d   1      -1.542   1.381   0.701  0.00  0.00     0.029 A 
ATOM      9  C7A BZF d   1      -0.566   0.444   0.462  0.00  0.00     0.058 A 
ENDROOT
TORSDOF 0
ENDMDL
