MODEL 1
REMARK minimizedAffinity -3.96828079
REMARK minimizedRMSD -1
REMARK  0 active torsions:
REMARK  status: ('A' for Active; 'I' for Inactive)
ROOT
ATOM      1  O1  BZF d   1       1.810   2.238   0.425  0.00  0.00    -0.204 OA
ATOM      2  C2  BZF d   1       0.806   3.083  -0.005  0.00  0.00     0.174 A 
ATOM      3  C3  BZF d   1      -0.320   2.392  -0.272  0.00  0.00    -0.012 A 
ATOM      4  C3A BZF d   1      -0.028   1.040   0.096  0.00  0.00    -0.107 A 
ATOM      5  C4  BZF d   1      -0.755  -0.116   0.079  0.00  0.00     0.055 A 
ATOM      6  C5  BZF d   1      -0.153  -1.280   0.436  0.00  0.00    -0.016 A 
ATOM      7  C6  BZF d   1       1.174  -1.326   0.811  0.00  0.00     0.022 A 
ATOM      8  C7  BZF d   1       1.934  -0.205   0.849  0.00  0.00     0.029 A 
ATOM      9  C7A BZF d   1       1.319   0.979   0.520  0.00  0.00     0.058 A 
ENDROOT
TORSDOF 0
ENDMDL
