MODEL 1
REMARK minimizedAffinity -2.57456589
REMARK minimizedRMSD -1
REMARK  0 active torsions:
REMARK  status: ('A' for Active; 'I' for Inactive)
ROOT
ATOM      1  O1  BZF d   1      -0.283   2.401  -0.248  0.00  0.00    -0.204 OA
ATOM      2  C2  BZF d   1       0.812   2.466  -1.087  0.00  0.00     0.174 A 
ATOM      3  C3  BZF d   1       1.523   1.321  -1.036  0.00  0.00    -0.012 A 
ATOM      4  C3A BZF d   1       0.778   0.453  -0.176  0.00  0.00    -0.107 A 
ATOM      5  C4  BZF d   1       0.963  -0.830   0.253  0.00  0.00     0.055 A 
ATOM      6  C5  BZF d   1       0.088  -1.360   1.147  0.00  0.00    -0.016 A 
ATOM      7  C6  BZF d   1      -0.979  -0.636   1.637  0.00  0.00     0.022 A 
ATOM      8  C7  BZF d   1      -1.207   0.639   1.237  0.00  0.00     0.029 A 
ATOM      9  C7A BZF d   1      -0.343   1.167   0.308  0.00  0.00     0.058 A 
ENDROOT
TORSDOF 0
ENDMDL
