MODEL 1
REMARK minimizedAffinity -2.77376699
REMARK minimizedRMSD -1
REMARK  0 active torsions:
REMARK  status: ('A' for Active; 'I' for Inactive)
ROOT
ATOM      1  O1  BZF d   1       1.059  -0.343  -0.754  0.00  0.00    -0.204 OA
ATOM      2  C2  BZF d   1       0.624  -1.616  -0.441  0.00  0.00     0.174 A 
ATOM      3  C3  BZF d   1      -0.373  -1.572   0.466  0.00  0.00    -0.012 A 
ATOM      4  C3A BZF d   1      -0.637  -0.180   0.667  0.00  0.00    -0.107 A 
ATOM      5  C4  BZF d   1      -1.530   0.504   1.441  0.00  0.00     0.055 A 
ATOM      6  C5  BZF d   1      -1.479   1.862   1.465  0.00  0.00    -0.016 A 
ATOM      7  C6  BZF d   1      -0.547   2.567   0.732  0.00  0.00     0.022 A 
ATOM      8  C7  BZF d   1       0.356   1.932  -0.054  0.00  0.00     0.029 A 
ATOM      9  C7A BZF d   1       0.286   0.562  -0.106  0.00  0.00     0.058 A 
ENDROOT
TORSDOF 0
ENDMDL
