MODEL 1
REMARK minimizedAffinity -4.70825863
REMARK minimizedRMSD -1
REMARK  0 active torsions:
REMARK  status: ('A' for Active; 'I' for Inactive)
ROOT
ATOM      1  O1  BZF d   1       0.180   3.824   0.396  0.00  0.00    -0.204 OA
ATOM      2  C2  BZF d   1       1.302   3.673  -0.395  0.00  0.00     0.174 A 
ATOM      3  C3  BZF d   1       1.377   2.418  -0.884  0.00  0.00    -0.012 A 
ATOM      4  C3A BZF d   1       0.181   1.770  -0.442  0.00  0.00    -0.107 A 
ATOM      5  C4  BZF d   1      -0.328   0.515  -0.621  0.00  0.00     0.055 A 
ATOM      6  C5  BZF d   1      -1.485   0.176   0.006  0.00  0.00    -0.016 A 
ATOM      7  C6  BZF d   1      -2.156   1.063   0.822  0.00  0.00     0.022 A 
ATOM      8  C7  BZF d   1      -1.693   2.321   1.025  0.00  0.00     0.029 A 
ATOM      9  C7A BZF d   1      -0.541   2.677   0.367  0.00  0.00     0.058 A 
ENDROOT
TORSDOF 0
ENDMDL
