MODEL 1
REMARK minimizedAffinity -5.28866816
REMARK minimizedRMSD -1
REMARK  0 active torsions:
REMARK  status: ('A' for Active; 'I' for Inactive)
ROOT
ATOM      1  O1  BZF d   1      -1.108  -0.576   0.319  0.00  0.00    -0.204 OA
ATOM      2  C2  BZF d   1      -0.136  -1.476  -0.076  0.00  0.00     0.174 A 
ATOM      3  C3  BZF d   1       1.012  -0.837  -0.382  0.00  0.00    -0.012 A 
ATOM      4  C3A BZF d   1       0.769   0.539  -0.077  0.00  0.00    -0.107 A 
ATOM      5  C4  BZF d   1       1.535   1.667  -0.154  0.00  0.00     0.055 A 
ATOM      6  C5  BZF d   1       0.976   2.868   0.151  0.00  0.00    -0.016 A 
ATOM      7  C6  BZF d   1      -0.346   2.978   0.530  0.00  0.00     0.022 A 
ATOM      8  C7  BZF d   1      -1.144   1.886   0.625  0.00  0.00     0.029 A 
ATOM      9  C7A BZF d   1      -0.573   0.668   0.350  0.00  0.00     0.058 A 
ENDROOT
TORSDOF 0
ENDMDL
