MODEL 1
REMARK minimizedAffinity 0.118307188
REMARK minimizedRMSD -1
REMARK  0 active torsions:
REMARK  status: ('A' for Active; 'I' for Inactive)
ROOT
ATOM      1  O1  BZF d   1      -1.042   3.471   0.984  0.00  0.00    -0.204 OA
ATOM      2  C2  BZF d   1      -0.021   3.886   0.150  0.00  0.00     0.174 A 
ATOM      3  C3  BZF d   1       0.741   2.840  -0.229  0.00  0.00    -0.012 A 
ATOM      4  C3A BZF d   1       0.106   1.688   0.333  0.00  0.00    -0.107 A 
ATOM      5  C4  BZF d   1       0.382   0.351   0.295  0.00  0.00     0.055 A 
ATOM      6  C5  BZF d   1      -0.394  -0.505   1.011  0.00  0.00    -0.016 A 
ATOM      7  C6  BZF d   1      -1.450  -0.058   1.779  0.00  0.00     0.022 A 
ATOM      8  C7  BZF d   1      -1.765   1.258   1.844  0.00  0.00     0.029 A 
ATOM      9  C7A BZF d   1      -1.003   2.122   1.096  0.00  0.00     0.058 A 
ENDROOT
TORSDOF 0
ENDMDL
