MODEL 1
REMARK minimizedAffinity -3.04055071
REMARK minimizedRMSD -1
REMARK  0 active torsions:
REMARK  status: ('A' for Active; 'I' for Inactive)
ROOT
ATOM      1  O1  BZF d   1       0.775   0.253  -1.172  0.00  0.00    -0.204 OA
ATOM      2  C2  BZF d   1       0.039  -0.910  -1.286  0.00  0.00     0.174 A 
ATOM      3  C3  BZF d   1      -1.008  -0.898  -0.437  0.00  0.00    -0.012 A 
ATOM      4  C3A BZF d   1      -0.974   0.390   0.185  0.00  0.00    -0.107 A 
ATOM      5  C4  BZF d   1      -1.765   1.006   1.112  0.00  0.00     0.055 A 
ATOM      6  C5  BZF d   1      -1.417   2.239   1.563  0.00  0.00    -0.016 A 
ATOM      7  C6  BZF d   1      -0.282   2.883   1.113  0.00  0.00     0.022 A 
ATOM      8  C7  BZF d   1       0.531   2.314   0.190  0.00  0.00     0.029 A 
ATOM      9  C7A BZF d   1       0.163   1.081  -0.292  0.00  0.00     0.058 A 
ENDROOT
TORSDOF 0
ENDMDL
