MODEL 1
REMARK minimizedAffinity -5.01245403
REMARK minimizedRMSD -1
REMARK  0 active torsions:
REMARK  status: ('A' for Active; 'I' for Inactive)
ROOT
ATOM      1  O1  BZF d   1       1.728  -0.429   0.446  0.00  0.00    -0.204 OA
ATOM      2  C2  BZF d   1       0.711  -1.243  -0.014  0.00  0.00     0.174 A 
ATOM      3  C3  BZF d   1      -0.414  -0.530  -0.226  0.00  0.00    -0.012 A 
ATOM      4  C3A BZF d   1      -0.053   0.829   0.035  0.00  0.00    -0.107 A 
ATOM      5  C4  BZF d   1      -0.737   2.010  -0.019  0.00  0.00     0.055 A 
ATOM      6  C5  BZF d   1      -0.114   3.153   0.369  0.00  0.00    -0.016 A 
ATOM      7  C6  BZF d   1       1.190   3.152   0.820  0.00  0.00     0.022 A 
ATOM      8  C7  BZF d   1       1.911   2.007   0.886  0.00  0.00     0.029 A 
ATOM      9  C7A BZF d   1       1.294   0.854   0.464  0.00  0.00     0.058 A 
ENDROOT
TORSDOF 0
ENDMDL
