MODEL 1
REMARK minimizedAffinity -2.87506914
REMARK minimizedRMSD -1
REMARK  0 active torsions:
REMARK  status: ('A' for Active; 'I' for Inactive)
ROOT
ATOM      1  O1  BZF d   1      -1.448   0.091   1.662  0.00  0.00    -0.204 OA
ATOM      2  C2  BZF d   1      -1.046  -1.100   1.089  0.00  0.00     0.174 A 
ATOM      3  C3  BZF d   1      -0.189  -0.876   0.071  0.00  0.00    -0.012 A 
ATOM      4  C3A BZF d   1       0.024   0.539   0.064  0.00  0.00    -0.107 A 
ATOM      5  C4  BZF d   1       0.788   1.369  -0.705  0.00  0.00     0.055 A 
ATOM      6  C5  BZF d   1       0.717   2.710  -0.501  0.00  0.00    -0.016 A 
ATOM      7  C6  BZF d   1      -0.111   3.256   0.459  0.00  0.00     0.022 A 
ATOM      8  C7  BZF d   1      -0.883   2.472   1.250  0.00  0.00     0.029 A 
ATOM      9  C7A BZF d   1      -0.788   1.114   1.068  0.00  0.00     0.058 A 
ENDROOT
TORSDOF 0
ENDMDL
