MODEL 1
REMARK minimizedAffinity -3.82320857
REMARK minimizedRMSD -1
REMARK  0 active torsions:
REMARK  status: ('A' for Active; 'I' for Inactive)
ROOT
ATOM      1  O1  BZF d   1      -0.243  -1.928   0.856  0.00  0.00    -0.204 OA
ATOM      2  C2  BZF d   1      -1.407  -1.426   0.308  0.00  0.00     0.174 A 
ATOM      3  C3  BZF d   1      -1.222  -0.166  -0.136  0.00  0.00    -0.012 A 
ATOM      4  C3A BZF d   1       0.167   0.106   0.069  0.00  0.00    -0.107 A 
ATOM      5  C4  BZF d   1       0.961   1.187  -0.186  0.00  0.00     0.055 A 
ATOM      6  C5  BZF d   1       2.263   1.158   0.202  0.00  0.00    -0.016 A 
ATOM      7  C6  BZF d   1       2.802   0.068   0.852  0.00  0.00     0.022 A 
ATOM      8  C7  BZF d   1       2.056  -1.031   1.123  0.00  0.00     0.029 A 
ATOM      9  C7A BZF d   1       0.749  -1.018   0.702  0.00  0.00     0.058 A 
ENDROOT
TORSDOF 0
ENDMDL
