MODEL 1
REMARK minimizedAffinity -1.28146112
REMARK minimizedRMSD -1
REMARK  0 active torsions:
REMARK  status: ('A' for Active; 'I' for Inactive)
ROOT
ATOM      1  O1  BZF d   1       1.996   1.299   0.697  0.00  0.00    -0.204 OA
ATOM      2  C2  BZF d   1       2.277  -0.044   0.532  0.00  0.00     0.174 A 
ATOM      3  C3  BZF d   1       1.141  -0.770   0.504  0.00  0.00    -0.012 A 
ATOM      4  C3A BZF d   1       0.080   0.188   0.568  0.00  0.00    -0.107 A 
ATOM      5  C4  BZF d   1      -1.282   0.083   0.562  0.00  0.00     0.055 A 
ATOM      6  C5  BZF d   1      -2.031   1.207   0.712  0.00  0.00    -0.016 A 
ATOM      7  C6  BZF d   1      -1.453   2.449   0.876  0.00  0.00     0.022 A 
ATOM      8  C7  BZF d   1      -0.107   2.604   0.883  0.00  0.00     0.029 A 
ATOM      9  C7A BZF d   1       0.653   1.474   0.699  0.00  0.00     0.058 A 
ENDROOT
TORSDOF 0
ENDMDL
