MODEL 1
REMARK minimizedAffinity -3.70587063
REMARK minimizedRMSD -1
REMARK  0 active torsions:
REMARK  status: ('A' for Active; 'I' for Inactive)
ROOT
ATOM      1  O1  BZF d   1      -1.473   1.233   0.944  0.00  0.00    -0.204 OA
ATOM      2  C2  BZF d   1      -1.131   2.572   0.955  0.00  0.00     0.174 A 
ATOM      3  C3  BZF d   1       0.207   2.724   0.893  0.00  0.00    -0.012 A 
ATOM      4  C3A BZF d   1       0.730   1.400   0.747  0.00  0.00    -0.107 A 
ATOM      5  C4  BZF d   1       1.994   0.899   0.617  0.00  0.00     0.055 A 
ATOM      6  C5  BZF d   1       2.169  -0.447   0.568  0.00  0.00    -0.016 A 
ATOM      7  C6  BZF d   1       1.104  -1.321   0.652  0.00  0.00     0.022 A 
ATOM      8  C7  BZF d   1      -0.168  -0.871   0.776  0.00  0.00     0.029 A 
ATOM      9  C7A BZF d   1      -0.351   0.490   0.793  0.00  0.00     0.058 A 
ENDROOT
TORSDOF 0
ENDMDL
