MODEL 1
REMARK minimizedAffinity -3.06069613
REMARK minimizedRMSD -1
REMARK  2 active torsions:
REMARK  status: ('A' for Active; 'I' for Inactive)
REMARK    1  A    between atoms: C1_2  and  C2_3 
REMARK    2  A    between atoms: C2_3  and  C3_4 
ROOT
ATOM      1  C3  UNL d   1       0.720  -0.696  -0.067  0.00  0.00    -0.075 A 
ATOM      2  C4  UNL d   1      -0.509  -0.023  -0.015  0.00  0.00     0.002 A 
ATOM      3  C5  UNL d   1      -0.551   1.370   0.045  0.00  0.00     0.002 A 
ATOM      4  C6  UNL d   1       0.631   2.106   0.064  0.00  0.00    -0.004 A 
ATOM      5  C7  UNL d   1       1.858   1.447   0.030  0.00  0.00     0.002 A 
ATOM      6  C8  UNL d   1       1.904   0.053  -0.035  0.00  0.00     0.002 A 
ENDROOT
BRANCH   1   7
ATOM      7  C2  UNL d   1       0.773  -2.203  -0.161  0.00  0.00     0.056 C 
BRANCH   7   8
ATOM      8  C1  UNL d   1      -0.420  -2.823  -0.896  0.00  0.00     0.007 C 
ATOM      9  C   UNL d   1      -0.009  -3.720  -2.056  0.00  0.00     0.009 C 
ENDBRANCH   7   8
ENDBRANCH   1   7
TORSDOF 2
ENDMDL
