MODEL 1
REMARK minimizedAffinity -5.9395256
REMARK minimizedRMSD -1
REMARK  2 active torsions:
REMARK  status: ('A' for Active; 'I' for Inactive)
REMARK    1  A    between atoms: C1_2  and  C2_3 
REMARK    2  A    between atoms: C2_3  and  C3_4 
ROOT
ATOM      1  C3  UNL d   1      -0.052  -0.168   0.185  0.00  0.00    -0.075 A 
ATOM      2  C4  UNL d   1       0.888   0.818  -0.149  0.00  0.00     0.002 A 
ATOM      3  C5  UNL d   1       0.556   2.170  -0.064  0.00  0.00     0.002 A 
ATOM      4  C6  UNL d   1      -0.719   2.553   0.345  0.00  0.00    -0.004 A 
ATOM      5  C7  UNL d   1      -1.666   1.582   0.663  0.00  0.00     0.002 A 
ATOM      6  C8  UNL d   1      -1.335   0.228   0.583  0.00  0.00     0.002 A 
ENDROOT
BRANCH   1   7
ATOM      7  C2  UNL d   1       0.311  -1.633   0.123  0.00  0.00     0.056 C 
BRANCH   7   8
ATOM      8  C1  UNL d   1      -0.708  -2.496  -0.628  0.00  0.00     0.007 C 
ATOM      9  C   UNL d   1      -0.168  -3.062  -1.935  0.00  0.00     0.009 C 
ENDBRANCH   7   8
ENDBRANCH   1   7
TORSDOF 2
ENDMDL
