MODEL 1
REMARK minimizedAffinity -2.60986185
REMARK minimizedRMSD -1
REMARK  2 active torsions:
REMARK  status: ('A' for Active; 'I' for Inactive)
REMARK    1  A    between atoms: C1_2  and  C2_3 
REMARK    2  A    between atoms: C2_3  and  C3_4 
ROOT
ATOM      1  C3  UNL d   1      -0.091  -2.127  -0.804  0.00  0.00    -0.075 A 
ATOM      2  C4  UNL d   1       0.754  -2.089  -1.923  0.00  0.00     0.002 A 
ATOM      3  C5  UNL d   1       0.559  -2.969  -2.988  0.00  0.00     0.002 A 
ATOM      4  C6  UNL d   1      -0.473  -3.903  -2.944  0.00  0.00    -0.004 A 
ATOM      5  C7  UNL d   1      -1.308  -3.961  -1.830  0.00  0.00     0.002 A 
ATOM      6  C8  UNL d   1      -1.118  -3.079  -0.765  0.00  0.00     0.002 A 
ENDROOT
BRANCH   1   7
ATOM      7  C2  UNL d   1       0.096  -1.157   0.338  0.00  0.00     0.056 C 
BRANCH   7   8
ATOM      8  C1  UNL d   1       0.533   0.245  -0.099  0.00  0.00     0.007 C 
ATOM      9  C   UNL d   1       1.921   0.624   0.400  0.00  0.00     0.009 C 
ENDBRANCH   7   8
ENDBRANCH   1   7
TORSDOF 2
ENDMDL
