MODEL 1
REMARK minimizedAffinity -5.48629093
REMARK minimizedRMSD -1
REMARK  2 active torsions:
REMARK  status: ('A' for Active; 'I' for Inactive)
REMARK    1  A    between atoms: C1_2  and  C2_3 
REMARK    2  A    between atoms: C2_3  and  C3_4 
ROOT
ATOM      1  C3  UNL d   1      -0.071  -0.205  -0.073  0.00  0.00    -0.075 A 
ATOM      2  C4  UNL d   1       0.885   0.762  -0.419  0.00  0.00     0.002 A 
ATOM      3  C5  UNL d   1       0.617   2.119  -0.238  0.00  0.00     0.002 A 
ATOM      4  C6  UNL d   1      -0.611   2.527   0.280  0.00  0.00    -0.004 A 
ATOM      5  C7  UNL d   1      -1.573   1.576   0.611  0.00  0.00     0.002 A 
ATOM      6  C8  UNL d   1      -1.306   0.217   0.435  0.00  0.00     0.002 A 
ENDROOT
BRANCH   1   7
ATOM      7  C2  UNL d   1       0.224  -1.677  -0.239  0.00  0.00     0.056 C 
BRANCH   7   8
ATOM      8  C1  UNL d   1      -0.632  -2.368  -1.305  0.00  0.00     0.007 C 
ATOM      9  C   UNL d   1       0.181  -2.896  -2.479  0.00  0.00     0.009 C 
ENDBRANCH   7   8
ENDBRANCH   1   7
TORSDOF 2
ENDMDL
