MODEL 1
REMARK minimizedAffinity -6.52168226
REMARK minimizedRMSD -1
REMARK  2 active torsions:
REMARK  status: ('A' for Active; 'I' for Inactive)
REMARK    1  A    between atoms: C1_2  and  C2_3 
REMARK    2  A    between atoms: C2_3  and  C3_4 
ROOT
ATOM      1  C3  UNL d   1      -0.252  -0.264  -0.325  0.00  0.00    -0.075 A 
ATOM      2  C4  UNL d   1      -1.426   0.353   0.131  0.00  0.00     0.002 A 
ATOM      3  C5  UNL d   1      -1.475   1.735   0.310  0.00  0.00     0.002 A 
ATOM      4  C6  UNL d   1      -0.352   2.516   0.047  0.00  0.00    -0.004 A 
ATOM      5  C7  UNL d   1       0.825   1.911  -0.390  0.00  0.00     0.002 A 
ATOM      6  C8  UNL d   1       0.876   0.529  -0.575  0.00  0.00     0.002 A 
ENDROOT
BRANCH   1   7
ATOM      7  C2  UNL d   1      -0.200  -1.757  -0.550  0.00  0.00     0.056 C 
BRANCH   7   8
ATOM      8  C1  UNL d   1       0.100  -2.160  -1.997  0.00  0.00     0.007 C 
ATOM      9  C   UNL d   1      -0.906  -3.152  -2.565  0.00  0.00     0.009 C 
ENDBRANCH   7   8
ENDBRANCH   1   7
TORSDOF 2
ENDMDL
