MODEL 1
REMARK minimizedAffinity -4.34175014
REMARK minimizedRMSD -1
REMARK  2 active torsions:
REMARK  status: ('A' for Active; 'I' for Inactive)
REMARK    1  A    between atoms: C1_2  and  C2_3 
REMARK    2  A    between atoms: C2_3  and  C3_4 
ROOT
ATOM      1  C3  UNL d   1       0.191   0.199  -0.085  0.00  0.00    -0.075 A 
ATOM      2  C4  UNL d   1       1.150   0.776  -0.930  0.00  0.00     0.002 A 
ATOM      3  C5  UNL d   1       1.492   2.122  -0.799  0.00  0.00     0.002 A 
ATOM      4  C6  UNL d   1       0.873   2.910   0.169  0.00  0.00    -0.004 A 
ATOM      5  C7  UNL d   1      -0.093   2.351   1.003  0.00  0.00     0.002 A 
ATOM      6  C8  UNL d   1      -0.434   1.003   0.877  0.00  0.00     0.002 A 
ENDROOT
BRANCH   1   7
ATOM      7  C2  UNL d   1      -0.162  -1.264  -0.202  0.00  0.00     0.056 C 
BRANCH   7   8
ATOM      8  C1  UNL d   1      -0.150  -1.796  -1.640  0.00  0.00     0.007 C 
ATOM      9  C   UNL d   1      -0.851  -3.139  -1.789  0.00  0.00     0.009 C 
ENDBRANCH   7   8
ENDBRANCH   1   7
TORSDOF 2
ENDMDL
