MODEL 1
REMARK minimizedAffinity -6.06767082
REMARK minimizedRMSD -1
REMARK  2 active torsions:
REMARK  status: ('A' for Active; 'I' for Inactive)
REMARK    1  A    between atoms: C1_2  and  C2_3 
REMARK    2  A    between atoms: C2_3  and  C3_4 
ROOT
ATOM      1  C3  UNL d   1       0.346  -0.040   0.250  0.00  0.00    -0.075 A 
ATOM      2  C4  UNL d   1      -0.945   0.346   0.639  0.00  0.00     0.002 A 
ATOM      3  C5  UNL d   1      -1.313   1.692   0.635  0.00  0.00     0.002 A 
ATOM      4  C6  UNL d   1      -0.395   2.667   0.253  0.00  0.00    -0.004 A 
ATOM      5  C7  UNL d   1       0.896   2.297  -0.120  0.00  0.00     0.002 A 
ATOM      6  C8  UNL d   1       1.265   0.950  -0.121  0.00  0.00     0.002 A 
ENDROOT
BRANCH   1   7
ATOM      7  C2  UNL d   1       0.742  -1.497   0.223  0.00  0.00     0.056 C 
BRANCH   7   8
ATOM      8  C1  UNL d   1      -0.087  -2.351  -0.742  0.00  0.00     0.007 C 
ATOM      9  C   UNL d   1       0.266  -3.831  -0.688  0.00  0.00     0.009 C 
ENDBRANCH   7   8
ENDBRANCH   1   7
TORSDOF 2
ENDMDL
