MODEL 1
REMARK minimizedAffinity -5.31416559
REMARK minimizedRMSD -1
REMARK  2 active torsions:
REMARK  status: ('A' for Active; 'I' for Inactive)
REMARK    1  A    between atoms: C1_2  and  C2_3 
REMARK    2  A    between atoms: C2_3  and  C3_4 
ROOT
ATOM      1  C3  UNL d   1      -0.211  -0.138   0.362  0.00  0.00    -0.075 A 
ATOM      2  C4  UNL d   1       1.084   0.402   0.372  0.00  0.00     0.002 A 
ATOM      3  C5  UNL d   1       1.279   1.771   0.558  0.00  0.00     0.002 A 
ATOM      4  C6  UNL d   1       0.185   2.617   0.727  0.00  0.00    -0.004 A 
ATOM      5  C7  UNL d   1      -1.106   2.093   0.702  0.00  0.00     0.002 A 
ATOM      6  C8  UNL d   1      -1.304   0.724   0.521  0.00  0.00     0.002 A 
ENDROOT
BRANCH   1   7
ATOM      7  C2  UNL d   1      -0.427  -1.623   0.191  0.00  0.00     0.056 C 
BRANCH   7   8
ATOM      8  C1  UNL d   1      -0.046  -2.152  -1.196  0.00  0.00     0.007 C 
ATOM      9  C   UNL d   1      -0.899  -3.332  -1.643  0.00  0.00     0.009 C 
ENDBRANCH   7   8
ENDBRANCH   1   7
TORSDOF 2
ENDMDL
