MODEL 1
REMARK minimizedAffinity 10.0122204
REMARK minimizedRMSD -1
REMARK  0 active torsions:
REMARK  status: ('A' for Active; 'I' for Inactive)
ROOT
ATOM      1  C   UNL d   1      -4.833   5.974   5.994  0.00  0.00     0.020 A 
ATOM      2  C1  UNL d   1      -5.984   5.362   5.500  0.00  0.00     0.020 A 
ATOM      3  C2  UNL d   1      -5.973   4.774   4.233  0.00  0.00     0.034 A 
ATOM      4  C3  UNL d   1      -4.808   4.798   3.456  0.00  0.00     0.017 A 
ATOM      5  C4  UNL d   1      -3.654   5.414   3.954  0.00  0.00     0.017 A 
ATOM      6  C5  UNL d   1      -3.671   6.000   5.223  0.00  0.00     0.034 A 
ATOM      7 Cl   UNL d   1      -2.180   5.483   3.054  0.00  0.00    -0.070 Cl
ATOM      8 Cl1  UNL d   1      -4.866   4.052   1.899  0.00  0.00    -0.070 Cl
ENDROOT
TORSDOF 0
ENDMDL
