MODEL 1
REMARK minimizedAffinity 5.32214594
REMARK minimizedRMSD -1
REMARK  0 active torsions:
REMARK  status: ('A' for Active; 'I' for Inactive)
ROOT
ATOM      1  C   UNL d   1       3.386   0.991  -0.320  0.00  0.00     0.020 A 
ATOM      2  C1  UNL d   1       2.703   0.604  -1.473  0.00  0.00     0.020 A 
ATOM      3  C2  UNL d   1       2.067  -0.638  -1.522  0.00  0.00     0.034 A 
ATOM      4  C3  UNL d   1       2.111  -1.497  -0.418  0.00  0.00     0.017 A 
ATOM      5  C4  UNL d   1       2.797  -1.107   0.738  0.00  0.00     0.017 A 
ATOM      6  C5  UNL d   1       3.432   0.138   0.783  0.00  0.00     0.034 A 
ATOM      7 Cl   UNL d   1       2.896  -2.112   2.140  0.00  0.00    -0.070 Cl
ATOM      8 Cl1  UNL d   1       1.302  -3.018  -0.550  0.00  0.00    -0.070 Cl
ENDROOT
TORSDOF 0
ENDMDL
