MODEL 1
REMARK minimizedAffinity 8.76888752
REMARK minimizedRMSD -1
REMARK  0 active torsions:
REMARK  status: ('A' for Active; 'I' for Inactive)
ROOT
ATOM      1  C   UNL d   1       4.106   1.468   0.876  0.00  0.00     0.020 A 
ATOM      2  C1  UNL d   1       3.719   1.877  -0.400  0.00  0.00     0.020 A 
ATOM      3  C2  UNL d   1       2.860   1.079  -1.158  0.00  0.00     0.034 A 
ATOM      4  C3  UNL d   1       2.384  -0.132  -0.641  0.00  0.00     0.017 A 
ATOM      5  C4  UNL d   1       2.773  -0.541   0.639  0.00  0.00     0.017 A 
ATOM      6  C5  UNL d   1       3.634   0.262   1.394  0.00  0.00     0.034 A 
ATOM      7 Cl   UNL d   1       2.228  -2.022   1.345  0.00  0.00    -0.070 Cl
ATOM      8 Cl1  UNL d   1       1.324  -1.068  -1.634  0.00  0.00    -0.070 Cl
ENDROOT
TORSDOF 0
ENDMDL
