MODEL 1
REMARK minimizedAffinity 9.30095482
REMARK minimizedRMSD -1
REMARK  0 active torsions:
REMARK  status: ('A' for Active; 'I' for Inactive)
ROOT
ATOM      1  C   UNL d   1      -5.729   3.550   2.745  0.00  0.00     0.020 A 
ATOM      2  C1  UNL d   1      -4.458   3.612   2.175  0.00  0.00     0.020 A 
ATOM      3  C2  UNL d   1      -3.457   4.374   2.782  0.00  0.00     0.034 A 
ATOM      4  C3  UNL d   1      -3.725   5.075   3.963  0.00  0.00     0.017 A 
ATOM      5  C4  UNL d   1      -5.001   5.012   4.535  0.00  0.00     0.017 A 
ATOM      6  C5  UNL d   1      -5.999   4.248   3.923  0.00  0.00     0.034 A 
ATOM      7 Cl   UNL d   1      -5.406   5.850   5.991  0.00  0.00    -0.070 Cl
ATOM      8 Cl1  UNL d   1      -2.439   5.996   4.659  0.00  0.00    -0.070 Cl
ENDROOT
TORSDOF 0
ENDMDL
