MODEL 1
REMARK minimizedAffinity 5.43507862
REMARK minimizedRMSD -1
REMARK  0 active torsions:
REMARK  status: ('A' for Active; 'I' for Inactive)
ROOT
ATOM      1  C   UNL d   1       1.755   0.924  -0.963  0.00  0.00     0.020 A 
ATOM      2  C1  UNL d   1       2.755   0.309  -0.211  0.00  0.00     0.020 A 
ATOM      3  C2  UNL d   1       3.368   1.001   0.835  0.00  0.00     0.034 A 
ATOM      4  C3  UNL d   1       2.982   2.314   1.132  0.00  0.00     0.017 A 
ATOM      5  C4  UNL d   1       1.978   2.930   0.376  0.00  0.00     0.017 A 
ATOM      6  C5  UNL d   1       1.368   2.232  -0.670  0.00  0.00     0.034 A 
ATOM      7 Cl   UNL d   1       1.448   4.547   0.683  0.00  0.00    -0.070 Cl
ATOM      8 Cl1  UNL d   1       3.782   3.110   2.439  0.00  0.00    -0.070 Cl
ENDROOT
TORSDOF 0
ENDMDL
