MODEL 1
REMARK minimizedAffinity 9.88177776
REMARK minimizedRMSD -1
REMARK  0 active torsions:
REMARK  status: ('A' for Active; 'I' for Inactive)
ROOT
ATOM      1  C   UNL d   1      -4.490   1.114  -6.000  0.00  0.00     0.020 A 
ATOM      2  C1  UNL d   1      -5.596   0.753  -5.231  0.00  0.00     0.020 A 
ATOM      3  C2  UNL d   1      -5.414   0.147  -3.986  0.00  0.00     0.034 A 
ATOM      4  C3  UNL d   1      -4.122  -0.099  -3.506  0.00  0.00     0.017 A 
ATOM      5  C4  UNL d   1      -3.013   0.263  -4.278  0.00  0.00     0.017 A 
ATOM      6  C5  UNL d   1      -3.201   0.870  -5.524  0.00  0.00     0.034 A 
ATOM      7 Cl   UNL d   1      -1.389  -0.009  -3.753  0.00  0.00    -0.070 Cl
ATOM      8 Cl1  UNL d   1      -3.971  -0.851  -1.958  0.00  0.00    -0.070 Cl
ENDROOT
TORSDOF 0
ENDMDL
