MODEL 1
REMARK minimizedAffinity 3.47284603
REMARK minimizedRMSD -1
REMARK  0 active torsions:
REMARK  status: ('A' for Active; 'I' for Inactive)
ROOT
ATOM      1  C   UNL d   1       3.411   1.120  -0.168  0.00  0.00     0.020 A 
ATOM      2  C1  UNL d   1       2.943   0.766  -1.433  0.00  0.00     0.020 A 
ATOM      3  C2  UNL d   1       2.494  -0.534  -1.673  0.00  0.00     0.034 A 
ATOM      4  C3  UNL d   1       2.511  -1.485  -0.646  0.00  0.00     0.017 A 
ATOM      5  C4  UNL d   1       2.980  -1.128   0.624  0.00  0.00     0.017 A 
ATOM      6  C5  UNL d   1       3.429   0.175   0.858  0.00  0.00     0.034 A 
ATOM      7 Cl   UNL d   1       3.031  -2.247   1.940  0.00  0.00    -0.070 Cl
ATOM      8 Cl1  UNL d   1       1.940  -3.074  -1.013  0.00  0.00    -0.070 Cl
ENDROOT
TORSDOF 0
ENDMDL
