MODEL 1
REMARK minimizedAffinity 12.8808813
REMARK minimizedRMSD -1
REMARK  0 active torsions:
REMARK  status: ('A' for Active; 'I' for Inactive)
ROOT
ATOM      1  C   UNL d   1       4.304   1.714   0.102  0.00  0.00     0.020 A 
ATOM      2  C1  UNL d   1       3.982   1.738  -1.255  0.00  0.00     0.020 A 
ATOM      3  C2  UNL d   1       3.013   0.867  -1.758  0.00  0.00     0.034 A 
ATOM      4  C3  UNL d   1       2.362  -0.031  -0.904  0.00  0.00     0.017 A 
ATOM      5  C4  UNL d   1       2.686  -0.054   0.458  0.00  0.00     0.017 A 
ATOM      6  C5  UNL d   1       3.658   0.820   0.956  0.00  0.00     0.034 A 
ATOM      7 Cl   UNL d   1       1.927  -1.134   1.573  0.00  0.00    -0.070 Cl
ATOM      8 Cl1  UNL d   1       1.174  -1.078  -1.594  0.00  0.00    -0.070 Cl
ENDROOT
TORSDOF 0
ENDMDL
