MODEL 1
REMARK minimizedAffinity 3.25035906
REMARK minimizedRMSD -1
REMARK  0 active torsions:
REMARK  status: ('A' for Active; 'I' for Inactive)
ROOT
ATOM      1  C   UNL d   1      -5.105   5.649   5.996  0.00  0.00     0.020 A 
ATOM      2  C1  UNL d   1      -5.995   4.816   5.317  0.00  0.00     0.020 A 
ATOM      3  C2  UNL d   1      -5.667   4.330   4.050  0.00  0.00     0.034 A 
ATOM      4  C3  UNL d   1      -4.447   4.676   3.457  0.00  0.00     0.017 A 
ATOM      5  C4  UNL d   1      -3.555   5.511   4.139  0.00  0.00     0.017 A 
ATOM      6  C5  UNL d   1      -3.888   5.995   5.408  0.00  0.00     0.034 A 
ATOM      7 Cl   UNL d   1      -2.032   5.981   3.472  0.00  0.00    -0.070 Cl
ATOM      8 Cl1  UNL d   1      -4.108   4.038   1.888  0.00  0.00    -0.070 Cl
ENDROOT
TORSDOF 0
ENDMDL
