MODEL 1
REMARK minimizedAffinity 5.13976812
REMARK minimizedRMSD -1
REMARK  0 active torsions:
REMARK  status: ('A' for Active; 'I' for Inactive)
ROOT
ATOM      1  C   UNL d   1      -5.999   4.997   5.253  0.00  0.00     0.020 A 
ATOM      2  C1  UNL d   1      -5.118   5.804   5.972  0.00  0.00     0.020 A 
ATOM      3  C2  UNL d   1      -3.800   5.959   5.537  0.00  0.00     0.034 A 
ATOM      4  C3  UNL d   1      -3.359   5.305   4.380  0.00  0.00     0.017 A 
ATOM      5  C4  UNL d   1      -4.245   4.495   3.660  0.00  0.00     0.017 A 
ATOM      6  C5  UNL d   1      -5.563   4.344   4.100  0.00  0.00     0.034 A 
ATOM      7 Cl   UNL d   1      -3.774   3.657   2.224  0.00  0.00    -0.070 Cl
ATOM      8 Cl1  UNL d   1      -1.717   5.542   3.900  0.00  0.00    -0.070 Cl
ENDROOT
TORSDOF 0
ENDMDL
