MODEL 1
REMARK minimizedAffinity 0.735618412
REMARK minimizedRMSD -1
REMARK  0 active torsions:
REMARK  status: ('A' for Active; 'I' for Inactive)
ROOT
ATOM      1  C   UNL d   1       0.970  -0.662  -0.285  0.00  0.00     0.023 A 
ATOM      2  C1  UNL d   1       0.015  -1.597  -0.686  0.00  0.00     0.003 A 
ATOM      3  C2  UNL d   1      -1.344  -1.328  -0.513  0.00  0.00     0.048 A 
ATOM      4  C3  UNL d   1      -1.742  -0.121   0.061  0.00  0.00     0.023 A 
ATOM      5  C4  UNL d   1      -0.791   0.819   0.462  0.00  0.00     0.048 A 
ATOM      6  C5  UNL d   1       0.567   0.545   0.288  0.00  0.00     0.003 A 
ATOM      7  I   UNL d   1      -3.765   0.282   0.319  0.00  0.00    -0.146 I 
ENDROOT
TORSDOF 0
ENDMDL
