MODEL 1
REMARK minimizedAffinity -3.90709901
REMARK minimizedRMSD -1
REMARK  0 active torsions:
REMARK  status: ('A' for Active; 'I' for Inactive)
ROOT
ATOM      1  C   UNL d   1       2.666  -0.714   0.270  0.00  0.00     0.023 A 
ATOM      2  C1  UNL d   1       2.350   0.591   0.650  0.00  0.00     0.003 A 
ATOM      3  C2  UNL d   1       1.020   1.016   0.651  0.00  0.00     0.048 A 
ATOM      4  C3  UNL d   1       0.011   0.131   0.272  0.00  0.00     0.023 A 
ATOM      5  C4  UNL d   1       0.323  -1.176  -0.107  0.00  0.00     0.048 A 
ATOM      6  C5  UNL d   1       1.654  -1.596  -0.108  0.00  0.00     0.003 A 
ATOM      7  I   UNL d   1      -1.969   0.761   0.273  0.00  0.00    -0.146 I 
ENDROOT
TORSDOF 0
ENDMDL
