MODEL 1
REMARK minimizedAffinity -4.86264753
REMARK minimizedRMSD -1
REMARK  0 active torsions:
REMARK  status: ('A' for Active; 'I' for Inactive)
ROOT
ATOM      1  C   UNL d   1       3.583   0.105   0.777  0.00  0.00     0.023 A 
ATOM      2  C1  UNL d   1       2.756  -1.003   0.959  0.00  0.00     0.003 A 
ATOM      3  C2  UNL d   1       1.392  -0.913   0.671  0.00  0.00     0.048 A 
ATOM      4  C3  UNL d   1       0.863   0.289   0.200  0.00  0.00     0.023 A 
ATOM      5  C4  UNL d   1       1.688   1.400   0.016  0.00  0.00     0.048 A 
ATOM      6  C5  UNL d   1       3.050   1.305   0.306  0.00  0.00     0.003 A 
ATOM      7  I   UNL d   1      -1.166   0.426  -0.229  0.00  0.00    -0.146 I 
ENDROOT
TORSDOF 0
ENDMDL
