MODEL 1
REMARK minimizedAffinity -3.52937627
REMARK minimizedRMSD -1
REMARK  0 active torsions:
REMARK  status: ('A' for Active; 'I' for Inactive)
ROOT
ATOM      1  C   UNL d   1       3.078  -0.556   0.506  0.00  0.00     0.023 A 
ATOM      2  C1  UNL d   1       2.232  -1.586   0.092  0.00  0.00     0.003 A 
ATOM      3  C2  UNL d   1       0.901  -1.311  -0.227  0.00  0.00     0.048 A 
ATOM      4  C3  UNL d   1       0.422  -0.005  -0.131  0.00  0.00     0.023 A 
ATOM      5  C4  UNL d   1       1.265   1.028   0.282  0.00  0.00     0.048 A 
ATOM      6  C5  UNL d   1       2.595   0.749   0.601  0.00  0.00     0.003 A 
ATOM      7  I   UNL d   1      -1.560   0.406  -0.605  0.00  0.00    -0.146 I 
ENDROOT
TORSDOF 0
ENDMDL
