MODEL 1
REMARK minimizedAffinity -3.95269871
REMARK minimizedRMSD -1
REMARK  0 active torsions:
REMARK  status: ('A' for Active; 'I' for Inactive)
ROOT
ATOM      1  C   UNL d   1       3.403  -0.604   1.195  0.00  0.00     0.023 A 
ATOM      2  C1  UNL d   1       2.590  -1.705   0.926  0.00  0.00     0.003 A 
ATOM      3  C2  UNL d   1       1.353  -1.526   0.304  0.00  0.00     0.048 A 
ATOM      4  C3  UNL d   1       0.935  -0.243  -0.047  0.00  0.00     0.023 A 
ATOM      5  C4  UNL d   1       1.746   0.862   0.219  0.00  0.00     0.048 A 
ATOM      6  C5  UNL d   1       2.981   0.678   0.842  0.00  0.00     0.003 A 
ATOM      7  I   UNL d   1      -0.906   0.026  -0.974  0.00  0.00    -0.146 I 
ENDROOT
TORSDOF 0
ENDMDL
