MODEL 1
REMARK minimizedAffinity 2.15360427
REMARK minimizedRMSD -1
REMARK  1 active torsions:
REMARK  status: ('A' for Active; 'I' for Inactive)
REMARK    1  A    between atoms: N_2  and  C1_3 
ROOT
ATOM      1  C1  UNL d   1       0.336  -1.755   3.103  0.00  0.00     0.143 A 
ATOM      2  C2  UNL d   1       0.624  -0.854   4.134  0.00  0.00    -0.057 A 
ATOM      3  C3  UNL d   1      -0.082  -0.884   5.343  0.00  0.00     0.033 A 
ATOM      4  C4  UNL d   1      -1.111  -1.800   5.531  0.00  0.00    -0.042 A 
ATOM      5  C5  UNL d   1      -1.432  -2.689   4.511  0.00  0.00     0.033 A 
ATOM      6  C6  UNL d   1      -0.719  -2.658   3.309  0.00  0.00    -0.057 A 
ENDROOT
BRANCH   1   7
ATOM      7  N   UNL d   1       0.936  -1.712   1.842  0.00  0.00    -0.732 N 
ATOM      8  C   UNL d   1       1.790  -0.605   1.469  0.00  0.00     0.284 C 
ATOM      9  H3  UNL d   1       1.281  -2.622   1.544  0.00  0.00     0.395 HD
ENDBRANCH   1   7
TORSDOF 1
ENDMDL
