MODEL 1
REMARK minimizedAffinity 11.0674238
REMARK minimizedRMSD -1
REMARK  1 active torsions:
REMARK  status: ('A' for Active; 'I' for Inactive)
REMARK    1  A    between atoms: N_2  and  C1_3 
ROOT
ATOM      1  C1  UNL d   1       3.752  -1.956  -0.016  0.00  0.00     0.143 A 
ATOM      2  C2  UNL d   1       3.146  -1.207   0.999  0.00  0.00    -0.057 A 
ATOM      3  C3  UNL d   1       2.030  -1.691   1.691  0.00  0.00     0.033 A 
ATOM      4  C4  UNL d   1       1.480  -2.925   1.361  0.00  0.00    -0.042 A 
ATOM      5  C5  UNL d   1       2.051  -3.676   0.339  0.00  0.00     0.033 A 
ATOM      6  C6  UNL d   1       3.169  -3.190  -0.344  0.00  0.00    -0.057 A 
ENDROOT
BRANCH   1   7
ATOM      7  N   UNL d   1       4.803  -1.487  -0.807  0.00  0.00    -0.732 N 
ATOM      8  C   UNL d   1       4.538  -0.735  -2.015  0.00  0.00     0.284 C 
ATOM      9  H3  UNL d   1       5.575  -1.124  -0.253  0.00  0.00     0.395 HD
ENDBRANCH   1   7
TORSDOF 1
ENDMDL
