MODEL 1
REMARK minimizedAffinity 7.74767447
REMARK minimizedRMSD -1
REMARK  1 active torsions:
REMARK  status: ('A' for Active; 'I' for Inactive)
REMARK    1  A    between atoms: N_2  and  C1_3 
ROOT
ATOM      1  C1  UNL d   1       2.442  -4.981  -4.787  0.00  0.00     0.143 A 
ATOM      2  C2  UNL d   1       2.959  -3.682  -4.811  0.00  0.00    -0.057 A 
ATOM      3  C3  UNL d   1       4.188  -3.401  -5.420  0.00  0.00     0.033 A 
ATOM      4  C4  UNL d   1       4.938  -4.423  -5.991  0.00  0.00    -0.042 A 
ATOM      5  C5  UNL d   1       4.456  -5.727  -5.957  0.00  0.00     0.033 A 
ATOM      6  C6  UNL d   1       3.224  -6.000  -5.354  0.00  0.00    -0.057 A 
ENDROOT
BRANCH   1   7
ATOM      7  N   UNL d   1       1.273  -5.341  -4.111  0.00  0.00    -0.732 N 
ATOM      8  C   UNL d   1       0.743  -4.502  -3.058  0.00  0.00     0.284 C 
ATOM      9  H3  UNL d   1       0.566  -5.722  -4.735  0.00  0.00     0.395 HD
ENDBRANCH   1   7
TORSDOF 1
ENDMDL
