MODEL 1
REMARK minimizedAffinity 11.1050129
REMARK minimizedRMSD -1
REMARK  1 active torsions:
REMARK  status: ('A' for Active; 'I' for Inactive)
REMARK    1  A    between atoms: N_2  and  C1_3 
ROOT
ATOM      1  C1  UNL d   1       0.147  -0.652   3.939  0.00  0.00     0.143 A 
ATOM      2  C2  UNL d   1       1.121   0.014   3.188  0.00  0.00    -0.057 A 
ATOM      3  C3  UNL d   1       1.521  -0.461   1.932  0.00  0.00     0.033 A 
ATOM      4  C4  UNL d   1       0.972  -1.630   1.418  0.00  0.00    -0.042 A 
ATOM      5  C5  UNL d   1       0.020  -2.322   2.158  0.00  0.00     0.033 A 
ATOM      6  C6  UNL d   1      -0.380  -1.840   3.408  0.00  0.00    -0.057 A 
ENDROOT
BRANCH   1   7
ATOM      7  N   UNL d   1      -0.221  -0.285   5.236  0.00  0.00    -0.732 N 
ATOM      8  C   UNL d   1      -1.258  -1.008   5.940  0.00  0.00     0.284 C 
ATOM      9  H3  UNL d   1       0.581  -0.040   5.812  0.00  0.00     0.395 HD
ENDBRANCH   1   7
TORSDOF 1
ENDMDL
