MODEL 1
REMARK minimizedAffinity 13.2216911
REMARK minimizedRMSD -1
REMARK  1 active torsions:
REMARK  status: ('A' for Active; 'I' for Inactive)
REMARK    1  A    between atoms: N_2  and  C1_3 
ROOT
ATOM      1  C1  UNL d   1      -0.852  -2.102   3.416  0.00  0.00     0.143 A 
ATOM      2  C2  UNL d   1      -0.071  -1.973   2.262  0.00  0.00    -0.057 A 
ATOM      3  C3  UNL d   1       0.885  -0.957   2.142  0.00  0.00     0.033 A 
ATOM      4  C4  UNL d   1       1.058  -0.032   3.166  0.00  0.00    -0.042 A 
ATOM      5  C5  UNL d   1       0.275  -0.125   4.312  0.00  0.00     0.033 A 
ATOM      6  C6  UNL d   1      -0.673  -1.146   4.428  0.00  0.00    -0.057 A 
ENDROOT
BRANCH   1   7
ATOM      7  N   UNL d   1      -1.887  -3.030   3.555  0.00  0.00    -0.732 N 
ATOM      8  C   UNL d   1      -2.710  -3.392   2.421  0.00  0.00     0.284 C 
ATOM      9  H3  UNL d   1      -1.628  -3.815   4.149  0.00  0.00     0.395 HD
ENDBRANCH   1   7
TORSDOF 1
ENDMDL
