MODEL 1
REMARK minimizedAffinity 2.71216464
REMARK minimizedRMSD -1
REMARK  1 active torsions:
REMARK  status: ('A' for Active; 'I' for Inactive)
REMARK    1  A    between atoms: N_2  and  C1_3 
ROOT
ATOM      1  C1  UNL d   1      -4.984  -4.805   3.476  0.00  0.00     0.143 A 
ATOM      2  C2  UNL d   1      -4.631  -3.673   2.733  0.00  0.00    -0.057 A 
ATOM      3  C3  UNL d   1      -4.660  -3.686   1.333  0.00  0.00     0.033 A 
ATOM      4  C4  UNL d   1      -5.015  -4.844   0.649  0.00  0.00    -0.042 A 
ATOM      5  C5  UNL d   1      -5.345  -5.988   1.367  0.00  0.00     0.033 A 
ATOM      6  C6  UNL d   1      -5.322  -5.967   2.765  0.00  0.00    -0.057 A 
ENDROOT
BRANCH   1   7
ATOM      7  N   UNL d   1      -4.881  -4.885   4.867  0.00  0.00    -0.732 N 
ATOM      8  C   UNL d   1      -5.996  -4.512   5.712  0.00  0.00     0.284 C 
ATOM      9  H3  UNL d   1      -4.390  -5.723   5.173  0.00  0.00     0.395 HD
ENDBRANCH   1   7
TORSDOF 1
ENDMDL
