MODEL 1
REMARK minimizedAffinity 8.05940151
REMARK minimizedRMSD -1
REMARK  1 active torsions:
REMARK  status: ('A' for Active; 'I' for Inactive)
REMARK    1  A    between atoms: N_2  and  C1_3 
ROOT
ATOM      1  C1  UNL d   1       5.435  -3.176  -5.016  0.00  0.00     0.143 A 
ATOM      2  C2  UNL d   1       5.995  -3.005  -3.745  0.00  0.00    -0.057 A 
ATOM      3  C3  UNL d   1       5.465  -2.081  -2.837  0.00  0.00     0.033 A 
ATOM      4  C4  UNL d   1       4.381  -1.288  -3.195  0.00  0.00    -0.042 A 
ATOM      5  C5  UNL d   1       3.824  -1.422  -4.462  0.00  0.00     0.033 A 
ATOM      6  C6  UNL d   1       4.353  -2.352  -5.363  0.00  0.00    -0.057 A 
ENDROOT
BRANCH   1   7
ATOM      7  N   UNL d   1       5.977  -4.007  -5.999  0.00  0.00    -0.732 N 
ATOM      8  C   UNL d   1       5.991  -5.444  -5.824  0.00  0.00     0.284 C 
ATOM      9  H3  UNL d   1       5.734  -3.706  -6.940  0.00  0.00     0.395 HD
ENDBRANCH   1   7
TORSDOF 1
ENDMDL
