MODEL 1
REMARK minimizedAffinity 13.554575
REMARK minimizedRMSD -1
REMARK  1 active torsions:
REMARK  status: ('A' for Active; 'I' for Inactive)
REMARK    1  A    between atoms: N_2  and  C1_3 
ROOT
ATOM      1  C1  UNL d   1       3.537  -2.148   0.034  0.00  0.00     0.143 A 
ATOM      2  C2  UNL d   1       2.976  -1.185   0.880  0.00  0.00    -0.057 A 
ATOM      3  C3  UNL d   1       1.709  -1.368   1.448  0.00  0.00     0.033 A 
ATOM      4  C4  UNL d   1       0.967  -2.507   1.157  0.00  0.00    -0.042 A 
ATOM      5  C5  UNL d   1       1.494  -3.465   0.298  0.00  0.00     0.033 A 
ATOM      6  C6  UNL d   1       2.762  -3.281  -0.261  0.00  0.00    -0.057 A 
ENDROOT
BRANCH   1   7
ATOM      7  N   UNL d   1       4.749  -1.980  -0.640  0.00  0.00    -0.732 N 
ATOM      8  C   UNL d   1       4.832  -1.124  -1.805  0.00  0.00     0.284 C 
ATOM      9  H3  UNL d   1       5.538  -1.894  -0.004  0.00  0.00     0.395 HD
ENDBRANCH   1   7
TORSDOF 1
ENDMDL
