MODEL 1
REMARK minimizedAffinity 11.9703865
REMARK minimizedRMSD -1
REMARK  1 active torsions:
REMARK  status: ('A' for Active; 'I' for Inactive)
REMARK    1  A    between atoms: N_2  and  C1_3 
ROOT
ATOM      1  C1  UNL d   1       5.042  -1.504  -4.493  0.00  0.00     0.143 A 
ATOM      2  C2  UNL d   1       3.725  -1.199  -4.133  0.00  0.00    -0.057 A 
ATOM      3  C3  UNL d   1       3.385  -0.900  -2.808  0.00  0.00     0.033 A 
ATOM      4  C4  UNL d   1       4.355  -0.930  -1.812  0.00  0.00    -0.042 A 
ATOM      5  C5  UNL d   1       5.665  -1.256  -2.142  0.00  0.00     0.033 A 
ATOM      6  C6  UNL d   1       6.000  -1.547  -3.468  0.00  0.00    -0.057 A 
ENDROOT
BRANCH   1   7
ATOM      7  N   UNL d   1       5.425  -1.906  -5.775  0.00  0.00    -0.732 N 
ATOM      8  C   UNL d   1       6.000  -3.215  -5.997  0.00  0.00     0.284 C 
ATOM      9  H3  UNL d   1       4.757  -1.619  -6.488  0.00  0.00     0.395 HD
ENDBRANCH   1   7
TORSDOF 1
ENDMDL
