MODEL 1
REMARK minimizedAffinity 12.6845541
REMARK minimizedRMSD -1
REMARK  1 active torsions:
REMARK  status: ('A' for Active; 'I' for Inactive)
REMARK    1  A    between atoms: N_2  and  C1_3 
ROOT
ATOM      1  C1  UNL d   1       3.812  -0.490  -0.311  0.00  0.00     0.143 A 
ATOM      2  C2  UNL d   1       3.458  -1.373   0.715  0.00  0.00    -0.057 A 
ATOM      3  C3  UNL d   1       3.061  -0.902   1.973  0.00  0.00     0.033 A 
ATOM      4  C4  UNL d   1       3.039   0.464   2.236  0.00  0.00    -0.042 A 
ATOM      5  C5  UNL d   1       3.410   1.358   1.238  0.00  0.00     0.033 A 
ATOM      6  C6  UNL d   1       3.799   0.882  -0.018  0.00  0.00    -0.057 A 
ENDROOT
BRANCH   1   7
ATOM      7  N   UNL d   1       4.309  -0.899  -1.551  0.00  0.00    -0.732 N 
ATOM      8  C   UNL d   1       4.226  -0.026  -2.702  0.00  0.00     0.284 C 
ATOM      9  H3  UNL d   1       5.193  -1.397  -1.470  0.00  0.00     0.395 HD
ENDBRANCH   1   7
TORSDOF 1
ENDMDL
