MODEL 1
REMARK minimizedAffinity 9.41381454
REMARK minimizedRMSD -1
REMARK  1 active torsions:
REMARK  status: ('A' for Active; 'I' for Inactive)
REMARK    1  A    between atoms: N_2  and  C1_3 
ROOT
ATOM      1  C1  UNL d   1       1.751   2.994   0.579  0.00  0.00     0.143 A 
ATOM      2  C2  UNL d   1       0.967   2.664  -0.532  0.00  0.00    -0.057 A 
ATOM      3  C3  UNL d   1       0.236   3.639  -1.220  0.00  0.00     0.033 A 
ATOM      4  C4  UNL d   1       0.252   4.962  -0.791  0.00  0.00    -0.042 A 
ATOM      5  C5  UNL d   1       1.004   5.309   0.326  0.00  0.00     0.033 A 
ATOM      6  C6  UNL d   1       1.738   4.332   1.005  0.00  0.00    -0.057 A 
ENDROOT
BRANCH   1   7
ATOM      7  N   UNL d   1       2.423   2.054   1.364  0.00  0.00    -0.732 N 
ATOM      8  C   UNL d   1       3.722   1.555   0.967  0.00  0.00     0.284 C 
ATOM      9  H3  UNL d   1       2.338   2.248   2.359  0.00  0.00     0.395 HD
ENDBRANCH   1   7
TORSDOF 1
ENDMDL
