MODEL 1
REMARK minimizedAffinity 1.52005756
REMARK minimizedRMSD -1
REMARK  0 active torsions:
REMARK  status: ('A' for Active; 'I' for Inactive)
ROOT
ATOM      1  O1  BZF d   1       0.188   0.028   0.806  0.00  0.00    -0.204 OA
ATOM      2  C2  BZF d   1       0.629  -0.403   2.042  0.00  0.00     0.174 A 
ATOM      3  C3  BZF d   1       1.065   0.636   2.783  0.00  0.00    -0.012 A 
ATOM      4  C3A BZF d   1       0.800   1.799   1.994  0.00  0.00    -0.107 A 
ATOM      5  C4  BZF d   1       0.994   3.135   2.196  0.00  0.00     0.055 A 
ATOM      6  C5  BZF d   1       0.693   4.005   1.196  0.00  0.00    -0.016 A 
ATOM      7  C6  BZF d   1       0.201   3.574  -0.018  0.00  0.00     0.022 A 
ATOM      8  C7  BZF d   1      -0.014   2.258  -0.263  0.00  0.00     0.029 A 
ATOM      9  C7A BZF d   1       0.258   1.379   0.757  0.00  0.00     0.058 A 
ENDROOT
TORSDOF 0
ENDMDL
