MODEL 1
REMARK minimizedAffinity 5.83003759
REMARK minimizedRMSD -1
REMARK  0 active torsions:
REMARK  status: ('A' for Active; 'I' for Inactive)
ROOT
ATOM      1  O1  BZF d   1       0.879  -4.939  -2.759  0.00  0.00    -0.204 OA
ATOM      2  C2  BZF d   1       0.374  -5.056  -1.478  0.00  0.00     0.174 A 
ATOM      3  C3  BZF d   1       1.328  -5.482  -0.625  0.00  0.00    -0.012 A 
ATOM      4  C3A BZF d   1       2.526  -5.551  -1.404  0.00  0.00    -0.107 A 
ATOM      5  C4  BZF d   1       3.816  -5.893  -1.115  0.00  0.00     0.055 A 
ATOM      6  C5  BZF d   1       4.731  -5.927  -2.118  0.00  0.00    -0.016 A 
ATOM      7  C6  BZF d   1       4.391  -5.631  -3.422  0.00  0.00     0.022 A 
ATOM      8  C7  BZF d   1       3.126  -5.281  -3.757  0.00  0.00     0.029 A 
ATOM      9  C7A BZF d   1       2.205  -5.213  -2.740  0.00  0.00     0.058 A 
ENDROOT
TORSDOF 0
ENDMDL
