MODEL 1
REMARK minimizedAffinity 16.742754
REMARK minimizedRMSD -1
REMARK  0 active torsions:
REMARK  status: ('A' for Active; 'I' for Inactive)
ROOT
ATOM      1  O1  BZF d   1      -1.574   3.531  -2.357  0.00  0.00    -0.204 OA
ATOM      2  C2  BZF d   1      -2.738   4.172  -2.736  0.00  0.00     0.174 A 
ATOM      3  C3  BZF d   1      -3.733   3.282  -2.929  0.00  0.00    -0.012 A 
ATOM      4  C3A BZF d   1      -3.180   2.014  -2.562  0.00  0.00    -0.107 A 
ATOM      5  C4  BZF d   1      -3.685   0.746  -2.524  0.00  0.00     0.055 A 
ATOM      6  C5  BZF d   1      -2.861  -0.283  -2.189  0.00  0.00    -0.016 A 
ATOM      7  C6  BZF d   1      -1.530  -0.080  -1.893  0.00  0.00     0.022 A 
ATOM      8  C7  BZF d   1      -0.985   1.161  -1.913  0.00  0.00     0.029 A 
ATOM      9  C7A BZF d   1      -1.822   2.206  -2.218  0.00  0.00     0.058 A 
ENDROOT
TORSDOF 0
ENDMDL
