MODEL 1
REMARK minimizedAffinity 5.17359924
REMARK minimizedRMSD -1
REMARK  0 active torsions:
REMARK  status: ('A' for Active; 'I' for Inactive)
ROOT
ATOM      1  O1  BZF d   1       0.765   2.453  -0.807  0.00  0.00    -0.204 OA
ATOM      2  C2  BZF d   1       0.281   3.746  -0.839  0.00  0.00     0.174 A 
ATOM      3  C3  BZF d   1      -0.916   3.794  -1.458  0.00  0.00    -0.012 A 
ATOM      4  C3A BZF d   1      -1.241   2.433  -1.755  0.00  0.00    -0.107 A 
ATOM      5  C4  BZF d   1      -2.312   1.832  -2.352  0.00  0.00     0.055 A 
ATOM      6  C5  BZF d   1      -2.286   0.488  -2.556  0.00  0.00    -0.016 A 
ATOM      7  C6  BZF d   1      -1.206  -0.283  -2.179  0.00  0.00     0.022 A 
ATOM      8  C7  BZF d   1      -0.123   0.267  -1.578  0.00  0.00     0.029 A 
ATOM      9  C7A BZF d   1      -0.160   1.620  -1.342  0.00  0.00     0.058 A 
ENDROOT
TORSDOF 0
ENDMDL
