MODEL 1
REMARK minimizedAffinity 2.31103611
REMARK minimizedRMSD -1
REMARK  0 active torsions:
REMARK  status: ('A' for Active; 'I' for Inactive)
ROOT
ATOM      1  O1  BZF d   1      -0.512   1.310  -0.763  0.00  0.00    -0.204 OA
ATOM      2  C2  BZF d   1      -1.167   0.735  -1.834  0.00  0.00     0.174 A 
ATOM      3  C3  BZF d   1      -1.522   1.672  -2.737  0.00  0.00    -0.012 A 
ATOM      4  C3A BZF d   1      -0.979   2.899  -2.239  0.00  0.00    -0.107 A 
ATOM      5  C4  BZF d   1      -0.983   4.184  -2.702  0.00  0.00     0.055 A 
ATOM      6  C5  BZF d   1      -0.425   5.162  -1.941  0.00  0.00    -0.016 A 
ATOM      7  C6  BZF d   1       0.140   4.892  -0.712  0.00  0.00     0.022 A 
ATOM      8  C7  BZF d   1       0.173   3.632  -0.213  0.00  0.00     0.029 A 
ATOM      9  C7A BZF d   1      -0.361   2.636  -0.995  0.00  0.00     0.058 A 
ENDROOT
TORSDOF 0
ENDMDL
