MODEL 1
REMARK minimizedAffinity 3.49282408
REMARK minimizedRMSD -1
REMARK  0 active torsions:
REMARK  status: ('A' for Active; 'I' for Inactive)
ROOT
ATOM      1  O1  BZF d   1      -2.493   4.049  -2.745  0.00  0.00    -0.204 OA
ATOM      2  C2  BZF d   1      -3.804   4.279  -3.113  0.00  0.00     0.174 A 
ATOM      3  C3  BZF d   1      -4.536   3.151  -3.011  0.00  0.00    -0.012 A 
ATOM      4  C3A BZF d   1      -3.646   2.175  -2.461  0.00  0.00    -0.107 A 
ATOM      5  C4  BZF d   1      -3.792   0.862  -2.113  0.00  0.00     0.055 A 
ATOM      6  C5  BZF d   1      -2.708   0.171  -1.673  0.00  0.00    -0.016 A 
ATOM      7  C6  BZF d   1      -1.463   0.759  -1.574  0.00  0.00     0.022 A 
ATOM      8  C7  BZF d   1      -1.271   2.059  -1.903  0.00  0.00     0.029 A 
ATOM      9  C7A BZF d   1      -2.371   2.769  -2.317  0.00  0.00     0.058 A 
ENDROOT
TORSDOF 0
ENDMDL
