MODEL 1
REMARK minimizedAffinity 4.04501867
REMARK minimizedRMSD -1
REMARK  0 active torsions:
REMARK  status: ('A' for Active; 'I' for Inactive)
ROOT
ATOM      1  O1  BZF d   1      -1.587   3.036   2.174  0.00  0.00    -0.204 OA
ATOM      2  C2  BZF d   1      -0.928   1.882   1.795  0.00  0.00     0.174 A 
ATOM      3  C3  BZF d   1      -0.338   2.041   0.592  0.00  0.00    -0.012 A 
ATOM      4  C3A BZF d   1      -0.570   3.408   0.238  0.00  0.00    -0.107 A 
ATOM      5  C4  BZF d   1      -0.216   4.171  -0.838  0.00  0.00     0.055 A 
ATOM      6  C5  BZF d   1      -0.663   5.452  -0.914  0.00  0.00    -0.016 A 
ATOM      7  C6  BZF d   1      -1.468   6.000   0.063  0.00  0.00     0.022 A 
ATOM      8  C7  BZF d   1      -1.841   5.283   1.151  0.00  0.00     0.029 A 
ATOM      9  C7A BZF d   1      -1.364   3.998   1.247  0.00  0.00     0.058 A 
ENDROOT
TORSDOF 0
ENDMDL
