MODEL 1
REMARK minimizedAffinity -4.14441061
REMARK minimizedRMSD -1
REMARK  0 active torsions:
REMARK  status: ('A' for Active; 'I' for Inactive)
ROOT
ATOM      1  O1  BZF d   1       0.211   0.954  -0.652  0.00  0.00    -0.204 OA
ATOM      2  C2  BZF d   1       0.111  -0.089   0.249  0.00  0.00     0.174 A 
ATOM      3  C3  BZF d   1       0.145   0.370   1.517  0.00  0.00    -0.012 A 
ATOM      4  C3A BZF d   1       0.181   1.795   1.401  0.00  0.00    -0.107 A 
ATOM      5  C4  BZF d   1       0.209   2.811   2.313  0.00  0.00     0.055 A 
ATOM      6  C5  BZF d   1       0.315   4.092   1.873  0.00  0.00    -0.016 A 
ATOM      7  C6  BZF d   1       0.401   4.393   0.529  0.00  0.00     0.022 A 
ATOM      8  C7  BZF d   1       0.372   3.420  -0.414  0.00  0.00     0.029 A 
ATOM      9  C7A BZF d   1       0.232   2.126   0.027  0.00  0.00     0.058 A 
ENDROOT
TORSDOF 0
ENDMDL
