MODEL 1
REMARK minimizedAffinity 9.17467117
REMARK minimizedRMSD -1
REMARK  0 active torsions:
REMARK  status: ('A' for Active; 'I' for Inactive)
ROOT
ATOM      1  C   UNL d   1       3.687   5.623  -0.572  0.00  0.00     0.078 C 
ATOM      2  C1  UNL d   1       4.174   5.696  -1.988  0.00  0.00    -0.077 A 
ATOM      3  C2  UNL d   1       3.296   5.516  -3.063  0.00  0.00    -0.001 A 
ATOM      4  C3  UNL d   1       3.765   5.577  -4.376  0.00  0.00     0.003 A 
ATOM      5  C4  UNL d   1       5.115   5.818  -4.626  0.00  0.00    -0.005 A 
ATOM      6  C5  UNL d   1       5.997   5.996  -3.563  0.00  0.00     0.003 A 
ATOM      7  C6  UNL d   1       5.529   5.935  -2.249  0.00  0.00    -0.001 A 
ENDROOT
TORSDOF 0
ENDMDL
