MODEL 1
REMARK minimizedAffinity 2.98917031
REMARK minimizedRMSD -1
REMARK  0 active torsions:
REMARK  status: ('A' for Active; 'I' for Inactive)
ROOT
ATOM      1  C   UNL d   1      -4.499  -2.356  -2.998  0.00  0.00     0.078 C 
ATOM      2  C1  UNL d   1      -4.811  -3.421  -4.007  0.00  0.00    -0.077 A 
ATOM      3  C2  UNL d   1      -4.206  -4.682  -3.935  0.00  0.00    -0.001 A 
ATOM      4  C3  UNL d   1      -4.498  -5.660  -4.887  0.00  0.00     0.003 A 
ATOM      5  C4  UNL d   1      -5.395  -5.388  -5.918  0.00  0.00    -0.005 A 
ATOM      6  C5  UNL d   1      -5.999  -4.135  -6.000  0.00  0.00     0.003 A 
ATOM      7  C6  UNL d   1      -5.709  -3.155  -5.049  0.00  0.00    -0.001 A 
ENDROOT
TORSDOF 0
ENDMDL
