MODEL 1
REMARK minimizedAffinity -1.81074929
REMARK minimizedRMSD -1
REMARK  0 active torsions:
REMARK  status: ('A' for Active; 'I' for Inactive)
ROOT
ATOM      1  C   UNL d   1       5.706   3.523  -5.914  0.00  0.00     0.078 C 
ATOM      2  C1  UNL d   1       5.179   2.128  -5.763  0.00  0.00    -0.077 A 
ATOM      3  C2  UNL d   1       6.000   1.018  -5.997  0.00  0.00    -0.001 A 
ATOM      4  C3  UNL d   1       5.493  -0.276  -5.862  0.00  0.00     0.003 A 
ATOM      5  C4  UNL d   1       4.164  -0.472  -5.494  0.00  0.00    -0.005 A 
ATOM      6  C5  UNL d   1       3.339   0.627  -5.261  0.00  0.00     0.003 A 
ATOM      7  C6  UNL d   1       3.843   1.921  -5.395  0.00  0.00    -0.001 A 
ENDROOT
TORSDOF 0
ENDMDL
