MODEL 1
REMARK minimizedAffinity 4.13006449
REMARK minimizedRMSD -1
REMARK  0 active torsions:
REMARK  status: ('A' for Active; 'I' for Inactive)
ROOT
ATOM      1  C   UNL d   1       2.112   1.688   1.879  0.00  0.00     0.078 C 
ATOM      2  C1  UNL d   1       1.689   0.336   2.371  0.00  0.00    -0.077 A 
ATOM      3  C2  UNL d   1       1.306   0.141   3.704  0.00  0.00    -0.001 A 
ATOM      4  C3  UNL d   1       0.924  -1.125   4.150  0.00  0.00     0.003 A 
ATOM      5  C4  UNL d   1       0.922  -2.206   3.271  0.00  0.00    -0.005 A 
ATOM      6  C5  UNL d   1       1.303  -2.022   1.944  0.00  0.00     0.003 A 
ATOM      7  C6  UNL d   1       1.685  -0.757   1.495  0.00  0.00    -0.001 A 
ENDROOT
TORSDOF 0
ENDMDL
