MODEL 1
REMARK minimizedAffinity -0.818249285
REMARK minimizedRMSD -1
REMARK  0 active torsions:
REMARK  status: ('A' for Active; 'I' for Inactive)
ROOT
ATOM      1  C   UNL d   1      -2.082   2.748   0.550  0.00  0.00     0.078 C 
ATOM      2  C1  UNL d   1      -2.286   1.674  -0.477  0.00  0.00    -0.077 A 
ATOM      3  C2  UNL d   1      -3.312   1.770  -1.425  0.00  0.00    -0.001 A 
ATOM      4  C3  UNL d   1      -3.498   0.759  -2.369  0.00  0.00     0.003 A 
ATOM      5  C4  UNL d   1      -2.661  -0.356  -2.374  0.00  0.00    -0.005 A 
ATOM      6  C5  UNL d   1      -1.639  -0.461  -1.433  0.00  0.00     0.003 A 
ATOM      7  C6  UNL d   1      -1.452   0.549  -0.488  0.00  0.00    -0.001 A 
ENDROOT
TORSDOF 0
ENDMDL
