MODEL 1
REMARK minimizedAffinity 8.05038834
REMARK minimizedRMSD -1
REMARK  0 active torsions:
REMARK  status: ('A' for Active; 'I' for Inactive)
ROOT
ATOM      1  C   UNL d   1      -3.268   0.013  -2.505  0.00  0.00     0.078 C 
ATOM      2  C1  UNL d   1      -2.996   0.928  -1.349  0.00  0.00    -0.077 A 
ATOM      3  C2  UNL d   1      -2.466   0.437  -0.149  0.00  0.00    -0.001 A 
ATOM      4  C3  UNL d   1      -2.228   1.300   0.922  0.00  0.00     0.003 A 
ATOM      5  C4  UNL d   1      -2.517   2.658   0.805  0.00  0.00    -0.005 A 
ATOM      6  C5  UNL d   1      -3.047   3.155  -0.384  0.00  0.00     0.003 A 
ATOM      7  C6  UNL d   1      -3.286   2.294  -1.456  0.00  0.00    -0.001 A 
ENDROOT
TORSDOF 0
ENDMDL
