MODEL 1
REMARK minimizedAffinity 9.83592224
REMARK minimizedRMSD -1
REMARK  0 active torsions:
REMARK  status: ('A' for Active; 'I' for Inactive)
ROOT
ATOM      1  C   UNL d   1      -2.330   1.507   0.020  0.00  0.00     0.078 C 
ATOM      2  C1  UNL d   1      -2.996   0.931  -1.193  0.00  0.00    -0.077 A 
ATOM      3  C2  UNL d   1      -2.443  -0.164  -1.868  0.00  0.00    -0.001 A 
ATOM      4  C3  UNL d   1      -3.068  -0.684  -3.002  0.00  0.00     0.003 A 
ATOM      5  C4  UNL d   1      -4.250  -0.115  -3.472  0.00  0.00    -0.005 A 
ATOM      6  C5  UNL d   1      -4.807   0.976  -2.808  0.00  0.00     0.003 A 
ATOM      7  C6  UNL d   1      -4.183   1.497  -1.674  0.00  0.00    -0.001 A 
ENDROOT
TORSDOF 0
ENDMDL
