MODEL 1
REMARK minimizedAffinity -6.15577221
REMARK minimizedRMSD -1
REMARK  1 active torsions:
REMARK  status: ('A' for Active; 'I' for Inactive)
REMARK    1  A    between atoms: C1_2  and  C2_3 
ROOT
ATOM      1  C2  UNL d   1       0.735   0.310  -1.585  0.00  0.00    -0.077 A 
ATOM      2  C3  UNL d   1       0.947   1.381  -2.465  0.00  0.00     0.002 A 
ATOM      3  C4  UNL d   1       2.048   1.383  -3.322  0.00  0.00     0.002 A 
ATOM      4  C5  UNL d   1       2.944   0.316  -3.312  0.00  0.00    -0.004 A 
ATOM      5  C6  UNL d   1       2.743  -0.753  -2.439  0.00  0.00     0.002 A 
ATOM      6  C7  UNL d   1       1.643  -0.756  -1.580  0.00  0.00     0.002 A 
ENDROOT
BRANCH   1   7
ATOM      7  C1  UNL d   1      -0.479   0.283  -0.694  0.00  0.00     0.055 C 
ATOM      8  C   UNL d   1      -0.642  -1.073  -0.021  0.00  0.00     0.019 C 
ENDBRANCH   1   7
TORSDOF 1
ENDMDL
