MODEL 1
REMARK minimizedAffinity -5.59883642
REMARK minimizedRMSD -1
REMARK  1 active torsions:
REMARK  status: ('A' for Active; 'I' for Inactive)
REMARK    1  A    between atoms: C1_2  and  C2_3 
ROOT
ATOM      1  C2  UNL d   1       1.679   0.236  -1.388  0.00  0.00    -0.077 A 
ATOM      2  C3  UNL d   1       1.765  -1.159  -1.283  0.00  0.00     0.002 A 
ATOM      3  C4  UNL d   1       0.823  -1.870  -0.536  0.00  0.00     0.002 A 
ATOM      4  C5  UNL d   1      -0.212  -1.196   0.107  0.00  0.00    -0.004 A 
ATOM      5  C6  UNL d   1      -0.304   0.192   0.011  0.00  0.00     0.002 A 
ATOM      6  C7  UNL d   1       0.636   0.905  -0.734  0.00  0.00     0.002 A 
ENDROOT
BRANCH   1   7
ATOM      7  C1  UNL d   1       2.664   1.000  -2.234  0.00  0.00     0.055 C 
ATOM      8  C   UNL d   1       2.172   2.411  -2.519  0.00  0.00     0.019 C 
ENDBRANCH   1   7
TORSDOF 1
ENDMDL
