MODEL 1
REMARK minimizedAffinity -3.4804914
REMARK minimizedRMSD -1
REMARK  1 active torsions:
REMARK  status: ('A' for Active; 'I' for Inactive)
REMARK    1  A    between atoms: C1_2  and  C2_3 
ROOT
ATOM      1  C2  UNL d   1      -1.247   0.633   1.895  0.00  0.00    -0.077 A 
ATOM      2  C3  UNL d   1      -1.699   0.271   0.619  0.00  0.00     0.002 A 
ATOM      3  C4  UNL d   1      -0.846  -0.385  -0.272  0.00  0.00     0.002 A 
ATOM      4  C5  UNL d   1       0.460  -0.687   0.106  0.00  0.00    -0.004 A 
ATOM      5  C6  UNL d   1       0.919  -0.329   1.373  0.00  0.00     0.002 A 
ATOM      6  C7  UNL d   1       0.069   0.327   2.264  0.00  0.00     0.002 A 
ENDROOT
BRANCH   1   7
ATOM      7  C1  UNL d   1      -2.180   1.296   2.875  0.00  0.00     0.055 C 
ATOM      8  C   UNL d   1      -2.140   0.606   4.231  0.00  0.00     0.019 C 
ENDBRANCH   1   7
TORSDOF 1
ENDMDL
