MODEL 1
REMARK minimizedAffinity -4.77873039
REMARK minimizedRMSD -1
REMARK  1 active torsions:
REMARK  status: ('A' for Active; 'I' for Inactive)
REMARK    1  A    between atoms: C1_2  and  C2_3 
ROOT
ATOM      1  C2  UNL d   1       2.286   0.493  -2.468  0.00  0.00    -0.077 A 
ATOM      2  C3  UNL d   1       1.229   0.883  -1.635  0.00  0.00     0.002 A 
ATOM      3  C4  UNL d   1       0.922   0.144  -0.490  0.00  0.00     0.002 A 
ATOM      4  C5  UNL d   1       1.671  -0.985  -0.167  0.00  0.00    -0.004 A 
ATOM      5  C6  UNL d   1       2.724  -1.382  -0.990  0.00  0.00     0.002 A 
ATOM      6  C7  UNL d   1       3.030  -0.646  -2.135  0.00  0.00     0.002 A 
ENDROOT
BRANCH   1   7
ATOM      7  C1  UNL d   1       2.650   1.316  -3.676  0.00  0.00     0.055 C 
ATOM      8  C   UNL d   1       1.446   1.530  -4.583  0.00  0.00     0.019 C 
ENDBRANCH   1   7
TORSDOF 1
ENDMDL
