MODEL 1
REMARK minimizedAffinity -4.39256716
REMARK minimizedRMSD -1
REMARK  1 active torsions:
REMARK  status: ('A' for Active; 'I' for Inactive)
REMARK    1  A    between atoms: C1_2  and  C2_3 
ROOT
ATOM      1  C2  UNL d   1      -1.676   0.246   1.037  0.00  0.00    -0.077 A 
ATOM      2  C3  UNL d   1      -1.254   1.571   1.215  0.00  0.00     0.002 A 
ATOM      3  C4  UNL d   1      -1.730   2.326   2.288  0.00  0.00     0.002 A 
ATOM      4  C5  UNL d   1      -2.627   1.764   3.194  0.00  0.00    -0.004 A 
ATOM      5  C6  UNL d   1      -3.055   0.448   3.025  0.00  0.00     0.002 A 
ATOM      6  C7  UNL d   1      -2.581  -0.308   1.952  0.00  0.00     0.002 A 
ENDROOT
BRANCH   1   7
ATOM      7  C1  UNL d   1      -1.126  -0.585  -0.092  0.00  0.00     0.055 C 
ATOM      8  C   UNL d   1       0.377  -0.778   0.044  0.00  0.00     0.019 C 
ENDBRANCH   1   7
TORSDOF 1
ENDMDL
