MODEL 1
REMARK minimizedAffinity -2.91492963
REMARK minimizedRMSD -1
REMARK  1 active torsions:
REMARK  status: ('A' for Active; 'I' for Inactive)
REMARK    1  A    between atoms: C1_2  and  C2_3 
ROOT
ATOM      1  C2  UNL d   1      -0.684   0.397   0.180  0.00  0.00    -0.077 A 
ATOM      2  C3  UNL d   1       0.216   1.133  -0.603  0.00  0.00     0.002 A 
ATOM      3  C4  UNL d   1       1.301   0.502  -1.213  0.00  0.00     0.002 A 
ATOM      4  C5  UNL d   1       1.495  -0.868  -1.049  0.00  0.00    -0.004 A 
ATOM      5  C6  UNL d   1       0.607  -1.609  -0.270  0.00  0.00     0.002 A 
ATOM      6  C7  UNL d   1      -0.478  -0.979   0.341  0.00  0.00     0.002 A 
ENDROOT
BRANCH   1   7
ATOM      7  C1  UNL d   1      -1.884   1.067   0.798  0.00  0.00     0.055 C 
ATOM      8  C   UNL d   1      -1.531   1.715   2.129  0.00  0.00     0.019 C 
ENDBRANCH   1   7
TORSDOF 1
ENDMDL
