MODEL 1
REMARK minimizedAffinity -5.1008687
REMARK minimizedRMSD -1
REMARK  1 active torsions:
REMARK  status: ('A' for Active; 'I' for Inactive)
REMARK    1  A    between atoms: C1_2  and  C2_3 
ROOT
ATOM      1  C2  UNL d   1       0.765  -0.522  -1.279  0.00  0.00    -0.077 A 
ATOM      2  C3  UNL d   1       0.752  -1.889  -0.969  0.00  0.00     0.002 A 
ATOM      3  C4  UNL d   1      -0.203  -2.405  -0.091  0.00  0.00     0.002 A 
ATOM      4  C5  UNL d   1      -1.155  -1.563   0.479  0.00  0.00    -0.004 A 
ATOM      5  C6  UNL d   1      -1.150  -0.201   0.179  0.00  0.00     0.002 A 
ATOM      6  C7  UNL d   1      -0.195   0.317  -0.697  0.00  0.00     0.002 A 
ENDROOT
BRANCH   1   7
ATOM      7  C1  UNL d   1       1.764   0.029  -2.263  0.00  0.00     0.055 C 
ATOM      8  C   UNL d   1       1.301   1.361  -2.835  0.00  0.00     0.019 C 
ENDBRANCH   1   7
TORSDOF 1
ENDMDL
