MODEL 1
REMARK minimizedAffinity -1.61323619
REMARK minimizedRMSD -1
REMARK  1 active torsions:
REMARK  status: ('A' for Active; 'I' for Inactive)
REMARK    1  A    between atoms: C1_2  and  C2_3 
ROOT
ATOM      1  C2  UNL d   1       1.050   0.161  -1.545  0.00  0.00    -0.077 A 
ATOM      2  C3  UNL d   1       1.457  -1.160  -1.311  0.00  0.00     0.002 A 
ATOM      3  C4  UNL d   1       0.897  -1.898  -0.267  0.00  0.00     0.002 A 
ATOM      4  C5  UNL d   1      -0.076  -1.325   0.549  0.00  0.00    -0.004 A 
ATOM      5  C6  UNL d   1      -0.487  -0.011   0.327  0.00  0.00     0.002 A 
ATOM      6  C7  UNL d   1       0.073   0.729  -0.716  0.00  0.00     0.002 A 
ENDROOT
BRANCH   1   7
ATOM      7  C1  UNL d   1       1.617   0.942  -2.701  0.00  0.00     0.055 C 
ATOM      8  C   UNL d   1       1.061   2.358  -2.739  0.00  0.00     0.019 C 
ENDBRANCH   1   7
TORSDOF 1
ENDMDL
