MODEL 1
REMARK minimizedAffinity -6.02159595
REMARK minimizedRMSD -1
REMARK  1 active torsions:
REMARK  status: ('A' for Active; 'I' for Inactive)
REMARK    1  A    between atoms: C1_2  and  C2_3 
ROOT
ATOM      1  C2  UNL d   1       1.489  -0.093  -0.815  0.00  0.00    -0.077 A 
ATOM      2  C3  UNL d   1       1.282   1.149  -1.431  0.00  0.00     0.002 A 
ATOM      3  C4  UNL d   1       2.236   1.671  -2.307  0.00  0.00     0.002 A 
ATOM      4  C5  UNL d   1       3.401   0.957  -2.577  0.00  0.00    -0.004 A 
ATOM      5  C6  UNL d   1       3.617  -0.279  -1.968  0.00  0.00     0.002 A 
ATOM      6  C7  UNL d   1       2.665  -0.801  -1.091  0.00  0.00     0.002 A 
ENDROOT
BRANCH   1   7
ATOM      7  C1  UNL d   1       0.439  -0.680   0.091  0.00  0.00     0.055 C 
ATOM      8  C   UNL d   1      -0.648   0.336   0.410  0.00  0.00     0.019 C 
ENDBRANCH   1   7
TORSDOF 1
ENDMDL
