MODEL 1
REMARK minimizedAffinity -5.93146276
REMARK minimizedRMSD -1
REMARK  1 active torsions:
REMARK  status: ('A' for Active; 'I' for Inactive)
REMARK    1  A    between atoms: C1_2  and  C2_3 
ROOT
ATOM      1  C2  UNL d   1       0.688   0.311  -0.939  0.00  0.00    -0.077 A 
ATOM      2  C3  UNL d   1       0.604   1.354  -1.872  0.00  0.00     0.002 A 
ATOM      3  C4  UNL d   1       1.727   1.731  -2.612  0.00  0.00     0.002 A 
ATOM      4  C5  UNL d   1       2.938   1.068  -2.430  0.00  0.00    -0.004 A 
ATOM      5  C6  UNL d   1       3.032   0.031  -1.503  0.00  0.00     0.002 A 
ATOM      6  C7  UNL d   1       1.912  -0.347  -0.761  0.00  0.00     0.002 A 
ENDROOT
BRANCH   1   7
ATOM      7  C1  UNL d   1      -0.533  -0.130  -0.175  0.00  0.00     0.055 C 
ATOM      8  C   UNL d   1      -0.483  -1.619   0.137  0.00  0.00     0.019 C 
ENDBRANCH   1   7
TORSDOF 1
ENDMDL
