MODEL 1
REMARK minimizedAffinity 15.772109
REMARK minimizedRMSD -1
REMARK  0 active torsions:
REMARK  status: ('A' for Active; 'I' for Inactive)
ROOT
ATOM      1  C   UNL d   1      -1.364  -2.250  -3.454  0.00  0.00     0.124 A 
ATOM      2  C1  UNL d   1      -0.593  -2.273  -2.301  0.00  0.00     0.062 A 
ATOM      3  C2  UNL d   1       0.796  -2.234  -2.387  0.00  0.00     0.162 A 
ATOM      4  C3  UNL d   1       1.422  -2.170  -3.631  0.00  0.00    -0.034 A 
ATOM      5  C4  UNL d   1       0.640  -2.148  -4.787  0.00  0.00     0.162 A 
ATOM      6  C5  UNL d   1      -0.748  -2.187  -4.696  0.00  0.00     0.062 A 
ATOM      7  F   UNL d   1      -1.492  -2.165  -5.811  0.00  0.00    -0.097 F 
ATOM      8  F1  UNL d   1       1.210  -2.088  -6.000  0.00  0.00    -0.096 F 
ATOM      9  I   UNL d   1       3.499  -2.112  -3.764  0.00  0.00    -0.060 I 
ATOM     10  F2  UNL d   1       1.516  -2.257  -1.256  0.00  0.00    -0.096 F 
ATOM     11  F3  UNL d   1      -1.186  -2.334  -1.100  0.00  0.00    -0.097 F 
ATOM     12  F4  UNL d   1      -2.700  -2.288  -3.369  0.00  0.00    -0.092 F 
ENDROOT
TORSDOF 0
ENDMDL
