MODEL 1
REMARK minimizedAffinity 11.401062
REMARK minimizedRMSD -1
REMARK  0 active torsions:
REMARK  status: ('A' for Active; 'I' for Inactive)
ROOT
ATOM      1  C   UNL d   1       3.734   4.467  -1.279  0.00  0.00     0.124 A 
ATOM      2  C1  UNL d   1       4.874   4.301  -2.053  0.00  0.00     0.062 A 
ATOM      3  C2  UNL d   1       4.882   4.706  -3.385  0.00  0.00     0.162 A 
ATOM      4  C3  UNL d   1       3.745   5.283  -3.951  0.00  0.00    -0.034 A 
ATOM      5  C4  UNL d   1       2.602   5.446  -3.167  0.00  0.00     0.162 A 
ATOM      6  C5  UNL d   1       2.599   5.039  -1.836  0.00  0.00     0.062 A 
ATOM      7  F   UNL d   1       1.497   5.201  -1.090  0.00  0.00    -0.097 F 
ATOM      8  F1  UNL d   1       1.491   5.997  -3.680  0.00  0.00    -0.096 F 
ATOM      9  I   UNL d   1       3.752   5.890  -5.942  0.00  0.00    -0.060 I 
ATOM     10  F2  UNL d   1       5.997   4.533  -4.109  0.00  0.00    -0.096 F 
ATOM     11  F3  UNL d   1       5.972   3.748  -1.517  0.00  0.00    -0.097 F 
ATOM     12  F4  UNL d   1       3.730   4.076   0.001  0.00  0.00    -0.092 F 
ENDROOT
TORSDOF 0
ENDMDL
