MODEL 1
REMARK minimizedAffinity 25.4704247
REMARK minimizedRMSD -1
REMARK  0 active torsions:
REMARK  status: ('A' for Active; 'I' for Inactive)
ROOT
ATOM      1  C   UNL d   1       3.810   4.092  -4.134  0.00  0.00     0.124 A 
ATOM      2  C1  UNL d   1       2.698   3.941  -3.317  0.00  0.00     0.062 A 
ATOM      3  C2  UNL d   1       2.691   4.484  -2.036  0.00  0.00     0.162 A 
ATOM      4  C3  UNL d   1       3.800   5.185  -1.563  0.00  0.00    -0.034 A 
ATOM      5  C4  UNL d   1       4.916   5.332  -2.389  0.00  0.00     0.162 A 
ATOM      6  C5  UNL d   1       4.918   4.787  -3.669  0.00  0.00     0.062 A 
ATOM      7  F   UNL d   1       5.993   4.934  -4.456  0.00  0.00    -0.097 F 
ATOM      8  F1  UNL d   1       5.999   6.000  -1.966  0.00  0.00    -0.096 F 
ATOM      9  I   UNL d   1       3.794   5.999   0.353  0.00  0.00    -0.060 I 
ATOM     10  F2  UNL d   1       1.602   4.323  -1.269  0.00  0.00    -0.096 F 
ATOM     11  F3  UNL d   1       1.627   3.269  -3.764  0.00  0.00    -0.097 F 
ATOM     12  F4  UNL d   1       3.814   3.567  -5.366  0.00  0.00    -0.092 F 
ENDROOT
TORSDOF 0
ENDMDL
