MODEL 1
REMARK minimizedAffinity 10.7526855
REMARK minimizedRMSD -1
REMARK  0 active torsions:
REMARK  status: ('A' for Active; 'I' for Inactive)
ROOT
ATOM      1  C   UNL d   1       4.981   4.422  -4.197  0.00  0.00     0.124 A 
ATOM      2  C1  UNL d   1       3.943   3.538  -4.459  0.00  0.00     0.062 A 
ATOM      3  C2  UNL d   1       2.913   3.376  -3.537  0.00  0.00     0.162 A 
ATOM      4  C3  UNL d   1       2.915   4.100  -2.344  0.00  0.00    -0.034 A 
ATOM      5  C4  UNL d   1       3.963   4.986  -2.088  0.00  0.00     0.162 A 
ATOM      6  C5  UNL d   1       4.990   5.145  -3.012  0.00  0.00     0.062 A 
ATOM      7  F   UNL d   1       5.992   5.999  -2.758  0.00  0.00    -0.097 F 
ATOM      8  F1  UNL d   1       3.996   5.698  -0.952  0.00  0.00    -0.096 F 
ATOM      9  I   UNL d   1       1.376   3.861  -0.964  0.00  0.00    -0.060 I 
ATOM     10  F2  UNL d   1       1.922   2.516  -3.816  0.00  0.00    -0.096 F 
ATOM     11  F3  UNL d   1       3.932   2.838  -5.602  0.00  0.00    -0.097 F 
ATOM     12  F4  UNL d   1       5.972   4.575  -5.085  0.00  0.00    -0.092 F 
ENDROOT
TORSDOF 0
ENDMDL
