MODEL 1
REMARK minimizedAffinity 17.8338795
REMARK minimizedRMSD -1
REMARK  0 active torsions:
REMARK  status: ('A' for Active; 'I' for Inactive)
ROOT
ATOM      1  C   UNL d   1       2.251   3.551  -1.812  0.00  0.00     0.124 A 
ATOM      2  C1  UNL d   1       2.532   3.177  -3.119  0.00  0.00     0.062 A 
ATOM      3  C2  UNL d   1       3.601   3.753  -3.798  0.00  0.00     0.162 A 
ATOM      4  C3  UNL d   1       4.400   4.710  -3.170  0.00  0.00    -0.034 A 
ATOM      5  C4  UNL d   1       4.110   5.081  -1.856  0.00  0.00     0.162 A 
ATOM      6  C5  UNL d   1       3.040   4.502  -1.182  0.00  0.00     0.062 A 
ATOM      7  F   UNL d   1       2.770   4.865   0.080  0.00  0.00    -0.097 F 
ATOM      8  F1  UNL d   1       4.857   5.998  -1.223  0.00  0.00    -0.096 F 
ATOM      9  I   UNL d   1       6.000   5.574  -4.182  0.00  0.00    -0.060 I 
ATOM     10  F2  UNL d   1       3.849   3.373  -5.060  0.00  0.00    -0.096 F 
ATOM     11  F3  UNL d   1       1.770   2.258  -3.731  0.00  0.00    -0.097 F 
ATOM     12  F4  UNL d   1       1.220   2.995  -1.162  0.00  0.00    -0.092 F 
ENDROOT
TORSDOF 0
ENDMDL
