MODEL 1
REMARK minimizedAffinity 14.1189098
REMARK minimizedRMSD -1
REMARK  0 active torsions:
REMARK  status: ('A' for Active; 'I' for Inactive)
ROOT
ATOM      1  C   UNL d   1       4.878   5.120  -3.474  0.00  0.00     0.124 A 
ATOM      2  C1  UNL d   1       3.763   4.506  -4.028  0.00  0.00     0.062 A 
ATOM      3  C2  UNL d   1       2.688   4.148  -3.220  0.00  0.00     0.162 A 
ATOM      4  C3  UNL d   1       2.722   4.404  -1.849  0.00  0.00    -0.034 A 
ATOM      5  C4  UNL d   1       3.847   5.020  -1.299  0.00  0.00     0.162 A 
ATOM      6  C5  UNL d   1       4.919   5.376  -2.111  0.00  0.00     0.062 A 
ATOM      7  F   UNL d   1       5.996   5.968  -1.574  0.00  0.00    -0.097 F 
ATOM      8  F1  UNL d   1       3.913   5.280   0.015  0.00  0.00    -0.096 F 
ATOM      9  I   UNL d   1       1.116   3.870  -0.637  0.00  0.00    -0.060 I 
ATOM     10  F2  UNL d   1       1.623   3.557  -3.782  0.00  0.00    -0.096 F 
ATOM     11  F3  UNL d   1       3.721   4.257  -5.344  0.00  0.00    -0.097 F 
ATOM     12  F4  UNL d   1       5.912   5.462  -4.254  0.00  0.00    -0.092 F 
ENDROOT
TORSDOF 0
ENDMDL
