MODEL 1
REMARK minimizedAffinity 21.3304577
REMARK minimizedRMSD -1
REMARK  0 active torsions:
REMARK  status: ('A' for Active; 'I' for Inactive)
ROOT
ATOM      1  C   UNL d   1       2.517   3.653  -3.792  0.00  0.00     0.124 A 
ATOM      2  C1  UNL d   1       3.781   3.816  -4.343  0.00  0.00     0.062 A 
ATOM      3  C2  UNL d   1       4.777   4.475  -3.628  0.00  0.00     0.162 A 
ATOM      4  C3  UNL d   1       4.513   4.977  -2.353  0.00  0.00    -0.034 A 
ATOM      5  C4  UNL d   1       3.240   4.810  -1.806  0.00  0.00     0.162 A 
ATOM      6  C5  UNL d   1       2.248   4.150  -2.525  0.00  0.00     0.062 A 
ATOM      7  F   UNL d   1       1.028   3.994  -1.991  0.00  0.00    -0.097 F 
ATOM      8  F1  UNL d   1       2.952   5.279  -0.583  0.00  0.00    -0.096 F 
ATOM      9  I   UNL d   1       5.999   5.963  -1.281  0.00  0.00    -0.060 I 
ATOM     10  F2  UNL d   1       5.989   4.618  -4.185  0.00  0.00    -0.096 F 
ATOM     11  F3  UNL d   1       4.044   3.337  -5.568  0.00  0.00    -0.097 F 
ATOM     12  F4  UNL d   1       1.561   3.019  -4.482  0.00  0.00    -0.092 F 
ENDROOT
TORSDOF 0
ENDMDL
