MODEL 1
REMARK minimizedAffinity 11.5351028
REMARK minimizedRMSD -1
REMARK  0 active torsions:
REMARK  status: ('A' for Active; 'I' for Inactive)
ROOT
ATOM      1  C   UNL d   1       4.663   4.564  -3.823  0.00  0.00     0.124 A 
ATOM      2  C1  UNL d   1       4.859   5.268  -2.643  0.00  0.00     0.062 A 
ATOM      3  C2  UNL d   1       3.904   5.220  -1.632  0.00  0.00     0.162 A 
ATOM      4  C3  UNL d   1       2.743   4.464  -1.796  0.00  0.00    -0.034 A 
ATOM      5  C4  UNL d   1       2.552   3.760  -2.986  0.00  0.00     0.162 A 
ATOM      6  C5  UNL d   1       3.510   3.811  -3.994  0.00  0.00     0.062 A 
ATOM      7  F   UNL d   1       3.318   3.130  -5.133  0.00  0.00    -0.097 F 
ATOM      8  F1  UNL d   1       1.447   3.023  -3.177  0.00  0.00    -0.096 F 
ATOM      9  I   UNL d   1       1.312   4.390  -0.287  0.00  0.00    -0.060 I 
ATOM     10  F2  UNL d   1       4.120   5.910  -0.503  0.00  0.00    -0.096 F 
ATOM     11  F3  UNL d   1       5.972   5.997  -2.477  0.00  0.00    -0.097 F 
ATOM     12  F4  UNL d   1       5.583   4.612  -4.795  0.00  0.00    -0.092 F 
ENDROOT
TORSDOF 0
ENDMDL
