MODEL 1
REMARK minimizedAffinity 10.5722942
REMARK minimizedRMSD -1
REMARK  0 active torsions:
REMARK  status: ('A' for Active; 'I' for Inactive)
ROOT
ATOM      1  C   UNL d   1       2.951   4.130  -2.062  0.00  0.00     0.124 A 
ATOM      2  C1  UNL d   1       4.018   5.017  -2.009  0.00  0.00     0.062 A 
ATOM      3  C2  UNL d   1       4.890   5.128  -3.088  0.00  0.00     0.162 A 
ATOM      4  C3  UNL d   1       4.698   4.352  -4.231  0.00  0.00    -0.034 A 
ATOM      5  C4  UNL d   1       3.623   3.462  -4.277  0.00  0.00     0.162 A 
ATOM      6  C5  UNL d   1       2.755   3.354  -3.196  0.00  0.00     0.062 A 
ATOM      7  F   UNL d   1       1.725   2.497  -3.249  0.00  0.00    -0.097 F 
ATOM      8  F1  UNL d   1       3.410   2.700  -5.360  0.00  0.00    -0.096 F 
ATOM      9  I   UNL d   1       6.000   4.515  -5.847  0.00  0.00    -0.060 I 
ATOM     10  F2  UNL d   1       5.912   5.993  -3.009  0.00  0.00    -0.096 F 
ATOM     11  F3  UNL d   1       4.210   5.767  -0.915  0.00  0.00    -0.097 F 
ATOM     12  F4  UNL d   1       2.114   4.024  -1.022  0.00  0.00    -0.092 F 
ENDROOT
TORSDOF 0
ENDMDL
