MODEL 1
REMARK minimizedAffinity 9.06002426
REMARK minimizedRMSD -1
REMARK  0 active torsions:
REMARK  status: ('A' for Active; 'I' for Inactive)
ROOT
ATOM      1  C   UNL d   1       4.308   5.358  -3.695  0.00  0.00     0.124 A 
ATOM      2  C1  UNL d   1       4.696   4.846  -2.464  0.00  0.00     0.062 A 
ATOM      3  C2  UNL d   1       3.737   4.481  -1.524  0.00  0.00     0.162 A 
ATOM      4  C3  UNL d   1       2.380   4.626  -1.811  0.00  0.00    -0.034 A 
ATOM      5  C4  UNL d   1       1.997   5.142  -3.050  0.00  0.00     0.162 A 
ATOM      6  C5  UNL d   1       2.960   5.505  -3.987  0.00  0.00     0.062 A 
ATOM      7  F   UNL d   1       2.583   6.000  -5.175  0.00  0.00    -0.097 F 
ATOM      8  F1  UNL d   1       0.701   5.295  -3.359  0.00  0.00    -0.096 F 
ATOM      9  I   UNL d   1       0.942   4.082  -0.408  0.00  0.00    -0.060 I 
ATOM     10  F2  UNL d   1       4.141   3.989  -0.343  0.00  0.00    -0.096 F 
ATOM     11  F3  UNL d   1       5.999   4.703  -2.180  0.00  0.00    -0.097 F 
ATOM     12  F4  UNL d   1       5.233   5.709  -4.597  0.00  0.00    -0.092 F 
ENDROOT
TORSDOF 0
ENDMDL
