MODEL 1
REMARK minimizedAffinity 9.67054653
REMARK minimizedRMSD -1
REMARK  0 active torsions:
REMARK  status: ('A' for Active; 'I' for Inactive)
ROOT
ATOM      1  C   UNL d   1       4.947   4.717  -3.819  0.00  0.00     0.124 A 
ATOM      2  C1  UNL d   1       3.871   3.951  -4.246  0.00  0.00     0.062 A 
ATOM      3  C2  UNL d   1       2.806   3.699  -3.386  0.00  0.00     0.162 A 
ATOM      4  C3  UNL d   1       2.811   4.215  -2.090  0.00  0.00    -0.034 A 
ATOM      5  C4  UNL d   1       3.896   4.984  -1.667  0.00  0.00     0.162 A 
ATOM      6  C5  UNL d   1       4.958   5.233  -2.531  0.00  0.00     0.062 A 
ATOM      7  F   UNL d   1       5.997   5.973  -2.116  0.00  0.00    -0.097 F 
ATOM      8  F1  UNL d   1       3.933   5.495  -0.428  0.00  0.00    -0.096 F 
ATOM      9  I   UNL d   1       1.220   3.841  -0.801  0.00  0.00    -0.060 I 
ATOM     10  F2  UNL d   1       1.780   2.955  -3.825  0.00  0.00    -0.096 F 
ATOM     11  F3  UNL d   1       3.858   3.451  -5.490  0.00  0.00    -0.097 F 
ATOM     12  F4  UNL d   1       5.971   4.957  -4.648  0.00  0.00    -0.092 F 
ENDROOT
TORSDOF 0
ENDMDL
