MODEL 1
REMARK minimizedAffinity 24.8510513
REMARK minimizedRMSD -1
REMARK  0 active torsions:
REMARK  status: ('A' for Active; 'I' for Inactive)
ROOT
ATOM      1  C   UNL d   1       2.376   5.841  -1.624  0.00  0.00     0.124 A 
ATOM      2  C1  UNL d   1       3.696   5.768  -1.199  0.00  0.00     0.062 A 
ATOM      3  C2  UNL d   1       4.731   5.770  -2.129  0.00  0.00     0.162 A 
ATOM      4  C3  UNL d   1       4.452   5.848  -3.494  0.00  0.00    -0.034 A 
ATOM      5  C4  UNL d   1       3.122   5.921  -3.913  0.00  0.00     0.162 A 
ATOM      6  C5  UNL d   1       2.091   5.918  -2.980  0.00  0.00     0.062 A 
ATOM      7  F   UNL d   1       0.817   5.989  -3.392  0.00  0.00    -0.097 F 
ATOM      8  F1  UNL d   1       2.818   5.997  -5.217  0.00  0.00    -0.096 F 
ATOM      9  I   UNL d   1       5.998   5.852  -4.887  0.00  0.00    -0.060 I 
ATOM     10  F2  UNL d   1       5.997   5.698  -1.690  0.00  0.00    -0.096 F 
ATOM     11  F3  UNL d   1       3.974   5.693   0.110  0.00  0.00    -0.097 F 
ATOM     12  F4  UNL d   1       1.381   5.838  -0.727  0.00  0.00    -0.092 F 
ENDROOT
TORSDOF 0
ENDMDL
