MODEL 1
REMARK minimizedAffinity 17.7036953
REMARK minimizedRMSD -1
REMARK  0 active torsions:
REMARK  status: ('A' for Active; 'I' for Inactive)
ROOT
ATOM      1  C   UNL d   1      -0.194  -2.289  -2.153  0.00  0.00     0.124 A 
ATOM      2  C1  UNL d   1      -0.864  -2.040  -3.343  0.00  0.00     0.062 A 
ATOM      3  C2  UNL d   1      -1.312  -3.097  -4.129  0.00  0.00     0.162 A 
ATOM      4  C3  UNL d   1      -1.093  -4.415  -3.727  0.00  0.00    -0.034 A 
ATOM      5  C4  UNL d   1      -0.418  -4.658  -2.530  0.00  0.00     0.162 A 
ATOM      6  C5  UNL d   1       0.028  -3.598  -1.748  0.00  0.00     0.062 A 
ATOM      7  F   UNL d   1       0.675  -3.841  -0.598  0.00  0.00    -0.097 F 
ATOM      8  F1  UNL d   1      -0.191  -5.913  -2.114  0.00  0.00    -0.096 F 
ATOM      9  I   UNL d   1      -1.762  -5.999  -4.900  0.00  0.00    -0.060 I 
ATOM     10  F2  UNL d   1      -1.957  -2.826  -5.274  0.00  0.00    -0.096 F 
ATOM     11  F3  UNL d   1      -1.079  -0.776  -3.737  0.00  0.00    -0.097 F 
ATOM     12  F4  UNL d   1       0.237  -1.270  -1.399  0.00  0.00    -0.092 F 
ENDROOT
TORSDOF 0
ENDMDL
