MODEL 1
REMARK minimizedAffinity 23.4816418
REMARK minimizedRMSD -1
REMARK  0 active torsions:
REMARK  status: ('A' for Active; 'I' for Inactive)
ROOT
ATOM      1  C   UNL d   1      -2.160   0.257   4.760  0.00  0.00     0.124 A 
ATOM      2  C1  UNL d   1      -2.454   1.058   3.666  0.00  0.00     0.062 A 
ATOM      3  C2  UNL d   1      -2.389   0.535   2.378  0.00  0.00     0.162 A 
ATOM      4  C3  UNL d   1      -2.028  -0.798   2.177  0.00  0.00    -0.034 A 
ATOM      5  C4  UNL d   1      -1.733  -1.597   3.283  0.00  0.00     0.162 A 
ATOM      6  C5  UNL d   1      -1.800  -1.069   4.568  0.00  0.00     0.062 A 
ATOM      7  F   UNL d   1      -1.516  -1.844   5.625  0.00  0.00    -0.097 F 
ATOM      8  F1  UNL d   1      -1.383  -2.882   3.126  0.00  0.00    -0.096 F 
ATOM      9  I   UNL d   1      -1.929  -1.584   0.253  0.00  0.00    -0.060 I 
ATOM     10  F2  UNL d   1      -2.678   1.332   1.338  0.00  0.00    -0.096 F 
ATOM     11  F3  UNL d   1      -2.801   2.340   3.849  0.00  0.00    -0.097 F 
ATOM     12  F4  UNL d   1      -2.223   0.764   5.999  0.00  0.00    -0.092 F 
ENDROOT
TORSDOF 0
ENDMDL
