MODEL 1
REMARK minimizedAffinity 21.2362976
REMARK minimizedRMSD -1
REMARK  0 active torsions:
REMARK  status: ('A' for Active; 'I' for Inactive)
ROOT
ATOM      1  C   UNL d   1      -0.392  -2.401  -1.732  0.00  0.00     0.124 A 
ATOM      2  C1  UNL d   1      -0.125  -3.745  -1.516  0.00  0.00     0.062 A 
ATOM      3  C2  UNL d   1      -0.494  -4.693  -2.466  0.00  0.00     0.162 A 
ATOM      4  C3  UNL d   1      -1.132  -4.300  -3.642  0.00  0.00    -0.034 A 
ATOM      5  C4  UNL d   1      -1.398  -2.945  -3.852  0.00  0.00     0.162 A 
ATOM      6  C5  UNL d   1      -1.027  -2.002  -2.899  0.00  0.00     0.062 A 
ATOM      7  F   UNL d   1      -1.286  -0.703  -3.110  0.00  0.00    -0.097 F 
ATOM      8  F1  UNL d   1      -2.010  -2.532  -4.972  0.00  0.00    -0.096 F 
ATOM      9  I   UNL d   1      -1.685  -5.714  -5.065  0.00  0.00    -0.060 I 
ATOM     10  F2  UNL d   1      -0.224  -5.986  -2.231  0.00  0.00    -0.096 F 
ATOM     11  F3  UNL d   1       0.488  -4.133  -0.388  0.00  0.00    -0.097 F 
ATOM     12  F4  UNL d   1      -0.037  -1.491  -0.815  0.00  0.00    -0.092 F 
ENDROOT
TORSDOF 0
ENDMDL
