MODEL 1
REMARK minimizedAffinity 7.1035428
REMARK minimizedRMSD -1
REMARK  0 active torsions:
REMARK  status: ('A' for Active; 'I' for Inactive)
ROOT
ATOM      1  C   UNL d   1       4.972   4.847  -3.652  0.00  0.00     0.124 A 
ATOM      2  C1  UNL d   1       4.987   5.251  -2.324  0.00  0.00     0.062 A 
ATOM      3  C2  UNL d   1       3.953   4.881  -1.469  0.00  0.00     0.162 A 
ATOM      4  C3  UNL d   1       2.896   4.103  -1.938  0.00  0.00    -0.034 A 
ATOM      5  C4  UNL d   1       2.887   3.701  -3.275  0.00  0.00     0.162 A 
ATOM      6  C5  UNL d   1       3.922   4.073  -4.126  0.00  0.00     0.062 A 
ATOM      7  F   UNL d   1       3.906   3.682  -5.409  0.00  0.00    -0.097 F 
ATOM      8  F1  UNL d   1       1.885   2.952  -3.759  0.00  0.00    -0.096 F 
ATOM      9  I   UNL d   1       1.348   3.548  -0.662  0.00  0.00    -0.060 I 
ATOM     10  F2  UNL d   1       3.994   5.286  -0.190  0.00  0.00    -0.096 F 
ATOM     11  F3  UNL d   1       6.000   5.999  -1.864  0.00  0.00    -0.097 F 
ATOM     12  F4  UNL d   1       5.967   5.204  -4.474  0.00  0.00    -0.092 F 
ENDROOT
TORSDOF 0
ENDMDL
