MODEL 1
REMARK minimizedAffinity 12.3094263
REMARK minimizedRMSD -1
REMARK  0 active torsions:
REMARK  status: ('A' for Active; 'I' for Inactive)
ROOT
ATOM      1  C   UNL d   1      -2.681  -2.182  -0.844  0.00  0.00     0.124 A 
ATOM      2  C1  UNL d   1      -1.588  -2.290   0.005  0.00  0.00     0.062 A 
ATOM      3  C2  UNL d   1      -0.296  -2.259  -0.511  0.00  0.00     0.162 A 
ATOM      4  C3  UNL d   1      -0.089  -2.118  -1.884  0.00  0.00    -0.034 A 
ATOM      5  C4  UNL d   1      -1.194  -2.011  -2.731  0.00  0.00     0.162 A 
ATOM      6  C5  UNL d   1      -2.483  -2.042  -2.210  0.00  0.00     0.062 A 
ATOM      7  F   UNL d   1      -3.538  -1.938  -3.031  0.00  0.00    -0.097 F 
ATOM      8  F1  UNL d   1      -1.031  -1.874  -4.055  0.00  0.00    -0.096 F 
ATOM      9  I   UNL d   1       1.842  -2.071  -2.660  0.00  0.00    -0.060 I 
ATOM     10  F2  UNL d   1       0.742  -2.365   0.332  0.00  0.00    -0.096 F 
ATOM     11  F3  UNL d   1      -1.776  -2.425   1.325  0.00  0.00    -0.097 F 
ATOM     12  F4  UNL d   1      -3.923  -2.213  -0.344  0.00  0.00    -0.092 F 
ENDROOT
TORSDOF 0
ENDMDL
