MODEL 1
REMARK minimizedAffinity 8.3955965
REMARK minimizedRMSD -1
REMARK  1 active torsions:
REMARK  status: ('A' for Active; 'I' for Inactive)
REMARK    1  A    between atoms: C1_2  and  C2_3 
ROOT
ATOM      1  C2  UNL d   1      -0.476   2.235   1.781  0.00  0.00    -0.076 A 
ATOM      2  C3  UNL d   1      -0.046   2.854   0.595  0.00  0.00     0.004 A 
ATOM      3  C4  UNL d   1       1.307   2.908   0.263  0.00  0.00    -0.003 A 
ATOM      4  C5  UNL d   1       2.252   2.344   1.113  0.00  0.00     0.000 A 
ATOM      5  C6  UNL d   1       1.841   1.710   2.285  0.00  0.00     0.000 A 
ATOM      6  C7  UNL d   1       0.480   1.632   2.626  0.00  0.00    -0.073 A 
ATOM      7  C8  UNL d   1       0.095   0.942   3.906  0.00  0.00     0.078 C 
ENDROOT
BRANCH   1   8
ATOM      8  C1  UNL d   1      -1.954   2.231   2.102  0.00  0.00     0.053 C 
ATOM      9  C   UNL d   1      -2.408   3.517   2.774  0.00  0.00     0.018 C 
ENDBRANCH   1   8
TORSDOF 1
ENDMDL
