MODEL 1
REMARK minimizedAffinity 6.22706127
REMARK minimizedRMSD -1
REMARK  1 active torsions:
REMARK  status: ('A' for Active; 'I' for Inactive)
REMARK    1  A    between atoms: C1_2  and  C2_3 
ROOT
ATOM      1  C2  UNL d   1       1.553  -0.874  -0.300  0.00  0.00    -0.076 A 
ATOM      2  C3  UNL d   1       0.253  -1.002  -0.819  0.00  0.00     0.004 A 
ATOM      3  C4  UNL d   1      -0.320  -2.257  -1.015  0.00  0.00    -0.003 A 
ATOM      4  C5  UNL d   1       0.397  -3.405  -0.695  0.00  0.00     0.000 A 
ATOM      5  C6  UNL d   1       1.681  -3.296  -0.162  0.00  0.00     0.000 A 
ATOM      6  C7  UNL d   1       2.268  -2.038   0.057  0.00  0.00    -0.073 A 
ATOM      7  C8  UNL d   1       3.658  -1.979   0.628  0.00  0.00     0.078 C 
ENDROOT
BRANCH   1   8
ATOM      8  C1  UNL d   1       2.134   0.512  -0.134  0.00  0.00     0.053 C 
ATOM      9  C   UNL d   1       1.095   1.530   0.311  0.00  0.00     0.018 C 
ENDBRANCH   1   8
TORSDOF 1
ENDMDL
