MODEL 1
REMARK minimizedAffinity 5.56598043
REMARK minimizedRMSD -1
REMARK  1 active torsions:
REMARK  status: ('A' for Active; 'I' for Inactive)
REMARK    1  A    between atoms: C1_2  and  C2_3 
ROOT
ATOM      1  C2  UNL d   1       1.763   0.492   0.353  0.00  0.00    -0.076 A 
ATOM      2  C3  UNL d   1       2.551  -0.174  -0.602  0.00  0.00     0.004 A 
ATOM      3  C4  UNL d   1       2.789  -1.544  -0.506  0.00  0.00    -0.003 A 
ATOM      4  C5  UNL d   1       2.241  -2.271   0.545  0.00  0.00     0.000 A 
ATOM      5  C6  UNL d   1       1.442  -1.630   1.491  0.00  0.00     0.000 A 
ATOM      6  C7  UNL d   1       1.180  -0.252   1.401  0.00  0.00    -0.073 A 
ATOM      7  C8  UNL d   1       0.316   0.389   2.452  0.00  0.00     0.078 C 
ENDROOT
BRANCH   1   8
ATOM      8  C1  UNL d   1       1.562   1.984   0.213  0.00  0.00     0.053 C 
ATOM      9  C   UNL d   1       0.127   2.349  -0.135  0.00  0.00     0.018 C 
ENDBRANCH   1   8
TORSDOF 1
ENDMDL
