MODEL 1
REMARK minimizedAffinity 7.66784763
REMARK minimizedRMSD -1
REMARK  1 active torsions:
REMARK  status: ('A' for Active; 'I' for Inactive)
REMARK    1  A    between atoms: C1_2  and  C2_3 
ROOT
ATOM      1  C2  UNL d   1      -1.442   2.069   2.529  0.00  0.00    -0.076 A 
ATOM      2  C3  UNL d   1      -1.261   1.425   3.765  0.00  0.00     0.004 A 
ATOM      3  C4  UNL d   1      -0.025   0.887   4.120  0.00  0.00    -0.003 A 
ATOM      4  C5  UNL d   1       1.051   0.985   3.244  0.00  0.00     0.000 A 
ATOM      5  C6  UNL d   1       0.894   1.636   2.021  0.00  0.00     0.000 A 
ATOM      6  C7  UNL d   1      -0.341   2.199   1.655  0.00  0.00    -0.073 A 
ATOM      7  C8  UNL d   1      -0.456   2.885   0.321  0.00  0.00     0.078 C 
ENDROOT
BRANCH   1   8
ATOM      8  C1  UNL d   1      -2.812   2.609   2.188  0.00  0.00     0.053 C 
ATOM      9  C   UNL d   1      -3.795   1.511   1.816  0.00  0.00     0.018 C 
ENDBRANCH   1   8
TORSDOF 1
ENDMDL
