MODEL 1
REMARK minimizedAffinity -3.46987081
REMARK minimizedRMSD -1
REMARK  1 active torsions:
REMARK  status: ('A' for Active; 'I' for Inactive)
REMARK    1  A    between atoms: C1_2  and  C2_3 
ROOT
ATOM      1  C2  UNL d   1       1.171   0.436  -0.087  0.00  0.00    -0.076 A 
ATOM      2  C3  UNL d   1       2.434  -0.159   0.078  0.00  0.00     0.004 A 
ATOM      3  C4  UNL d   1       2.584  -1.544   0.048  0.00  0.00    -0.003 A 
ATOM      4  C5  UNL d   1       1.474  -2.357  -0.147  0.00  0.00     0.000 A 
ATOM      5  C6  UNL d   1       0.216  -1.784  -0.330  0.00  0.00     0.000 A 
ATOM      6  C7  UNL d   1       0.050  -0.388  -0.319  0.00  0.00    -0.073 A 
ATOM      7  C8  UNL d   1      -1.331   0.176  -0.515  0.00  0.00     0.078 C 
ENDROOT
BRANCH   1   8
ATOM      8  C1  UNL d   1       1.066   1.943  -0.018  0.00  0.00     0.053 C 
ATOM      9  C   UNL d   1       0.779   2.443   1.389  0.00  0.00     0.018 C 
ENDBRANCH   1   8
TORSDOF 1
ENDMDL
