MODEL 1
REMARK minimizedAffinity 6.43885565
REMARK minimizedRMSD -1
REMARK  1 active torsions:
REMARK  status: ('A' for Active; 'I' for Inactive)
REMARK    1  A    between atoms: C1_2  and  C2_3 
ROOT
ATOM      1  C2  UNL d   1       2.160   0.054  -0.034  0.00  0.00    -0.076 A 
ATOM      2  C3  UNL d   1       0.831   0.284  -0.429  0.00  0.00     0.004 A 
ATOM      3  C4  UNL d   1       0.321   1.578  -0.514  0.00  0.00    -0.003 A 
ATOM      4  C5  UNL d   1       1.133   2.664  -0.207  0.00  0.00     0.000 A 
ATOM      5  C6  UNL d   1       2.460   2.456   0.170  0.00  0.00     0.000 A 
ATOM      6  C7  UNL d   1       2.994   1.158   0.245  0.00  0.00    -0.073 A 
ATOM      7  C8  UNL d   1       4.429   0.991   0.662  0.00  0.00     0.078 C 
ENDROOT
BRANCH   1   8
ATOM      8  C1  UNL d   1       2.649  -1.373   0.067  0.00  0.00     0.053 C 
ATOM      9  C   UNL d   1       1.951  -2.299  -0.917  0.00  0.00     0.018 C 
ENDBRANCH   1   8
TORSDOF 1
ENDMDL
