MODEL 1
REMARK minimizedAffinity 7.87886858
REMARK minimizedRMSD -1
REMARK  1 active torsions:
REMARK  status: ('A' for Active; 'I' for Inactive)
REMARK    1  A    between atoms: C1_2  and  C2_3 
ROOT
ATOM      1  C2  UNL d   1       0.744  -1.106  -0.481  0.00  0.00    -0.076 A 
ATOM      2  C3  UNL d   1       0.848  -2.456  -0.859  0.00  0.00     0.004 A 
ATOM      3  C4  UNL d   1       0.066  -2.975  -1.889  0.00  0.00    -0.003 A 
ATOM      4  C5  UNL d   1      -0.833  -2.152  -2.559  0.00  0.00     0.000 A 
ATOM      5  C6  UNL d   1      -0.937  -0.806  -2.210  0.00  0.00     0.000 A 
ATOM      6  C7  UNL d   1      -0.143  -0.263  -1.184  0.00  0.00    -0.073 A 
ATOM      7  C8  UNL d   1      -0.301   1.194  -0.844  0.00  0.00     0.078 C 
ENDROOT
BRANCH   1   8
ATOM      8  C1  UNL d   1       1.599  -0.605   0.661  0.00  0.00     0.053 C 
ATOM      9  C   UNL d   1       1.282  -1.304   1.975  0.00  0.00     0.018 C 
ENDBRANCH   1   8
TORSDOF 1
ENDMDL
