MODEL 1
REMARK minimizedAffinity -2.18910146
REMARK minimizedRMSD -1
REMARK  1 active torsions:
REMARK  status: ('A' for Active; 'I' for Inactive)
REMARK    1  A    between atoms: C1_2  and  C2_3 
ROOT
ATOM      1  C2  UNL d   1       0.693   0.101  -0.941  0.00  0.00    -0.076 A 
ATOM      2  C3  UNL d   1      -0.405  -0.764  -1.092  0.00  0.00     0.004 A 
ATOM      3  C4  UNL d   1      -0.222  -2.138  -1.234  0.00  0.00    -0.003 A 
ATOM      4  C5  UNL d   1       1.062  -2.670  -1.229  0.00  0.00     0.000 A 
ATOM      5  C6  UNL d   1       2.162  -1.829  -1.063  0.00  0.00     0.000 A 
ATOM      6  C7  UNL d   1       1.994  -0.443  -0.901  0.00  0.00    -0.073 A 
ATOM      7  C8  UNL d   1       3.216   0.417  -0.732  0.00  0.00     0.078 C 
ENDROOT
BRANCH   1   8
ATOM      8  C1  UNL d   1       0.434   1.586  -0.818  0.00  0.00     0.053 C 
ATOM      9  C   UNL d   1       0.133   2.008   0.612  0.00  0.00     0.018 C 
ENDBRANCH   1   8
TORSDOF 1
ENDMDL
