MODEL 1
REMARK minimizedAffinity 4.34651184
REMARK minimizedRMSD -1
REMARK  1 active torsions:
REMARK  status: ('A' for Active; 'I' for Inactive)
REMARK    1  A    between atoms: C1_2  and  C2_3 
ROOT
ATOM      1  C2  UNL d   1       0.983   1.798   1.178  0.00  0.00    -0.076 A 
ATOM      2  C3  UNL d   1       0.466   2.979   0.619  0.00  0.00     0.004 A 
ATOM      3  C4  UNL d   1      -0.150   3.941   1.418  0.00  0.00    -0.003 A 
ATOM      4  C5  UNL d   1      -0.257   3.738   2.789  0.00  0.00     0.000 A 
ATOM      5  C6  UNL d   1       0.267   2.580   3.363  0.00  0.00     0.000 A 
ATOM      6  C7  UNL d   1       0.905   1.608   2.574  0.00  0.00    -0.073 A 
ATOM      7  C8  UNL d   1       1.446   0.375   3.245  0.00  0.00     0.078 C 
ENDROOT
BRANCH   1   8
ATOM      8  C1  UNL d   1       1.616   0.778   0.258  0.00  0.00     0.053 C 
ATOM      9  C   UNL d   1       0.597  -0.183  -0.334  0.00  0.00     0.018 C 
ENDBRANCH   1   8
TORSDOF 1
ENDMDL
