MODEL 1
REMARK minimizedAffinity 13.1170855
REMARK minimizedRMSD -1
REMARK  0 active torsions:
REMARK  status: ('A' for Active; 'I' for Inactive)
ROOT
ATOM      1  C   UNL d   1       4.180  -4.289  -4.563  0.00  0.00     0.020 A 
ATOM      2  C1  UNL d   1       4.625  -5.591  -4.335  0.00  0.00     0.020 A 
ATOM      3  C2  UNL d   1       4.956  -5.999  -3.041  0.00  0.00     0.034 A 
ATOM      4  C3  UNL d   1       4.843  -5.104  -1.971  0.00  0.00     0.017 A 
ATOM      5  C4  UNL d   1       4.396  -3.798  -2.201  0.00  0.00     0.017 A 
ATOM      6  C5  UNL d   1       4.066  -3.395  -3.498  0.00  0.00     0.034 A 
ATOM      7 Cl   UNL d   1       4.231  -2.638  -0.930  0.00  0.00    -0.070 Cl
ATOM      8 Cl1  UNL d   1       5.269  -5.676  -0.397  0.00  0.00    -0.070 Cl
ENDROOT
TORSDOF 0
ENDMDL
