MODEL 1
REMARK minimizedAffinity 2.4101789
REMARK minimizedRMSD -1
REMARK  0 active torsions:
REMARK  status: ('A' for Active; 'I' for Inactive)
ROOT
ATOM      1  C   UNL d   1       1.478   2.905   2.210  0.00  0.00     0.020 A 
ATOM      2  C1  UNL d   1       2.612   3.426   1.588  0.00  0.00     0.020 A 
ATOM      3  C2  UNL d   1       2.495   4.090   0.366  0.00  0.00     0.034 A 
ATOM      4  C3  UNL d   1       1.242   4.236  -0.239  0.00  0.00     0.017 A 
ATOM      5  C4  UNL d   1       0.104   3.714   0.386  0.00  0.00     0.017 A 
ATOM      6  C5  UNL d   1       0.227   3.049   1.610  0.00  0.00     0.034 A 
ATOM      7 Cl   UNL d   1      -1.477   3.855  -0.298  0.00  0.00    -0.070 Cl
ATOM      8 Cl1  UNL d   1       1.171   5.070  -1.751  0.00  0.00    -0.070 Cl
ENDROOT
TORSDOF 0
ENDMDL
