MODEL 1
REMARK minimizedAffinity 0.428557009
REMARK minimizedRMSD -1
REMARK  0 active torsions:
REMARK  status: ('A' for Active; 'I' for Inactive)
ROOT
ATOM      1  C   UNL d   1      -5.967   4.775  -5.000  0.00  0.00     0.020 A 
ATOM      2  C1  UNL d   1      -5.969   4.928  -3.614  0.00  0.00     0.020 A 
ATOM      3  C2  UNL d   1      -5.979   3.803  -2.787  0.00  0.00     0.034 A 
ATOM      4  C3  UNL d   1      -5.987   2.520  -3.344  0.00  0.00     0.017 A 
ATOM      5  C4  UNL d   1      -5.985   2.366  -4.735  0.00  0.00     0.017 A 
ATOM      6  C5  UNL d   1      -5.975   3.496  -5.559  0.00  0.00     0.034 A 
ATOM      7 Cl   UNL d   1      -5.994   0.815  -5.497  0.00  0.00    -0.070 Cl
ATOM      8 Cl1  UNL d   1      -5.999   1.173  -2.261  0.00  0.00    -0.070 Cl
ENDROOT
TORSDOF 0
ENDMDL
