MODEL 1
REMARK minimizedAffinity 5.34055138
REMARK minimizedRMSD -1
REMARK  0 active torsions:
REMARK  status: ('A' for Active; 'I' for Inactive)
ROOT
ATOM      1  C   UNL d   1      -5.487  -2.248   6.000  0.00  0.00     0.020 A 
ATOM      2  C1  UNL d   1      -4.285  -2.805   5.566  0.00  0.00     0.020 A 
ATOM      3  C2  UNL d   1      -3.593  -2.228   4.500  0.00  0.00     0.034 A 
ATOM      4  C3  UNL d   1      -4.102  -1.090   3.863  0.00  0.00     0.017 A 
ATOM      5  C4  UNL d   1      -5.309  -0.531   4.299  0.00  0.00     0.017 A 
ATOM      6  C5  UNL d   1      -5.998  -1.113   5.368  0.00  0.00     0.034 A 
ATOM      7 Cl   UNL d   1      -6.000   0.872   3.564  0.00  0.00    -0.070 Cl
ATOM      8 Cl1  UNL d   1      -3.193  -0.429   2.551  0.00  0.00    -0.070 Cl
ENDROOT
TORSDOF 0
ENDMDL
