MODEL 1
REMARK minimizedAffinity 10.0313702
REMARK minimizedRMSD -1
REMARK  0 active torsions:
REMARK  status: ('A' for Active; 'I' for Inactive)
ROOT
ATOM      1  C   UNL d   1      -5.527  -2.248   5.942  0.00  0.00     0.020 A 
ATOM      2  C1  UNL d   1      -4.592  -2.642   4.986  0.00  0.00     0.020 A 
ATOM      3  C2  UNL d   1      -4.076  -1.706   4.087  0.00  0.00     0.034 A 
ATOM      4  C3  UNL d   1      -4.494  -0.372   4.142  0.00  0.00     0.017 A 
ATOM      5  C4  UNL d   1      -5.433   0.023   5.102  0.00  0.00     0.017 A 
ATOM      6  C5  UNL d   1      -5.947  -0.919   6.000  0.00  0.00     0.034 A 
ATOM      7 Cl   UNL d   1      -5.998   1.651   5.232  0.00  0.00    -0.070 Cl
ATOM      8 Cl1  UNL d   1      -3.814   0.731   3.000  0.00  0.00    -0.070 Cl
ENDROOT
TORSDOF 0
ENDMDL
