MODEL 1
REMARK minimizedAffinity 3.71171594
REMARK minimizedRMSD -1
REMARK  0 active torsions:
REMARK  status: ('A' for Active; 'I' for Inactive)
ROOT
ATOM      1  C   UNL d   1      -4.654   3.541  -2.654  0.00  0.00     0.020 A 
ATOM      2  C1  UNL d   1      -5.598   2.737  -2.015  0.00  0.00     0.020 A 
ATOM      3  C2  UNL d   1      -6.000   1.534  -2.599  0.00  0.00     0.034 A 
ATOM      4  C3  UNL d   1      -5.457   1.131  -3.825  0.00  0.00     0.017 A 
ATOM      5  C4  UNL d   1      -4.510   1.938  -4.464  0.00  0.00     0.017 A 
ATOM      6  C5  UNL d   1      -4.111   3.142  -3.875  0.00  0.00     0.034 A 
ATOM      7 Cl   UNL d   1      -3.795   1.507  -5.978  0.00  0.00    -0.070 Cl
ATOM      8 Cl1  UNL d   1      -6.000  -0.370  -4.489  0.00  0.00    -0.070 Cl
ENDROOT
TORSDOF 0
ENDMDL
