MODEL 1
REMARK minimizedAffinity 15.0227566
REMARK minimizedRMSD -1
REMARK  0 active torsions:
REMARK  status: ('A' for Active; 'I' for Inactive)
ROOT
ATOM      1  C   UNL d   1      -1.511   5.997  -0.927  0.00  0.00     0.020 A 
ATOM      2  C1  UNL d   1      -1.713   5.922  -2.304  0.00  0.00     0.020 A 
ATOM      3  C2  UNL d   1      -1.202   4.843  -3.028  0.00  0.00     0.034 A 
ATOM      4  C3  UNL d   1      -0.485   3.834  -2.374  0.00  0.00     0.017 A 
ATOM      5  C4  UNL d   1      -0.282   3.910  -0.991  0.00  0.00     0.017 A 
ATOM      6  C5  UNL d   1      -0.797   4.993  -0.272  0.00  0.00     0.034 A 
ATOM      7 Cl   UNL d   1       0.592   2.703  -0.115  0.00  0.00    -0.070 Cl
ATOM      8 Cl1  UNL d   1       0.118   2.528  -3.331  0.00  0.00    -0.070 Cl
ENDROOT
TORSDOF 0
ENDMDL
