MODEL 1
REMARK minimizedAffinity 8.85886288
REMARK minimizedRMSD -1
REMARK  0 active torsions:
REMARK  status: ('A' for Active; 'I' for Inactive)
ROOT
ATOM      1  C   UNL d   1      -0.865  -5.997  -4.159  0.00  0.00     0.020 A 
ATOM      2  C1  UNL d   1      -1.606  -4.863  -4.485  0.00  0.00     0.020 A 
ATOM      3  C2  UNL d   1      -1.542  -3.729  -3.673  0.00  0.00     0.034 A 
ATOM      4  C3  UNL d   1      -0.734  -3.727  -2.530  0.00  0.00     0.017 A 
ATOM      5  C4  UNL d   1       0.010  -4.867  -2.203  0.00  0.00     0.017 A 
ATOM      6  C5  UNL d   1      -0.058  -5.999  -3.020  0.00  0.00     0.034 A 
ATOM      7 Cl   UNL d   1       1.029  -4.940  -0.809  0.00  0.00    -0.070 Cl
ATOM      8 Cl1  UNL d   1      -0.702  -2.290  -1.571  0.00  0.00    -0.070 Cl
ENDROOT
TORSDOF 0
ENDMDL
