MODEL 1
REMARK minimizedAffinity 6.06853247
REMARK minimizedRMSD -1
REMARK  0 active torsions:
REMARK  status: ('A' for Active; 'I' for Inactive)
ROOT
ATOM      1  C   UNL d   1      -0.241   3.038  -0.069  0.00  0.00     0.020 A 
ATOM      2  C1  UNL d   1       0.795   3.971  -0.088  0.00  0.00     0.020 A 
ATOM      3  C2  UNL d   1       1.593   4.151   1.043  0.00  0.00     0.034 A 
ATOM      4  C3  UNL d   1       1.357   3.398   2.199  0.00  0.00     0.017 A 
ATOM      5  C4  UNL d   1       0.317   2.461   2.217  0.00  0.00     0.017 A 
ATOM      6  C5  UNL d   1      -0.479   2.285   1.081  0.00  0.00     0.034 A 
ATOM      7 Cl   UNL d   1      -0.035   1.494   3.606  0.00  0.00    -0.070 Cl
ATOM      8 Cl1  UNL d   1       2.384   3.673   3.561  0.00  0.00    -0.070 Cl
ENDROOT
TORSDOF 0
ENDMDL
