MODEL 1
REMARK minimizedAffinity 7.61076069
REMARK minimizedRMSD -1
REMARK  0 active torsions:
REMARK  status: ('A' for Active; 'I' for Inactive)
ROOT
ATOM      1  C   UNL d   1      -0.197   3.891   0.131  0.00  0.00     0.020 A 
ATOM      2  C1  UNL d   1       1.055   4.215  -0.390  0.00  0.00     0.020 A 
ATOM      3  C2  UNL d   1       1.151   4.866  -1.622  0.00  0.00     0.034 A 
ATOM      4  C3  UNL d   1      -0.006   5.194  -2.337  0.00  0.00     0.017 A 
ATOM      5  C4  UNL d   1      -1.262   4.868  -1.813  0.00  0.00     0.017 A 
ATOM      6  C5  UNL d   1      -1.353   4.217  -0.580  0.00  0.00     0.034 A 
ATOM      7 Cl   UNL d   1      -2.735   5.241  -2.637  0.00  0.00    -0.070 Cl
ATOM      8 Cl1  UNL d   1       0.188   5.999  -3.854  0.00  0.00    -0.070 Cl
ENDROOT
TORSDOF 0
ENDMDL
