MODEL 1
REMARK minimizedAffinity 8.93161011
REMARK minimizedRMSD -1
REMARK  0 active torsions:
REMARK  status: ('A' for Active; 'I' for Inactive)
ROOT
ATOM      1  C   UNL d   1      -5.999   3.358  -2.408  0.00  0.00     0.020 A 
ATOM      2  C1  UNL d   1      -5.175   3.840  -1.392  0.00  0.00     0.020 A 
ATOM      3  C2  UNL d   1      -4.018   4.554  -1.711  0.00  0.00     0.034 A 
ATOM      4  C3  UNL d   1      -3.682   4.788  -3.049  0.00  0.00     0.017 A 
ATOM      5  C4  UNL d   1      -4.509   4.304  -4.068  0.00  0.00     0.017 A 
ATOM      6  C5  UNL d   1      -5.666   3.590  -3.743  0.00  0.00     0.034 A 
ATOM      7 Cl   UNL d   1      -4.160   4.553  -5.743  0.00  0.00    -0.070 Cl
ATOM      8 Cl1  UNL d   1      -2.236   5.679  -3.370  0.00  0.00    -0.070 Cl
ENDROOT
TORSDOF 0
ENDMDL
