MODEL 1
REMARK minimizedAffinity 18.3790741
REMARK minimizedRMSD -1
REMARK  0 active torsions:
REMARK  status: ('A' for Active; 'I' for Inactive)
ROOT
ATOM      1  C   UNL d   1       2.698  -1.449   0.980  0.00  0.00    -0.002 A 
ATOM      2  C1  UNL d   1       3.800  -2.267   1.179  0.00  0.00     0.010 A 
ATOM      3  C2  UNL d   1       3.946  -3.452   0.455  0.00  0.00     0.041 A 
ATOM      4  C3  UNL d   1       2.956  -3.803  -0.484  0.00  0.00    -0.075 A 
ATOM      5  S   UNL d   1       2.924  -5.205  -1.487  0.00  0.00     0.015 SA
ATOM      6  C4  UNL d   1       1.447  -4.750  -2.204  0.00  0.00     0.022 A 
ATOM      7  C5  UNL d   1       0.975  -3.560  -1.703  0.00  0.00     0.026 A 
ATOM      8  C6  UNL d   1       1.837  -2.994  -0.704  0.00  0.00    -0.082 A 
ATOM      9  C7  UNL d   1       1.718  -1.800   0.047  0.00  0.00     0.045 A 
ENDROOT
TORSDOF 0
ENDMDL
