MODEL 1
REMARK minimizedAffinity 19.9678822
REMARK minimizedRMSD -1
REMARK  0 active torsions:
REMARK  status: ('A' for Active; 'I' for Inactive)
ROOT
ATOM      1  C   UNL d   1       1.395  -3.037  -0.711  0.00  0.00    -0.002 A 
ATOM      2  C1  UNL d   1       1.516  -3.963  -1.738  0.00  0.00     0.010 A 
ATOM      3  C2  UNL d   1       2.613  -4.826  -1.790  0.00  0.00     0.041 A 
ATOM      4  C3  UNL d   1       3.594  -4.742  -0.784  0.00  0.00    -0.075 A 
ATOM      5  S   UNL d   1       5.023  -5.697  -0.643  0.00  0.00     0.015 SA
ATOM      6  C4  UNL d   1       5.506  -4.898   0.783  0.00  0.00     0.022 A 
ATOM      7  C5  UNL d   1       4.611  -3.924   1.157  0.00  0.00     0.026 A 
ATOM      8  C6  UNL d   1       3.494  -3.818   0.261  0.00  0.00    -0.082 A 
ATOM      9  C7  UNL d   1       2.371  -2.957   0.286  0.00  0.00     0.045 A 
ENDROOT
TORSDOF 0
ENDMDL
