MODEL 1
REMARK minimizedAffinity 25.8069534
REMARK minimizedRMSD -1
REMARK  0 active torsions:
REMARK  status: ('A' for Active; 'I' for Inactive)
ROOT
ATOM      1  C   UNL d   1       0.876   1.641   3.733  0.00  0.00    -0.002 A 
ATOM      2  C1  UNL d   1       0.219   0.825   2.823  0.00  0.00     0.010 A 
ATOM      3  C2  UNL d   1       0.137   1.185   1.476  0.00  0.00     0.041 A 
ATOM      4  C3  UNL d   1       0.733   2.390   1.056  0.00  0.00    -0.075 A 
ATOM      5  S   UNL d   1       0.759   3.034  -0.543  0.00  0.00     0.015 SA
ATOM      6  C4  UNL d   1       1.643   4.407  -0.056  0.00  0.00     0.022 A 
ATOM      7  C5  UNL d   1       1.919   4.391   1.290  0.00  0.00     0.026 A 
ATOM      8  C6  UNL d   1       1.400   3.228   1.953  0.00  0.00    -0.082 A 
ATOM      9  C7  UNL d   1       1.465   2.836   3.312  0.00  0.00     0.045 A 
ENDROOT
TORSDOF 0
ENDMDL
