MODEL 1
REMARK minimizedAffinity 16.0470448
REMARK minimizedRMSD -1
REMARK  0 active torsions:
REMARK  status: ('A' for Active; 'I' for Inactive)
ROOT
ATOM      1  C   UNL d   1       1.759  -2.576   0.001  0.00  0.00    -0.002 A 
ATOM      2  C1  UNL d   1       2.311  -1.355   0.359  0.00  0.00     0.010 A 
ATOM      3  C2  UNL d   1       3.621  -1.279   0.836  0.00  0.00     0.041 A 
ATOM      4  C3  UNL d   1       4.375  -2.464   0.946  0.00  0.00    -0.075 A 
ATOM      5  S   UNL d   1       5.999  -2.614   1.504  0.00  0.00     0.015 SA
ATOM      6  C4  UNL d   1       5.999  -4.304   1.280  0.00  0.00     0.022 A 
ATOM      7  C5  UNL d   1       4.797  -4.759   0.793  0.00  0.00     0.026 A 
ATOM      8  C6  UNL d   1       3.841  -3.706   0.592  0.00  0.00    -0.082 A 
ATOM      9  C7  UNL d   1       2.510  -3.750   0.113  0.00  0.00     0.045 A 
ENDROOT
TORSDOF 0
ENDMDL
