MODEL 1
REMARK minimizedAffinity 14.4305573
REMARK minimizedRMSD -1
REMARK  0 active torsions:
REMARK  status: ('A' for Active; 'I' for Inactive)
ROOT
ATOM      1  C   UNL d   1      -5.992  -2.829   0.388  0.00  0.00    -0.002 A 
ATOM      2  C1  UNL d   1      -5.988  -1.896   1.414  0.00  0.00     0.010 A 
ATOM      3  C2  UNL d   1      -5.989  -2.307   2.748  0.00  0.00     0.041 A 
ATOM      4  C3  UNL d   1      -5.992  -3.686   3.036  0.00  0.00    -0.075 A 
ATOM      5  S   UNL d   1      -5.994  -4.423   4.595  0.00  0.00     0.015 SA
ATOM      6  C4  UNL d   1      -5.999  -5.994   3.935  0.00  0.00     0.022 A 
ATOM      7  C5  UNL d   1      -6.000  -5.976   2.560  0.00  0.00     0.026 A 
ATOM      8  C6  UNL d   1      -5.996  -4.645   2.019  0.00  0.00    -0.082 A 
ATOM      9  C7  UNL d   1      -5.995  -4.196   0.677  0.00  0.00     0.045 A 
ENDROOT
TORSDOF 0
ENDMDL
