MODEL 1
REMARK minimizedAffinity 21.08885
REMARK minimizedRMSD -1
REMARK  0 active torsions:
REMARK  status: ('A' for Active; 'I' for Inactive)
ROOT
ATOM      1  C   UNL d   1       1.008   3.582   0.149  0.00  0.00    -0.002 A 
ATOM      2  C1  UNL d   1       0.437   2.439   0.690  0.00  0.00     0.010 A 
ATOM      3  C2  UNL d   1      -0.489   1.694  -0.042  0.00  0.00     0.041 A 
ATOM      4  C3  UNL d   1      -0.833   2.120  -1.340  0.00  0.00    -0.075 A 
ATOM      5  S   UNL d   1      -1.943   1.364  -2.422  0.00  0.00     0.015 SA
ATOM      6  C4  UNL d   1      -1.684   2.541  -3.628  0.00  0.00     0.022 A 
ATOM      7  C5  UNL d   1      -0.776   3.494  -3.232  0.00  0.00     0.026 A 
ATOM      8  C6  UNL d   1      -0.270   3.267  -1.907  0.00  0.00    -0.082 A 
ATOM      9  C7  UNL d   1       0.665   4.002  -1.139  0.00  0.00     0.045 A 
ENDROOT
TORSDOF 0
ENDMDL
