MODEL 1
REMARK minimizedAffinity 7.77728558
REMARK minimizedRMSD -1
REMARK  0 active torsions:
REMARK  status: ('A' for Active; 'I' for Inactive)
ROOT
ATOM      1  C   UNL d   1       0.376   4.115  -0.537  0.00  0.00    -0.002 A 
ATOM      2  C1  UNL d   1       0.074   4.047  -1.890  0.00  0.00     0.010 A 
ATOM      3  C2  UNL d   1      -1.160   4.495  -2.366  0.00  0.00     0.041 A 
ATOM      4  C3  UNL d   1      -2.093   5.021  -1.450  0.00  0.00    -0.075 A 
ATOM      5  S   UNL d   1      -3.666   5.630  -1.804  0.00  0.00     0.015 SA
ATOM      6  C4  UNL d   1      -3.974   5.997  -0.169  0.00  0.00     0.022 A 
ATOM      7  C5  UNL d   1      -2.913   5.668   0.642  0.00  0.00     0.026 A 
ATOM      8  C6  UNL d   1      -1.811   5.101  -0.084  0.00  0.00    -0.082 A 
ATOM      9  C7  UNL d   1      -0.552   4.637   0.368  0.00  0.00     0.045 A 
ENDROOT
TORSDOF 0
ENDMDL
