MODEL 1
REMARK minimizedAffinity 21.6799526
REMARK minimizedRMSD -1
REMARK  0 active torsions:
REMARK  status: ('A' for Active; 'I' for Inactive)
ROOT
ATOM      1  C   UNL d   1       1.914  -3.982  -5.963  0.00  0.00    -0.002 A 
ATOM      2  C1  UNL d   1       1.478  -5.299  -6.000  0.00  0.00     0.010 A 
ATOM      3  C2  UNL d   1       1.229  -5.997  -4.817  0.00  0.00     0.041 A 
ATOM      4  C3  UNL d   1       1.425  -5.343  -3.585  0.00  0.00    -0.075 A 
ATOM      5  S   UNL d   1       1.182  -6.000  -2.009  0.00  0.00     0.015 SA
ATOM      6  C4  UNL d   1       1.650  -4.547  -1.251  0.00  0.00     0.022 A 
ATOM      7  C5  UNL d   1       1.987  -3.575  -2.162  0.00  0.00     0.026 A 
ATOM      8  C6  UNL d   1       1.862  -4.017  -3.522  0.00  0.00    -0.082 A 
ATOM      9  C7  UNL d   1       2.108  -3.336  -4.739  0.00  0.00     0.045 A 
ENDROOT
TORSDOF 0
ENDMDL
