MODEL 1
REMARK minimizedAffinity 25.3663158
REMARK minimizedRMSD -1
REMARK  0 active torsions:
REMARK  status: ('A' for Active; 'I' for Inactive)
ROOT
ATOM      1  C   UNL d   1       2.333  -4.979  -1.649  0.00  0.00    -0.002 A 
ATOM      2  C1  UNL d   1       1.576  -6.000  -2.207  0.00  0.00     0.010 A 
ATOM      3  C2  UNL d   1       1.189  -5.946  -3.547  0.00  0.00     0.041 A 
ATOM      4  C3  UNL d   1       1.582  -4.840  -4.326  0.00  0.00    -0.075 A 
ATOM      5  S   UNL d   1       1.225  -4.561  -5.990  0.00  0.00     0.015 SA
ATOM      6  C4  UNL d   1       2.070  -3.081  -6.000  0.00  0.00     0.022 A 
ATOM      7  C5  UNL d   1       2.617  -2.792  -4.773  0.00  0.00     0.026 A 
ATOM      8  C6  UNL d   1       2.345  -3.801  -3.788  0.00  0.00    -0.082 A 
ATOM      9  C7  UNL d   1       2.721  -3.884  -2.425  0.00  0.00     0.045 A 
ENDROOT
TORSDOF 0
ENDMDL
