MODEL 1
REMARK minimizedAffinity 30.5586548
REMARK minimizedRMSD -1
REMARK  0 active torsions:
REMARK  status: ('A' for Active; 'I' for Inactive)
ROOT
ATOM      1  C   UNL d   1      -0.464   3.392  -0.196  0.00  0.00    -0.002 A 
ATOM      2  C1  UNL d   1      -1.678   2.764   0.042  0.00  0.00     0.010 A 
ATOM      3  C2  UNL d   1      -1.865   1.990   1.188  0.00  0.00     0.041 A 
ATOM      4  C3  UNL d   1      -0.801   1.857   2.102  0.00  0.00    -0.075 A 
ATOM      5  S   UNL d   1      -0.800   0.960   3.574  0.00  0.00     0.015 SA
ATOM      6  C4  UNL d   1       0.812   1.390   3.923  0.00  0.00     0.022 A 
ATOM      7  C5  UNL d   1       1.352   2.198   2.950  0.00  0.00     0.026 A 
ATOM      8  C6  UNL d   1       0.431   2.481   1.885  0.00  0.00    -0.082 A 
ATOM      9  C7  UNL d   1       0.590   3.258   0.713  0.00  0.00     0.045 A 
ENDROOT
TORSDOF 0
ENDMDL
