MODEL 1
REMARK minimizedAffinity 15.1107235
REMARK minimizedRMSD -1
REMARK  0 active torsions:
REMARK  status: ('A' for Active; 'I' for Inactive)
ROOT
ATOM      1  C   UNL d   1       0.217   3.672  -0.464  0.00  0.00    -0.002 A 
ATOM      2  C1  UNL d   1       0.084   2.626   0.438  0.00  0.00     0.010 A 
ATOM      3  C2  UNL d   1      -0.802   1.578   0.183  0.00  0.00     0.041 A 
ATOM      4  C3  UNL d   1      -1.559   1.598  -1.005  0.00  0.00    -0.075 A 
ATOM      5  S   UNL d   1      -2.706   0.421  -1.528  0.00  0.00     0.015 SA
ATOM      6  C4  UNL d   1      -3.045   1.280  -2.960  0.00  0.00     0.022 A 
ATOM      7  C5  UNL d   1      -2.311   2.438  -3.054  0.00  0.00     0.026 A 
ATOM      8  C6  UNL d   1      -1.441   2.640  -1.929  0.00  0.00    -0.082 A 
ATOM      9  C7  UNL d   1      -0.535   3.689  -1.642  0.00  0.00     0.045 A 
ENDROOT
TORSDOF 0
ENDMDL
