MODEL 1
REMARK minimizedAffinity 6.56415319
REMARK minimizedRMSD -1
REMARK  1 active torsions:
REMARK  status: ('A' for Active; 'I' for Inactive)
REMARK    1  A    between atoms: C3_4  and  O_7 
ROOT
ATOM      1  C   UNL d   1      -2.434  -0.636   1.921  0.00  0.00    -0.033 A 
ATOM      2  C1  UNL d   1      -2.131   0.531   1.216  0.00  0.00     0.039 A 
ATOM      3  C2  UNL d   1      -1.707   1.671   1.901  0.00  0.00    -0.080 A 
ATOM      4  C3  UNL d   1      -1.588   1.632   3.287  0.00  0.00     0.150 A 
ATOM      5  C4  UNL d   1      -1.885   0.472   3.995  0.00  0.00    -0.007 A 
ATOM      6  C5  UNL d   1      -2.310  -0.666   3.310  0.00  0.00     0.039 A 
ENDROOT
BRANCH   4   7
ATOM      7  O   UNL d   1      -1.182   2.721   3.999  0.00  0.00    -0.526 OA
ATOM      8  H5  UNL d   1      -1.041   3.458   3.381  0.00  0.00     0.418 HD
ENDBRANCH   4   7
TORSDOF 1
ENDMDL
