MODEL 1
REMARK minimizedAffinity 0.275573105
REMARK minimizedRMSD -1
REMARK  1 active torsions:
REMARK  status: ('A' for Active; 'I' for Inactive)
REMARK    1  A    between atoms: C3_4  and  O_7 
ROOT
ATOM      1  C   UNL d   1       4.451   5.264   4.829  0.00  0.00    -0.033 A 
ATOM      2  C1  UNL d   1       4.624   3.879   4.845  0.00  0.00     0.039 A 
ATOM      3  C2  UNL d   1       5.144   3.226   3.726  0.00  0.00    -0.080 A 
ATOM      4  C3  UNL d   1       5.487   3.969   2.599  0.00  0.00     0.150 A 
ATOM      5  C4  UNL d   1       5.321   5.350   2.578  0.00  0.00    -0.007 A 
ATOM      6  C5  UNL d   1       4.801   6.000   3.696  0.00  0.00     0.039 A 
ENDROOT
BRANCH   4   7
ATOM      7  O   UNL d   1       5.994   3.375   1.481  0.00  0.00    -0.526 OA
ATOM      8  H5  UNL d   1       6.026   2.415   1.630  0.00  0.00     0.418 HD
ENDBRANCH   4   7
TORSDOF 1
ENDMDL
