MODEL 1
REMARK minimizedAffinity 1.10687971
REMARK minimizedRMSD -1
REMARK  1 active torsions:
REMARK  status: ('A' for Active; 'I' for Inactive)
REMARK    1  A    between atoms: C3_4  and  O_7 
ROOT
ATOM      1  C   UNL d   1      -2.044   0.223   0.834  0.00  0.00    -0.033 A 
ATOM      2  C1  UNL d   1      -3.226  -0.390   1.256  0.00  0.00     0.039 A 
ATOM      3  C2  UNL d   1      -4.446   0.275   1.123  0.00  0.00    -0.080 A 
ATOM      4  C3  UNL d   1      -4.471   1.551   0.566  0.00  0.00     0.150 A 
ATOM      5  C4  UNL d   1      -3.298   2.166   0.141  0.00  0.00    -0.007 A 
ATOM      6  C5  UNL d   1      -2.080   1.500   0.275  0.00  0.00     0.039 A 
ENDROOT
BRANCH   4   7
ATOM      7  O   UNL d   1      -5.637   2.242   0.420  0.00  0.00    -0.526 OA
ATOM      8  H5  UNL d   1      -6.360   1.705   0.784  0.00  0.00     0.418 HD
ENDBRANCH   4   7
TORSDOF 1
ENDMDL
