MODEL 1
REMARK minimizedAffinity 1.74725914
REMARK minimizedRMSD -1
REMARK  1 active torsions:
REMARK  status: ('A' for Active; 'I' for Inactive)
REMARK    1  A    between atoms: C3_4  and  O_7 
ROOT
ATOM      1  C   UNL d   1      -3.488  -3.107  -0.760  0.00  0.00    -0.033 A 
ATOM      2  C1  UNL d   1      -2.724  -4.188  -0.316  0.00  0.00     0.039 A 
ATOM      3  C2  UNL d   1      -1.833  -4.819  -1.186  0.00  0.00    -0.080 A 
ATOM      4  C3  UNL d   1      -1.715  -4.360  -2.495  0.00  0.00     0.150 A 
ATOM      5  C4  UNL d   1      -2.471  -3.282  -2.943  0.00  0.00    -0.007 A 
ATOM      6  C5  UNL d   1      -3.361  -2.653  -2.074  0.00  0.00     0.039 A 
ENDROOT
BRANCH   4   7
ATOM      7  O   UNL d   1      -0.862  -4.948  -3.382  0.00  0.00    -0.526 OA
ATOM      8  H5  UNL d   1      -0.428  -5.697  -2.942  0.00  0.00     0.418 HD
ENDBRANCH   4   7
TORSDOF 1
ENDMDL
