MODEL 1
REMARK minimizedAffinity -2.51106858
REMARK minimizedRMSD -1
REMARK  1 active torsions:
REMARK  status: ('A' for Active; 'I' for Inactive)
REMARK    1  A    between atoms: C3_4  and  O_7 
ROOT
ATOM      1  C   UNL d   1      -1.180   0.189   0.181  0.00  0.00    -0.033 A 
ATOM      2  C1  UNL d   1      -1.460   1.304  -0.611  0.00  0.00     0.039 A 
ATOM      3  C2  UNL d   1      -2.715   1.911  -0.546  0.00  0.00    -0.080 A 
ATOM      4  C3  UNL d   1      -3.681   1.395   0.314  0.00  0.00     0.150 A 
ATOM      5  C4  UNL d   1      -3.407   0.287   1.109  0.00  0.00    -0.007 A 
ATOM      6  C5  UNL d   1      -2.153  -0.319   1.043  0.00  0.00     0.039 A 
ENDROOT
BRANCH   4   7
ATOM      7  O   UNL d   1      -4.922   1.951   0.408  0.00  0.00    -0.526 OA
ATOM      8  H5  UNL d   1      -4.976   2.690  -0.220  0.00  0.00     0.418 HD
ENDBRANCH   4   7
TORSDOF 1
ENDMDL
