MODEL 1
REMARK minimizedAffinity 2.97748017
REMARK minimizedRMSD -1
REMARK  1 active torsions:
REMARK  status: ('A' for Active; 'I' for Inactive)
REMARK    1  A    between atoms: C3_4  and  O_7 
ROOT
ATOM      1  C   UNL d   1      -2.392   0.281   0.454  0.00  0.00    -0.033 A 
ATOM      2  C1  UNL d   1      -3.514  -0.308   1.039  0.00  0.00     0.039 A 
ATOM      3  C2  UNL d   1      -4.738   0.365   1.040  0.00  0.00    -0.080 A 
ATOM      4  C3  UNL d   1      -4.825   1.624   0.452  0.00  0.00     0.150 A 
ATOM      5  C4  UNL d   1      -3.712   2.215  -0.136  0.00  0.00    -0.007 A 
ATOM      6  C5  UNL d   1      -2.491   1.542  -0.135  0.00  0.00     0.039 A 
ENDROOT
BRANCH   4   7
ATOM      7  O   UNL d   1      -5.997   2.321   0.433  0.00  0.00    -0.526 OA
ATOM      8  H5  UNL d   1      -6.672   1.801   0.901  0.00  0.00     0.418 HD
ENDBRANCH   4   7
TORSDOF 1
ENDMDL
