MODEL 1
REMARK minimizedAffinity 2.29251933
REMARK minimizedRMSD -1
REMARK  1 active torsions:
REMARK  status: ('A' for Active; 'I' for Inactive)
REMARK    1  A    between atoms: C3_4  and  O_7 
ROOT
ATOM      1  C   UNL d   1      -2.067   1.845  -0.699  0.00  0.00    -0.033 A 
ATOM      2  C1  UNL d   1      -2.351   1.384   0.588  0.00  0.00     0.039 A 
ATOM      3  C2  UNL d   1      -3.671   1.341   1.041  0.00  0.00    -0.080 A 
ATOM      4  C3  UNL d   1      -4.696   1.761   0.199  0.00  0.00     0.150 A 
ATOM      5  C4  UNL d   1      -4.421   2.217  -1.086  0.00  0.00    -0.007 A 
ATOM      6  C5  UNL d   1      -3.103   2.261  -1.536  0.00  0.00     0.039 A 
ENDROOT
BRANCH   4   7
ATOM      7  O   UNL d   1      -6.000   1.741   0.598  0.00  0.00    -0.526 OA
ATOM      8  H5  UNL d   1      -6.035   1.429   1.518  0.00  0.00     0.418 HD
ENDBRANCH   4   7
TORSDOF 1
ENDMDL
