MODEL 1
REMARK minimizedAffinity -2.78090644
REMARK minimizedRMSD -1
REMARK  1 active torsions:
REMARK  status: ('A' for Active; 'I' for Inactive)
REMARK    1  A    between atoms: C3_4  and  O_7 
ROOT
ATOM      1  C   UNL d   1      -2.692  -0.003   1.152  0.00  0.00    -0.033 A 
ATOM      2  C1  UNL d   1      -2.556   1.342   0.800  0.00  0.00     0.039 A 
ATOM      3  C2  UNL d   1      -3.661   2.195   0.855  0.00  0.00    -0.080 A 
ATOM      4  C3  UNL d   1      -4.893   1.692   1.264  0.00  0.00     0.150 A 
ATOM      5  C4  UNL d   1      -5.034   0.354   1.620  0.00  0.00    -0.007 A 
ATOM      6  C5  UNL d   1      -3.931  -0.496   1.564  0.00  0.00     0.039 A 
ENDROOT
BRANCH   4   7
ATOM      7  O   UNL d   1      -6.000   2.484   1.329  0.00  0.00    -0.526 OA
ATOM      8  H5  UNL d   1      -5.758   3.376   1.027  0.00  0.00     0.418 HD
ENDBRANCH   4   7
TORSDOF 1
ENDMDL
