MODEL 1
REMARK minimizedAffinity -3.04139352
REMARK minimizedRMSD -1
REMARK  1 active torsions:
REMARK  status: ('A' for Active; 'I' for Inactive)
REMARK    1  A    between atoms: C3_4  and  O_7 
ROOT
ATOM      1  C   UNL d   1      -2.736   0.063   1.138  0.00  0.00    -0.033 A 
ATOM      2  C1  UNL d   1      -3.982  -0.433   1.526  0.00  0.00     0.039 A 
ATOM      3  C2  UNL d   1      -5.092   0.413   1.560  0.00  0.00    -0.080 A 
ATOM      4  C3  UNL d   1      -4.944   1.750   1.203  0.00  0.00     0.150 A 
ATOM      5  C4  UNL d   1      -3.706   2.250   0.812  0.00  0.00    -0.007 A 
ATOM      6  C5  UNL d   1      -2.598   1.405   0.779  0.00  0.00     0.039 A 
ENDROOT
BRANCH   4   7
ATOM      7  O   UNL d   1      -5.997   2.615   1.226  0.00  0.00    -0.526 OA
ATOM      8  H5  UNL d   1      -6.781   2.137   1.543  0.00  0.00     0.418 HD
ENDBRANCH   4   7
TORSDOF 1
ENDMDL
