MODEL 1
REMARK minimizedAffinity 6.05857563
REMARK minimizedRMSD -1
REMARK  1 active torsions:
REMARK  status: ('A' for Active; 'I' for Inactive)
REMARK    1  A    between atoms: C3_4  and  O_7 
ROOT
ATOM      1  C   UNL d   1       2.779   1.026  -1.261  0.00  0.00    -0.033 A 
ATOM      2  C1  UNL d   1       3.452   0.278  -0.294  0.00  0.00     0.039 A 
ATOM      3  C2  UNL d   1       4.376   0.896   0.552  0.00  0.00    -0.080 A 
ATOM      4  C3  UNL d   1       4.616   2.261   0.420  0.00  0.00     0.150 A 
ATOM      5  C4  UNL d   1       3.946   3.013  -0.539  0.00  0.00    -0.007 A 
ATOM      6  C5  UNL d   1       3.025   2.394  -1.383  0.00  0.00     0.039 A 
ENDROOT
BRANCH   4   7
ATOM      7  O   UNL d   1       5.512   2.907   1.219  0.00  0.00    -0.526 OA
ATOM      8  H5  UNL d   1       5.919   2.256   1.814  0.00  0.00     0.418 HD
ENDBRANCH   4   7
TORSDOF 1
ENDMDL
