MODEL 1
REMARK minimizedAffinity 12.4649515
REMARK minimizedRMSD -1
REMARK  1 active torsions:
REMARK  status: ('A' for Active; 'I' for Inactive)
REMARK    1  A    between atoms: C3_4  and  O_7 
ROOT
ATOM      1  C   UNL d   1      -4.896   6.000  -5.875  0.00  0.00    -0.033 A 
ATOM      2  C1  UNL d   1      -3.794   5.615  -5.107  0.00  0.00     0.039 A 
ATOM      3  C2  UNL d   1      -3.793   4.381  -4.455  0.00  0.00    -0.080 A 
ATOM      4  C3  UNL d   1      -4.897   3.542  -4.578  0.00  0.00     0.150 A 
ATOM      5  C4  UNL d   1      -5.996   3.917  -5.344  0.00  0.00    -0.007 A 
ATOM      6  C5  UNL d   1      -5.996   5.150  -5.994  0.00  0.00     0.039 A 
ENDROOT
BRANCH   4   7
ATOM      7  O   UNL d   1      -4.944   2.330  -3.955  0.00  0.00    -0.526 OA
ATOM      8  H5  UNL d   1      -4.129   2.217  -3.439  0.00  0.00     0.418 HD
ENDBRANCH   4   7
TORSDOF 1
ENDMDL
