MODEL 1
REMARK minimizedAffinity -1.6599611
REMARK minimizedRMSD -1
REMARK  1 active torsions:
REMARK  status: ('A' for Active; 'I' for Inactive)
REMARK    1  A    between atoms: C3_4  and  O_7 
ROOT
ATOM      1  C   UNL d   1       1.812  -5.756  -3.918  0.00  0.00    -0.033 A 
ATOM      2  C1  UNL d   1       1.805  -5.210  -2.633  0.00  0.00     0.039 A 
ATOM      3  C2  UNL d   1       0.594  -4.902  -2.010  0.00  0.00    -0.080 A 
ATOM      4  C3  UNL d   1      -0.601  -5.146  -2.681  0.00  0.00     0.150 A 
ATOM      5  C4  UNL d   1      -0.602  -5.694  -3.960  0.00  0.00    -0.007 A 
ATOM      6  C5  UNL d   1       0.608  -6.000  -4.580  0.00  0.00     0.039 A 
ENDROOT
BRANCH   4   7
ATOM      7  O   UNL d   1      -1.808  -4.857  -2.116  0.00  0.00    -0.526 OA
ATOM      8  H5  UNL d   1      -1.651  -4.457  -1.244  0.00  0.00     0.418 HD
ENDBRANCH   4   7
TORSDOF 1
ENDMDL
