MODEL 1
REMARK minimizedAffinity 1.37853169
REMARK minimizedRMSD -1
REMARK  1 active torsions:
REMARK  status: ('A' for Active; 'I' for Inactive)
REMARK    1  A    between atoms: C3_4  and  O_7 
ROOT
ATOM      1  C   UNL d   1       2.216   1.029   0.475  0.00  0.00    -0.033 A 
ATOM      2  C1  UNL d   1       0.827   1.021   0.330  0.00  0.00     0.039 A 
ATOM      3  C2  UNL d   1       0.035   1.856   1.120  0.00  0.00    -0.080 A 
ATOM      4  C3  UNL d   1       0.644   2.694   2.051  0.00  0.00     0.150 A 
ATOM      5  C4  UNL d   1       2.027   2.710   2.198  0.00  0.00    -0.007 A 
ATOM      6  C5  UNL d   1       2.816   1.875   1.408  0.00  0.00     0.039 A 
ENDROOT
BRANCH   4   7
ATOM      7  O   UNL d   1      -0.088   3.523   2.848  0.00  0.00    -0.526 OA
ATOM      8  H5  UNL d   1      -1.030   3.383   2.656  0.00  0.00     0.418 HD
ENDBRANCH   4   7
TORSDOF 1
ENDMDL
