MODEL 1
REMARK minimizedAffinity 6.28381681
REMARK minimizedRMSD -1
REMARK  1 active torsions:
REMARK  status: ('A' for Active; 'I' for Inactive)
REMARK    1  A    between atoms: C3_4  and  O_7 
ROOT
ATOM      1  C   UNL d   1      -2.706  -4.870  -0.699  0.00  0.00    -0.033 A 
ATOM      2  C1  UNL d   1      -2.515  -5.261   0.627  0.00  0.00     0.039 A 
ATOM      3  C2  UNL d   1      -3.606  -5.646   1.408  0.00  0.00    -0.080 A 
ATOM      4  C3  UNL d   1      -4.882  -5.637   0.851  0.00  0.00     0.150 A 
ATOM      5  C4  UNL d   1      -5.079  -5.252  -0.471  0.00  0.00    -0.007 A 
ATOM      6  C5  UNL d   1      -3.988  -4.867  -1.249  0.00  0.00     0.039 A 
ENDROOT
BRANCH   4   7
ATOM      7  O   UNL d   1      -5.979  -6.000   1.575  0.00  0.00    -0.526 OA
ATOM      8  H5  UNL d   1      -5.694  -6.213   2.479  0.00  0.00     0.418 HD
ENDBRANCH   4   7
TORSDOF 1
ENDMDL
