MODEL 1
REMARK minimizedAffinity 0.196407348
REMARK minimizedRMSD -1
REMARK  1 active torsions:
REMARK  status: ('A' for Active; 'I' for Inactive)
REMARK    1  A    between atoms: C3_4  and  O_7 
ROOT
ATOM      1  C   UNL d   1      -0.558   2.099   1.692  0.00  0.00    -0.033 A 
ATOM      2  C1  UNL d   1      -0.008   1.355   0.646  0.00  0.00     0.039 A 
ATOM      3  C2  UNL d   1       1.368   1.122   0.601  0.00  0.00    -0.080 A 
ATOM      4  C3  UNL d   1       2.181   1.637   1.606  0.00  0.00     0.150 A 
ATOM      5  C4  UNL d   1       1.640   2.375   2.653  0.00  0.00    -0.007 A 
ATOM      6  C5  UNL d   1       0.265   2.608   2.696  0.00  0.00     0.039 A 
ENDROOT
BRANCH   4   7
ATOM      7  O   UNL d   1       3.530   1.440   1.602  0.00  0.00    -0.526 OA
ATOM      8  H5  UNL d   1       3.766   0.938   0.805  0.00  0.00     0.418 HD
ENDBRANCH   4   7
TORSDOF 1
ENDMDL
