MODEL 1
REMARK minimizedAffinity -1.53748429
REMARK minimizedRMSD -1
REMARK  1 active torsions:
REMARK  status: ('A' for Active; 'I' for Inactive)
REMARK    1  A    between atoms: C3_4  and  O_7 
ROOT
ATOM      1  C   UNL d   1       1.095   1.030   0.266  0.00  0.00    -0.033 A 
ATOM      2  C1  UNL d   1       1.692   1.860   1.217  0.00  0.00     0.039 A 
ATOM      3  C2  UNL d   1       0.899   2.611   2.086  0.00  0.00    -0.080 A 
ATOM      4  C3  UNL d   1      -0.487   2.523   1.996  0.00  0.00     0.150 A 
ATOM      5  C4  UNL d   1      -1.089   1.695   1.053  0.00  0.00    -0.007 A 
ATOM      6  C5  UNL d   1      -0.296   0.947   0.185  0.00  0.00     0.039 A 
ENDROOT
BRANCH   4   7
ATOM      7  O   UNL d   1      -1.302   3.241   2.820  0.00  0.00    -0.526 OA
ATOM      8  H5  UNL d   1      -0.748   3.789   3.400  0.00  0.00     0.418 HD
ENDBRANCH   4   7
TORSDOF 1
ENDMDL
