MODEL 1
REMARK minimizedAffinity 6.22859144
REMARK minimizedRMSD -1
REMARK  1 active torsions:
REMARK  status: ('A' for Active; 'I' for Inactive)
REMARK    1  A    between atoms: C3_4  and  O_7 
ROOT
ATOM      1  C   UNL d   1       2.290   0.377   0.252  0.00  0.00    -0.033 A 
ATOM      2  C1  UNL d   1       2.825   1.403   1.034  0.00  0.00     0.039 A 
ATOM      3  C2  UNL d   1       1.977   2.272   1.723  0.00  0.00    -0.080 A 
ATOM      4  C3  UNL d   1       0.598   2.104   1.624  0.00  0.00     0.150 A 
ATOM      5  C4  UNL d   1       0.059   1.082   0.849  0.00  0.00    -0.007 A 
ATOM      6  C5  UNL d   1       0.907   0.216   0.160  0.00  0.00     0.039 A 
ENDROOT
BRANCH   4   7
ATOM      7  O   UNL d   1      -0.269   2.930   2.274  0.00  0.00    -0.526 OA
ATOM      8  H5  UNL d   1       0.245   3.605   2.747  0.00  0.00     0.418 HD
ENDBRANCH   4   7
TORSDOF 1
ENDMDL
