MODEL 1
REMARK minimizedAffinity 4.59082413
REMARK minimizedRMSD -1
REMARK  1 active torsions:
REMARK  status: ('A' for Active; 'I' for Inactive)
REMARK    1  A    between atoms: C3_4  and  O_7 
ROOT
ATOM      1  C   UNL d   1       0.864  -5.998   2.922  0.00  0.00    -0.033 A 
ATOM      2  C1  UNL d   1       1.181  -5.678   4.244  0.00  0.00     0.039 A 
ATOM      3  C2  UNL d   1       0.613  -4.554   4.847  0.00  0.00    -0.080 A 
ATOM      4  C3  UNL d   1      -0.269  -3.761   4.119  0.00  0.00     0.150 A 
ATOM      5  C4  UNL d   1      -0.592  -4.076   2.803  0.00  0.00    -0.007 A 
ATOM      6  C5  UNL d   1      -0.023  -5.198   2.203  0.00  0.00     0.039 A 
ENDROOT
BRANCH   4   7
ATOM      7  O   UNL d   1      -0.844  -2.651   4.664  0.00  0.00    -0.526 OA
ATOM      8  H5  UNL d   1      -0.506  -2.542   5.568  0.00  0.00     0.418 HD
ENDBRANCH   4   7
TORSDOF 1
ENDMDL
