MODEL 1
REMARK minimizedAffinity -6.01470137
REMARK minimizedRMSD -1
REMARK  0 active torsions:
REMARK  status: ('A' for Active; 'I' for Inactive)
ROOT
ATOM      1  C1  DEN d   1       2.261  -0.441   0.705  0.00  0.00     0.130 A 
ATOM      2  C2  DEN d   1       1.252  -1.449   0.393  0.00  0.00    -0.031 A 
ATOM      3  C3  DEN d   1       0.021  -0.749  -0.026  0.00  0.00     0.027 A 
ATOM      4  C4  DEN d   1      -0.417   1.785  -0.224  0.00  0.00     0.027 A 
ATOM      5  C5  DEN d   1       0.134   3.036  -0.056  0.00  0.00    -0.003 A 
ATOM      6  C6  DEN d   1       1.410   3.215   0.407  0.00  0.00     0.001 A 
ATOM      7  C7  DEN d   1       2.195   2.124   0.674  0.00  0.00     0.017 A 
ATOM      8  C8  DEN d   1       1.644   0.860   0.514  0.00  0.00    -0.094 A 
ATOM      9  C9  DEN d   1       0.355   0.699   0.033  0.00  0.00    -0.072 A 
ENDROOT
TORSDOF 0
ENDMDL
