MODEL 1
REMARK minimizedAffinity -5.80045986
REMARK minimizedRMSD -1
REMARK  0 active torsions:
REMARK  status: ('A' for Active; 'I' for Inactive)
ROOT
ATOM      1  C1  DEN d   1       0.455  -0.878   0.237  0.00  0.00     0.130 A 
ATOM      2  C2  DEN d   1      -0.952  -1.126   0.538  0.00  0.00    -0.031 A 
ATOM      3  C3  DEN d   1      -1.644   0.178   0.592  0.00  0.00     0.027 A 
ATOM      4  C4  DEN d   1      -0.678   2.543   0.234  0.00  0.00     0.027 A 
ATOM      5  C5  DEN d   1       0.467   3.259  -0.034  0.00  0.00    -0.003 A 
ATOM      6  C6  DEN d   1       1.685   2.654  -0.196  0.00  0.00     0.001 A 
ATOM      7  C7  DEN d   1       1.778   1.288  -0.135  0.00  0.00     0.017 A 
ATOM      8  C8  DEN d   1       0.629   0.560   0.142  0.00  0.00    -0.094 A 
ATOM      9  C9  DEN d   1      -0.595   1.189   0.290  0.00  0.00    -0.072 A 
ENDROOT
TORSDOF 0
ENDMDL
