MODEL 1
REMARK minimizedAffinity -7.40301609
REMARK minimizedRMSD -1
REMARK  0 active torsions:
REMARK  status: ('A' for Active; 'I' for Inactive)
ROOT
ATOM      1  C1  DEN d   1       1.089  -0.718   0.516  0.00  0.00     0.130 A 
ATOM      2  C2  DEN d   1      -0.343  -0.991   0.594  0.00  0.00    -0.031 A 
ATOM      3  C3  DEN d   1      -1.056   0.302   0.560  0.00  0.00     0.027 A 
ATOM      4  C4  DEN d   1      -0.087   2.686   0.391  0.00  0.00     0.027 A 
ATOM      5  C5  DEN d   1       1.074   3.422   0.312  0.00  0.00    -0.003 A 
ATOM      6  C6  DEN d   1       2.313   2.837   0.330  0.00  0.00     0.001 A 
ATOM      7  C7  DEN d   1       2.418   1.473   0.384  0.00  0.00     0.017 A 
ATOM      8  C8  DEN d   1       1.252   0.724   0.470  0.00  0.00    -0.094 A 
ATOM      9  C9  DEN d   1       0.009   1.333   0.438  0.00  0.00    -0.072 A 
ENDROOT
TORSDOF 0
ENDMDL
