MODEL 1
REMARK minimizedAffinity -2.26922131
REMARK minimizedRMSD -1
REMARK  0 active torsions:
REMARK  status: ('A' for Active; 'I' for Inactive)
ROOT
ATOM      1  C1  DEN d   1      -0.500   2.970   0.906  0.00  0.00     0.130 A 
ATOM      2  C2  DEN d   1       0.817   3.584   0.759  0.00  0.00    -0.031 A 
ATOM      3  C3  DEN d   1       1.791   2.512   0.470  0.00  0.00     0.027 A 
ATOM      4  C4  DEN d   1       1.389  -0.025   0.232  0.00  0.00     0.027 A 
ATOM      5  C5  DEN d   1       0.438  -1.020   0.283  0.00  0.00    -0.003 A 
ATOM      6  C6  DEN d   1      -0.874  -0.762   0.577  0.00  0.00     0.001 A 
ATOM      7  C7  DEN d   1      -1.282   0.529   0.786  0.00  0.00     0.017 A 
ATOM      8  C8  DEN d   1      -0.328   1.537   0.743  0.00  0.00    -0.094 A 
ATOM      9  C9  DEN d   1       0.992   1.257   0.433  0.00  0.00    -0.072 A 
ENDROOT
TORSDOF 0
ENDMDL
