MODEL 1
REMARK minimizedAffinity -6.04518938
REMARK minimizedRMSD -1
REMARK  0 active torsions:
REMARK  status: ('A' for Active; 'I' for Inactive)
ROOT
ATOM      1  C1  DEN d   1       0.654  -1.074   0.507  0.00  0.00     0.130 A 
ATOM      2  C2  DEN d   1      -0.785  -1.150   0.742  0.00  0.00    -0.031 A 
ATOM      3  C3  DEN d   1      -1.288   0.223   0.944  0.00  0.00     0.027 A 
ATOM      4  C4  DEN d   1       0.014   2.449   0.913  0.00  0.00     0.027 A 
ATOM      5  C5  DEN d   1       1.258   3.020   0.765  0.00  0.00    -0.003 A 
ATOM      6  C6  DEN d   1       2.385   2.270   0.556  0.00  0.00     0.001 A 
ATOM      7  C7  DEN d   1       2.283   0.908   0.444  0.00  0.00     0.017 A 
ATOM      8  C8  DEN d   1       1.032   0.325   0.600  0.00  0.00    -0.094 A 
ATOM      9  C9  DEN d   1      -0.097   1.102   0.798  0.00  0.00    -0.072 A 
ENDROOT
TORSDOF 0
ENDMDL
