MODEL 1
REMARK minimizedAffinity -4.16056395
REMARK minimizedRMSD -1
REMARK  0 active torsions:
REMARK  status: ('A' for Active; 'I' for Inactive)
ROOT
ATOM      1  C1  DEN d   1      -1.384   0.601   0.369  0.00  0.00     0.130 A 
ATOM      2  C2  DEN d   1      -0.756  -0.646  -0.059  0.00  0.00    -0.031 A 
ATOM      3  C3  DEN d   1       0.691  -0.398  -0.214  0.00  0.00     0.027 A 
ATOM      4  C4  DEN d   1       2.014   1.783   0.169  0.00  0.00     0.027 A 
ATOM      5  C5  DEN d   1       1.913   3.109   0.527  0.00  0.00    -0.003 A 
ATOM      6  C6  DEN d   1       0.711   3.696   0.821  0.00  0.00     0.001 A 
ATOM      7  C7  DEN d   1      -0.434   2.943   0.808  0.00  0.00     0.017 A 
ATOM      8  C8  DEN d   1      -0.341   1.607   0.441  0.00  0.00    -0.094 A 
ATOM      9  C9  DEN d   1       0.886   1.029   0.159  0.00  0.00    -0.072 A 
ENDROOT
TORSDOF 0
ENDMDL
