MODEL 1
REMARK minimizedAffinity -3.39411521
REMARK minimizedRMSD -1
REMARK  0 active torsions:
REMARK  status: ('A' for Active; 'I' for Inactive)
ROOT
ATOM      1  C1  DEN d   1       0.292  -0.205  -0.583  0.00  0.00     0.130 A 
ATOM      2  C2  DEN d   1      -0.901  -0.734   0.072  0.00  0.00    -0.031 A 
ATOM      3  C3  DEN d   1      -1.450   0.323   0.944  0.00  0.00     0.027 A 
ATOM      4  C4  DEN d   1      -0.576   2.717   1.339  0.00  0.00     0.027 A 
ATOM      5  C5  DEN d   1       0.413   3.619   1.014  0.00  0.00    -0.003 A 
ATOM      6  C6  DEN d   1       1.442   3.301   0.167  0.00  0.00     0.001 A 
ATOM      7  C7  DEN d   1       1.480   2.064  -0.420  0.00  0.00     0.017 A 
ATOM      8  C8  DEN d   1       0.490   1.147  -0.091  0.00  0.00    -0.094 A 
ATOM      9  C9  DEN d   1      -0.548   1.491   0.758  0.00  0.00    -0.072 A 
ENDROOT
TORSDOF 0
ENDMDL
