MODEL 1
REMARK minimizedAffinity -5.21412134
REMARK minimizedRMSD -1
REMARK  0 active torsions:
REMARK  status: ('A' for Active; 'I' for Inactive)
ROOT
ATOM      1  C1  DEN d   1      -0.925  -0.249   1.084  0.00  0.00     0.130 A 
ATOM      2  C2  DEN d   1      -0.116  -1.357   0.584  0.00  0.00    -0.031 A 
ATOM      3  C3  DEN d   1       0.998  -0.790  -0.202  0.00  0.00     0.027 A 
ATOM      4  C4  DEN d   1       1.548   1.682  -0.688  0.00  0.00     0.027 A 
ATOM      5  C5  DEN d   1       1.142   2.983  -0.485  0.00  0.00    -0.003 A 
ATOM      6  C6  DEN d   1       0.010   3.294   0.219  0.00  0.00     0.001 A 
ATOM      7  C7  DEN d   1      -0.733   2.292   0.787  0.00  0.00     0.017 A 
ATOM      8  C8  DEN d   1      -0.334   0.978   0.581  0.00  0.00    -0.094 A 
ATOM      9  C9  DEN d   1       0.821   0.685  -0.124  0.00  0.00    -0.072 A 
ENDROOT
TORSDOF 0
ENDMDL
