MODEL 1
REMARK minimizedAffinity -5.56492853
REMARK minimizedRMSD -1
REMARK  0 active torsions:
REMARK  status: ('A' for Active; 'I' for Inactive)
ROOT
ATOM      1  C1  DEN d   1       0.978  -0.450   0.290  0.00  0.00     0.130 A 
ATOM      2  C2  DEN d   1      -0.470  -0.600   0.169  0.00  0.00    -0.031 A 
ATOM      3  C3  DEN d   1      -1.071   0.749   0.173  0.00  0.00     0.027 A 
ATOM      4  C4  DEN d   1       0.093   3.043   0.349  0.00  0.00     0.027 A 
ATOM      5  C5  DEN d   1       1.308   3.678   0.482  0.00  0.00    -0.003 A 
ATOM      6  C6  DEN d   1       2.485   2.987   0.593  0.00  0.00     0.001 A 
ATOM      7  C7  DEN d   1       2.477   1.619   0.528  0.00  0.00     0.017 A 
ATOM      8  C8  DEN d   1       1.256   0.971   0.402  0.00  0.00    -0.094 A 
ATOM      9  C9  DEN d   1       0.078   1.688   0.279  0.00  0.00    -0.072 A 
ENDROOT
TORSDOF 0
ENDMDL
