MODEL 1
REMARK minimizedAffinity -1.56392395
REMARK minimizedRMSD -1
REMARK  0 active torsions:
REMARK  status: ('A' for Active; 'I' for Inactive)
ROOT
ATOM      1  C1  DEN d   1      -0.330   2.996   0.831  0.00  0.00     0.130 A 
ATOM      2  C2  DEN d   1       0.959   3.648   1.048  0.00  0.00    -0.031 A 
ATOM      3  C3  DEN d   1       2.018   2.632   0.880  0.00  0.00     0.027 A 
ATOM      4  C4  DEN d   1       1.789   0.129   0.303  0.00  0.00     0.027 A 
ATOM      5  C5  DEN d   1       0.895  -0.885   0.039  0.00  0.00    -0.003 A 
ATOM      6  C6  DEN d   1      -0.460  -0.686   0.053  0.00  0.00     0.001 A 
ATOM      7  C7  DEN d   1      -0.959   0.567   0.294  0.00  0.00     0.017 A 
ATOM      8  C8  DEN d   1      -0.064   1.593   0.568  0.00  0.00    -0.094 A 
ATOM      9  C9  DEN d   1       1.302   1.374   0.537  0.00  0.00    -0.072 A 
ENDROOT
TORSDOF 0
ENDMDL
