MODEL 1
REMARK minimizedAffinity -3.53626275
REMARK minimizedRMSD -1
REMARK  0 active torsions:
REMARK  status: ('A' for Active; 'I' for Inactive)
ROOT
ATOM      1  C1  DEN d   1       0.715  -0.635  -0.183  0.00  0.00     0.130 A 
ATOM      2  C2  DEN d   1      -0.613  -0.980   0.317  0.00  0.00    -0.031 A 
ATOM      3  C3  DEN d   1      -1.287   0.271   0.721  0.00  0.00     0.027 A 
ATOM      4  C4  DEN d   1      -0.410   2.694   0.615  0.00  0.00     0.027 A 
ATOM      5  C5  DEN d   1       0.665   3.485   0.276  0.00  0.00    -0.003 A 
ATOM      6  C6  DEN d   1       1.835   2.959  -0.205  0.00  0.00     0.001 A 
ATOM      7  C7  DEN d   1       1.942   1.608  -0.402  0.00  0.00     0.017 A 
ATOM      8  C8  DEN d   1       0.865   0.803  -0.055  0.00  0.00    -0.094 A 
ATOM      9  C9  DEN d   1      -0.314   1.355   0.418  0.00  0.00    -0.072 A 
ENDROOT
TORSDOF 0
ENDMDL
