MODEL 1
REMARK minimizedAffinity -6.8205471
REMARK minimizedRMSD -1
REMARK  0 active torsions:
REMARK  status: ('A' for Active; 'I' for Inactive)
ROOT
ATOM      1  C1  DEN d   1       0.390  -0.818  -0.162  0.00  0.00     0.130 A 
ATOM      2  C2  DEN d   1      -1.067  -0.728  -0.209  0.00  0.00    -0.031 A 
ATOM      3  C3  DEN d   1      -1.447   0.672   0.067  0.00  0.00     0.027 A 
ATOM      4  C4  DEN d   1       0.071   2.700   0.555  0.00  0.00     0.027 A 
ATOM      5  C5  DEN d   1       1.375   3.113   0.711  0.00  0.00    -0.003 A 
ATOM      6  C6  DEN d   1       2.432   2.246   0.623  0.00  0.00     0.001 A 
ATOM      7  C7  DEN d   1       2.205   0.928   0.325  0.00  0.00     0.017 A 
ATOM      8  C8  DEN d   1       0.892   0.502   0.173  0.00  0.00    -0.094 A 
ATOM      9  C9  DEN d   1      -0.161   1.397   0.255  0.00  0.00    -0.072 A 
ENDROOT
TORSDOF 0
ENDMDL
