MODEL 1
REMARK minimizedAffinity -4.4394598
REMARK minimizedRMSD -1
REMARK  0 active torsions:
REMARK  status: ('A' for Active; 'I' for Inactive)
ROOT
ATOM      1  C1  DEN d   1       0.211  -2.663  -1.039  0.00  0.00     0.130 A 
ATOM      2  C2  DEN d   1      -0.446  -3.057  -2.282  0.00  0.00    -0.031 A 
ATOM      3  C3  DEN d   1      -1.326  -1.949  -2.706  0.00  0.00     0.027 A 
ATOM      4  C4  DEN d   1      -1.730   0.329  -1.565  0.00  0.00     0.027 A 
ATOM      5  C5  DEN d   1      -1.406   1.114  -0.481  0.00  0.00    -0.003 A 
ATOM      6  C6  DEN d   1      -0.554   0.686   0.502  0.00  0.00     0.001 A 
ATOM      7  C7  DEN d   1       0.039  -0.544   0.399  0.00  0.00     0.017 A 
ATOM      8  C8  DEN d   1      -0.288  -1.345  -0.688  0.00  0.00    -0.094 A 
ATOM      9  C9  DEN d   1      -1.142  -0.890  -1.677  0.00  0.00    -0.072 A 
ENDROOT
TORSDOF 0
ENDMDL
