MODEL 1
REMARK minimizedAffinity -3.77647209
REMARK minimizedRMSD -1
REMARK  0 active torsions:
REMARK  status: ('A' for Active; 'I' for Inactive)
ROOT
ATOM      1  C1  DEN d   1       1.923  -0.601   0.389  0.00  0.00     0.130 A 
ATOM      2  C2  DEN d   1       1.395  -1.908   0.771  0.00  0.00    -0.031 A 
ATOM      3  C3  DEN d   1      -0.057  -1.765   0.998  0.00  0.00     0.027 A 
ATOM      4  C4  DEN d   1      -1.532   0.342   0.792  0.00  0.00     0.027 A 
ATOM      5  C5  DEN d   1      -1.530   1.689   0.507  0.00  0.00    -0.003 A 
ATOM      6  C6  DEN d   1      -0.382   2.369   0.198  0.00  0.00     0.001 A 
ATOM      7  C7  DEN d   1       0.807   1.694   0.123  0.00  0.00     0.017 A 
ATOM      8  C8  DEN d   1       0.815   0.336   0.416  0.00  0.00    -0.094 A 
ATOM      9  C9  DEN d   1      -0.358  -0.336   0.714  0.00  0.00    -0.072 A 
ENDROOT
TORSDOF 0
ENDMDL
