MODEL 1
REMARK minimizedAffinity -4.96609449
REMARK minimizedRMSD -1
REMARK  0 active torsions:
REMARK  status: ('A' for Active; 'I' for Inactive)
ROOT
ATOM      1  C1  DEN d   1      -1.293   0.672   0.290  0.00  0.00     0.130 A 
ATOM      2  C2  DEN d   1      -0.624  -0.624   0.359  0.00  0.00    -0.031 A 
ATOM      3  C3  DEN d   1       0.829  -0.384   0.466  0.00  0.00     0.027 A 
ATOM      4  C4  DEN d   1       2.101   1.859   0.536  0.00  0.00     0.027 A 
ATOM      5  C5  DEN d   1       1.964   3.229   0.494  0.00  0.00    -0.003 A 
ATOM      6  C6  DEN d   1       0.746   3.837   0.349  0.00  0.00     0.001 A 
ATOM      7  C7  DEN d   1      -0.390   3.074   0.285  0.00  0.00     0.017 A 
ATOM      8  C8  DEN d   1      -0.260   1.692   0.318  0.00  0.00    -0.094 A 
ATOM      9  C9  DEN d   1       0.980   1.096   0.478  0.00  0.00    -0.072 A 
ENDROOT
TORSDOF 0
ENDMDL
