MODEL 1
REMARK minimizedAffinity -1.73945975
REMARK minimizedRMSD -1
REMARK  0 active torsions:
REMARK  status: ('A' for Active; 'I' for Inactive)
ROOT
ATOM      1  C1  DEN d   1       1.260  -0.491  -0.779  0.00  0.00     0.130 A 
ATOM      2  C2  DEN d   1       0.369  -1.637  -0.625  0.00  0.00    -0.031 A 
ATOM      3  C3  DEN d   1      -0.891  -1.158  -0.023  0.00  0.00     0.027 A 
ATOM      4  C4  DEN d   1      -1.549   1.236   0.675  0.00  0.00     0.027 A 
ATOM      5  C5  DEN d   1      -1.118   2.542   0.750  0.00  0.00    -0.003 A 
ATOM      6  C6  DEN d   1       0.138   2.920   0.354  0.00  0.00     0.001 A 
ATOM      7  C7  DEN d   1       0.992   1.989  -0.176  0.00  0.00     0.017 A 
ATOM      8  C8  DEN d   1       0.567   0.668  -0.247  0.00  0.00    -0.094 A 
ATOM      9  C9  DEN d   1      -0.711   0.309   0.147  0.00  0.00    -0.072 A 
ENDROOT
TORSDOF 0
ENDMDL
