MODEL 1
REMARK minimizedAffinity -3.81225228
REMARK minimizedRMSD -1
REMARK  0 active torsions:
REMARK  status: ('A' for Active; 'I' for Inactive)
ROOT
ATOM      1  C1  DEN d   1       0.676  -0.261  -1.378  0.00  0.00     0.130 A 
ATOM      2  C2  DEN d   1      -0.002  -1.453  -0.874  0.00  0.00    -0.031 A 
ATOM      3  C3  DEN d   1      -0.933  -1.032   0.192  0.00  0.00     0.027 A 
ATOM      4  C4  DEN d   1      -1.395   1.336   1.102  0.00  0.00     0.027 A 
ATOM      5  C5  DEN d   1      -1.052   2.666   0.996  0.00  0.00    -0.003 A 
ATOM      6  C6  DEN d   1      -0.094   3.106   0.122  0.00  0.00     0.001 A 
ATOM      7  C7  DEN d   1       0.525   2.212  -0.713  0.00  0.00     0.017 A 
ATOM      8  C8  DEN d   1       0.190   0.869  -0.606  0.00  0.00    -0.094 A 
ATOM      9  C9  DEN d   1      -0.790   0.446   0.275  0.00  0.00    -0.072 A 
ENDROOT
TORSDOF 0
ENDMDL
