MODEL 1
REMARK minimizedAffinity 3.80789733
REMARK minimizedRMSD -1
REMARK  1 active torsions:
REMARK  status: ('A' for Active; 'I' for Inactive)
REMARK    1  A    between atoms: C3_4  and  O_7 
ROOT
ATOM      1  C   UNL d   1      -5.001   1.905  -1.072  0.00  0.00    -0.033 A 
ATOM      2  C1  UNL d   1      -4.003   1.534  -1.975  0.00  0.00     0.039 A 
ATOM      3  C2  UNL d   1      -3.994   2.067  -3.266  0.00  0.00    -0.080 A 
ATOM      4  C3  UNL d   1      -4.986   2.969  -3.639  0.00  0.00     0.150 A 
ATOM      5  C4  UNL d   1      -5.981   3.346  -2.743  0.00  0.00    -0.007 A 
ATOM      6  C5  UNL d   1      -5.989   2.812  -1.455  0.00  0.00     0.039 A 
ENDROOT
BRANCH   4   7
ATOM      7  O   UNL d   1      -5.022   3.513  -4.889  0.00  0.00    -0.526 OA
ATOM      8  H5  UNL d   1      -4.290   3.139  -5.408  0.00  0.00     0.418 HD
ENDBRANCH   4   7
TORSDOF 1
ENDMDL
