MODEL 1
REMARK minimizedAffinity 3.84674644
REMARK minimizedRMSD -1
REMARK  1 active torsions:
REMARK  status: ('A' for Active; 'I' for Inactive)
REMARK    1  A    between atoms: C3_4  and  O_7 
ROOT
ATOM      1  C   UNL d   1      -5.213   2.261  -1.487  0.00  0.00    -0.033 A 
ATOM      2  C1  UNL d   1      -5.998   3.300  -1.989  0.00  0.00     0.039 A 
ATOM      3  C2  UNL d   1      -6.000   3.579  -3.357  0.00  0.00    -0.080 A 
ATOM      4  C3  UNL d   1      -5.214   2.810  -4.212  0.00  0.00     0.150 A 
ATOM      5  C4  UNL d   1      -4.432   1.770  -3.719  0.00  0.00    -0.007 A 
ATOM      6  C5  UNL d   1      -4.431   1.495  -2.352  0.00  0.00     0.039 A 
ENDROOT
BRANCH   4   7
ATOM      7  O   UNL d   1      -5.179   3.047  -5.554  0.00  0.00    -0.526 OA
ATOM      8  H5  UNL d   1      -5.746   3.813  -5.746  0.00  0.00     0.418 HD
ENDBRANCH   4   7
TORSDOF 1
ENDMDL
