MODEL 1
REMARK minimizedAffinity -1.02369499
REMARK minimizedRMSD -1
REMARK  1 active torsions:
REMARK  status: ('A' for Active; 'I' for Inactive)
REMARK    1  A    between atoms: C3_4  and  O_7 
ROOT
ATOM      1  C   UNL d   1      -0.753  -1.800  -1.841  0.00  0.00    -0.033 A 
ATOM      2  C1  UNL d   1       0.362  -2.615  -1.637  0.00  0.00     0.039 A 
ATOM      3  C2  UNL d   1       0.943  -2.702  -0.371  0.00  0.00    -0.080 A 
ATOM      4  C3  UNL d   1       0.400  -1.970   0.682  0.00  0.00     0.150 A 
ATOM      5  C4  UNL d   1      -0.714  -1.160   0.487  0.00  0.00    -0.007 A 
ATOM      6  C5  UNL d   1      -1.292  -1.073  -0.779  0.00  0.00     0.039 A 
ENDROOT
BRANCH   4   7
ATOM      7  O   UNL d   1       0.935  -2.019   1.935  0.00  0.00    -0.526 OA
ATOM      8  H5  UNL d   1       1.716  -2.597   1.913  0.00  0.00     0.418 HD
ENDBRANCH   4   7
TORSDOF 1
ENDMDL
