MODEL 1
REMARK minimizedAffinity 1.16342187
REMARK minimizedRMSD -1
REMARK  1 active torsions:
REMARK  status: ('A' for Active; 'I' for Inactive)
REMARK    1  A    between atoms: C3_4  and  O_7 
ROOT
ATOM      1  C   UNL d   1      -5.088   2.516  -4.768  0.00  0.00    -0.033 A 
ATOM      2  C1  UNL d   1      -6.000   3.334  -4.098  0.00  0.00     0.039 A 
ATOM      3  C2  UNL d   1      -5.999   3.387  -2.703  0.00  0.00    -0.080 A 
ATOM      4  C3  UNL d   1      -5.083   2.619  -1.990  0.00  0.00     0.150 A 
ATOM      5  C4  UNL d   1      -4.169   1.804  -2.651  0.00  0.00    -0.007 A 
ATOM      6  C5  UNL d   1      -4.172   1.752  -4.044  0.00  0.00     0.039 A 
ENDROOT
BRANCH   4   7
ATOM      7  O   UNL d   1      -5.048   2.633  -0.627  0.00  0.00    -0.526 OA
ATOM      8  H5  UNL d   1      -5.755   3.218  -0.308  0.00  0.00     0.418 HD
ENDBRANCH   4   7
TORSDOF 1
ENDMDL
