MODEL 1
REMARK minimizedAffinity 2.30563068
REMARK minimizedRMSD -1
REMARK  1 active torsions:
REMARK  status: ('A' for Active; 'I' for Inactive)
REMARK    1  A    between atoms: C3_4  and  O_7 
ROOT
ATOM      1  C   UNL d   1       2.416  -1.539   1.710  0.00  0.00    -0.033 A 
ATOM      2  C1  UNL d   1       2.408  -0.143   1.730  0.00  0.00     0.039 A 
ATOM      3  C2  UNL d   1       2.089   0.538   2.906  0.00  0.00    -0.080 A 
ATOM      4  C3  UNL d   1       1.782  -0.186   4.054  0.00  0.00     0.150 A 
ATOM      5  C4  UNL d   1       1.792  -1.577   4.043  0.00  0.00    -0.007 A 
ATOM      6  C5  UNL d   1       2.110  -2.256   2.867  0.00  0.00     0.039 A 
ENDROOT
BRANCH   4   7
ATOM      7  O   UNL d   1       1.459   0.435   5.224  0.00  0.00    -0.526 OA
ATOM      8  H5  UNL d   1       1.465   1.395   5.074  0.00  0.00     0.418 HD
ENDBRANCH   4   7
TORSDOF 1
ENDMDL
