MODEL 1
REMARK minimizedAffinity 1.02500606
REMARK minimizedRMSD -1
REMARK  1 active torsions:
REMARK  status: ('A' for Active; 'I' for Inactive)
REMARK    1  A    between atoms: C3_4  and  O_7 
ROOT
ATOM      1  C   UNL d   1       0.818   4.158  -0.298  0.00  0.00    -0.033 A 
ATOM      2  C1  UNL d   1       2.154   3.782  -0.442  0.00  0.00     0.039 A 
ATOM      3  C2  UNL d   1       2.630   2.632   0.191  0.00  0.00    -0.080 A 
ATOM      4  C3  UNL d   1       1.759   1.867   0.962  0.00  0.00     0.150 A 
ATOM      5  C4  UNL d   1       0.425   2.234   1.106  0.00  0.00    -0.007 A 
ATOM      6  C5  UNL d   1      -0.048   3.384   0.475  0.00  0.00     0.039 A 
ENDROOT
BRANCH   4   7
ATOM      7  O   UNL d   1       2.178   0.739   1.602  0.00  0.00    -0.526 OA
ATOM      8  H5  UNL d   1       3.128   0.625   1.436  0.00  0.00     0.418 HD
ENDBRANCH   4   7
TORSDOF 1
ENDMDL
