MODEL 1
REMARK minimizedAffinity 1.95994222
REMARK minimizedRMSD -1
REMARK  1 active torsions:
REMARK  status: ('A' for Active; 'I' for Inactive)
REMARK    1  A    between atoms: C3_4  and  O_7 
ROOT
ATOM      1  C   UNL d   1      -5.048   2.611  -1.278  0.00  0.00    -0.033 A 
ATOM      2  C1  UNL d   1      -5.996   3.371  -1.966  0.00  0.00     0.039 A 
ATOM      3  C2  UNL d   1      -6.000   3.386  -3.363  0.00  0.00    -0.080 A 
ATOM      4  C3  UNL d   1      -5.053   2.638  -4.057  0.00  0.00     0.150 A 
ATOM      5  C4  UNL d   1      -4.109   1.875  -3.377  0.00  0.00    -0.007 A 
ATOM      6  C5  UNL d   1      -4.106   1.862  -1.983  0.00  0.00     0.039 A 
ENDROOT
BRANCH   4   7
ATOM      7  O   UNL d   1      -5.015   2.625  -5.420  0.00  0.00    -0.526 OA
ATOM      8  H5  UNL d   1      -5.708   3.219  -5.752  0.00  0.00     0.418 HD
ENDBRANCH   4   7
TORSDOF 1
ENDMDL
