MODEL 1
REMARK minimizedAffinity 5.20059872
REMARK minimizedRMSD -1
REMARK  1 active torsions:
REMARK  status: ('A' for Active; 'I' for Inactive)
REMARK    1  A    between atoms: C3_4  and  O_7 
ROOT
ATOM      1  C   UNL d   1       2.526  -2.333   3.470  0.00  0.00    -0.033 A 
ATOM      2  C1  UNL d   1       1.456  -1.572   2.996  0.00  0.00     0.039 A 
ATOM      3  C2  UNL d   1       1.687  -0.510   2.119  0.00  0.00    -0.080 A 
ATOM      4  C3  UNL d   1       2.991  -0.221   1.725  0.00  0.00     0.150 A 
ATOM      5  C4  UNL d   1       4.061  -0.978   2.191  0.00  0.00    -0.007 A 
ATOM      6  C5  UNL d   1       3.828  -2.037   3.067  0.00  0.00     0.039 A 
ENDROOT
BRANCH   4   7
ATOM      7  O   UNL d   1       3.267   0.809   0.875  0.00  0.00    -0.526 OA
ATOM      8  H5  UNL d   1       2.434   1.261   0.659  0.00  0.00     0.418 HD
ENDBRANCH   4   7
TORSDOF 1
ENDMDL
