MODEL 1
REMARK minimizedAffinity -0.226165399
REMARK minimizedRMSD -1
REMARK  0 active torsions:
REMARK  status: ('A' for Active; 'I' for Inactive)
ROOT
ATOM      1  C   UNL d   1       0.703   0.290  -3.765  0.00  0.00     0.020 A 
ATOM      2  C1  UNL d   1       2.065   0.309  -3.470  0.00  0.00     0.020 A 
ATOM      3  C2  UNL d   1       2.507  -0.028  -2.189  0.00  0.00     0.034 A 
ATOM      4  C3  UNL d   1       1.586  -0.385  -1.198  0.00  0.00     0.017 A 
ATOM      5  C4  UNL d   1       0.218  -0.404  -1.495  0.00  0.00     0.017 A 
ATOM      6  C5  UNL d   1      -0.219  -0.066  -2.780  0.00  0.00     0.034 A 
ATOM      7 Cl   UNL d   1      -0.979  -0.834  -0.325  0.00  0.00    -0.070 Cl
ATOM      8 Cl1  UNL d   1       2.203  -0.791   0.364  0.00  0.00    -0.070 Cl
ENDROOT
TORSDOF 0
ENDMDL
