MODEL 1
REMARK minimizedAffinity -3.45381737
REMARK minimizedRMSD -1
REMARK  0 active torsions:
REMARK  status: ('A' for Active; 'I' for Inactive)
ROOT
ATOM      1  C   UNL d   1       0.397  -0.809  -0.981  0.00  0.00     0.020 A 
ATOM      2  C1  UNL d   1      -0.892  -0.332  -0.750  0.00  0.00     0.020 A 
ATOM      3  C2  UNL d   1      -1.176   0.375   0.420  0.00  0.00     0.034 A 
ATOM      4  C3  UNL d   1      -0.170   0.607   1.364  0.00  0.00     0.017 A 
ATOM      5  C4  UNL d   1       1.125   0.128   1.132  0.00  0.00     0.017 A 
ATOM      6  C5  UNL d   1       1.404  -0.579  -0.042  0.00  0.00     0.034 A 
ATOM      7 Cl   UNL d   1       2.419   0.375   2.250  0.00  0.00    -0.070 Cl
ATOM      8 Cl1  UNL d   1      -0.592   1.489   2.789  0.00  0.00    -0.070 Cl
ENDROOT
TORSDOF 0
ENDMDL
