MODEL 1
REMARK minimizedAffinity -1.62142098
REMARK minimizedRMSD -1
REMARK  0 active torsions:
REMARK  status: ('A' for Active; 'I' for Inactive)
ROOT
ATOM      1  C   UNL d   1      -0.266  -0.455  -1.120  0.00  0.00     0.020 A 
ATOM      2  C1  UNL d   1      -1.475   0.050  -0.646  0.00  0.00     0.020 A 
ATOM      3  C2  UNL d   1      -1.532   0.667   0.606  0.00  0.00     0.034 A 
ATOM      4  C3  UNL d   1      -0.376   0.779   1.388  0.00  0.00     0.017 A 
ATOM      5  C4  UNL d   1       0.838   0.272   0.911  0.00  0.00     0.017 A 
ATOM      6  C5  UNL d   1       0.888  -0.345  -0.344  0.00  0.00     0.034 A 
ATOM      7 Cl   UNL d   1       2.305   0.373   1.818  0.00  0.00    -0.070 Cl
ATOM      8 Cl1  UNL d   1      -0.519   1.554   2.926  0.00  0.00    -0.070 Cl
ENDROOT
TORSDOF 0
ENDMDL
