MODEL 1
REMARK minimizedAffinity -2.2507329
REMARK minimizedRMSD -1
REMARK  0 active torsions:
REMARK  status: ('A' for Active; 'I' for Inactive)
ROOT
ATOM      1  C   UNL d   1       1.518   1.004   1.964  0.00  0.00     0.020 A 
ATOM      2  C1  UNL d   1       0.274   1.385   2.465  0.00  0.00     0.020 A 
ATOM      3  C2  UNL d   1      -0.891   1.041   1.777  0.00  0.00     0.034 A 
ATOM      4  C3  UNL d   1      -0.815   0.314   0.583  0.00  0.00     0.017 A 
ATOM      5  C4  UNL d   1       0.435  -0.068   0.081  0.00  0.00     0.017 A 
ATOM      6  C5  UNL d   1       1.598   0.279   0.775  0.00  0.00     0.034 A 
ATOM      7 Cl   UNL d   1       0.609  -0.966  -1.385  0.00  0.00    -0.070 Cl
ATOM      8 Cl1  UNL d   1      -2.296  -0.078  -0.216  0.00  0.00    -0.070 Cl
ENDROOT
TORSDOF 0
ENDMDL
