MODEL 1
REMARK minimizedAffinity -0.966062069
REMARK minimizedRMSD -1
REMARK  0 active torsions:
REMARK  status: ('A' for Active; 'I' for Inactive)
ROOT
ATOM      1  C   UNL d   1      -2.326  -0.351  -0.456  0.00  0.00     0.020 A 
ATOM      2  C1  UNL d   1      -2.190  -0.273   0.929  0.00  0.00     0.020 A 
ATOM      3  C2  UNL d   1      -0.924  -0.119   1.499  0.00  0.00     0.034 A 
ATOM      4  C3  UNL d   1       0.210  -0.042   0.683  0.00  0.00     0.017 A 
ATOM      5  C4  UNL d   1       0.073  -0.120  -0.707  0.00  0.00     0.017 A 
ATOM      6  C5  UNL d   1      -1.197  -0.275  -1.273  0.00  0.00     0.034 A 
ATOM      7 Cl   UNL d   1       1.426  -0.032  -1.779  0.00  0.00    -0.070 Cl
ATOM      8 Cl1  UNL d   1       1.744   0.150   1.456  0.00  0.00    -0.070 Cl
ENDROOT
TORSDOF 0
ENDMDL
