MODEL 1
REMARK minimizedAffinity -0.7959373
REMARK minimizedRMSD -1
REMARK  0 active torsions:
REMARK  status: ('A' for Active; 'I' for Inactive)
ROOT
ATOM      1  C   UNL d   1       0.424  -0.322  -1.572  0.00  0.00     0.020 A 
ATOM      2  C1  UNL d   1      -0.950  -0.499  -1.412  0.00  0.00     0.020 A 
ATOM      3  C2  UNL d   1      -1.521  -0.417  -0.140  0.00  0.00     0.034 A 
ATOM      4  C3  UNL d   1      -0.717  -0.158   0.977  0.00  0.00     0.017 A 
ATOM      5  C4  UNL d   1       0.662   0.019   0.815  0.00  0.00     0.017 A 
ATOM      6  C5  UNL d   1       1.228  -0.064  -0.461  0.00  0.00     0.034 A 
ATOM      7 Cl   UNL d   1       1.717   0.342   2.144  0.00  0.00    -0.070 Cl
ATOM      8 Cl1  UNL d   1      -1.490  -0.070   2.520  0.00  0.00    -0.070 Cl
ENDROOT
TORSDOF 0
ENDMDL
