MODEL 1
REMARK minimizedAffinity -2.74708128
REMARK minimizedRMSD -1
REMARK  0 active torsions:
REMARK  status: ('A' for Active; 'I' for Inactive)
ROOT
ATOM      1  C   UNL d   1      -2.316   0.304   0.512  0.00  0.00     0.020 A 
ATOM      2  C1  UNL d   1      -1.871   0.653   1.787  0.00  0.00     0.020 A 
ATOM      3  C2  UNL d   1      -0.517   0.540   2.110  0.00  0.00     0.034 A 
ATOM      4  C3  UNL d   1       0.397   0.077   1.157  0.00  0.00     0.017 A 
ATOM      5  C4  UNL d   1      -0.050  -0.273  -0.123  0.00  0.00     0.017 A 
ATOM      6  C5  UNL d   1      -1.407  -0.158  -0.440  0.00  0.00     0.034 A 
ATOM      7 Cl   UNL d   1       1.019  -0.852  -1.351  0.00  0.00    -0.070 Cl
ATOM      8 Cl1  UNL d   1       2.056  -0.037   1.625  0.00  0.00    -0.070 Cl
ENDROOT
TORSDOF 0
ENDMDL
