MODEL 1
REMARK minimizedAffinity -4.74303484
REMARK minimizedRMSD -1
REMARK  0 active torsions:
REMARK  status: ('A' for Active; 'I' for Inactive)
ROOT
ATOM      1  C   UNL d   1      -2.080   0.513   2.191  0.00  0.00     0.020 A 
ATOM      2  C1  UNL d   1      -2.561   0.329   0.895  0.00  0.00     0.020 A 
ATOM      3  C2  UNL d   1      -1.692  -0.075  -0.121  0.00  0.00     0.034 A 
ATOM      4  C3  UNL d   1      -0.338  -0.296   0.157  0.00  0.00     0.017 A 
ATOM      5  C4  UNL d   1       0.143  -0.111   1.458  0.00  0.00     0.017 A 
ATOM      6  C5  UNL d   1      -0.731   0.294   2.471  0.00  0.00     0.034 A 
ATOM      7 Cl   UNL d   1       1.801  -0.364   1.878  0.00  0.00    -0.070 Cl
ATOM      8 Cl1  UNL d   1       0.679  -0.795  -1.148  0.00  0.00    -0.070 Cl
ENDROOT
TORSDOF 0
ENDMDL
