MODEL 1
REMARK minimizedAffinity -2.85009384
REMARK minimizedRMSD -1
REMARK  0 active torsions:
REMARK  status: ('A' for Active; 'I' for Inactive)
ROOT
ATOM      1  C   UNL d   1       1.667  -0.845   0.451  0.00  0.00     0.020 A 
ATOM      2  C1  UNL d   1       0.795  -0.951  -0.632  0.00  0.00     0.020 A 
ATOM      3  C2  UNL d   1      -0.529  -0.524  -0.507  0.00  0.00     0.034 A 
ATOM      4  C3  UNL d   1      -0.985   0.011   0.703  0.00  0.00     0.017 A 
ATOM      5  C4  UNL d   1      -0.109   0.118   1.789  0.00  0.00     0.017 A 
ATOM      6  C5  UNL d   1       1.216  -0.311   1.659  0.00  0.00     0.034 A 
ATOM      7 Cl   UNL d   1      -0.598   0.768   3.314  0.00  0.00    -0.070 Cl
ATOM      8 Cl1  UNL d   1      -2.634   0.520   0.786  0.00  0.00    -0.070 Cl
ENDROOT
TORSDOF 0
ENDMDL
