MODEL 1
REMARK minimizedAffinity -2.64819503
REMARK minimizedRMSD -1
REMARK  0 active torsions:
REMARK  status: ('A' for Active; 'I' for Inactive)
ROOT
ATOM      1  C   UNL d   1      -0.262   1.458   2.911  0.00  0.00     0.020 A 
ATOM      2  C1  UNL d   1       0.072   1.508   1.558  0.00  0.00     0.020 A 
ATOM      3  C2  UNL d   1      -0.636   0.735   0.636  0.00  0.00     0.034 A 
ATOM      4  C3  UNL d   1      -1.682  -0.092   1.065  0.00  0.00     0.017 A 
ATOM      5  C4  UNL d   1      -2.016  -0.140   2.423  0.00  0.00     0.017 A 
ATOM      6  C5  UNL d   1      -1.304   0.636   3.343  0.00  0.00     0.034 A 
ATOM      7 Cl   UNL d   1      -3.293  -1.136   3.028  0.00  0.00    -0.070 Cl
ATOM      8 Cl1  UNL d   1      -2.514  -1.020  -0.131  0.00  0.00    -0.070 Cl
ENDROOT
TORSDOF 0
ENDMDL
