MODEL 1
REMARK minimizedAffinity -3.72233033
REMARK minimizedRMSD -1
REMARK  0 active torsions:
REMARK  status: ('A' for Active; 'I' for Inactive)
ROOT
ATOM      1  C   UNL d   1       0.665   0.035  -0.085  0.00  0.00     0.020 A 
ATOM      2  C1  UNL d   1      -0.392  -0.771  -0.508  0.00  0.00     0.020 A 
ATOM      3  C2  UNL d   1      -1.585  -0.794   0.217  0.00  0.00     0.034 A 
ATOM      4  C3  UNL d   1      -1.724  -0.011   1.369  0.00  0.00     0.017 A 
ATOM      5  C4  UNL d   1      -0.663   0.797   1.793  0.00  0.00     0.017 A 
ATOM      6  C5  UNL d   1       0.530   0.817   1.063  0.00  0.00     0.034 A 
ATOM      7 Cl   UNL d   1      -0.760   1.791   3.203  0.00  0.00    -0.070 Cl
ATOM      8 Cl1  UNL d   1      -3.228  -0.089   2.216  0.00  0.00    -0.070 Cl
ENDROOT
TORSDOF 0
ENDMDL
