MODEL 1
REMARK minimizedAffinity -2.95947599
REMARK minimizedRMSD -1
REMARK  0 active torsions:
REMARK  status: ('A' for Active; 'I' for Inactive)
ROOT
ATOM      1  C   UNL d   1       0.361   1.644   2.774  0.00  0.00     0.020 A 
ATOM      2  C1  UNL d   1       0.790   1.487   1.457  0.00  0.00     0.020 A 
ATOM      3  C2  UNL d   1       0.145   0.578   0.616  0.00  0.00     0.034 A 
ATOM      4  C3  UNL d   1      -0.933  -0.178   1.092  0.00  0.00     0.017 A 
ATOM      5  C4  UNL d   1      -1.363  -0.019   2.414  0.00  0.00     0.017 A 
ATOM      6  C5  UNL d   1      -0.714   0.892   3.252  0.00  0.00     0.034 A 
ATOM      7 Cl   UNL d   1      -2.686  -0.916   3.072  0.00  0.00    -0.070 Cl
ATOM      8 Cl1  UNL d   1      -1.685  -1.283  -0.003  0.00  0.00    -0.070 Cl
ENDROOT
TORSDOF 0
ENDMDL
