MODEL 1
REMARK minimizedAffinity 3.42571878
REMARK minimizedRMSD -1
REMARK  1 active torsions:
REMARK  status: ('A' for Active; 'I' for Inactive)
REMARK    1  A    between atoms: C1_2  and  C2_3 
ROOT
ATOM      1  C2  UNL d   1       1.896  -1.677   0.856  0.00  0.00    -0.073 A 
ATOM      2  C3  UNL d   1       1.048  -1.708   1.969  0.00  0.00    -0.002 A 
ATOM      3  C4  UNL d   1       0.813  -0.549   2.709  0.00  0.00     0.004 A 
ATOM      4  C5  UNL d   1       1.416   0.654   2.341  0.00  0.00    -0.004 A 
ATOM      5  C6  UNL d   1       2.256   0.708   1.224  0.00  0.00    -0.075 A 
ATOM      6  C7  UNL d   1       2.914   1.994   0.815  0.00  0.00     0.076 C 
ATOM      7  C8  UNL d   1       2.490  -0.461   0.487  0.00  0.00     0.001 A 
ENDROOT
BRANCH   1   8
ATOM      8  C1  UNL d   1       2.148  -2.925   0.049  0.00  0.00     0.053 C 
ATOM      9  C   UNL d   1       2.834  -4.005   0.870  0.00  0.00     0.018 C 
ENDBRANCH   1   8
TORSDOF 1
ENDMDL
