MODEL 1
REMARK minimizedAffinity 3.49330807
REMARK minimizedRMSD -1
REMARK  1 active torsions:
REMARK  status: ('A' for Active; 'I' for Inactive)
REMARK    1  A    between atoms: C1_2  and  C2_3 
ROOT
ATOM      1  C2  UNL d   1      -4.169   1.160  -4.389  0.00  0.00    -0.073 A 
ATOM      2  C3  UNL d   1      -4.716   0.645  -3.209  0.00  0.00    -0.002 A 
ATOM      3  C4  UNL d   1      -4.452  -0.671  -2.826  0.00  0.00     0.004 A 
ATOM      4  C5  UNL d   1      -3.635  -1.481  -3.614  0.00  0.00    -0.004 A 
ATOM      5  C6  UNL d   1      -3.070  -0.980  -4.791  0.00  0.00    -0.075 A 
ATOM      6  C7  UNL d   1      -2.190  -1.839  -5.651  0.00  0.00     0.076 C 
ATOM      7  C8  UNL d   1      -3.341   0.341  -5.170  0.00  0.00     0.001 A 
ENDROOT
BRANCH   1   8
ATOM      8  C1  UNL d   1      -4.446   2.582  -4.804  0.00  0.00     0.053 C 
ATOM      9  C   UNL d   1      -3.706   3.585  -3.932  0.00  0.00     0.018 C 
ENDBRANCH   1   8
TORSDOF 1
ENDMDL
