MODEL 1
REMARK minimizedAffinity 6.80417252
REMARK minimizedRMSD -1
REMARK  1 active torsions:
REMARK  status: ('A' for Active; 'I' for Inactive)
REMARK    1  A    between atoms: C1_2  and  C2_3 
ROOT
ATOM      1  C2  UNL d   1       3.436  -4.591   0.746  0.00  0.00    -0.073 A 
ATOM      2  C3  UNL d   1       3.698  -4.518   2.118  0.00  0.00    -0.002 A 
ATOM      3  C4  UNL d   1       3.142  -3.497   2.889  0.00  0.00     0.004 A 
ATOM      4  C5  UNL d   1       2.314  -2.542   2.298  0.00  0.00    -0.004 A 
ATOM      5  C6  UNL d   1       2.031  -2.604   0.930  0.00  0.00    -0.075 A 
ATOM      6  C7  UNL d   1       1.144  -1.584   0.278  0.00  0.00     0.076 C 
ATOM      7  C8  UNL d   1       2.595  -3.632   0.162  0.00  0.00     0.001 A 
ENDROOT
BRANCH   1   8
ATOM      8  C1  UNL d   1       4.029  -5.696  -0.090  0.00  0.00     0.053 C 
ATOM      9  C   UNL d   1       5.465  -6.000   0.304  0.00  0.00     0.018 C 
ENDBRANCH   1   8
TORSDOF 1
ENDMDL
