MODEL 1
REMARK minimizedAffinity 5.12679863
REMARK minimizedRMSD -1
REMARK  1 active torsions:
REMARK  status: ('A' for Active; 'I' for Inactive)
REMARK    1  A    between atoms: C1_2  and  C2_3 
ROOT
ATOM      1  C2  UNL d   1      -3.516  -0.739  -3.546  0.00  0.00    -0.073 A 
ATOM      2  C3  UNL d   1      -2.689  -1.083  -4.621  0.00  0.00    -0.002 A 
ATOM      3  C4  UNL d   1      -2.808  -0.418  -5.843  0.00  0.00     0.004 A 
ATOM      4  C5  UNL d   1      -3.748   0.601  -5.999  0.00  0.00    -0.004 A 
ATOM      5  C6  UNL d   1      -4.575   0.967  -4.933  0.00  0.00    -0.075 A 
ATOM      6  C7  UNL d   1      -5.593   2.059  -5.086  0.00  0.00     0.076 C 
ATOM      7  C8  UNL d   1      -4.452   0.293  -3.711  0.00  0.00     0.001 A 
ENDROOT
BRANCH   1   8
ATOM      8  C1  UNL d   1      -3.388  -1.449  -2.224  0.00  0.00     0.053 C 
ATOM      9  C   UNL d   1      -2.646  -0.610  -1.196  0.00  0.00     0.018 C 
ENDBRANCH   1   8
TORSDOF 1
ENDMDL
