MODEL 1
REMARK minimizedAffinity -3.95123219
REMARK minimizedRMSD -1
REMARK  1 active torsions:
REMARK  status: ('A' for Active; 'I' for Inactive)
REMARK    1  A    between atoms: C1_2  and  C2_3 
ROOT
ATOM      1  C2  UNL d   1      -3.609  -0.030  -4.581  0.00  0.00    -0.073 A 
ATOM      2  C3  UNL d   1      -3.191  -0.925  -3.589  0.00  0.00    -0.002 A 
ATOM      3  C4  UNL d   1      -2.166  -0.573  -2.709  0.00  0.00     0.004 A 
ATOM      4  C5  UNL d   1      -1.555   0.677  -2.807  0.00  0.00    -0.004 A 
ATOM      5  C6  UNL d   1      -1.967   1.589  -3.784  0.00  0.00    -0.075 A 
ATOM      6  C7  UNL d   1      -1.318   2.936  -3.903  0.00  0.00     0.076 C 
ATOM      7  C8  UNL d   1      -2.994   1.227  -4.665  0.00  0.00     0.001 A 
ENDROOT
BRANCH   1   8
ATOM      8  C1  UNL d   1      -4.719  -0.403  -5.529  0.00  0.00     0.053 C 
ATOM      9  C   UNL d   1      -6.000  -0.764  -4.793  0.00  0.00     0.018 C 
ENDBRANCH   1   8
TORSDOF 1
ENDMDL
