MODEL 1
REMARK minimizedAffinity 4.41133213
REMARK minimizedRMSD -1
REMARK  1 active torsions:
REMARK  status: ('A' for Active; 'I' for Inactive)
REMARK    1  A    between atoms: C1_2  and  C2_3 
ROOT
ATOM      1  C2  UNL d   1      -3.689   1.129  -3.583  0.00  0.00    -0.073 A 
ATOM      2  C3  UNL d   1      -4.909   1.401  -4.212  0.00  0.00    -0.002 A 
ATOM      3  C4  UNL d   1      -5.236   0.775  -5.416  0.00  0.00     0.004 A 
ATOM      4  C5  UNL d   1      -4.352  -0.133  -5.997  0.00  0.00    -0.004 A 
ATOM      5  C6  UNL d   1      -3.134  -0.427  -5.377  0.00  0.00    -0.075 A 
ATOM      6  C7  UNL d   1      -2.171  -1.401  -5.992  0.00  0.00     0.076 C 
ATOM      7  C8  UNL d   1      -2.811   0.208  -4.171  0.00  0.00     0.001 A 
ENDROOT
BRANCH   1   8
ATOM      8  C1  UNL d   1      -3.334   1.798  -2.280  0.00  0.00     0.053 C 
ATOM      9  C   UNL d   1      -2.324   2.919  -2.471  0.00  0.00     0.018 C 
ENDBRANCH   1   8
TORSDOF 1
ENDMDL
