MODEL 1
REMARK minimizedAffinity 10.1788521
REMARK minimizedRMSD -1
REMARK  0 active torsions:
REMARK  status: ('A' for Active; 'I' for Inactive)
ROOT
ATOM      1  N1  IND d   1       1.543   0.788   3.045  0.00  0.00    -0.196 N 
ATOM      2  C2  IND d   1       2.225   1.129   1.911  0.00  0.00     0.054 A 
ATOM      3  C3  IND d   1       3.120   0.166   1.592  0.00  0.00    -0.031 A 
ATOM      4  C4  IND d   1       3.562  -2.098   2.735  0.00  0.00     0.051 A 
ATOM      5  C5  IND d   1       3.211  -2.839   3.828  0.00  0.00    -0.031 A 
ATOM      6  C6  IND d   1       2.266  -2.402   4.733  0.00  0.00     0.015 A 
ATOM      7  C7  IND d   1       1.624  -1.207   4.571  0.00  0.00    -0.016 A 
ATOM      8  C8  IND d   1       1.983  -0.448   3.466  0.00  0.00    -0.047 A 
ATOM      9  C9  IND d   1       2.973  -0.867   2.568  0.00  0.00    -0.096 A 
ATOM     10  HN1 IND d   1       0.941   1.265   3.431  0.00  0.00     0.298 HD
ENDROOT
TORSDOF 0
ENDMDL
