MODEL 1
REMARK minimizedAffinity 16.3300896
REMARK minimizedRMSD -1
REMARK  0 active torsions:
REMARK  status: ('A' for Active; 'I' for Inactive)
ROOT
ATOM      1  N1  IND d   1       1.703  -2.215   2.200  0.00  0.00    -0.196 N 
ATOM      2  C2  IND d   1       1.582  -1.008   2.831  0.00  0.00     0.054 A 
ATOM      3  C3  IND d   1       2.170  -1.053   4.048  0.00  0.00    -0.031 A 
ATOM      4  C4  IND d   1       3.476  -2.971   5.163  0.00  0.00     0.051 A 
ATOM      5  C5  IND d   1       3.823  -4.281   4.990  0.00  0.00    -0.031 A 
ATOM      6  C6  IND d   1       3.477  -4.983   3.854  0.00  0.00     0.015 A 
ATOM      7  C7  IND d   1       2.777  -4.395   2.839  0.00  0.00    -0.016 A 
ATOM      8  C8  IND d   1       2.417  -3.066   3.014  0.00  0.00    -0.047 A 
ATOM      9  C9  IND d   1       2.729  -2.361   4.184  0.00  0.00    -0.096 A 
ATOM     10  HN1 IND d   1       1.387  -2.409   1.424  0.00  0.00     0.298 HD
ENDROOT
TORSDOF 0
ENDMDL
