MODEL 1
REMARK minimizedAffinity 3.68904972
REMARK minimizedRMSD -1
REMARK  0 active torsions:
REMARK  status: ('A' for Active; 'I' for Inactive)
ROOT
ATOM      1  N1  IND d   1       5.578  -5.669  -4.406  0.00  0.00    -0.196 N 
ATOM      2  C2  IND d   1       5.341  -5.632  -5.752  0.00  0.00     0.054 A 
ATOM      3  C3  IND d   1       4.016  -5.744  -5.999  0.00  0.00    -0.031 A 
ATOM      4  C4  IND d   1       2.051  -5.894  -4.343  0.00  0.00     0.051 A 
ATOM      5  C5  IND d   1       1.772  -6.000  -3.009  0.00  0.00    -0.031 A 
ATOM      6  C6  IND d   1       2.767  -5.998  -2.054  0.00  0.00     0.015 A 
ATOM      7  C7  IND d   1       4.084  -5.878  -2.397  0.00  0.00    -0.016 A 
ATOM      8  C8  IND d   1       4.372  -5.778  -3.751  0.00  0.00    -0.047 A 
ATOM      9  C9  IND d   1       3.369  -5.822  -4.728  0.00  0.00    -0.096 A 
ATOM     10  HN1 IND d   1       6.352  -5.630  -4.032  0.00  0.00     0.298 HD
ENDROOT
TORSDOF 0
ENDMDL
