MODEL 1
REMARK minimizedAffinity 4.85005808
REMARK minimizedRMSD -1
REMARK  0 active torsions:
REMARK  status: ('A' for Active; 'I' for Inactive)
ROOT
ATOM      1  N1  IND d   1       4.728  -5.012  -3.084  0.00  0.00    -0.196 N 
ATOM      2  C2  IND d   1       3.830  -6.000  -2.788  0.00  0.00     0.054 A 
ATOM      3  C3  IND d   1       2.624  -5.466  -2.494  0.00  0.00    -0.031 A 
ATOM      4  C4  IND d   1       1.870  -3.005  -2.536  0.00  0.00     0.051 A 
ATOM      5  C5  IND d   1       2.345  -1.736  -2.712  0.00  0.00    -0.031 A 
ATOM      6  C6  IND d   1       3.665  -1.489  -3.030  0.00  0.00     0.015 A 
ATOM      7  C7  IND d   1       4.560  -2.507  -3.196  0.00  0.00    -0.016 A 
ATOM      8  C8  IND d   1       4.083  -3.797  -3.011  0.00  0.00    -0.047 A 
ATOM      9  C9  IND d   1       2.754  -4.052  -2.646  0.00  0.00    -0.096 A 
ATOM     10  HN1 IND d   1       5.556  -5.130  -3.283  0.00  0.00     0.298 HD
ENDROOT
TORSDOF 0
ENDMDL
