MODEL 1
REMARK minimizedAffinity 12.5347672
REMARK minimizedRMSD -1
REMARK  2 active torsions:
REMARK  status: ('A' for Active; 'I' for Inactive)
REMARK    1  A    between atoms: C1_2  and  C2_3 
REMARK    2  A    between atoms: C2_3  and  C3_4 
ROOT
ATOM      1  C3  UNL d   1      -1.650   3.331   0.145  0.00  0.00    -0.075 A 
ATOM      2  C4  UNL d   1      -1.653   2.564   1.320  0.00  0.00     0.002 A 
ATOM      3  C5  UNL d   1      -0.757   1.507   1.477  0.00  0.00     0.002 A 
ATOM      4  C6  UNL d   1       0.145   1.196   0.462  0.00  0.00    -0.004 A 
ATOM      5  C7  UNL d   1       0.146   1.941  -0.715  0.00  0.00     0.002 A 
ATOM      6  C8  UNL d   1      -0.747   3.003  -0.874  0.00  0.00     0.002 A 
ENDROOT
BRANCH   1   7
ATOM      7  C2  UNL d   1      -2.597   4.495  -0.019  0.00  0.00     0.056 C 
BRANCH   7   8
ATOM      8  C1  UNL d   1      -3.088   5.093   1.304  0.00  0.00     0.007 C 
ATOM      9  C   UNL d   1      -4.300   6.000   1.140  0.00  0.00     0.009 C 
ENDBRANCH   7   8
ENDBRANCH   1   7
TORSDOF 2
ENDMDL
