MODEL 1
REMARK minimizedAffinity 11.8116665
REMARK minimizedRMSD -1
REMARK  2 active torsions:
REMARK  status: ('A' for Active; 'I' for Inactive)
REMARK    1  A    between atoms: C1_2  and  C2_3 
REMARK    2  A    between atoms: C2_3  and  C3_4 
ROOT
ATOM      1  C3  UNL d   1      -0.108   2.339   1.742  0.00  0.00    -0.075 A 
ATOM      2  C4  UNL d   1       0.520   2.145   0.503  0.00  0.00     0.002 A 
ATOM      3  C5  UNL d   1       0.015   2.747  -0.650  0.00  0.00     0.002 A 
ATOM      4  C6  UNL d   1      -1.128   3.540  -0.581  0.00  0.00    -0.004 A 
ATOM      5  C7  UNL d   1      -1.770   3.727   0.642  0.00  0.00     0.002 A 
ATOM      6  C8  UNL d   1      -1.264   3.129   1.797  0.00  0.00     0.002 A 
ENDROOT
BRANCH   1   7
ATOM      7  C2  UNL d   1       0.451   1.714   2.998  0.00  0.00     0.056 C 
BRANCH   7   8
ATOM      8  C1  UNL d   1       1.870   2.177   3.347  0.00  0.00     0.007 C 
ATOM      9  C   UNL d   1       2.946   1.190   2.918  0.00  0.00     0.009 C 
ENDBRANCH   7   8
ENDBRANCH   1   7
TORSDOF 2
ENDMDL
