MODEL 1
REMARK minimizedAffinity 13.812891
REMARK minimizedRMSD -1
REMARK  2 active torsions:
REMARK  status: ('A' for Active; 'I' for Inactive)
REMARK    1  A    between atoms: C1_2  and  C2_3 
REMARK    2  A    between atoms: C2_3  and  C3_4 
ROOT
ATOM      1  C3  UNL d   1      -2.607   5.175  -0.741  0.00  0.00    -0.075 A 
ATOM      2  C4  UNL d   1      -2.438   5.626   0.576  0.00  0.00     0.002 A 
ATOM      3  C5  UNL d   1      -3.545   5.948   1.362  0.00  0.00     0.002 A 
ATOM      4  C6  UNL d   1      -4.831   5.834   0.839  0.00  0.00    -0.004 A 
ATOM      5  C7  UNL d   1      -5.010   5.404  -0.473  0.00  0.00     0.002 A 
ATOM      6  C8  UNL d   1      -3.905   5.076  -1.261  0.00  0.00     0.002 A 
ENDROOT
BRANCH   1   7
ATOM      7  C2  UNL d   1      -1.415   4.797  -1.587  0.00  0.00     0.056 C 
BRANCH   7   8
ATOM      8  C1  UNL d   1      -1.285   3.292  -1.843  0.00  0.00     0.007 C 
ATOM      9  C   UNL d   1       0.100   2.746  -1.520  0.00  0.00     0.009 C 
ENDBRANCH   7   8
ENDBRANCH   1   7
TORSDOF 2
ENDMDL
