MODEL 1
REMARK minimizedAffinity 9.83021164
REMARK minimizedRMSD -1
REMARK  2 active torsions:
REMARK  status: ('A' for Active; 'I' for Inactive)
REMARK    1  A    between atoms: C1_2  and  C2_3 
REMARK    2  A    between atoms: C2_3  and  C3_4 
ROOT
ATOM      1  C3  UNL d   1       0.005   2.558   0.506  0.00  0.00    -0.075 A 
ATOM      2  C4  UNL d   1       1.365   2.356   0.783  0.00  0.00     0.002 A 
ATOM      3  C5  UNL d   1       1.761   1.684   1.940  0.00  0.00     0.002 A 
ATOM      4  C6  UNL d   1       0.805   1.216   2.838  0.00  0.00    -0.004 A 
ATOM      5  C7  UNL d   1      -0.548   1.426   2.582  0.00  0.00     0.002 A 
ATOM      6  C8  UNL d   1      -0.947   2.093   1.423  0.00  0.00     0.002 A 
ENDROOT
BRANCH   1   7
ATOM      7  C2  UNL d   1      -0.431   3.258  -0.759  0.00  0.00     0.056 C 
BRANCH   7   8
ATOM      8  C1  UNL d   1       0.729   3.751  -1.630  0.00  0.00     0.007 C 
ATOM      9  C   UNL d   1       1.289   5.095  -1.180  0.00  0.00     0.009 C 
ENDBRANCH   7   8
ENDBRANCH   1   7
TORSDOF 2
ENDMDL
