MODEL 1
REMARK minimizedAffinity 6.33311892
REMARK minimizedRMSD -1
REMARK  2 active torsions:
REMARK  status: ('A' for Active; 'I' for Inactive)
REMARK    1  A    between atoms: C1_2  and  C2_3 
REMARK    2  A    between atoms: C2_3  and  C3_4 
ROOT
ATOM      1  C3  UNL d   1       2.340   0.561   0.795  0.00  0.00    -0.075 A 
ATOM      2  C4  UNL d   1       3.390   0.128   1.618  0.00  0.00     0.002 A 
ATOM      3  C5  UNL d   1       4.199  -0.940   1.230  0.00  0.00     0.002 A 
ATOM      4  C6  UNL d   1       3.963  -1.594   0.023  0.00  0.00    -0.004 A 
ATOM      5  C7  UNL d   1       2.913  -1.183  -0.794  0.00  0.00     0.002 A 
ATOM      6  C8  UNL d   1       2.104  -0.111  -0.411  0.00  0.00     0.002 A 
ENDROOT
BRANCH   1   7
ATOM      7  C2  UNL d   1       1.479   1.736   1.196  0.00  0.00     0.056 C 
BRANCH   7   8
ATOM      8  C1  UNL d   1       0.653   2.324   0.047  0.00  0.00     0.007 C 
ATOM      9  C   UNL d   1      -0.846   2.302   0.313  0.00  0.00     0.009 C 
ENDBRANCH   7   8
ENDBRANCH   1   7
TORSDOF 2
ENDMDL
