MODEL 1
REMARK minimizedAffinity 8.33991528
REMARK minimizedRMSD -1
REMARK  2 active torsions:
REMARK  status: ('A' for Active; 'I' for Inactive)
REMARK    1  A    between atoms: C1_2  and  C2_3 
REMARK    2  A    between atoms: C2_3  and  C3_4 
ROOT
ATOM      1  C3  UNL d   1      -2.062   2.812  -0.187  0.00  0.00    -0.075 A 
ATOM      2  C4  UNL d   1      -0.784   2.561  -0.707  0.00  0.00     0.002 A 
ATOM      3  C5  UNL d   1       0.279   2.254   0.143  0.00  0.00     0.002 A 
ATOM      4  C6  UNL d   1       0.081   2.206   1.521  0.00  0.00    -0.004 A 
ATOM      5  C7  UNL d   1      -1.180   2.470   2.050  0.00  0.00     0.002 A 
ATOM      6  C8  UNL d   1      -2.247   2.772   1.201  0.00  0.00     0.002 A 
ENDROOT
BRANCH   1   7
ATOM      7  C2  UNL d   1      -3.223   3.115  -1.103  0.00  0.00     0.056 C 
BRANCH   7   8
ATOM      8  C1  UNL d   1      -2.907   2.932  -2.592  0.00  0.00     0.007 C 
ATOM      9  C   UNL d   1      -3.358   4.106  -3.450  0.00  0.00     0.009 C 
ENDBRANCH   7   8
ENDBRANCH   1   7
TORSDOF 2
ENDMDL
