MODEL 1
REMARK minimizedAffinity -1.53352416
REMARK minimizedRMSD -1
REMARK  1 active torsions:
REMARK  status: ('A' for Active; 'I' for Inactive)
REMARK    1  A    between atoms: N_2  and  C1_3 
ROOT
ATOM      1  C1  UNL d   1       0.704  -1.924   0.953  0.00  0.00     0.143 A 
ATOM      2  C2  UNL d   1       0.152  -1.045   0.016  0.00  0.00    -0.057 A 
ATOM      3  C3  UNL d   1      -0.891  -0.177   0.361  0.00  0.00     0.033 A 
ATOM      4  C4  UNL d   1      -1.420  -0.192   1.647  0.00  0.00    -0.042 A 
ATOM      5  C5  UNL d   1      -0.903  -1.075   2.589  0.00  0.00     0.033 A 
ATOM      6  C6  UNL d   1       0.142  -1.935   2.240  0.00  0.00    -0.057 A 
ENDROOT
BRANCH   1   7
ATOM      7  N   UNL d   1       1.675  -2.881   0.645  0.00  0.00    -0.732 N 
ATOM      8  C   UNL d   1       1.925  -3.991   1.539  0.00  0.00     0.284 C 
ATOM      9  H3  UNL d   1       1.672  -3.133  -0.340  0.00  0.00     0.395 HD
ENDBRANCH   1   7
TORSDOF 1
ENDMDL
