MODEL 1
REMARK minimizedAffinity -3.1515162
REMARK minimizedRMSD -1
REMARK  1 active torsions:
REMARK  status: ('A' for Active; 'I' for Inactive)
REMARK    1  A    between atoms: N_2  and  C1_3 
ROOT
ATOM      1  C1  UNL d   1       2.318   5.997   3.403  0.00  0.00     0.143 A 
ATOM      2  C2  UNL d   1       0.932   5.914   3.573  0.00  0.00    -0.057 A 
ATOM      3  C3  UNL d   1       0.357   5.884   4.849  0.00  0.00     0.033 A 
ATOM      4  C4  UNL d   1       1.163   5.906   5.982  0.00  0.00    -0.042 A 
ATOM      5  C5  UNL d   1       2.544   5.963   5.838  0.00  0.00     0.033 A 
ATOM      6  C6  UNL d   1       3.112   6.000   4.560  0.00  0.00    -0.057 A 
ENDROOT
BRANCH   1   7
ATOM      7  N   UNL d   1       2.955   5.931   2.162  0.00  0.00    -0.732 N 
ATOM      8  C   UNL d   1       4.398   5.996   2.069  0.00  0.00     0.284 C 
ATOM      9  H3  UNL d   1       2.529   5.246   1.542  0.00  0.00     0.395 HD
ENDBRANCH   1   7
TORSDOF 1
ENDMDL
