MODEL 1
REMARK minimizedAffinity -3.44100356
REMARK minimizedRMSD -1
REMARK  1 active torsions:
REMARK  status: ('A' for Active; 'I' for Inactive)
REMARK    1  A    between atoms: N_2  and  C1_3 
ROOT
ATOM      1  C1  UNL d   1      -0.152  -1.789   2.001  0.00  0.00     0.143 A 
ATOM      2  C2  UNL d   1      -0.138  -3.094   2.503  0.00  0.00    -0.057 A 
ATOM      3  C3  UNL d   1       0.750  -4.055   2.004  0.00  0.00     0.033 A 
ATOM      4  C4  UNL d   1       1.623  -3.733   0.969  0.00  0.00    -0.042 A 
ATOM      5  C5  UNL d   1       1.609  -2.449   0.438  0.00  0.00     0.033 A 
ATOM      6  C6  UNL d   1       0.725  -1.492   0.945  0.00  0.00    -0.057 A 
ENDROOT
BRANCH   1   7
ATOM      7  N   UNL d   1      -1.077  -0.816   2.387  0.00  0.00    -0.732 N 
ATOM      8  C   UNL d   1      -1.695   0.047   1.403  0.00  0.00     0.284 C 
ATOM      9  H3  UNL d   1      -1.716  -1.152   3.105  0.00  0.00     0.395 HD
ENDBRANCH   1   7
TORSDOF 1
ENDMDL
