MODEL 1
REMARK minimizedAffinity 0.16608572
REMARK minimizedRMSD -1
REMARK  1 active torsions:
REMARK  status: ('A' for Active; 'I' for Inactive)
REMARK    1  A    between atoms: N_2  and  C1_3 
ROOT
ATOM      1  C1  UNL d   1      -0.542  -1.210   1.077  0.00  0.00     0.143 A 
ATOM      2  C2  UNL d   1      -0.615  -1.832   2.328  0.00  0.00    -0.057 A 
ATOM      3  C3  UNL d   1       0.293  -2.832   2.696  0.00  0.00     0.033 A 
ATOM      4  C4  UNL d   1       1.275  -3.251   1.804  0.00  0.00    -0.042 A 
ATOM      5  C5  UNL d   1       1.351  -2.665   0.546  0.00  0.00     0.033 A 
ATOM      6  C6  UNL d   1       0.446  -1.661   0.187  0.00  0.00    -0.057 A 
ENDROOT
BRANCH   1   7
ATOM      7  N   UNL d   1      -1.475  -0.279   0.615  0.00  0.00    -0.732 N 
ATOM      8  C   UNL d   1      -2.782  -0.707   0.164  0.00  0.00     0.284 C 
ATOM      9  H3  UNL d   1      -1.486   0.570   1.175  0.00  0.00     0.395 HD
ENDBRANCH   1   7
TORSDOF 1
ENDMDL
