MODEL 1
REMARK minimizedAffinity 2.57495236
REMARK minimizedRMSD -1
REMARK  1 active torsions:
REMARK  status: ('A' for Active; 'I' for Inactive)
REMARK    1  A    between atoms: N_2  and  C1_3 
ROOT
ATOM      1  C1  UNL d   1      -2.908  -0.726   0.905  0.00  0.00     0.143 A 
ATOM      2  C2  UNL d   1      -2.054  -1.392   1.791  0.00  0.00    -0.057 A 
ATOM      3  C3  UNL d   1      -0.664  -1.344   1.633  0.00  0.00     0.033 A 
ATOM      4  C4  UNL d   1      -0.103  -0.651   0.565  0.00  0.00    -0.042 A 
ATOM      5  C5  UNL d   1      -0.933  -0.003  -0.342  0.00  0.00     0.033 A 
ATOM      6  C6  UNL d   1      -2.321  -0.049  -0.175  0.00  0.00    -0.057 A 
ENDROOT
BRANCH   1   7
ATOM      7  N   UNL d   1      -4.302  -0.817   0.952  0.00  0.00    -0.732 N 
ATOM      8  C   UNL d   1      -5.049  -0.153   1.998  0.00  0.00     0.284 C 
ATOM      9  H3  UNL d   1      -4.727  -0.748   0.030  0.00  0.00     0.395 HD
ENDBRANCH   1   7
TORSDOF 1
ENDMDL
