MODEL 1
REMARK minimizedAffinity -3.16195345
REMARK minimizedRMSD -1
REMARK  1 active torsions:
REMARK  status: ('A' for Active; 'I' for Inactive)
REMARK    1  A    between atoms: N_2  and  C1_3 
ROOT
ATOM      1  C1  UNL d   1       0.370  -0.538  -0.718  0.00  0.00     0.143 A 
ATOM      2  C2  UNL d   1       0.772  -1.225  -1.869  0.00  0.00    -0.057 A 
ATOM      3  C3  UNL d   1       2.086  -1.137  -2.345  0.00  0.00     0.033 A 
ATOM      4  C4  UNL d   1       3.017  -0.335  -1.693  0.00  0.00    -0.042 A 
ATOM      5  C5  UNL d   1       2.633   0.376  -0.562  0.00  0.00     0.033 A 
ATOM      6  C6  UNL d   1       1.321   0.279  -0.087  0.00  0.00    -0.057 A 
ENDROOT
BRANCH   1   7
ATOM      7  N   UNL d   1      -0.946  -0.506  -0.251  0.00  0.00    -0.732 N 
ATOM      8  C   UNL d   1      -1.223  -0.386   1.164  0.00  0.00     0.284 C 
ATOM      9  H3  UNL d   1      -1.555   0.054  -0.843  0.00  0.00     0.395 HD
ENDBRANCH   1   7
TORSDOF 1
ENDMDL
