MODEL 1
REMARK minimizedAffinity 11.7871227
REMARK minimizedRMSD -1
REMARK  0 active torsions:
REMARK  status: ('A' for Active; 'I' for Inactive)
ROOT
ATOM      1  C2' OXE d   1       0.506  -0.625   4.520  0.00  0.00     0.078 C 
ATOM      2  C1' OXE d   1       0.503  -1.111   1.755  0.00  0.00     0.078 C 
ATOM      3  C1  OXE d   1      -0.759  -1.413   2.524  0.00  0.00    -0.078 A 
ATOM      4  C2  OXE d   1      -0.733  -1.216   3.884  0.00  0.00    -0.078 A 
ATOM      5  C3  OXE d   1      -1.887  -1.427   4.633  0.00  0.00     0.003 A 
ATOM      6  C4  OXE d   1      -3.026  -1.984   4.039  0.00  0.00    -0.002 A 
ATOM      7  C5  OXE d   1      -3.060  -2.230   2.662  0.00  0.00    -0.002 A 
ATOM      8  C6  OXE d   1      -1.952  -1.910   1.885  0.00  0.00     0.003 A 
ENDROOT
TORSDOF 0
ENDMDL
