MODEL 1
REMARK minimizedAffinity 4.41574955
REMARK minimizedRMSD -1
REMARK  0 active torsions:
REMARK  status: ('A' for Active; 'I' for Inactive)
ROOT
ATOM      1  C2' OXE d   1      -1.334  -1.065   4.298  0.00  0.00     0.078 C 
ATOM      2  C1' OXE d   1      -0.607  -3.739   4.750  0.00  0.00     0.078 C 
ATOM      3  C1  OXE d   1       0.045  -3.018   3.597  0.00  0.00    -0.078 A 
ATOM      4  C2  OXE d   1      -0.351  -1.724   3.355  0.00  0.00    -0.078 A 
ATOM      5  C3  OXE d   1       0.259  -0.995   2.337  0.00  0.00     0.003 A 
ATOM      6  C4  OXE d   1       1.160  -1.616   1.463  0.00  0.00    -0.002 A 
ATOM      7  C5  OXE d   1       1.547  -2.944   1.668  0.00  0.00    -0.002 A 
ATOM      8  C6  OXE d   1       1.032  -3.645   2.753  0.00  0.00     0.003 A 
ENDROOT
TORSDOF 0
ENDMDL
