MODEL 1
REMARK minimizedAffinity 2.94580221
REMARK minimizedRMSD -1
REMARK  0 active torsions:
REMARK  status: ('A' for Active; 'I' for Inactive)
ROOT
ATOM      1  C2' OXE d   1      -3.015  -3.139   0.877  0.00  0.00     0.078 C 
ATOM      2  C1' OXE d   1      -3.688  -2.829   3.585  0.00  0.00     0.078 C 
ATOM      3  C1  OXE d   1      -2.420  -2.175   3.096  0.00  0.00    -0.078 A 
ATOM      4  C2  OXE d   1      -2.074  -2.372   1.780  0.00  0.00    -0.078 A 
ATOM      5  C3  OXE d   1      -0.943  -1.746   1.264  0.00  0.00     0.003 A 
ATOM      6  C4  OXE d   1      -0.072  -1.046   2.108  0.00  0.00    -0.002 A 
ATOM      7  C5  OXE d   1      -0.385  -0.868   3.460  0.00  0.00    -0.002 A 
ATOM      8  C6  OXE d   1      -1.574  -1.389   3.959  0.00  0.00     0.003 A 
ENDROOT
TORSDOF 0
ENDMDL
