MODEL 1
REMARK minimizedAffinity 18.7823448
REMARK minimizedRMSD -1
REMARK  0 active torsions:
REMARK  status: ('A' for Active; 'I' for Inactive)
ROOT
ATOM      1  C2' OXE d   1      -0.049  -1.858   1.501  0.00  0.00     0.078 C 
ATOM      2  C1' OXE d   1       1.202  -3.588  -0.322  0.00  0.00     0.078 C 
ATOM      3  C1  OXE d   1       0.968  -4.093   1.080  0.00  0.00    -0.078 A 
ATOM      4  C2  OXE d   1       0.398  -3.223   1.978  0.00  0.00    -0.078 A 
ATOM      5  C3  OXE d   1       0.111  -3.656   3.269  0.00  0.00     0.003 A 
ATOM      6  C4  OXE d   1       0.536  -4.917   3.705  0.00  0.00    -0.002 A 
ATOM      7  C5  OXE d   1       1.154  -5.804   2.818  0.00  0.00    -0.002 A 
ATOM      8  C6  OXE d   1       1.339  -5.424   1.493  0.00  0.00     0.003 A 
ENDROOT
TORSDOF 0
ENDMDL
