MODEL 1
REMARK minimizedAffinity 16.7854557
REMARK minimizedRMSD -1
REMARK  0 active torsions:
REMARK  status: ('A' for Active; 'I' for Inactive)
ROOT
ATOM      1  C2' OXE d   1       3.955   1.672   0.709  0.00  0.00     0.078 C 
ATOM      2  C1' OXE d   1       1.439   2.594  -0.127  0.00  0.00     0.078 C 
ATOM      3  C1  OXE d   1       1.530   1.188   0.410  0.00  0.00    -0.078 A 
ATOM      4  C2  OXE d   1       2.773   0.729   0.774  0.00  0.00    -0.078 A 
ATOM      5  C3  OXE d   1       2.904  -0.542   1.326  0.00  0.00     0.003 A 
ATOM      6  C4  OXE d   1       1.808  -1.411   1.373  0.00  0.00    -0.002 A 
ATOM      7  C5  OXE d   1       0.540  -0.977   0.971  0.00  0.00    -0.002 A 
ATOM      8  C6  OXE d   1       0.376   0.331   0.528  0.00  0.00     0.003 A 
ENDROOT
TORSDOF 0
ENDMDL
