MODEL 1
REMARK minimizedAffinity 14.1618414
REMARK minimizedRMSD -1
REMARK  0 active torsions:
REMARK  status: ('A' for Active; 'I' for Inactive)
ROOT
ATOM      1  C2' OXE d   1       1.311   2.055   0.414  0.00  0.00     0.078 C 
ATOM      2  C1' OXE d   1       1.081   4.808  -0.084  0.00  0.00     0.078 C 
ATOM      3  C1  OXE d   1       0.242   3.870  -0.916  0.00  0.00    -0.078 A 
ATOM      4  C2  OXE d   1       0.396   2.522  -0.698  0.00  0.00    -0.078 A 
ATOM      5  C3  OXE d   1      -0.394   1.616  -1.400  0.00  0.00     0.003 A 
ATOM      6  C4  OXE d   1      -1.230   2.056  -2.433  0.00  0.00    -0.002 A 
ATOM      7  C5  OXE d   1      -1.372   3.422  -2.698  0.00  0.00    -0.002 A 
ATOM      8  C6  OXE d   1      -0.676   4.343  -1.922  0.00  0.00     0.003 A 
ENDROOT
TORSDOF 0
ENDMDL
