MODEL 1
REMARK minimizedAffinity 14.7210169
REMARK minimizedRMSD -1
REMARK  0 active torsions:
REMARK  status: ('A' for Active; 'I' for Inactive)
ROOT
ATOM      1  C2' OXE d   1       1.867  -1.203   1.373  0.00  0.00     0.078 C 
ATOM      2  C1' OXE d   1       0.953  -3.852   1.208  0.00  0.00     0.078 C 
ATOM      3  C1  OXE d   1       0.015  -2.818   1.778  0.00  0.00    -0.078 A 
ATOM      4  C2  OXE d   1       0.487  -1.534   1.898  0.00  0.00    -0.078 A 
ATOM      5  C3  OXE d   1      -0.356  -0.530   2.367  0.00  0.00     0.003 A 
ATOM      6  C4  OXE d   1      -1.628  -0.846   2.860  0.00  0.00    -0.002 A 
ATOM      7  C5  OXE d   1      -2.114  -2.156   2.784  0.00  0.00    -0.002 A 
ATOM      8  C6  OXE d   1      -1.323  -3.143   2.208  0.00  0.00     0.003 A 
ENDROOT
TORSDOF 0
ENDMDL
