MODEL 1
REMARK minimizedAffinity 7.23735619
REMARK minimizedRMSD -1
REMARK  0 active torsions:
REMARK  status: ('A' for Active; 'I' for Inactive)
ROOT
ATOM      1  C2' OXE d   1      -2.967  -3.250   3.487  0.00  0.00     0.078 C 
ATOM      2  C1' OXE d   1      -3.415  -5.981   3.016  0.00  0.00     0.078 C 
ATOM      3  C1  OXE d   1      -4.264  -5.298   4.059  0.00  0.00    -0.078 A 
ATOM      4  C2  OXE d   1      -4.006  -3.973   4.316  0.00  0.00    -0.078 A 
ATOM      5  C3  OXE d   1      -4.796  -3.282   5.230  0.00  0.00     0.003 A 
ATOM      6  C4  OXE d   1      -5.749  -3.961   6.000  0.00  0.00    -0.002 A 
ATOM      7  C5  OXE d   1      -6.000  -5.320   5.782  0.00  0.00    -0.002 A 
ATOM      8  C6  OXE d   1      -5.297  -5.992   4.788  0.00  0.00     0.003 A 
ENDROOT
TORSDOF 0
ENDMDL
