MODEL 1
REMARK minimizedAffinity 11.1168146
REMARK minimizedRMSD -1
REMARK  0 active torsions:
REMARK  status: ('A' for Active; 'I' for Inactive)
ROOT
ATOM      1  C2' OXE d   1       1.718  -0.101   1.814  0.00  0.00     0.078 C 
ATOM      2  C1' OXE d   1       0.419  -0.313   4.293  0.00  0.00     0.078 C 
ATOM      3  C1  OXE d   1      -0.216  -0.992   3.106  0.00  0.00    -0.078 A 
ATOM      4  C2  OXE d   1       0.402  -0.844   1.888  0.00  0.00    -0.078 A 
ATOM      5  C3  OXE d   1      -0.112  -1.496   0.770  0.00  0.00     0.003 A 
ATOM      6  C4  OXE d   1      -1.336  -2.173   0.845  0.00  0.00    -0.002 A 
ATOM      7  C5  OXE d   1      -2.002  -2.302   2.068  0.00  0.00    -0.002 A 
ATOM      8  C6  OXE d   1      -1.435  -1.755   3.214  0.00  0.00     0.003 A 
ENDROOT
TORSDOF 0
ENDMDL
