MODEL 1
REMARK minimizedAffinity 17.6470604
REMARK minimizedRMSD -1
REMARK  0 active torsions:
REMARK  status: ('A' for Active; 'I' for Inactive)
ROOT
ATOM      1  C2' OXE d   1       3.185  -1.310   0.538  0.00  0.00     0.078 C 
ATOM      2  C1' OXE d   1       3.836   1.420   0.537  0.00  0.00     0.078 C 
ATOM      3  C1  OXE d   1       4.325   0.580  -0.616  0.00  0.00    -0.078 A 
ATOM      4  C2  OXE d   1       4.041  -0.764  -0.584  0.00  0.00    -0.078 A 
ATOM      5  C3  OXE d   1       4.421  -1.575  -1.650  0.00  0.00     0.003 A 
ATOM      6  C4  OXE d   1       5.221  -1.064  -2.679  0.00  0.00    -0.002 A 
ATOM      7  C5  OXE d   1       5.555   0.294  -2.711  0.00  0.00    -0.002 A 
ATOM      8  C6  OXE d   1       5.080   1.136  -1.712  0.00  0.00     0.003 A 
ENDROOT
TORSDOF 0
ENDMDL
