MODEL 1
REMARK minimizedAffinity 14.285346
REMARK minimizedRMSD -1
REMARK  0 active torsions:
REMARK  status: ('A' for Active; 'I' for Inactive)
ROOT
ATOM      1  C2' OXE d   1       1.638  -3.726   0.384  0.00  0.00     0.078 C 
ATOM      2  C1' OXE d   1       0.482  -4.746   2.730  0.00  0.00     0.078 C 
ATOM      3  C1  OXE d   1       0.266  -3.287   2.416  0.00  0.00    -0.078 A 
ATOM      4  C2  OXE d   1       0.874  -2.785   1.290  0.00  0.00    -0.078 A 
ATOM      5  C3  OXE d   1       0.662  -1.459   0.925  0.00  0.00     0.003 A 
ATOM      6  C4  OXE d   1      -0.037  -0.593   1.775  0.00  0.00    -0.002 A 
ATOM      7  C5  OXE d   1      -0.631  -1.074   2.946  0.00  0.00    -0.002 A 
ATOM      8  C6  OXE d   1      -0.525  -2.425   3.259  0.00  0.00     0.003 A 
ENDROOT
TORSDOF 0
ENDMDL
