MODEL 1
REMARK minimizedAffinity 13.6175346
REMARK minimizedRMSD -1
REMARK  0 active torsions:
REMARK  status: ('A' for Active; 'I' for Inactive)
ROOT
ATOM      1  C2' OXE d   1      -3.140  -3.362   0.216  0.00  0.00     0.078 C 
ATOM      2  C1' OXE d   1      -3.741  -3.011   2.936  0.00  0.00     0.078 C 
ATOM      3  C1  OXE d   1      -2.393  -2.545   2.447  0.00  0.00    -0.078 A 
ATOM      4  C2  OXE d   1      -2.089  -2.763   1.125  0.00  0.00    -0.078 A 
ATOM      5  C3  OXE d   1      -0.880  -2.304   0.611  0.00  0.00     0.003 A 
ATOM      6  C4  OXE d   1       0.091  -1.760   1.460  0.00  0.00    -0.002 A 
ATOM      7  C5  OXE d   1      -0.182  -1.566   2.818  0.00  0.00    -0.002 A 
ATOM      8  C6  OXE d   1      -1.433  -1.913   3.318  0.00  0.00     0.003 A 
ENDROOT
TORSDOF 0
ENDMDL
