MODEL 1
REMARK minimizedAffinity 11.8707161
REMARK minimizedRMSD -1
REMARK  0 active torsions:
REMARK  status: ('A' for Active; 'I' for Inactive)
ROOT
ATOM      1  C2' OXE d   1       2.531  -2.469  -0.004  0.00  0.00     0.078 C 
ATOM      2  C1' OXE d   1       2.848   0.141   0.981  0.00  0.00     0.078 C 
ATOM      3  C1  OXE d   1       1.660  -0.653   1.463  0.00  0.00    -0.078 A 
ATOM      4  C2  OXE d   1       1.487  -1.912   0.941  0.00  0.00    -0.078 A 
ATOM      5  C3  OXE d   1       0.438  -2.708   1.393  0.00  0.00     0.003 A 
ATOM      6  C4  OXE d   1      -0.528  -2.182   2.259  0.00  0.00    -0.002 A 
ATOM      7  C5  OXE d   1      -0.393  -0.888   2.772  0.00  0.00    -0.002 A 
ATOM      8  C6  OXE d   1       0.716  -0.127   2.418  0.00  0.00     0.003 A 
ENDROOT
TORSDOF 0
ENDMDL
