MODEL 1
REMARK minimizedAffinity 12.9435301
REMARK minimizedRMSD -1
REMARK  0 active torsions:
REMARK  status: ('A' for Active; 'I' for Inactive)
ROOT
ATOM      1  C2' OXE d   1      -0.884   3.261  -3.241  0.00  0.00     0.078 C 
ATOM      2  C1' OXE d   1      -0.879   6.000  -2.628  0.00  0.00     0.078 C 
ATOM      3  C1  OXE d   1      -2.166   5.238  -2.434  0.00  0.00    -0.078 A 
ATOM      4  C2  OXE d   1      -2.172   3.908  -2.781  0.00  0.00    -0.078 A 
ATOM      5  C3  OXE d   1      -3.317   3.146  -2.571  0.00  0.00     0.003 A 
ATOM      6  C4  OXE d   1      -4.508   3.754  -2.155  0.00  0.00    -0.002 A 
ATOM      7  C5  OXE d   1      -4.534   5.116  -1.834  0.00  0.00    -0.002 A 
ATOM      8  C6  OXE d   1      -3.364   5.861  -1.928  0.00  0.00     0.003 A 
ENDROOT
TORSDOF 0
ENDMDL
