MODEL 1
REMARK minimizedAffinity 13.4062977
REMARK minimizedRMSD -1
REMARK  0 active torsions:
REMARK  status: ('A' for Active; 'I' for Inactive)
ROOT
ATOM      1  C2' OXE d   1       3.377  -0.361   0.064  0.00  0.00     0.078 C 
ATOM      2  C1' OXE d   1       4.367   0.028  -2.534  0.00  0.00     0.078 C 
ATOM      3  C1  OXE d   1       3.207   0.883  -2.088  0.00  0.00    -0.078 A 
ATOM      4  C2  OXE d   1       2.699   0.654  -0.832  0.00  0.00    -0.078 A 
ATOM      5  C3  OXE d   1       1.665   1.452  -0.350  0.00  0.00     0.003 A 
ATOM      6  C4  OXE d   1       1.038   2.381  -1.189  0.00  0.00    -0.002 A 
ATOM      7  C5  OXE d   1       1.514   2.602  -2.485  0.00  0.00    -0.002 A 
ATOM      8  C6  OXE d   1       2.623   1.893  -2.934  0.00  0.00     0.003 A 
ENDROOT
TORSDOF 0
ENDMDL
