MODEL 1
REMARK minimizedAffinity 10.4824152
REMARK minimizedRMSD -1
REMARK  0 active torsions:
REMARK  status: ('A' for Active; 'I' for Inactive)
ROOT
ATOM      1  C2' OXE d   1      -3.632   4.508  -1.270  0.00  0.00     0.078 C 
ATOM      2  C1' OXE d   1      -3.756   2.360  -3.072  0.00  0.00     0.078 C 
ATOM      3  C1  OXE d   1      -3.055   3.617  -3.523  0.00  0.00    -0.078 A 
ATOM      4  C2  OXE d   1      -3.041   4.680  -2.652  0.00  0.00    -0.078 A 
ATOM      5  C3  OXE d   1      -2.361   5.844  -2.997  0.00  0.00     0.003 A 
ATOM      6  C4  OXE d   1      -1.825   5.998  -4.281  0.00  0.00    -0.002 A 
ATOM      7  C5  OXE d   1      -1.864   4.943  -5.198  0.00  0.00    -0.002 A 
ATOM      8  C6  OXE d   1      -2.437   3.733  -4.821  0.00  0.00     0.003 A 
ENDROOT
TORSDOF 0
ENDMDL
