MODEL 1
REMARK minimizedAffinity 16.4722462
REMARK minimizedRMSD -1
REMARK  0 active torsions:
REMARK  status: ('A' for Active; 'I' for Inactive)
ROOT
ATOM      1  C2' OXE d   1      -2.792   3.623  -5.969  0.00  0.00     0.078 C 
ATOM      2  C1' OXE d   1      -1.305   5.989  -5.704  0.00  0.00     0.078 C 
ATOM      3  C1  OXE d   1      -1.918   5.401  -4.458  0.00  0.00    -0.078 A 
ATOM      4  C2  OXE d   1      -2.683   4.269  -4.604  0.00  0.00    -0.078 A 
ATOM      5  C3  OXE d   1      -3.226   3.654  -3.479  0.00  0.00     0.003 A 
ATOM      6  C4  OXE d   1      -3.129   4.263  -2.222  0.00  0.00    -0.002 A 
ATOM      7  C5  OXE d   1      -2.387   5.438  -2.058  0.00  0.00    -0.002 A 
ATOM      8  C6  OXE d   1      -1.741   5.995  -3.156  0.00  0.00     0.003 A 
ENDROOT
TORSDOF 0
ENDMDL
