MODEL 1
REMARK minimizedAffinity 6.10425997
REMARK minimizedRMSD -1
REMARK  0 active torsions:
REMARK  status: ('A' for Active; 'I' for Inactive)
ROOT
ATOM      1  C2' OXE d   1      -2.796  -2.988   2.057  0.00  0.00     0.078 C 
ATOM      2  C1' OXE d   1      -3.813  -4.710   0.087  0.00  0.00     0.078 C 
ATOM      3  C1  OXE d   1      -4.323  -4.875   1.497  0.00  0.00    -0.078 A 
ATOM      4  C2  OXE d   1      -3.786  -4.059   2.463  0.00  0.00    -0.078 A 
ATOM      5  C3  OXE d   1      -4.260  -4.132   3.770  0.00  0.00     0.003 A 
ATOM      6  C4  OXE d   1      -5.168  -5.132   4.139  0.00  0.00    -0.002 A 
ATOM      7  C5  OXE d   1      -5.698  -5.999   3.178  0.00  0.00    -0.002 A 
ATOM      8  C6  OXE d   1      -5.319  -5.857   1.848  0.00  0.00     0.003 A 
ENDROOT
TORSDOF 0
ENDMDL
