MODEL 1
REMARK minimizedAffinity 6.86952782
REMARK minimizedRMSD -1
REMARK  0 active torsions:
REMARK  status: ('A' for Active; 'I' for Inactive)
ROOT
ATOM      1  C2' OXE d   1      -3.500  -3.789   3.810  0.00  0.00     0.078 C 
ATOM      2  C1' OXE d   1      -2.303  -5.968   2.505  0.00  0.00     0.078 C 
ATOM      3  C1  OXE d   1      -3.591  -5.427   1.935  0.00  0.00    -0.078 A 
ATOM      4  C2  OXE d   1      -4.194  -4.391   2.607  0.00  0.00    -0.078 A 
ATOM      5  C3  OXE d   1      -5.354  -3.819   2.094  0.00  0.00     0.003 A 
ATOM      6  C4  OXE d   1      -5.995  -4.388   0.987  0.00  0.00    -0.002 A 
ATOM      7  C5  OXE d   1      -5.419  -5.469   0.311  0.00  0.00    -0.002 A 
ATOM      8  C6  OXE d   1      -4.198  -5.972   0.746  0.00  0.00     0.003 A 
ENDROOT
TORSDOF 0
ENDMDL
