MODEL 1
REMARK minimizedAffinity -0.162536338
REMARK minimizedRMSD -1
REMARK  1 active torsions:
REMARK  status: ('A' for Active; 'I' for Inactive)
REMARK    1  A    between atoms: C1_2  and  C2_3 
ROOT
ATOM      1  C2  UNL d   1       5.572   2.313   4.924  0.00  0.00    -0.077 A 
ATOM      2  C3  UNL d   1       5.926   1.485   5.999  0.00  0.00     0.002 A 
ATOM      3  C4  UNL d   1       5.568   0.135   5.999  0.00  0.00     0.002 A 
ATOM      4  C5  UNL d   1       4.859  -0.399   4.925  0.00  0.00    -0.004 A 
ATOM      5  C6  UNL d   1       4.501   0.416   3.852  0.00  0.00     0.002 A 
ATOM      6  C7  UNL d   1       4.857   1.765   3.851  0.00  0.00     0.002 A 
ENDROOT
BRANCH   1   7
ATOM      7  C1  UNL d   1       5.999   3.757   4.900  0.00  0.00     0.055 C 
ATOM      8  C   UNL d   1       5.846   4.356   3.509  0.00  0.00     0.019 C 
ENDBRANCH   1   7
TORSDOF 1
ENDMDL
