MODEL 1
REMARK minimizedAffinity -3.76347947
REMARK minimizedRMSD -1
REMARK  1 active torsions:
REMARK  status: ('A' for Active; 'I' for Inactive)
REMARK    1  A    between atoms: C1_2  and  C2_3 
ROOT
ATOM      1  C2  UNL d   1      -0.301   0.166  -0.649  0.00  0.00    -0.077 A 
ATOM      2  C3  UNL d   1       0.752   0.572  -1.479  0.00  0.00     0.002 A 
ATOM      3  C4  UNL d   1       1.782  -0.315  -1.799  0.00  0.00     0.002 A 
ATOM      4  C5  UNL d   1       1.766  -1.614  -1.297  0.00  0.00    -0.004 A 
ATOM      5  C6  UNL d   1       0.724  -2.027  -0.469  0.00  0.00     0.002 A 
ATOM      6  C7  UNL d   1      -0.306  -1.142  -0.147  0.00  0.00     0.002 A 
ENDROOT
BRANCH   1   7
ATOM      7  C1  UNL d   1      -1.438   1.105  -0.342  0.00  0.00     0.055 C 
ATOM      8  C   UNL d   1      -1.943   0.917   1.081  0.00  0.00     0.019 C 
ENDBRANCH   1   7
TORSDOF 1
ENDMDL
