MODEL 1
REMARK minimizedAffinity -3.45690227
REMARK minimizedRMSD -1
REMARK  1 active torsions:
REMARK  status: ('A' for Active; 'I' for Inactive)
REMARK    1  A    between atoms: C1_2  and  C2_3 
ROOT
ATOM      1  C2  UNL d   1      -2.480  -0.046   2.814  0.00  0.00    -0.077 A 
ATOM      2  C3  UNL d   1      -2.277  -0.337   1.457  0.00  0.00     0.002 A 
ATOM      3  C4  UNL d   1      -1.800   0.646   0.588  0.00  0.00     0.002 A 
ATOM      4  C5  UNL d   1      -1.518   1.924   1.066  0.00  0.00    -0.004 A 
ATOM      5  C6  UNL d   1      -1.718   2.224   2.413  0.00  0.00     0.002 A 
ATOM      6  C7  UNL d   1      -2.196   1.243   3.283  0.00  0.00     0.002 A 
ENDROOT
BRANCH   1   7
ATOM      7  C1  UNL d   1      -2.947  -1.119   3.763  0.00  0.00     0.055 C 
ATOM      8  C   UNL d   1      -3.651  -2.246   3.021  0.00  0.00     0.019 C 
ENDBRANCH   1   7
TORSDOF 1
ENDMDL
