MODEL 1
REMARK minimizedAffinity -5.18745947
REMARK minimizedRMSD -1
REMARK  1 active torsions:
REMARK  status: ('A' for Active; 'I' for Inactive)
REMARK    1  A    between atoms: C1_2  and  C2_3 
ROOT
ATOM      1  C2  UNL d   1      -0.120  -0.414   0.231  0.00  0.00    -0.077 A 
ATOM      2  C3  UNL d   1       0.445   0.147  -0.923  0.00  0.00     0.002 A 
ATOM      3  C4  UNL d   1       1.460  -0.522  -1.610  0.00  0.00     0.002 A 
ATOM      4  C5  UNL d   1       1.915  -1.757  -1.154  0.00  0.00    -0.004 A 
ATOM      5  C6  UNL d   1       1.361  -2.323  -0.007  0.00  0.00     0.002 A 
ATOM      6  C7  UNL d   1       0.348  -1.655   0.682  0.00  0.00     0.002 A 
ENDROOT
BRANCH   1   7
ATOM      7  C1  UNL d   1      -1.248   0.283   0.945  0.00  0.00     0.055 C 
ATOM      8  C   UNL d   1      -1.301  -0.113   2.414  0.00  0.00     0.019 C 
ENDBRANCH   1   7
TORSDOF 1
ENDMDL
