MODEL 1
REMARK minimizedAffinity -5.10293961
REMARK minimizedRMSD -1
REMARK  1 active torsions:
REMARK  status: ('A' for Active; 'I' for Inactive)
REMARK    1  A    between atoms: C1_2  and  C2_3 
ROOT
ATOM      1  C2  UNL d   1       0.719  -0.541  -0.287  0.00  0.00    -0.077 A 
ATOM      2  C3  UNL d   1       1.685   0.469  -0.174  0.00  0.00     0.002 A 
ATOM      3  C4  UNL d   1       2.918   0.342  -0.815  0.00  0.00     0.002 A 
ATOM      4  C5  UNL d   1       3.196  -0.792  -1.576  0.00  0.00    -0.004 A 
ATOM      5  C6  UNL d   1       2.244  -1.803  -1.692  0.00  0.00     0.002 A 
ATOM      6  C7  UNL d   1       1.011  -1.678  -1.051  0.00  0.00     0.002 A 
ENDROOT
BRANCH   1   7
ATOM      7  C1  UNL d   1      -0.630  -0.383   0.363  0.00  0.00     0.055 C 
ATOM      8  C   UNL d   1      -1.298   0.919  -0.056  0.00  0.00     0.019 C 
ENDBRANCH   1   7
TORSDOF 1
ENDMDL
