MODEL 1
REMARK minimizedAffinity -5.66788483
REMARK minimizedRMSD -1
REMARK  1 active torsions:
REMARK  status: ('A' for Active; 'I' for Inactive)
REMARK    1  A    between atoms: C1_2  and  C2_3 
ROOT
ATOM      1  C2  UNL d   1       1.753   0.896  -1.707  0.00  0.00    -0.077 A 
ATOM      2  C3  UNL d   1       2.508  -0.258  -1.961  0.00  0.00     0.002 A 
ATOM      3  C4  UNL d   1       2.086  -1.498  -1.477  0.00  0.00     0.002 A 
ATOM      4  C5  UNL d   1       0.907  -1.597  -0.741  0.00  0.00    -0.004 A 
ATOM      5  C6  UNL d   1       0.151  -0.455  -0.482  0.00  0.00     0.002 A 
ATOM      6  C7  UNL d   1       0.571   0.786  -0.964  0.00  0.00     0.002 A 
ENDROOT
BRANCH   1   7
ATOM      7  C1  UNL d   1       2.179   2.226  -2.270  0.00  0.00     0.055 C 
ATOM      8  C   UNL d   1       0.978   3.062  -2.689  0.00  0.00     0.019 C 
ENDBRANCH   1   7
TORSDOF 1
ENDMDL
