MODEL 1
REMARK minimizedAffinity -4.78446817
REMARK minimizedRMSD -1
REMARK  1 active torsions:
REMARK  status: ('A' for Active; 'I' for Inactive)
REMARK    1  A    between atoms: C1_2  and  C2_3 
ROOT
ATOM      1  C2  UNL d   1      -2.441  -0.476   2.303  0.00  0.00    -0.077 A 
ATOM      2  C3  UNL d   1      -1.439  -0.522   1.323  0.00  0.00     0.002 A 
ATOM      3  C4  UNL d   1      -0.849   0.655   0.861  0.00  0.00     0.002 A 
ATOM      4  C5  UNL d   1      -1.250   1.887   1.375  0.00  0.00    -0.004 A 
ATOM      5  C6  UNL d   1      -2.247   1.943   2.348  0.00  0.00     0.002 A 
ATOM      6  C7  UNL d   1      -2.839   0.767   2.811  0.00  0.00     0.002 A 
ENDROOT
BRANCH   1   7
ATOM      7  C1  UNL d   1      -3.044  -1.748   2.839  0.00  0.00     0.055 C 
ATOM      8  C   UNL d   1      -2.743  -1.922   4.320  0.00  0.00     0.019 C 
ENDBRANCH   1   7
TORSDOF 1
ENDMDL
