MODEL 1
REMARK minimizedAffinity -6.02748537
REMARK minimizedRMSD -1
REMARK  1 active torsions:
REMARK  status: ('A' for Active; 'I' for Inactive)
REMARK    1  A    between atoms: C1_2  and  C2_3 
ROOT
ATOM      1  C2  UNL d   1      -3.170  -0.708   3.130  0.00  0.00    -0.077 A 
ATOM      2  C3  UNL d   1      -2.242  -0.639   2.082  0.00  0.00     0.002 A 
ATOM      3  C4  UNL d   1      -1.788   0.598   1.621  0.00  0.00     0.002 A 
ATOM      4  C5  UNL d   1      -2.253   1.774   2.204  0.00  0.00    -0.004 A 
ATOM      5  C6  UNL d   1      -3.178   1.716   3.246  0.00  0.00     0.002 A 
ATOM      6  C7  UNL d   1      -3.634   0.481   3.707  0.00  0.00     0.002 A 
ENDROOT
BRANCH   1   7
ATOM      7  C1  UNL d   1      -3.624  -2.043   3.662  0.00  0.00     0.055 C 
ATOM      8  C   UNL d   1      -5.015  -1.952   4.272  0.00  0.00     0.019 C 
ENDBRANCH   1   7
TORSDOF 1
ENDMDL
