MODEL 1
REMARK minimizedAffinity -6.10619926
REMARK minimizedRMSD -1
REMARK  1 active torsions:
REMARK  status: ('A' for Active; 'I' for Inactive)
REMARK    1  A    between atoms: C1_2  and  C2_3 
ROOT
ATOM      1  C2  UNL d   1       1.330  -0.095  -1.196  0.00  0.00    -0.077 A 
ATOM      2  C3  UNL d   1       2.575  -0.729  -1.082  0.00  0.00     0.002 A 
ATOM      3  C4  UNL d   1       3.694  -0.210  -1.735  0.00  0.00     0.002 A 
ATOM      4  C5  UNL d   1       3.581   0.948  -2.503  0.00  0.00    -0.004 A 
ATOM      5  C6  UNL d   1       2.347   1.585  -2.624  0.00  0.00     0.002 A 
ATOM      6  C7  UNL d   1       1.226   1.067  -1.972  0.00  0.00     0.002 A 
ENDROOT
BRANCH   1   7
ATOM      7  C1  UNL d   1       0.132  -0.625  -0.452  0.00  0.00     0.055 C 
ATOM      8  C   UNL d   1      -0.836   0.493  -0.093  0.00  0.00     0.019 C 
ENDBRANCH   1   7
TORSDOF 1
ENDMDL
