MODEL 1
REMARK minimizedAffinity 0.574060321
REMARK minimizedRMSD -1
REMARK  1 active torsions:
REMARK  status: ('A' for Active; 'I' for Inactive)
REMARK    1  A    between atoms: C1_2  and  C2_3 
ROOT
ATOM      1  C2  UNL d   1      -0.546  -0.495  -0.439  0.00  0.00    -0.077 A 
ATOM      2  C3  UNL d   1      -0.287   0.236  -1.606  0.00  0.00     0.002 A 
ATOM      3  C4  UNL d   1       0.783  -0.110  -2.433  0.00  0.00     0.002 A 
ATOM      4  C5  UNL d   1       1.599  -1.191  -2.105  0.00  0.00    -0.004 A 
ATOM      5  C6  UNL d   1       1.350  -1.924  -0.945  0.00  0.00     0.002 A 
ATOM      6  C7  UNL d   1       0.282  -1.578  -0.116  0.00  0.00     0.002 A 
ENDROOT
BRANCH   1   7
ATOM      7  C1  UNL d   1      -1.729  -0.154   0.429  0.00  0.00     0.055 C 
ATOM      8  C   UNL d   1      -1.595  -0.769   1.814  0.00  0.00     0.019 C 
ENDBRANCH   1   7
TORSDOF 1
ENDMDL
