MODEL 1
REMARK minimizedAffinity -5.54618883
REMARK minimizedRMSD -1
REMARK  1 active torsions:
REMARK  status: ('A' for Active; 'I' for Inactive)
REMARK    1  A    between atoms: C1_2  and  C2_3 
ROOT
ATOM      1  C2  UNL d   1      -2.291  -0.566   2.876  0.00  0.00    -0.077 A 
ATOM      2  C3  UNL d   1      -2.259   0.587   3.673  0.00  0.00     0.002 A 
ATOM      3  C4  UNL d   1      -1.863   1.810   3.129  0.00  0.00     0.002 A 
ATOM      4  C5  UNL d   1      -1.500   1.893   1.786  0.00  0.00    -0.004 A 
ATOM      5  C6  UNL d   1      -1.526   0.751   0.986  0.00  0.00     0.002 A 
ATOM      6  C7  UNL d   1      -1.921  -0.472   1.529  0.00  0.00     0.002 A 
ENDROOT
BRANCH   1   7
ATOM      7  C1  UNL d   1      -2.765  -1.876   3.448  0.00  0.00     0.055 C 
ATOM      8  C   UNL d   1      -3.965  -1.679   4.363  0.00  0.00     0.019 C 
ENDBRANCH   1   7
TORSDOF 1
ENDMDL
