MODEL 1
REMARK minimizedAffinity 1.06796217
REMARK minimizedRMSD -1
REMARK  0 active torsions:
REMARK  status: ('A' for Active; 'I' for Inactive)
ROOT
ATOM      1  C   UNL d   1       3.361  -5.999  -2.018  0.00  0.00     0.172 C 
ATOM      2  N   UNL d   1       3.062  -5.933  -0.607  0.00  0.00    -0.070 N 
ATOM      3  C1  UNL d   1       1.812  -6.000  -0.052  0.00  0.00    -0.004 A 
ATOM      4  C2  UNL d   1       1.952  -5.901   1.316  0.00  0.00    -0.047 A 
ATOM      5  C3  UNL d   1       3.333  -5.769   1.592  0.00  0.00    -0.047 A 
ATOM      6  C4  UNL d   1       3.998  -5.792   0.384  0.00  0.00    -0.004 A 
ENDROOT
TORSDOF 0
ENDMDL
