MODEL 1
REMARK minimizedAffinity -0.119418651
REMARK minimizedRMSD -1
REMARK  0 active torsions:
REMARK  status: ('A' for Active; 'I' for Inactive)
ROOT
ATOM      1  C   UNL d   1       3.747  -2.403  -2.634  0.00  0.00     0.172 C 
ATOM      2  N   UNL d   1       3.772  -3.844  -2.538  0.00  0.00    -0.070 N 
ATOM      3  C1  UNL d   1       3.420  -4.717  -3.533  0.00  0.00    -0.004 A 
ATOM      4  C2  UNL d   1       3.583  -5.997  -3.049  0.00  0.00    -0.047 A 
ATOM      5  C3  UNL d   1       4.048  -5.890  -1.717  0.00  0.00    -0.047 A 
ATOM      6  C4  UNL d   1       4.156  -4.546  -1.426  0.00  0.00    -0.004 A 
ENDROOT
TORSDOF 0
ENDMDL
