MODEL 1
REMARK minimizedAffinity 0.563146532
REMARK minimizedRMSD -1
REMARK  0 active torsions:
REMARK  status: ('A' for Active; 'I' for Inactive)
ROOT
ATOM      1  C   UNL d   1       2.057  -5.991  -4.092  0.00  0.00     0.172 C 
ATOM      2  N   UNL d   1       2.833  -5.995  -2.874  0.00  0.00    -0.070 N 
ATOM      3  C1  UNL d   1       2.323  -5.996  -1.603  0.00  0.00    -0.004 A 
ATOM      4  C2  UNL d   1       3.384  -5.999  -0.723  0.00  0.00    -0.047 A 
ATOM      5  C3  UNL d   1       4.572  -6.000  -1.492  0.00  0.00    -0.047 A 
ATOM      6  C4  UNL d   1       4.202  -5.997  -2.820  0.00  0.00    -0.004 A 
ENDROOT
TORSDOF 0
ENDMDL
