MODEL 1
REMARK minimizedAffinity -0.311073005
REMARK minimizedRMSD -1
REMARK  0 active torsions:
REMARK  status: ('A' for Active; 'I' for Inactive)
ROOT
ATOM      1  C   UNL d   1       4.114  -5.992  -1.157  0.00  0.00     0.172 C 
ATOM      2  N   UNL d   1       4.080  -5.995  -2.601  0.00  0.00    -0.070 N 
ATOM      3  C1  UNL d   1       2.949  -5.998  -3.373  0.00  0.00    -0.004 A 
ATOM      4  C2  UNL d   1       3.340  -6.000  -4.695  0.00  0.00    -0.047 A 
ATOM      5  C3  UNL d   1       4.755  -5.999  -4.718  0.00  0.00    -0.047 A 
ATOM      6  C4  UNL d   1       5.187  -5.996  -3.408  0.00  0.00    -0.004 A 
ENDROOT
TORSDOF 0
ENDMDL
