MODEL 1
REMARK minimizedAffinity 2.0253036
REMARK minimizedRMSD -1
REMARK  0 active torsions:
REMARK  status: ('A' for Active; 'I' for Inactive)
ROOT
ATOM      1  C   UNL d   1       5.987  -2.326   3.842  0.00  0.00     0.172 C 
ATOM      2  N   UNL d   1       4.546  -2.406   3.813  0.00  0.00    -0.070 N 
ATOM      3  C1  UNL d   1       3.720  -1.655   3.019  0.00  0.00    -0.004 A 
ATOM      4  C2  UNL d   1       2.421  -2.030   3.288  0.00  0.00    -0.047 A 
ATOM      5  C3  UNL d   1       2.468  -3.039   4.278  0.00  0.00    -0.047 A 
ATOM      6  C4  UNL d   1       3.795  -3.253   4.585  0.00  0.00    -0.004 A 
ENDROOT
TORSDOF 0
ENDMDL
