MODEL 1
REMARK minimizedAffinity -1.72504628
REMARK minimizedRMSD -1
REMARK  0 active torsions:
REMARK  status: ('A' for Active; 'I' for Inactive)
ROOT
ATOM      1  C   UNL d   1       3.807  -5.994  -2.356  0.00  0.00     0.172 C 
ATOM      2  N   UNL d   1       3.711  -5.996  -3.797  0.00  0.00    -0.070 N 
ATOM      3  C1  UNL d   1       2.547  -6.000  -4.519  0.00  0.00    -0.004 A 
ATOM      4  C2  UNL d   1       2.880  -6.000  -5.856  0.00  0.00    -0.047 A 
ATOM      5  C3  UNL d   1       4.293  -5.997  -5.941  0.00  0.00    -0.047 A 
ATOM      6  C4  UNL d   1       4.781  -5.995  -4.651  0.00  0.00    -0.004 A 
ENDROOT
TORSDOF 0
ENDMDL
