MODEL 1
REMARK minimizedAffinity 0.840750933
REMARK minimizedRMSD -1
REMARK  0 active torsions:
REMARK  status: ('A' for Active; 'I' for Inactive)
ROOT
ATOM      1  C   UNL d   1       3.139  -6.000  -2.418  0.00  0.00     0.172 C 
ATOM      2  N   UNL d   1       3.043  -5.927  -3.857  0.00  0.00    -0.070 N 
ATOM      3  C1  UNL d   1       1.881  -5.834  -4.576  0.00  0.00    -0.004 A 
ATOM      4  C2  UNL d   1       2.214  -5.787  -5.912  0.00  0.00    -0.047 A 
ATOM      5  C3  UNL d   1       3.625  -5.856  -6.000  0.00  0.00    -0.047 A 
ATOM      6  C4  UNL d   1       4.112  -5.942  -4.713  0.00  0.00    -0.004 A 
ENDROOT
TORSDOF 0
ENDMDL
