MODEL 1
REMARK minimizedAffinity -0.730014503
REMARK minimizedRMSD -1
REMARK  0 active torsions:
REMARK  status: ('A' for Active; 'I' for Inactive)
ROOT
ATOM      1  C   UNL d   1       2.163  -5.982  -4.684  0.00  0.00     0.172 C 
ATOM      2  N   UNL d   1       2.694  -5.988  -3.342  0.00  0.00    -0.070 N 
ATOM      3  C1  UNL d   1       4.023  -5.985  -3.009  0.00  0.00    -0.004 A 
ATOM      4  C2  UNL d   1       4.113  -5.992  -1.634  0.00  0.00    -0.047 A 
ATOM      5  C3  UNL d   1       2.794  -6.000  -1.122  0.00  0.00    -0.047 A 
ATOM      6  C4  UNL d   1       1.935  -5.997  -2.201  0.00  0.00    -0.004 A 
ENDROOT
TORSDOF 0
ENDMDL
