MODEL 1
REMARK minimizedAffinity -1.9218322
REMARK minimizedRMSD -1
REMARK  0 active torsions:
REMARK  status: ('A' for Active; 'I' for Inactive)
ROOT
ATOM      1  C   UNL d   1      -0.379   0.707  -0.265  0.00  0.00     0.172 C 
ATOM      2  N   UNL d   1       0.855   0.040   0.079  0.00  0.00    -0.070 N 
ATOM      3  C1  UNL d   1       2.094   0.346  -0.417  0.00  0.00    -0.004 A 
ATOM      4  C2  UNL d   1       3.003  -0.517   0.155  0.00  0.00    -0.047 A 
ATOM      5  C3  UNL d   1       2.286  -1.372   1.025  0.00  0.00    -0.047 A 
ATOM      6  C4  UNL d   1       0.958  -1.006   0.958  0.00  0.00    -0.004 A 
ENDROOT
TORSDOF 0
ENDMDL
