MODEL 1
REMARK minimizedAffinity -2.77111936
REMARK minimizedRMSD -1
REMARK  0 active torsions:
REMARK  status: ('A' for Active; 'I' for Inactive)
ROOT
ATOM      1  C   UNL d   1      -0.433   0.787  -0.270  0.00  0.00     0.172 C 
ATOM      2  N   UNL d   1       0.557  -0.154   0.197  0.00  0.00    -0.070 N 
ATOM      3  C1  UNL d   1       1.757  -0.418  -0.409  0.00  0.00    -0.004 A 
ATOM      4  C2  UNL d   1       2.409  -1.371   0.343  0.00  0.00    -0.047 A 
ATOM      5  C3  UNL d   1       1.573  -1.692   1.439  0.00  0.00    -0.047 A 
ATOM      6  C4  UNL d   1       0.433  -0.924   1.323  0.00  0.00    -0.004 A 
ENDROOT
TORSDOF 0
ENDMDL
