MODEL 1
REMARK minimizedAffinity -3.05622625
REMARK minimizedRMSD -1
REMARK  0 active torsions:
REMARK  status: ('A' for Active; 'I' for Inactive)
ROOT
ATOM      1  C   UNL d   1      -0.146   1.096  -0.456  0.00  0.00     0.172 C 
ATOM      2  N   UNL d   1       0.771   0.041  -0.091  0.00  0.00    -0.070 N 
ATOM      3  C1  UNL d   1       0.519  -0.960   0.808  0.00  0.00    -0.004 A 
ATOM      4  C2  UNL d   1       1.640  -1.760   0.874  0.00  0.00    -0.047 A 
ATOM      5  C3  UNL d   1       2.598  -1.220  -0.016  0.00  0.00    -0.047 A 
ATOM      6  C4  UNL d   1       2.034  -0.106  -0.600  0.00  0.00    -0.004 A 
ENDROOT
TORSDOF 0
ENDMDL
