MODEL 1
REMARK minimizedAffinity -2.16796136
REMARK minimizedRMSD -1
REMARK  0 active torsions:
REMARK  status: ('A' for Active; 'I' for Inactive)
ROOT
ATOM      1  C   UNL d   1      -0.542   1.155  -0.408  0.00  0.00     0.172 C 
ATOM      2  N   UNL d   1      -1.214   1.260  -1.682  0.00  0.00    -0.070 N 
ATOM      3  C1  UNL d   1      -1.469   0.222  -2.538  0.00  0.00    -0.004 A 
ATOM      4  C2  UNL d   1      -2.124   0.733  -3.637  0.00  0.00    -0.047 A 
ATOM      5  C3  UNL d   1      -2.266   2.127  -3.436  0.00  0.00    -0.047 A 
ATOM      6  C4  UNL d   1      -1.694   2.426  -2.218  0.00  0.00    -0.004 A 
ENDROOT
TORSDOF 0
ENDMDL
