MODEL 1
REMARK minimizedAffinity -2.07703495
REMARK minimizedRMSD -1
REMARK  0 active torsions:
REMARK  status: ('A' for Active; 'I' for Inactive)
ROOT
ATOM      1  C   UNL d   1      -1.317   2.441  -2.075  0.00  0.00     0.172 C 
ATOM      2  N   UNL d   1      -0.769   1.432  -1.200  0.00  0.00    -0.070 N 
ATOM      3  C1  UNL d   1       0.260   0.582  -1.507  0.00  0.00    -0.004 A 
ATOM      4  C2  UNL d   1       0.483  -0.223  -0.411  0.00  0.00    -0.047 A 
ATOM      5  C3  UNL d   1      -0.443   0.156   0.589  0.00  0.00    -0.047 A 
ATOM      6  C4  UNL d   1      -1.206   1.183   0.074  0.00  0.00    -0.004 A 
ENDROOT
TORSDOF 0
ENDMDL
