MODEL 1
REMARK minimizedAffinity -3.28497744
REMARK minimizedRMSD -1
REMARK  0 active torsions:
REMARK  status: ('A' for Active; 'I' for Inactive)
ROOT
ATOM      1  C   UNL d   1       2.991  -1.473   1.868  0.00  0.00     0.172 C 
ATOM      2  N   UNL d   1       1.955  -0.789   1.130  0.00  0.00    -0.070 N 
ATOM      3  C1  UNL d   1       0.621  -1.096   1.155  0.00  0.00    -0.004 A 
ATOM      4  C2  UNL d   1      -0.031  -0.215   0.320  0.00  0.00    -0.047 A 
ATOM      5  C3  UNL d   1       0.945   0.651  -0.227  0.00  0.00    -0.047 A 
ATOM      6  C4  UNL d   1       2.166   0.274   0.291  0.00  0.00    -0.004 A 
ENDROOT
TORSDOF 0
ENDMDL
