MODEL 1
REMARK minimizedAffinity -3.83151031
REMARK minimizedRMSD -1
REMARK  0 active torsions:
REMARK  status: ('A' for Active; 'I' for Inactive)
ROOT
ATOM      1  C   UNL d   1      -2.923   1.660  -3.273  0.00  0.00     0.172 C 
ATOM      2  N   UNL d   1      -1.762   2.460  -2.960  0.00  0.00    -0.070 N 
ATOM      3  C1  UNL d   1      -0.997   2.350  -1.830  0.00  0.00    -0.004 A 
ATOM      4  C2  UNL d   1       0.011   3.286  -1.910  0.00  0.00    -0.047 A 
ATOM      5  C3  UNL d   1      -0.154   3.984  -3.130  0.00  0.00    -0.047 A 
ATOM      6  C4  UNL d   1      -1.259   3.452  -3.760  0.00  0.00    -0.004 A 
ENDROOT
TORSDOF 0
ENDMDL
