MODEL 1
REMARK minimizedAffinity -3.48685622
REMARK minimizedRMSD -1
REMARK  0 active torsions:
REMARK  status: ('A' for Active; 'I' for Inactive)
ROOT
ATOM      1  C   UNL d   1      -0.416   0.982   0.106  0.00  0.00     0.172 C 
ATOM      2  N   UNL d   1       0.572  -0.046   0.336  0.00  0.00    -0.070 N 
ATOM      3  C1  UNL d   1       0.322  -1.293   0.844  0.00  0.00    -0.004 A 
ATOM      4  C2  UNL d   1       1.521  -1.970   0.907  0.00  0.00    -0.047 A 
ATOM      5  C3  UNL d   1       2.525  -1.100   0.422  0.00  0.00    -0.047 A 
ATOM      6  C4  UNL d   1       1.910   0.084   0.075  0.00  0.00    -0.004 A 
ENDROOT
TORSDOF 0
ENDMDL
