MODEL 1
REMARK minimizedAffinity -3.10783362
REMARK minimizedRMSD -1
REMARK  0 active torsions:
REMARK  status: ('A' for Active; 'I' for Inactive)
ROOT
ATOM      1  C   UNL d   1       0.023   1.136  -0.311  0.00  0.00     0.172 C 
ATOM      2  N   UNL d   1      -0.862   0.932  -1.434  0.00  0.00    -0.070 N 
ATOM      3  C1  UNL d   1      -1.020   1.788  -2.491  0.00  0.00    -0.004 A 
ATOM      4  C2  UNL d   1      -1.949   1.235  -3.346  0.00  0.00    -0.047 A 
ATOM      5  C3  UNL d   1      -2.364   0.005  -2.783  0.00  0.00    -0.047 A 
ATOM      6  C4  UNL d   1      -1.675  -0.158  -1.599  0.00  0.00    -0.004 A 
ENDROOT
TORSDOF 0
ENDMDL
