MODEL 1
REMARK minimizedAffinity -2.94759011
REMARK minimizedRMSD -1
REMARK  0 active torsions:
REMARK  status: ('A' for Active; 'I' for Inactive)
ROOT
ATOM      1  C   UNL d   1      -0.460   0.478  -0.254  0.00  0.00     0.172 C 
ATOM      2  N   UNL d   1       0.327  -0.624   0.248  0.00  0.00    -0.070 N 
ATOM      3  C1  UNL d   1      -0.162  -1.721   0.905  0.00  0.00    -0.004 A 
ATOM      4  C2  UNL d   1       0.904  -2.537   1.216  0.00  0.00    -0.047 A 
ATOM      5  C3  UNL d   1       2.074  -1.908   0.730  0.00  0.00    -0.047 A 
ATOM      6  C4  UNL d   1       1.688  -0.726   0.135  0.00  0.00    -0.004 A 
ENDROOT
TORSDOF 0
ENDMDL
