MODEL 1
REMARK minimizedAffinity -3.10948038
REMARK minimizedRMSD -1
REMARK  0 active torsions:
REMARK  status: ('A' for Active; 'I' for Inactive)
ROOT
ATOM      1  C   UNL d   1       0.652  -2.770   1.136  0.00  0.00     0.172 C 
ATOM      2  N   UNL d   1       0.067  -1.475   0.880  0.00  0.00    -0.070 N 
ATOM      3  C1  UNL d   1       0.494  -0.578  -0.063  0.00  0.00    -0.004 A 
ATOM      4  C2  UNL d   1      -0.322   0.529   0.007  0.00  0.00    -0.047 A 
ATOM      5  C3  UNL d   1      -1.273   0.291   1.028  0.00  0.00    -0.047 A 
ATOM      6  C4  UNL d   1      -1.009  -0.957   1.551  0.00  0.00    -0.004 A 
ENDROOT
TORSDOF 0
ENDMDL
