MODEL 1
REMARK minimizedAffinity -3.13963318
REMARK minimizedRMSD -1
REMARK  0 active torsions:
REMARK  status: ('A' for Active; 'I' for Inactive)
ROOT
ATOM      1  C   UNL d   1      -2.075   1.422  -2.454  0.00  0.00     0.172 C 
ATOM      2  N   UNL d   1      -1.175   0.934  -1.437  0.00  0.00    -0.070 N 
ATOM      3  C1  UNL d   1      -0.578  -0.299  -1.424  0.00  0.00    -0.004 A 
ATOM      4  C2  UNL d   1       0.203  -0.378  -0.291  0.00  0.00    -0.047 A 
ATOM      5  C3  UNL d   1       0.070   0.849   0.401  0.00  0.00    -0.047 A 
ATOM      6  C4  UNL d   1      -0.788   1.643  -0.330  0.00  0.00    -0.004 A 
ENDROOT
TORSDOF 0
ENDMDL
