MODEL 1
REMARK minimizedAffinity -0.991683006
REMARK minimizedRMSD -1
REMARK  0 active torsions:
REMARK  status: ('A' for Active; 'I' for Inactive)
ROOT
ATOM      1  C   UNL d   1       3.951  -1.436   1.980  0.00  0.00     0.172 C 
ATOM      2  N   UNL d   1       2.593  -1.735   1.591  0.00  0.00    -0.070 N 
ATOM      3  C1  UNL d   1       1.993  -2.963   1.666  0.00  0.00    -0.004 A 
ATOM      4  C2  UNL d   1       0.702  -2.831   1.203  0.00  0.00    -0.047 A 
ATOM      5  C3  UNL d   1       0.520  -1.477   0.836  0.00  0.00    -0.047 A 
ATOM      6  C4  UNL d   1       1.706  -0.820   1.087  0.00  0.00    -0.004 A 
ENDROOT
TORSDOF 0
ENDMDL
