MODEL 1
REMARK minimizedAffinity -3.3655057
REMARK minimizedRMSD -1
REMARK  0 active torsions:
REMARK  status: ('A' for Active; 'I' for Inactive)
ROOT
ATOM      1  C   UNL d   1      -0.315   0.845  -0.430  0.00  0.00     0.172 C 
ATOM      2  N   UNL d   1       0.313  -0.243   0.281  0.00  0.00    -0.070 N 
ATOM      3  C1  UNL d   1       1.650  -0.539   0.269  0.00  0.00    -0.004 A 
ATOM      4  C2  UNL d   1       1.845  -1.644   1.070  0.00  0.00    -0.047 A 
ATOM      5  C3  UNL d   1       0.581  -2.026   1.580  0.00  0.00    -0.047 A 
ATOM      6  C4  UNL d   1      -0.349  -1.142   1.076  0.00  0.00    -0.004 A 
ENDROOT
TORSDOF 0
ENDMDL
