MODEL 1
REMARK minimizedAffinity -2.31093168
REMARK minimizedRMSD -1
REMARK  0 active torsions:
REMARK  status: ('A' for Active; 'I' for Inactive)
ROOT
ATOM      1  C   UNL d   1       1.334   1.214  -0.806  0.00  0.00     0.172 C 
ATOM      2  N   UNL d   1       0.286   0.684   0.034  0.00  0.00    -0.070 N 
ATOM      3  C1  UNL d   1      -0.786   1.388   0.512  0.00  0.00    -0.004 A 
ATOM      4  C2  UNL d   1      -1.552   0.528   1.270  0.00  0.00    -0.047 A 
ATOM      5  C3  UNL d   1      -0.917  -0.736   1.248  0.00  0.00    -0.047 A 
ATOM      6  C4  UNL d   1       0.219  -0.611   0.475  0.00  0.00    -0.004 A 
ENDROOT
TORSDOF 0
ENDMDL
