MODEL 1
REMARK minimizedAffinity -3.51522422
REMARK minimizedRMSD -1
REMARK  0 active torsions:
REMARK  status: ('A' for Active; 'I' for Inactive)
ROOT
ATOM      1  C   UNL d   1      -0.383   0.734   0.202  0.00  0.00     0.172 C 
ATOM      2  N   UNL d   1       0.305  -0.457   0.639  0.00  0.00    -0.070 N 
ATOM      3  C1  UNL d   1       1.663  -0.634   0.656  0.00  0.00    -0.004 A 
ATOM      4  C2  UNL d   1       1.917  -1.900   1.139  0.00  0.00    -0.047 A 
ATOM      5  C3  UNL d   1       0.669  -2.505   1.421  0.00  0.00    -0.047 A 
ATOM      6  C4  UNL d   1      -0.312  -1.590   1.103  0.00  0.00    -0.004 A 
ENDROOT
TORSDOF 0
ENDMDL
