MODEL 1
REMARK minimizedAffinity -2.10291147
REMARK minimizedRMSD -1
REMARK  0 active torsions:
REMARK  status: ('A' for Active; 'I' for Inactive)
ROOT
ATOM      1  C   UNL d   1       0.718  -2.039   0.845  0.00  0.00     0.172 C 
ATOM      2  N   UNL d   1       0.515  -0.727   0.276  0.00  0.00    -0.070 N 
ATOM      3  C1  UNL d   1      -0.655  -0.017   0.302  0.00  0.00    -0.004 A 
ATOM      4  C2  UNL d   1      -0.437   1.181  -0.344  0.00  0.00    -0.047 A 
ATOM      5  C3  UNL d   1       0.910   1.190  -0.775  0.00  0.00    -0.047 A 
ATOM      6  C4  UNL d   1       1.477  -0.003  -0.378  0.00  0.00    -0.004 A 
ENDROOT
TORSDOF 0
ENDMDL
