MODEL 1
REMARK minimizedAffinity 5.35462952
REMARK minimizedRMSD -1
REMARK  1 active torsions:
REMARK  status: ('A' for Active; 'I' for Inactive)
REMARK    1  A    between atoms: C3_4  and  O_7 
ROOT
ATOM      1  C   UNL d   1      -3.211   1.022  -1.897  0.00  0.00    -0.033 A 
ATOM      2  C1  UNL d   1      -3.347   2.409  -1.813  0.00  0.00     0.039 A 
ATOM      3  C2  UNL d   1      -3.935   3.120  -2.862  0.00  0.00    -0.080 A 
ATOM      4  C3  UNL d   1      -4.382   2.432  -3.986  0.00  0.00     0.150 A 
ATOM      5  C4  UNL d   1      -4.253   1.050  -4.075  0.00  0.00    -0.007 A 
ATOM      6  C5  UNL d   1      -3.666   0.342  -3.027  0.00  0.00     0.039 A 
ENDROOT
BRANCH   4   7
ATOM      7  O   UNL d   1      -4.958   3.083  -5.037  0.00  0.00    -0.526 OA
ATOM      8  H5  UNL d   1      -4.954   4.036  -4.848  0.00  0.00     0.418 HD
ENDBRANCH   4   7
TORSDOF 1
ENDMDL
