MODEL 1
REMARK minimizedAffinity 1.29436636
REMARK minimizedRMSD -1
REMARK  1 active torsions:
REMARK  status: ('A' for Active; 'I' for Inactive)
REMARK    1  A    between atoms: C3_4  and  O_7 
ROOT
ATOM      1  C   UNL d   1      -3.489   3.188  -1.583  0.00  0.00    -0.033 A 
ATOM      2  C1  UNL d   1      -4.001   3.276  -2.879  0.00  0.00     0.039 A 
ATOM      3  C2  UNL d   1      -4.054   2.139  -3.689  0.00  0.00    -0.080 A 
ATOM      4  C3  UNL d   1      -3.592   0.924  -3.192  0.00  0.00     0.150 A 
ATOM      5  C4  UNL d   1      -3.084   0.829  -1.900  0.00  0.00    -0.007 A 
ATOM      6  C5  UNL d   1      -3.032   1.965  -1.093  0.00  0.00     0.039 A 
ENDROOT
BRANCH   4   7
ATOM      7  O   UNL d   1      -3.619  -0.211  -3.946  0.00  0.00    -0.526 OA
ATOM      8  H5  UNL d   1      -3.968   0.012  -4.825  0.00  0.00     0.418 HD
ENDBRANCH   4   7
TORSDOF 1
ENDMDL
