MODEL 1
REMARK minimizedAffinity 3.69700885
REMARK minimizedRMSD -1
REMARK  1 active torsions:
REMARK  status: ('A' for Active; 'I' for Inactive)
REMARK    1  A    between atoms: C3_4  and  O_7 
ROOT
ATOM      1  C   UNL d   1      -5.993  -3.900  -5.472  0.00  0.00    -0.033 A 
ATOM      2  C1  UNL d   1      -5.388  -3.193  -4.432  0.00  0.00     0.039 A 
ATOM      3  C2  UNL d   1      -4.693  -3.876  -3.432  0.00  0.00    -0.080 A 
ATOM      4  C3  UNL d   1      -4.611  -5.265  -3.484  0.00  0.00     0.150 A 
ATOM      5  C4  UNL d   1      -5.207  -5.976  -4.520  0.00  0.00    -0.007 A 
ATOM      6  C5  UNL d   1      -5.901  -5.292  -5.517  0.00  0.00     0.039 A 
ENDROOT
BRANCH   4   7
ATOM      7  O   UNL d   1      -3.948  -5.976  -2.529  0.00  0.00    -0.526 OA
ATOM      8  H5  UNL d   1      -3.611  -5.355  -1.861  0.00  0.00     0.418 HD
ENDBRANCH   4   7
TORSDOF 1
ENDMDL
