MODEL 1
REMARK minimizedAffinity 9.51876736
REMARK minimizedRMSD -1
REMARK  1 active torsions:
REMARK  status: ('A' for Active; 'I' for Inactive)
REMARK    1  A    between atoms: C3_4  and  O_7 
ROOT
ATOM      1  C   UNL d   1      -5.003  -1.909  -5.601  0.00  0.00    -0.033 A 
ATOM      2  C1  UNL d   1      -3.795  -2.391  -5.093  0.00  0.00     0.039 A 
ATOM      3  C2  UNL d   1      -3.582  -3.766  -4.979  0.00  0.00    -0.080 A 
ATOM      4  C3  UNL d   1      -4.583  -4.648  -5.377  0.00  0.00     0.150 A 
ATOM      5  C4  UNL d   1      -5.788  -4.175  -5.887  0.00  0.00    -0.007 A 
ATOM      6  C5  UNL d   1      -5.999  -2.802  -5.999  0.00  0.00     0.039 A 
ENDROOT
BRANCH   4   7
ATOM      7  O   UNL d   1      -4.423  -5.998  -5.280  0.00  0.00    -0.526 OA
ATOM      8  H5  UNL d   1      -3.554  -6.177  -4.884  0.00  0.00     0.418 HD
ENDBRANCH   4   7
TORSDOF 1
ENDMDL
