MODEL 1
REMARK minimizedAffinity -0.349932134
REMARK minimizedRMSD -1
REMARK  1 active torsions:
REMARK  status: ('A' for Active; 'I' for Inactive)
REMARK    1  A    between atoms: C3_4  and  O_7 
ROOT
ATOM      1  C   UNL d   1       2.802  -5.640  -1.821  0.00  0.00    -0.033 A 
ATOM      2  C1  UNL d   1       4.154  -5.873  -2.077  0.00  0.00     0.039 A 
ATOM      3  C2  UNL d   1       4.608  -5.987  -3.393  0.00  0.00    -0.080 A 
ATOM      4  C3  UNL d   1       3.700  -5.865  -4.442  0.00  0.00     0.150 A 
ATOM      5  C4  UNL d   1       2.352  -5.628  -4.194  0.00  0.00    -0.007 A 
ATOM      6  C5  UNL d   1       1.901  -5.516  -2.880  0.00  0.00     0.039 A 
ENDROOT
BRANCH   4   7
ATOM      7  O   UNL d   1       4.095  -5.974  -5.742  0.00  0.00    -0.526 OA
ATOM      8  H5  UNL d   1       5.048  -6.166  -5.759  0.00  0.00     0.418 HD
ENDBRANCH   4   7
TORSDOF 1
ENDMDL
