MODEL 1
REMARK minimizedAffinity 5.88096809
REMARK minimizedRMSD -1
REMARK  1 active torsions:
REMARK  status: ('A' for Active; 'I' for Inactive)
REMARK    1  A    between atoms: C3_4  and  O_7 
ROOT
ATOM      1  C   UNL d   1      -4.619  -5.992  -4.569  0.00  0.00    -0.033 A 
ATOM      2  C1  UNL d   1      -4.050  -4.852  -3.998  0.00  0.00     0.039 A 
ATOM      3  C2  UNL d   1      -4.443  -3.584  -4.428  0.00  0.00    -0.080 A 
ATOM      4  C3  UNL d   1      -5.405  -3.469  -5.428  0.00  0.00     0.150 A 
ATOM      5  C4  UNL d   1      -5.979  -4.600  -5.999  0.00  0.00    -0.007 A 
ATOM      6  C5  UNL d   1      -5.585  -5.866  -5.568  0.00  0.00     0.039 A 
ENDROOT
BRANCH   4   7
ATOM      7  O   UNL d   1      -5.816  -2.252  -5.885  0.00  0.00    -0.526 OA
ATOM      8  H5  UNL d   1      -5.313  -1.563  -5.420  0.00  0.00     0.418 HD
ENDBRANCH   4   7
TORSDOF 1
ENDMDL
