MODEL 1
REMARK minimizedAffinity 2.4015553
REMARK minimizedRMSD -1
REMARK  1 active torsions:
REMARK  status: ('A' for Active; 'I' for Inactive)
REMARK    1  A    between atoms: C3_4  and  O_7 
ROOT
ATOM      1  C   UNL d   1       3.996  -3.673   5.053  0.00  0.00    -0.033 A 
ATOM      2  C1  UNL d   1       3.315  -4.466   4.128  0.00  0.00     0.039 A 
ATOM      3  C2  UNL d   1       3.976  -4.940   2.992  0.00  0.00    -0.080 A 
ATOM      4  C3  UNL d   1       5.315  -4.614   2.795  0.00  0.00     0.150 A 
ATOM      5  C4  UNL d   1       6.000  -3.827   3.715  0.00  0.00    -0.007 A 
ATOM      6  C5  UNL d   1       5.338  -3.354   4.848  0.00  0.00     0.039 A 
ENDROOT
BRANCH   4   7
ATOM      7  O   UNL d   1       6.000  -5.049   1.700  0.00  0.00    -0.526 OA
ATOM      8  H5  UNL d   1       5.391  -5.557   1.138  0.00  0.00     0.418 HD
ENDBRANCH   4   7
TORSDOF 1
ENDMDL
