MODEL 1
REMARK minimizedAffinity 0.966545999
REMARK minimizedRMSD -1
REMARK  1 active torsions:
REMARK  status: ('A' for Active; 'I' for Inactive)
REMARK    1  A    between atoms: C3_4  and  O_7 
ROOT
ATOM      1  C   UNL d   1       5.991  -4.040   4.895  0.00  0.00    -0.033 A 
ATOM      2  C1  UNL d   1       4.811  -4.115   5.637  0.00  0.00     0.039 A 
ATOM      3  C2  UNL d   1       3.635  -3.550   5.141  0.00  0.00    -0.080 A 
ATOM      4  C3  UNL d   1       3.652  -2.915   3.902  0.00  0.00     0.150 A 
ATOM      5  C4  UNL d   1       4.823  -2.839   3.156  0.00  0.00    -0.007 A 
ATOM      6  C5  UNL d   1       5.997  -3.403   3.653  0.00  0.00     0.039 A 
ENDROOT
BRANCH   4   7
ATOM      7  O   UNL d   1       2.530  -2.344   3.379  0.00  0.00    -0.526 OA
ATOM      8  H5  UNL d   1       1.805  -2.448   4.018  0.00  0.00     0.418 HD
ENDBRANCH   4   7
TORSDOF 1
ENDMDL
