MODEL 1
REMARK minimizedAffinity 2.50760055
REMARK minimizedRMSD -1
REMARK  1 active torsions:
REMARK  status: ('A' for Active; 'I' for Inactive)
REMARK    1  A    between atoms: C3_4  and  O_7 
ROOT
ATOM      1  C   UNL d   1       1.300  -2.251   3.842  0.00  0.00    -0.033 A 
ATOM      2  C1  UNL d   1       2.069  -1.811   2.763  0.00  0.00     0.039 A 
ATOM      3  C2  UNL d   1       3.410  -2.185   2.660  0.00  0.00    -0.080 A 
ATOM      4  C3  UNL d   1       3.969  -3.000   3.642  0.00  0.00     0.150 A 
ATOM      5  C4  UNL d   1       3.207  -3.445   4.717  0.00  0.00    -0.007 A 
ATOM      6  C5  UNL d   1       1.868  -3.069   4.818  0.00  0.00     0.039 A 
ENDROOT
BRANCH   4   7
ATOM      7  O   UNL d   1       5.274  -3.388   3.587  0.00  0.00    -0.526 OA
ATOM      8  H5  UNL d   1       5.684  -2.981   2.805  0.00  0.00     0.418 HD
ENDBRANCH   4   7
TORSDOF 1
ENDMDL
