MODEL 1
REMARK minimizedAffinity 4.2053318
REMARK minimizedRMSD -1
REMARK  1 active torsions:
REMARK  status: ('A' for Active; 'I' for Inactive)
REMARK    1  A    between atoms: C1_2  and  C2_3 
ROOT
ATOM      1  C2  UNL d   1       0.188  -2.710   2.444  0.00  0.00    -0.076 A 
ATOM      2  C3  UNL d   1       0.391  -3.932   1.780  0.00  0.00     0.004 A 
ATOM      3  C4  UNL d   1       1.517  -4.139   0.985  0.00  0.00    -0.003 A 
ATOM      4  C5  UNL d   1       2.459  -3.127   0.841  0.00  0.00     0.000 A 
ATOM      5  C6  UNL d   1       2.284  -1.914   1.507  0.00  0.00     0.000 A 
ATOM      6  C7  UNL d   1       1.162  -1.695   2.325  0.00  0.00    -0.073 A 
ATOM      7  C8  UNL d   1       1.020  -0.366   3.015  0.00  0.00     0.078 C 
ENDROOT
BRANCH   1   8
ATOM      8  C1  UNL d   1      -1.065  -2.534   3.270  0.00  0.00     0.053 C 
ATOM      9  C   UNL d   1      -1.864  -3.821   3.399  0.00  0.00     0.018 C 
ENDBRANCH   1   8
TORSDOF 1
ENDMDL
