MODEL 1
REMARK minimizedAffinity 6.11911964
REMARK minimizedRMSD -1
REMARK  1 active torsions:
REMARK  status: ('A' for Active; 'I' for Inactive)
REMARK    1  A    between atoms: C1_2  and  C2_3 
ROOT
ATOM      1  C2  UNL d   1       3.462  -2.957   0.651  0.00  0.00    -0.076 A 
ATOM      2  C3  UNL d   1       3.214  -1.593   0.884  0.00  0.00     0.004 A 
ATOM      3  C4  UNL d   1       1.911  -1.102   0.952  0.00  0.00    -0.003 A 
ATOM      4  C5  UNL d   1       0.835  -1.967   0.789  0.00  0.00     0.000 A 
ATOM      5  C6  UNL d   1       1.062  -3.326   0.574  0.00  0.00     0.000 A 
ATOM      6  C7  UNL d   1       2.369  -3.840   0.519  0.00  0.00    -0.073 A 
ATOM      7  C8  UNL d   1       2.556  -5.313   0.279  0.00  0.00     0.078 C 
ENDROOT
BRANCH   1   8
ATOM      8  C1  UNL d   1       4.896  -3.427   0.560  0.00  0.00     0.053 C 
ATOM      9  C   UNL d   1       5.881  -2.274   0.441  0.00  0.00     0.018 C 
ENDBRANCH   1   8
TORSDOF 1
ENDMDL
