MODEL 1
REMARK minimizedAffinity 15.0488176
REMARK minimizedRMSD -1
REMARK  1 active torsions:
REMARK  status: ('A' for Active; 'I' for Inactive)
REMARK    1  A    between atoms: C1_2  and  C2_3 
ROOT
ATOM      1  C2  UNL d   1      -3.662   3.665  -3.772  0.00  0.00    -0.076 A 
ATOM      2  C3  UNL d   1      -2.707   3.204  -2.850  0.00  0.00     0.004 A 
ATOM      3  C4  UNL d   1      -2.706   1.878  -2.420  0.00  0.00    -0.003 A 
ATOM      4  C5  UNL d   1      -3.660   0.991  -2.907  0.00  0.00     0.000 A 
ATOM      5  C6  UNL d   1      -4.604   1.427  -3.836  0.00  0.00     0.000 A 
ATOM      6  C7  UNL d   1      -4.609   2.757  -4.292  0.00  0.00    -0.073 A 
ATOM      7  C8  UNL d   1      -5.654   3.174  -5.290  0.00  0.00     0.078 C 
ENDROOT
BRANCH   1   8
ATOM      8  C1  UNL d   1      -3.631   5.120  -4.181  0.00  0.00     0.053 C 
ATOM      9  C   UNL d   1      -4.477   5.999  -3.273  0.00  0.00     0.018 C 
ENDBRANCH   1   8
TORSDOF 1
ENDMDL
