MODEL 1
REMARK minimizedAffinity 10.0996685
REMARK minimizedRMSD -1
REMARK  1 active torsions:
REMARK  status: ('A' for Active; 'I' for Inactive)
REMARK    1  A    between atoms: C1_2  and  C2_3 
ROOT
ATOM      1  C2  UNL d   1      -3.875   2.250   4.793  0.00  0.00    -0.076 A 
ATOM      2  C3  UNL d   1      -3.087   2.251   3.629  0.00  0.00     0.004 A 
ATOM      3  C4  UNL d   1      -3.477   1.536   2.498  0.00  0.00    -0.003 A 
ATOM      4  C5  UNL d   1      -4.662   0.809   2.512  0.00  0.00     0.000 A 
ATOM      5  C6  UNL d   1      -5.465   0.811   3.652  0.00  0.00     0.000 A 
ATOM      6  C7  UNL d   1      -5.095   1.539   4.796  0.00  0.00    -0.073 A 
ATOM      7  C8  UNL d   1      -5.996   1.501   6.000  0.00  0.00     0.078 C 
ENDROOT
BRANCH   1   8
ATOM      8  C1  UNL d   1      -3.388   3.021   5.999  0.00  0.00     0.053 C 
ATOM      9  C   UNL d   1      -3.303   4.517   5.738  0.00  0.00     0.018 C 
ENDBRANCH   1   8
TORSDOF 1
ENDMDL
