MODEL 1
REMARK minimizedAffinity 14.9602289
REMARK minimizedRMSD -1
REMARK  1 active torsions:
REMARK  status: ('A' for Active; 'I' for Inactive)
REMARK    1  A    between atoms: C1_2  and  C2_3 
ROOT
ATOM      1  C2  UNL d   1      -2.556   2.894  -3.405  0.00  0.00    -0.076 A 
ATOM      2  C3  UNL d   1      -1.540   3.490  -4.172  0.00  0.00     0.004 A 
ATOM      3  C4  UNL d   1      -0.201   3.156  -3.972  0.00  0.00    -0.003 A 
ATOM      4  C5  UNL d   1       0.143   2.220  -3.004  0.00  0.00     0.000 A 
ATOM      5  C6  UNL d   1      -0.853   1.605  -2.246  0.00  0.00     0.000 A 
ATOM      6  C7  UNL d   1      -2.209   1.918  -2.445  0.00  0.00    -0.073 A 
ATOM      7  C8  UNL d   1      -3.242   1.230  -1.596  0.00  0.00     0.078 C 
ENDROOT
BRANCH   1   8
ATOM      8  C1  UNL d   1      -3.988   3.315  -3.647  0.00  0.00     0.053 C 
ATOM      9  C   UNL d   1      -4.166   4.825  -3.600  0.00  0.00     0.018 C 
ENDBRANCH   1   8
TORSDOF 1
ENDMDL
