MODEL 1
REMARK minimizedAffinity 17.3142738
REMARK minimizedRMSD -1
REMARK  1 active torsions:
REMARK  status: ('A' for Active; 'I' for Inactive)
REMARK    1  A    between atoms: C1_2  and  C2_3 
ROOT
ATOM      1  C2  UNL d   1       3.513  -2.332   1.191  0.00  0.00    -0.076 A 
ATOM      2  C3  UNL d   1       2.965  -1.202   1.822  0.00  0.00     0.004 A 
ATOM      3  C4  UNL d   1       1.585  -1.009   1.877  0.00  0.00    -0.003 A 
ATOM      4  C5  UNL d   1       0.731  -1.944   1.303  0.00  0.00     0.000 A 
ATOM      5  C6  UNL d   1       1.257  -3.080   0.688  0.00  0.00     0.000 A 
ATOM      6  C7  UNL d   1       2.644  -3.298   0.639  0.00  0.00    -0.073 A 
ATOM      7  C8  UNL d   1       3.157  -4.538  -0.042  0.00  0.00     0.078 C 
ENDROOT
BRANCH   1   8
ATOM      8  C1  UNL d   1       5.017  -2.474   1.139  0.00  0.00     0.053 C 
ATOM      9  C   UNL d   1       5.688  -1.310   0.426  0.00  0.00     0.018 C 
ENDBRANCH   1   8
TORSDOF 1
ENDMDL
