MODEL 1
REMARK minimizedAffinity 13.7664585
REMARK minimizedRMSD -1
REMARK  1 active torsions:
REMARK  status: ('A' for Active; 'I' for Inactive)
REMARK    1  A    between atoms: C1_2  and  C2_3 
ROOT
ATOM      1  C2  UNL d   1       1.326  -1.977   0.395  0.00  0.00    -0.076 A 
ATOM      2  C3  UNL d   1       1.795  -0.785   0.973  0.00  0.00     0.004 A 
ATOM      3  C4  UNL d   1       3.110  -0.676   1.423  0.00  0.00    -0.003 A 
ATOM      4  C5  UNL d   1       3.977  -1.756   1.302  0.00  0.00     0.000 A 
ATOM      5  C6  UNL d   1       3.533  -2.940   0.714  0.00  0.00     0.000 A 
ATOM      6  C7  UNL d   1       2.215  -3.062   0.240  0.00  0.00    -0.073 A 
ATOM      7  C8  UNL d   1       1.788  -4.365  -0.379  0.00  0.00     0.078 C 
ENDROOT
BRANCH   1   8
ATOM      8  C1  UNL d   1      -0.118  -2.047  -0.050  0.00  0.00     0.053 C 
ATOM      9  C   UNL d   1      -0.364  -1.293  -1.348  0.00  0.00     0.018 C 
ENDBRANCH   1   8
TORSDOF 1
ENDMDL
