MODEL 1
REMARK minimizedAffinity 9.84658527
REMARK minimizedRMSD -1
REMARK  0 active torsions:
REMARK  status: ('A' for Active; 'I' for Inactive)
ROOT
ATOM      1  C2' OXE d   1       5.983   2.149   2.573  0.00  0.00     0.078 C 
ATOM      2  C1' OXE d   1       5.824   3.125  -0.055  0.00  0.00     0.078 C 
ATOM      3  C1  OXE d   1       5.866   1.629   0.139  0.00  0.00    -0.078 A 
ATOM      4  C2  OXE d   1       5.991   1.162   1.425  0.00  0.00    -0.078 A 
ATOM      5  C3  OXE d   1       5.980  -0.209   1.665  0.00  0.00     0.003 A 
ATOM      6  C4  OXE d   1       5.997  -1.115   0.598  0.00  0.00    -0.002 A 
ATOM      7  C5  OXE d   1       5.910  -0.659  -0.722  0.00  0.00    -0.002 A 
ATOM      8  C6  OXE d   1       5.801   0.705  -0.966  0.00  0.00     0.003 A 
ENDROOT
TORSDOF 0
ENDMDL
