MODEL 1
REMARK minimizedAffinity 13.2092295
REMARK minimizedRMSD -1
REMARK  0 active torsions:
REMARK  status: ('A' for Active; 'I' for Inactive)
ROOT
ATOM      1  C2' OXE d   1      -3.327   0.509   3.086  0.00  0.00     0.078 C 
ATOM      2  C1' OXE d   1      -3.015  -1.634   1.300  0.00  0.00     0.078 C 
ATOM      3  C1  OXE d   1      -1.858  -1.302   2.209  0.00  0.00    -0.078 A 
ATOM      4  C2  OXE d   1      -2.003  -0.223   3.047  0.00  0.00    -0.078 A 
ATOM      5  C3  OXE d   1      -0.987   0.093   3.945  0.00  0.00     0.003 A 
ATOM      6  C4  OXE d   1       0.238  -0.582   3.896  0.00  0.00    -0.002 A 
ATOM      7  C5  OXE d   1       0.421  -1.659   3.022  0.00  0.00    -0.002 A 
ATOM      8  C6  OXE d   1      -0.630  -2.058   2.203  0.00  0.00     0.003 A 
ENDROOT
TORSDOF 0
ENDMDL
