MODEL 1
REMARK minimizedAffinity 7.26573467
REMARK minimizedRMSD -1
REMARK  0 active torsions:
REMARK  status: ('A' for Active; 'I' for Inactive)
ROOT
ATOM      1  C2' OXE d   1       4.393  -5.999   5.607  0.00  0.00     0.078 C 
ATOM      2  C1' OXE d   1       3.841  -3.270   5.966  0.00  0.00     0.078 C 
ATOM      3  C1  OXE d   1       3.449  -3.900   4.653  0.00  0.00    -0.078 A 
ATOM      4  C2  OXE d   1       3.765  -5.225   4.468  0.00  0.00    -0.078 A 
ATOM      5  C3  OXE d   1       3.377  -5.869   3.296  0.00  0.00     0.003 A 
ATOM      6  C4  OXE d   1       2.806  -5.143   2.244  0.00  0.00    -0.002 A 
ATOM      7  C5  OXE d   1       2.512  -3.784   2.397  0.00  0.00    -0.002 A 
ATOM      8  C6  OXE d   1       2.787  -3.159   3.608  0.00  0.00     0.003 A 
ENDROOT
TORSDOF 0
ENDMDL
