MODEL 1
REMARK minimizedAffinity 1.02849114
REMARK minimizedRMSD -1
REMARK  0 active torsions:
REMARK  status: ('A' for Active; 'I' for Inactive)
ROOT
ATOM      1  C2' OXE d   1       2.108   0.028  -0.033  0.00  0.00     0.078 C 
ATOM      2  C1' OXE d   1       2.258   2.590   1.103  0.00  0.00     0.078 C 
ATOM      3  C1  OXE d   1       3.552   1.869   0.821  0.00  0.00    -0.078 A 
ATOM      4  C2  OXE d   1       3.468   0.597   0.308  0.00  0.00    -0.078 A 
ATOM      5  C3  OXE d   1       4.632  -0.092  -0.021  0.00  0.00     0.003 A 
ATOM      6  C4  OXE d   1       5.886   0.438   0.307  0.00  0.00    -0.002 A 
ATOM      7  C5  OXE d   1       5.993   1.716   0.867  0.00  0.00    -0.002 A 
ATOM      8  C6  OXE d   1       4.840   2.460   1.090  0.00  0.00     0.003 A 
ENDROOT
TORSDOF 0
ENDMDL
