MODEL 1
REMARK minimizedAffinity 4.0311594
REMARK minimizedRMSD -1
REMARK  0 active torsions:
REMARK  status: ('A' for Active; 'I' for Inactive)
ROOT
ATOM      1  C2' OXE d   1       5.921  -0.742  -4.330  0.00  0.00     0.078 C 
ATOM      2  C1' OXE d   1       5.903   2.008  -3.770  0.00  0.00     0.078 C 
ATOM      3  C1  OXE d   1       5.944   1.053  -2.604  0.00  0.00    -0.078 A 
ATOM      4  C2  OXE d   1       5.905  -0.291  -2.885  0.00  0.00    -0.078 A 
ATOM      5  C3  OXE d   1       5.996  -1.215  -1.849  0.00  0.00     0.003 A 
ATOM      6  C4  OXE d   1       5.971  -0.790  -0.515  0.00  0.00    -0.002 A 
ATOM      7  C5  OXE d   1       5.970   0.574  -0.205  0.00  0.00    -0.002 A 
ATOM      8  C6  OXE d   1       5.999   1.507  -1.236  0.00  0.00     0.003 A 
ENDROOT
TORSDOF 0
ENDMDL
