MODEL 1
REMARK minimizedAffinity 3.28435898
REMARK minimizedRMSD -1
REMARK  0 active torsions:
REMARK  status: ('A' for Active; 'I' for Inactive)
ROOT
ATOM      1  C2' OXE d   1      -0.694   4.104  -3.073  0.00  0.00     0.078 C 
ATOM      2  C1' OXE d   1      -3.473   4.127  -3.469  0.00  0.00     0.078 C 
ATOM      3  C1  OXE d   1      -2.862   2.897  -2.846  0.00  0.00    -0.078 A 
ATOM      4  C2  OXE d   1      -1.496   2.876  -2.699  0.00  0.00    -0.078 A 
ATOM      5  C3  OXE d   1      -0.886   1.788  -2.080  0.00  0.00     0.003 A 
ATOM      6  C4  OXE d   1      -1.633   0.652  -1.746  0.00  0.00    -0.002 A 
ATOM      7  C5  OXE d   1      -3.020   0.638  -1.924  0.00  0.00    -0.002 A 
ATOM      8  C6  OXE d   1      -3.654   1.766  -2.432  0.00  0.00     0.003 A 
ENDROOT
TORSDOF 0
ENDMDL
