MODEL 1
REMARK minimizedAffinity 5.38929939
REMARK minimizedRMSD -1
REMARK  0 active torsions:
REMARK  status: ('A' for Active; 'I' for Inactive)
ROOT
ATOM      1  C2' OXE d   1       0.086  -1.041   2.486  0.00  0.00     0.078 C 
ATOM      2  C1' OXE d   1       1.056  -1.101  -0.148  0.00  0.00     0.078 C 
ATOM      3  C1  OXE d   1       1.476  -2.212   0.782  0.00  0.00    -0.078 A 
ATOM      4  C2  OXE d   1       1.034  -2.149   2.081  0.00  0.00    -0.078 A 
ATOM      5  C3  OXE d   1       1.347  -3.178   2.966  0.00  0.00     0.003 A 
ATOM      6  C4  OXE d   1       2.233  -4.194   2.587  0.00  0.00    -0.002 A 
ATOM      7  C5  OXE d   1       2.726  -4.254   1.279  0.00  0.00    -0.002 A 
ATOM      8  C6  OXE d   1       2.324  -3.296   0.354  0.00  0.00     0.003 A 
ENDROOT
TORSDOF 0
ENDMDL
