MODEL 1
REMARK minimizedAffinity -5.0838275
REMARK minimizedRMSD -1
REMARK  0 active torsions:
REMARK  status: ('A' for Active; 'I' for Inactive)
ROOT
ATOM      1  O1  BZF d   1      -0.936   2.673   0.720  0.00  0.00    -0.204 OA
ATOM      2  C2  BZF d   1       0.251   3.175   0.223  0.00  0.00     0.174 A 
ATOM      3  C3  BZF d   1       1.077   2.175  -0.146  0.00  0.00    -0.012 A 
ATOM      4  C3A BZF d   1       0.325   0.974   0.051  0.00  0.00    -0.107 A 
ATOM      5  C4  BZF d   1       0.597  -0.349  -0.152  0.00  0.00     0.055 A 
ATOM      6  C5  BZF d   1      -0.326  -1.277   0.212  0.00  0.00    -0.016 A 
ATOM      7  C6  BZF d   1      -1.529  -0.919   0.785  0.00  0.00     0.022 A 
ATOM      8  C7  BZF d   1      -1.847   0.381   1.001  0.00  0.00     0.029 A 
ATOM      9  C7A BZF d   1      -0.929   1.323   0.605  0.00  0.00     0.058 A 
ENDROOT
TORSDOF 0
ENDMDL
