MODEL 1
REMARK minimizedAffinity -0.502751648
REMARK minimizedRMSD -1
REMARK  0 active torsions:
REMARK  status: ('A' for Active; 'I' for Inactive)
ROOT
ATOM      1  O1  BZF d   1      -0.578  -1.543  -0.501  0.00  0.00    -0.204 OA
ATOM      2  C2  BZF d   1       0.299  -2.599  -0.344  0.00  0.00     0.174 A 
ATOM      3  C3  BZF d   1       1.544  -2.151  -0.083  0.00  0.00    -0.012 A 
ATOM      4  C3A BZF d   1       1.420  -0.729   0.014  0.00  0.00    -0.107 A 
ATOM      5  C4  BZF d   1       2.309   0.275   0.273  0.00  0.00     0.055 A 
ATOM      6  C5  BZF d   1       1.881   1.564   0.224  0.00  0.00    -0.016 A 
ATOM      7  C6  BZF d   1       0.576   1.885  -0.086  0.00  0.00     0.022 A 
ATOM      8  C7  BZF d   1      -0.343   0.923  -0.345  0.00  0.00     0.029 A 
ATOM      9  C7A BZF d   1       0.078  -0.382  -0.264  0.00  0.00     0.058 A 
ENDROOT
TORSDOF 0
ENDMDL
