MODEL 1
REMARK minimizedAffinity -1.3808279
REMARK minimizedRMSD -1
REMARK  0 active torsions:
REMARK  status: ('A' for Active; 'I' for Inactive)
ROOT
ATOM      1  O1  BZF d   1       0.260  -2.507  -2.237  0.00  0.00    -0.204 OA
ATOM      2  C2  BZF d   1      -0.558  -3.571  -1.911  0.00  0.00     0.174 A 
ATOM      3  C3  BZF d   1      -1.073  -3.417  -0.674  0.00  0.00    -0.012 A 
ATOM      4  C3A BZF d   1      -0.617  -2.134  -0.234  0.00  0.00    -0.107 A 
ATOM      5  C4  BZF d   1      -0.808  -1.411   0.908  0.00  0.00     0.055 A 
ATOM      6  C5  BZF d   1      -0.163  -0.224   1.055  0.00  0.00    -0.016 A 
ATOM      7  C6  BZF d   1       0.683   0.267   0.082  0.00  0.00     0.022 A 
ATOM      8  C7  BZF d   1       0.901  -0.412  -1.070  0.00  0.00     0.029 A 
ATOM      9  C7A BZF d   1       0.225  -1.596  -1.235  0.00  0.00     0.058 A 
ENDROOT
TORSDOF 0
ENDMDL
