MODEL 1
REMARK minimizedAffinity -3.95524526
REMARK minimizedRMSD -1
REMARK  0 active torsions:
REMARK  status: ('A' for Active; 'I' for Inactive)
ROOT
ATOM      1  O1  BZF d   1      -1.284  -1.148   0.261  0.00  0.00    -0.204 OA
ATOM      2  C2  BZF d   1      -0.157  -1.877  -0.069  0.00  0.00     0.174 A 
ATOM      3  C3  BZF d   1       0.879  -1.058  -0.341  0.00  0.00    -0.012 A 
ATOM      4  C3A BZF d   1       0.394   0.263  -0.081  0.00  0.00    -0.107 A 
ATOM      5  C4  BZF d   1       0.962   1.503  -0.152  0.00  0.00     0.055 A 
ATOM      6  C5  BZF d   1       0.194   2.596   0.098  0.00  0.00    -0.016 A 
ATOM      7  C6  BZF d   1      -1.143   2.487   0.417  0.00  0.00     0.022 A 
ATOM      8  C7  BZF d   1      -1.749   1.278   0.505  0.00  0.00     0.029 A 
ATOM      9  C7A BZF d   1      -0.969   0.169   0.285  0.00  0.00     0.058 A 
ENDROOT
TORSDOF 0
ENDMDL
