MODEL 1
REMARK minimizedAffinity -5.92875195
REMARK minimizedRMSD -1
REMARK  0 active torsions:
REMARK  status: ('A' for Active; 'I' for Inactive)
ROOT
ATOM      1  O1  BZF d   1       2.124  -0.183   0.813  0.00  0.00    -0.204 OA
ATOM      2  C2  BZF d   1       1.045  -1.034   0.673  0.00  0.00     0.174 A 
ATOM      3  C3  BZF d   1      -0.096  -0.336   0.500  0.00  0.00    -0.012 A 
ATOM      4  C3A BZF d   1       0.308   1.035   0.441  0.00  0.00    -0.107 A 
ATOM      5  C4  BZF d   1      -0.372   2.207   0.266  0.00  0.00     0.055 A 
ATOM      6  C5  BZF d   1       0.309   3.381   0.331  0.00  0.00    -0.016 A 
ATOM      7  C6  BZF d   1       1.667   3.421   0.574  0.00  0.00     0.022 A 
ATOM      8  C7  BZF d   1       2.384   2.284   0.748  0.00  0.00     0.029 A 
ATOM      9  C7A BZF d   1       1.705   1.095   0.650  0.00  0.00     0.058 A 
ENDROOT
TORSDOF 0
ENDMDL
