MODEL 1
REMARK minimizedAffinity -3.68981934
REMARK minimizedRMSD -1
REMARK  0 active torsions:
REMARK  status: ('A' for Active; 'I' for Inactive)
ROOT
ATOM      1  O1  BZF d   1       2.573   1.450   1.128  0.00  0.00    -0.204 OA
ATOM      2  C2  BZF d   1       2.799   2.696   1.680  0.00  0.00     0.174 A 
ATOM      3  C3  BZF d   1       1.647   3.389   1.787  0.00  0.00    -0.012 A 
ATOM      4  C3A BZF d   1       0.624   2.487   1.355  0.00  0.00    -0.107 A 
ATOM      5  C4  BZF d   1      -0.734   2.588   1.249  0.00  0.00     0.055 A 
ATOM      6  C5  BZF d   1      -1.434   1.549   0.722  0.00  0.00    -0.016 A 
ATOM      7  C6  BZF d   1      -0.810   0.398   0.288  0.00  0.00     0.022 A 
ATOM      8  C7  BZF d   1       0.534   0.250   0.378  0.00  0.00     0.029 A 
ATOM      9  C7A BZF d   1       1.241   1.284   0.940  0.00  0.00     0.058 A 
ENDROOT
TORSDOF 0
ENDMDL
