MODEL 1
REMARK minimizedAffinity -4.79390764
REMARK minimizedRMSD -1
REMARK  0 active torsions:
REMARK  status: ('A' for Active; 'I' for Inactive)
ROOT
ATOM      1  O1  BZF d   1       1.097  -1.103  -0.544  0.00  0.00    -0.204 OA
ATOM      2  C2  BZF d   1       0.199  -2.144  -0.398  0.00  0.00     0.174 A 
ATOM      3  C3  BZF d   1      -1.024  -1.678  -0.072  0.00  0.00    -0.012 A 
ATOM      4  C3A BZF d   1      -0.903  -0.253  -0.100  0.00  0.00    -0.107 A 
ATOM      5  C4  BZF d   1      -1.783   0.768   0.121  0.00  0.00     0.055 A 
ATOM      6  C5  BZF d   1      -1.330   2.049   0.087  0.00  0.00    -0.016 A 
ATOM      7  C6  BZF d   1      -0.006   2.345  -0.160  0.00  0.00     0.022 A 
ATOM      8  C7  BZF d   1       0.903   1.366  -0.390  0.00  0.00     0.029 A 
ATOM      9  C7A BZF d   1       0.442   0.072  -0.389  0.00  0.00     0.058 A 
ENDROOT
TORSDOF 0
ENDMDL
