MODEL 1
REMARK minimizedAffinity -4.06545591
REMARK minimizedRMSD -1
REMARK  0 active torsions:
REMARK  status: ('A' for Active; 'I' for Inactive)
ROOT
ATOM      1  O1  BZF d   1       1.162  -0.318  -0.846  0.00  0.00    -0.204 OA
ATOM      2  C2  BZF d   1       0.403  -1.441  -0.582  0.00  0.00     0.174 A 
ATOM      3  C3  BZF d   1      -0.722  -1.112   0.086  0.00  0.00    -0.012 A 
ATOM      4  C3A BZF d   1      -0.706   0.317   0.168  0.00  0.00    -0.107 A 
ATOM      5  C4  BZF d   1      -1.563   1.236   0.703  0.00  0.00     0.055 A 
ATOM      6  C5  BZF d   1      -1.219   2.550   0.681  0.00  0.00    -0.016 A 
ATOM      7  C6  BZF d   1      -0.026   2.980   0.138  0.00  0.00     0.022 A 
ATOM      8  C7  BZF d   1       0.854   2.106  -0.408  0.00  0.00     0.029 A 
ATOM      9  C7A BZF d   1       0.495   0.780  -0.417  0.00  0.00     0.058 A 
ENDROOT
TORSDOF 0
ENDMDL
