MODEL 1
REMARK minimizedAffinity -3.95247889
REMARK minimizedRMSD -1
REMARK  0 active torsions:
REMARK  status: ('A' for Active; 'I' for Inactive)
ROOT
ATOM      1  O1  BZF d   1       1.240  -0.812   0.282  0.00  0.00    -0.204 OA
ATOM      2  C2  BZF d   1       0.009  -1.402   0.066  0.00  0.00     0.174 A 
ATOM      3  C3  BZF d   1      -0.973  -0.478   0.086  0.00  0.00    -0.012 A 
ATOM      4  C3A BZF d   1      -0.306   0.779   0.237  0.00  0.00    -0.107 A 
ATOM      5  C4  BZF d   1      -0.741   2.071   0.307  0.00  0.00     0.055 A 
ATOM      6  C5  BZF d   1       0.162   3.061   0.530  0.00  0.00    -0.016 A 
ATOM      7  C6  BZF d   1       1.506   2.795   0.691  0.00  0.00     0.022 A 
ATOM      8  C7  BZF d   1       1.986   1.530   0.624  0.00  0.00     0.029 A 
ATOM      9  C7A BZF d   1       1.080   0.530   0.367  0.00  0.00     0.058 A 
ENDROOT
TORSDOF 0
ENDMDL
