MODEL 1
REMARK minimizedAffinity -4.29161167
REMARK minimizedRMSD -1
REMARK  0 active torsions:
REMARK  status: ('A' for Active; 'I' for Inactive)
ROOT
ATOM      1  O1  BZF d   1       2.053  -0.020   0.227  0.00  0.00    -0.204 OA
ATOM      2  C2  BZF d   1       1.490  -1.277   0.330  0.00  0.00     0.174 A 
ATOM      3  C3  BZF d   1       0.148  -1.194   0.439  0.00  0.00    -0.012 A 
ATOM      4  C3A BZF d   1      -0.154   0.199   0.310  0.00  0.00    -0.107 A 
ATOM      5  C4  BZF d   1      -1.318   0.912   0.318  0.00  0.00     0.055 A 
ATOM      6  C5  BZF d   1      -1.264   2.267   0.242  0.00  0.00    -0.016 A 
ATOM      7  C6  BZF d   1      -0.063   2.942   0.162  0.00  0.00     0.022 A 
ATOM      8  C7  BZF d   1       1.118   2.278   0.145  0.00  0.00     0.029 A 
ATOM      9  C7A BZF d   1       1.065   0.906   0.189  0.00  0.00     0.058 A 
ENDROOT
TORSDOF 0
ENDMDL
