MODEL 1
REMARK minimizedAffinity -2.81573915
REMARK minimizedRMSD -1
REMARK  0 active torsions:
REMARK  status: ('A' for Active; 'I' for Inactive)
ROOT
ATOM      1  O1  BZF d   1      -0.831   3.007   0.300  0.00  0.00    -0.204 OA
ATOM      2  C2  BZF d   1       0.078   3.386  -0.669  0.00  0.00     0.174 A 
ATOM      3  C3  BZF d   1       0.778   2.321  -1.111  0.00  0.00    -0.012 A 
ATOM      4  C3A BZF d   1       0.210   1.193  -0.439  0.00  0.00    -0.107 A 
ATOM      5  C4  BZF d   1       0.468  -0.148  -0.473  0.00  0.00     0.055 A 
ATOM      6  C5  BZF d   1      -0.218  -0.974   0.360  0.00  0.00    -0.016 A 
ATOM      7  C6  BZF d   1      -1.163  -0.493   1.242  0.00  0.00     0.022 A 
ATOM      8  C7  BZF d   1      -1.457   0.828   1.309  0.00  0.00     0.029 A 
ATOM      9  C7A BZF d   1      -0.789   1.661   0.445  0.00  0.00     0.058 A 
ENDROOT
TORSDOF 0
ENDMDL
