MODEL 1
REMARK minimizedAffinity -5.38377619
REMARK minimizedRMSD -1
REMARK  0 active torsions:
REMARK  status: ('A' for Active; 'I' for Inactive)
ROOT
ATOM      1  O1  BZF d   1      -2.208   2.498   0.311  0.00  0.00    -0.204 OA
ATOM      2  C2  BZF d   1      -3.044   1.450   0.643  0.00  0.00     0.174 A 
ATOM      3  C3  BZF d   1      -2.364   0.285   0.665  0.00  0.00    -0.012 A 
ATOM      4  C3A BZF d   1      -1.000   0.640   0.416  0.00  0.00    -0.107 A 
ATOM      5  C4  BZF d   1       0.157  -0.080   0.332  0.00  0.00     0.055 A 
ATOM      6  C5  BZF d   1       1.310   0.560   0.004  0.00  0.00    -0.016 A 
ATOM      7  C6  BZF d   1       1.342   1.915  -0.251  0.00  0.00     0.022 A 
ATOM      8  C7  BZF d   1       0.220   2.672  -0.174  0.00  0.00     0.029 A 
ATOM      9  C7A BZF d   1      -0.941   2.035   0.189  0.00  0.00     0.058 A 
ENDROOT
TORSDOF 0
ENDMDL
