MODEL 1
REMARK minimizedAffinity -4.12922716
REMARK minimizedRMSD -1
REMARK  0 active torsions:
REMARK  status: ('A' for Active; 'I' for Inactive)
ROOT
ATOM      1  O1  BZF d   1       1.363  -0.706   0.338  0.00  0.00    -0.204 OA
ATOM      2  C2  BZF d   1       0.461  -1.742   0.191  0.00  0.00     0.174 A 
ATOM      3  C3  BZF d   1      -0.806  -1.288   0.280  0.00  0.00    -0.012 A 
ATOM      4  C3A BZF d   1      -0.690   0.132   0.404  0.00  0.00    -0.107 A 
ATOM      5  C4  BZF d   1      -1.601   1.143   0.515  0.00  0.00     0.055 A 
ATOM      6  C5  BZF d   1      -1.158   2.415   0.693  0.00  0.00    -0.016 A 
ATOM      7  C6  BZF d   1       0.187   2.712   0.770  0.00  0.00     0.022 A 
ATOM      8  C7  BZF d   1       1.129   1.744   0.660  0.00  0.00     0.029 A 
ATOM      9  C7A BZF d   1       0.685   0.461   0.447  0.00  0.00     0.058 A 
ENDROOT
TORSDOF 0
ENDMDL
