MODEL 1
REMARK minimizedAffinity 17.075489
REMARK minimizedRMSD -1
REMARK  0 active torsions:
REMARK  status: ('A' for Active; 'I' for Inactive)
ROOT
ATOM      1  C   UNL d   1       3.844   5.599   2.366  0.00  0.00     0.124 A 
ATOM      2  C1  UNL d   1       2.528   5.591   1.925  0.00  0.00     0.062 A 
ATOM      3  C2  UNL d   1       1.508   5.173   2.775  0.00  0.00     0.162 A 
ATOM      4  C3  UNL d   1       1.800   4.761   4.075  0.00  0.00    -0.034 A 
ATOM      5  C4  UNL d   1       3.126   4.771   4.511  0.00  0.00     0.162 A 
ATOM      6  C5  UNL d   1       4.142   5.189   3.658  0.00  0.00     0.062 A 
ATOM      7  F   UNL d   1       5.413   5.196   4.085  0.00  0.00    -0.097 F 
ATOM      8  F1  UNL d   1       3.441   4.381   5.755  0.00  0.00    -0.096 F 
ATOM      9  I   UNL d   1       0.277   4.136   5.349  0.00  0.00    -0.060 I 
ATOM     10  F2  UNL d   1       0.245   5.176   2.322  0.00  0.00    -0.096 F 
ATOM     11  F3  UNL d   1       2.238   5.985   0.677  0.00  0.00    -0.097 F 
ATOM     12  F4  UNL d   1       4.824   6.000   1.546  0.00  0.00    -0.092 F 
ENDROOT
TORSDOF 0
ENDMDL
