MODEL 1
REMARK minimizedAffinity 15.8476048
REMARK minimizedRMSD -1
REMARK  0 active torsions:
REMARK  status: ('A' for Active; 'I' for Inactive)
ROOT
ATOM      1  C   UNL d   1      -3.176  -2.495  -5.193  0.00  0.00     0.124 A 
ATOM      2  C1  UNL d   1      -3.492  -3.845  -5.142  0.00  0.00     0.062 A 
ATOM      3  C2  UNL d   1      -2.779  -4.699  -4.305  0.00  0.00     0.162 A 
ATOM      4  C3  UNL d   1      -1.743  -4.205  -3.512  0.00  0.00    -0.034 A 
ATOM      5  C4  UNL d   1      -1.431  -2.846  -3.571  0.00  0.00     0.162 A 
ATOM      6  C5  UNL d   1      -2.146  -1.996  -4.408  0.00  0.00     0.062 A 
ATOM      7  F   UNL d   1      -1.839  -0.692  -4.457  0.00  0.00    -0.097 F 
ATOM      8  F1  UNL d   1      -0.441  -2.337  -2.822  0.00  0.00    -0.096 F 
ATOM      9  I   UNL d   1      -0.675  -5.479  -2.260  0.00  0.00    -0.060 I 
ATOM     10  F2  UNL d   1      -3.106  -6.000  -4.275  0.00  0.00    -0.096 F 
ATOM     11  F3  UNL d   1      -4.486  -4.329  -5.900  0.00  0.00    -0.097 F 
ATOM     12  F4  UNL d   1      -3.863  -1.675  -6.000  0.00  0.00    -0.092 F 
ENDROOT
TORSDOF 0
ENDMDL
