MODEL 1
REMARK minimizedAffinity 24.717598
REMARK minimizedRMSD -1
REMARK  0 active torsions:
REMARK  status: ('A' for Active; 'I' for Inactive)
ROOT
ATOM      1  C   UNL d   1       4.362   0.297  -3.651  0.00  0.00     0.124 A 
ATOM      2  C1  UNL d   1       3.284  -0.407  -3.132  0.00  0.00     0.062 A 
ATOM      3  C2  UNL d   1       2.800  -0.112  -1.861  0.00  0.00     0.162 A 
ATOM      4  C3  UNL d   1       3.394   0.894  -1.099  0.00  0.00    -0.034 A 
ATOM      5  C4  UNL d   1       4.478   1.598  -1.626  0.00  0.00     0.162 A 
ATOM      6  C5  UNL d   1       4.958   1.299  -2.897  0.00  0.00     0.062 A 
ATOM      7  F   UNL d   1       5.999   1.980  -3.396  0.00  0.00    -0.097 F 
ATOM      8  F1  UNL d   1       5.072   2.572  -0.920  0.00  0.00    -0.096 F 
ATOM      9  I   UNL d   1       2.674   1.340   0.802  0.00  0.00    -0.060 I 
ATOM     10  F2  UNL d   1       1.758  -0.809  -1.386  0.00  0.00    -0.096 F 
ATOM     11  F3  UNL d   1       2.707  -1.376  -3.858  0.00  0.00    -0.097 F 
ATOM     12  F4  UNL d   1       4.826   0.010  -4.874  0.00  0.00    -0.092 F 
ENDROOT
TORSDOF 0
ENDMDL
