MODEL 1
REMARK minimizedAffinity 24.930954
REMARK minimizedRMSD -1
REMARK  0 active torsions:
REMARK  status: ('A' for Active; 'I' for Inactive)
ROOT
ATOM      1  C   UNL d   1       4.602   1.390  -2.327  0.00  0.00     0.124 A 
ATOM      2  C1  UNL d   1       5.154   2.000  -1.209  0.00  0.00     0.062 A 
ATOM      3  C2  UNL d   1       4.832   1.546   0.066  0.00  0.00     0.162 A 
ATOM      4  C3  UNL d   1       3.953   0.475   0.231  0.00  0.00    -0.034 A 
ATOM      5  C4  UNL d   1       3.401  -0.132  -0.898  0.00  0.00     0.162 A 
ATOM      6  C5  UNL d   1       3.727   0.324  -2.171  0.00  0.00     0.062 A 
ATOM      7  F   UNL d   1       3.193  -0.266  -3.249  0.00  0.00    -0.097 F 
ATOM      8  F1  UNL d   1       2.553  -1.164  -0.775  0.00  0.00    -0.096 F 
ATOM      9  I   UNL d   1       3.468  -0.206   2.137  0.00  0.00    -0.060 I 
ATOM     10  F2  UNL d   1       5.380   2.155   1.129  0.00  0.00    -0.096 F 
ATOM     11  F3  UNL d   1       6.000   3.030  -1.358  0.00  0.00    -0.097 F 
ATOM     12  F4  UNL d   1       4.914   1.829  -3.554  0.00  0.00    -0.092 F 
ENDROOT
TORSDOF 0
ENDMDL
