MODEL 1
REMARK minimizedAffinity 13.48318
REMARK minimizedRMSD -1
REMARK  0 active torsions:
REMARK  status: ('A' for Active; 'I' for Inactive)
ROOT
ATOM      1  C   UNL d   1       1.444   2.712   4.400  0.00  0.00     0.124 A 
ATOM      2  C1  UNL d   1       1.180   3.414   3.232  0.00  0.00     0.062 A 
ATOM      3  C2  UNL d   1       1.716   2.984   2.021  0.00  0.00     0.162 A 
ATOM      4  C3  UNL d   1       2.521   1.846   1.972  0.00  0.00    -0.034 A 
ATOM      5  C4  UNL d   1       2.783   1.147   3.151  0.00  0.00     0.162 A 
ATOM      6  C5  UNL d   1       2.245   1.580   4.359  0.00  0.00     0.062 A 
ATOM      7  F   UNL d   1       2.502   0.901   5.487  0.00  0.00    -0.097 F 
ATOM      8  F1  UNL d   1       3.553   0.048   3.140  0.00  0.00    -0.096 F 
ATOM      9  I   UNL d   1       3.324   1.201   0.164  0.00  0.00    -0.060 I 
ATOM     10  F2  UNL d   1       1.444   3.681   0.908  0.00  0.00    -0.096 F 
ATOM     11  F3  UNL d   1       0.407   4.509   3.269  0.00  0.00    -0.097 F 
ATOM     12  F4  UNL d   1       0.928   3.128   5.564  0.00  0.00    -0.092 F 
ENDROOT
TORSDOF 0
ENDMDL
