MODEL 1
REMARK minimizedAffinity -1.91229761
REMARK minimizedRMSD -1
REMARK  0 active torsions:
REMARK  status: ('A' for Active; 'I' for Inactive)
ROOT
ATOM      1  C   UNL d   1      -3.082   1.492  -5.545  0.00  0.00     0.172 C 
ATOM      2  N   UNL d   1      -2.829   2.051  -4.238  0.00  0.00    -0.070 N 
ATOM      3  C1  UNL d   1      -2.453   3.342  -3.981  0.00  0.00    -0.004 A 
ATOM      4  C2  UNL d   1      -2.313   3.478  -2.617  0.00  0.00    -0.047 A 
ATOM      5  C3  UNL d   1      -2.615   2.225  -2.033  0.00  0.00    -0.047 A 
ATOM      6  C4  UNL d   1      -2.931   1.359  -3.060  0.00  0.00    -0.004 A 
ENDROOT
TORSDOF 0
ENDMDL
