MODEL 1
REMARK minimizedAffinity -1.47291672
REMARK minimizedRMSD -1
REMARK  0 active torsions:
REMARK  status: ('A' for Active; 'I' for Inactive)
ROOT
ATOM      1  C   UNL d   1       1.798  -4.093   2.089  0.00  0.00     0.172 C 
ATOM      2  N   UNL d   1       0.596  -3.483   2.606  0.00  0.00    -0.070 N 
ATOM      3  C1  UNL d   1       0.328  -2.141   2.631  0.00  0.00    -0.004 A 
ATOM      4  C2  UNL d   1      -0.915  -1.968   3.199  0.00  0.00    -0.047 A 
ATOM      5  C3  UNL d   1      -1.412  -3.252   3.527  0.00  0.00    -0.047 A 
ATOM      6  C4  UNL d   1      -0.457  -4.171   3.149  0.00  0.00    -0.004 A 
ENDROOT
TORSDOF 0
ENDMDL
