MODEL 1
REMARK minimizedAffinity -0.27985552
REMARK minimizedRMSD -1
REMARK  0 active torsions:
REMARK  status: ('A' for Active; 'I' for Inactive)
ROOT
ATOM      1  C   UNL d   1       1.712  -4.239   1.525  0.00  0.00     0.172 C 
ATOM      2  N   UNL d   1       0.942  -3.018   1.570  0.00  0.00    -0.070 N 
ATOM      3  C1  UNL d   1       0.819  -2.114   0.548  0.00  0.00    -0.004 A 
ATOM      4  C2  UNL d   1       0.005  -1.092   0.985  0.00  0.00    -0.047 A 
ATOM      5  C3  UNL d   1      -0.375  -1.392   2.315  0.00  0.00    -0.047 A 
ATOM      6  C4  UNL d   1       0.220  -2.590   2.652  0.00  0.00    -0.004 A 
ENDROOT
TORSDOF 0
ENDMDL
