MODEL 1
REMARK minimizedAffinity -3.10860777
REMARK minimizedRMSD -1
REMARK  0 active torsions:
REMARK  status: ('A' for Active; 'I' for Inactive)
ROOT
ATOM      1  C   UNL d   1      -0.628  -0.732   1.873  0.00  0.00     0.172 C 
ATOM      2  N   UNL d   1       0.126  -1.946   1.664  0.00  0.00    -0.070 N 
ATOM      3  C1  UNL d   1       1.074  -2.140   0.695  0.00  0.00    -0.004 A 
ATOM      4  C2  UNL d   1       1.558  -3.423   0.829  0.00  0.00    -0.047 A 
ATOM      5  C3  UNL d   1       0.876  -4.022   1.915  0.00  0.00    -0.047 A 
ATOM      6  C4  UNL d   1      -0.005  -3.085   2.414  0.00  0.00    -0.004 A 
ENDROOT
TORSDOF 0
ENDMDL
