MODEL 1
REMARK minimizedAffinity -2.67457843
REMARK minimizedRMSD -1
REMARK  0 active torsions:
REMARK  status: ('A' for Active; 'I' for Inactive)
ROOT
ATOM      1  C   UNL d   1       0.332  -0.394  -0.571  0.00  0.00     0.172 C 
ATOM      2  N   UNL d   1      -0.115  -0.818   0.735  0.00  0.00    -0.070 N 
ATOM      3  C1  UNL d   1       0.568  -1.648   1.582  0.00  0.00    -0.004 A 
ATOM      4  C2  UNL d   1      -0.191  -1.806   2.722  0.00  0.00    -0.047 A 
ATOM      5  C3  UNL d   1      -1.372  -1.045   2.552  0.00  0.00    -0.047 A 
ATOM      6  C4  UNL d   1      -1.299  -0.444   1.314  0.00  0.00    -0.004 A 
ENDROOT
TORSDOF 0
ENDMDL
