MODEL 1
REMARK minimizedAffinity -2.74690914
REMARK minimizedRMSD -1
REMARK  0 active torsions:
REMARK  status: ('A' for Active; 'I' for Inactive)
ROOT
ATOM      1  C   UNL d   1       0.613  -2.252   2.647  0.00  0.00     0.172 C 
ATOM      2  N   UNL d   1      -0.473  -1.449   2.136  0.00  0.00    -0.070 N 
ATOM      3  C1  UNL d   1      -1.692  -1.280   2.737  0.00  0.00    -0.004 A 
ATOM      4  C2  UNL d   1      -2.444  -0.447   1.938  0.00  0.00    -0.047 A 
ATOM      5  C3  UNL d   1      -1.650  -0.104   0.818  0.00  0.00    -0.047 A 
ATOM      6  C4  UNL d   1      -0.435  -0.738   0.966  0.00  0.00    -0.004 A 
ENDROOT
TORSDOF 0
ENDMDL
