MODEL 1
REMARK minimizedAffinity 3.08633447
REMARK minimizedRMSD -1
REMARK  0 active torsions:
REMARK  status: ('A' for Active; 'I' for Inactive)
ROOT
ATOM      1  C   UNL d   1      -0.249  -0.716  -0.292  0.00  0.00     0.172 C 
ATOM      2  N   UNL d   1      -1.223  -0.607   0.769  0.00  0.00    -0.070 N 
ATOM      3  C1  UNL d   1      -1.009  -0.029   1.992  0.00  0.00    -0.004 A 
ATOM      4  C2  UNL d   1      -2.179  -0.125   2.714  0.00  0.00    -0.047 A 
ATOM      5  C3  UNL d   1      -3.128  -0.785   1.898  0.00  0.00    -0.047 A 
ATOM      6  C4  UNL d   1      -2.510  -1.072   0.699  0.00  0.00    -0.004 A 
ENDROOT
TORSDOF 0
ENDMDL
