MODEL 1
REMARK minimizedAffinity 6.01862097
REMARK minimizedRMSD -1
REMARK  0 active torsions:
REMARK  status: ('A' for Active; 'I' for Inactive)
ROOT
ATOM      1  C   UNL d   1      -3.003   5.664  -5.838  0.00  0.00     0.020 A 
ATOM      2  C1  UNL d   1      -3.490   4.414  -5.457  0.00  0.00     0.020 A 
ATOM      3  C2  UNL d   1      -2.605   3.357  -5.236  0.00  0.00     0.034 A 
ATOM      4  C3  UNL d   1      -1.228   3.547  -5.396  0.00  0.00     0.017 A 
ATOM      5  C4  UNL d   1      -0.739   4.801  -5.779  0.00  0.00     0.017 A 
ATOM      6  C5  UNL d   1      -1.630   5.856  -5.999  0.00  0.00     0.034 A 
ATOM      7 Cl   UNL d   1       0.947   5.112  -5.997  0.00  0.00    -0.070 Cl
ATOM      8 Cl1  UNL d   1      -0.192   2.195  -5.106  0.00  0.00    -0.070 Cl
ENDROOT
TORSDOF 0
ENDMDL
