MODEL 1
REMARK minimizedAffinity 18.0754738
REMARK minimizedRMSD -1
REMARK  0 active torsions:
REMARK  status: ('A' for Active; 'I' for Inactive)
ROOT
ATOM      1  C   UNL d   1       2.402   3.346  -2.200  0.00  0.00     0.020 A 
ATOM      2  C1  UNL d   1       2.317   3.401  -0.810  0.00  0.00     0.020 A 
ATOM      3  C2  UNL d   1       1.885   2.283  -0.092  0.00  0.00     0.034 A 
ATOM      4  C3  UNL d   1       1.536   1.107  -0.765  0.00  0.00     0.017 A 
ATOM      5  C4  UNL d   1       1.622   1.053  -2.161  0.00  0.00     0.017 A 
ATOM      6  C5  UNL d   1       2.055   2.175  -2.874  0.00  0.00     0.034 A 
ATOM      7 Cl   UNL d   1       1.209  -0.363  -3.062  0.00  0.00    -0.070 Cl
ATOM      8 Cl1  UNL d   1       1.010  -0.237   0.185  0.00  0.00    -0.070 Cl
ENDROOT
TORSDOF 0
ENDMDL
