MODEL 1
REMARK minimizedAffinity 3.30202961
REMARK minimizedRMSD -1
REMARK  0 active torsions:
REMARK  status: ('A' for Active; 'I' for Inactive)
ROOT
ATOM      1  C   UNL d   1      -2.727   3.654  -5.979  0.00  0.00     0.020 A 
ATOM      2  C1  UNL d   1      -2.679   5.047  -5.975  0.00  0.00     0.020 A 
ATOM      3  C2  UNL d   1      -1.446   5.703  -5.974  0.00  0.00     0.034 A 
ATOM      4  C3  UNL d   1      -0.256   4.965  -5.978  0.00  0.00     0.017 A 
ATOM      5  C4  UNL d   1      -0.306   3.567  -5.983  0.00  0.00     0.017 A 
ATOM      6  C5  UNL d   1      -1.543   2.915  -5.984  0.00  0.00     0.034 A 
ATOM      7 Cl   UNL d   1       1.119   2.588  -5.988  0.00  0.00    -0.070 Cl
ATOM      8 Cl1  UNL d   1       1.233   5.842  -5.978  0.00  0.00    -0.070 Cl
ENDROOT
TORSDOF 0
ENDMDL
