MODEL 1
REMARK minimizedAffinity 6.3344698
REMARK minimizedRMSD -1
REMARK  0 active torsions:
REMARK  status: ('A' for Active; 'I' for Inactive)
ROOT
ATOM      1  C   UNL d   1       4.880   5.007  -5.995  0.00  0.00     0.020 A 
ATOM      2  C1  UNL d   1       3.901   6.000  -5.998  0.00  0.00     0.020 A 
ATOM      3  C2  UNL d   1       2.549   5.647  -5.999  0.00  0.00     0.034 A 
ATOM      4  C3  UNL d   1       2.173   4.299  -5.997  0.00  0.00     0.017 A 
ATOM      5  C4  UNL d   1       3.157   3.304  -5.994  0.00  0.00     0.017 A 
ATOM      6  C5  UNL d   1       4.509   3.662  -5.993  0.00  0.00     0.034 A 
ATOM      7 Cl   UNL d   1       2.770   1.619  -5.991  0.00  0.00    -0.070 Cl
ATOM      8 Cl1  UNL d   1       0.484   3.936  -5.998  0.00  0.00    -0.070 Cl
ENDROOT
TORSDOF 0
ENDMDL
