MODEL 1
REMARK minimizedAffinity 6.5878582
REMARK minimizedRMSD -1
REMARK  0 active torsions:
REMARK  status: ('A' for Active; 'I' for Inactive)
ROOT
ATOM      1  C   UNL d   1       2.279   0.822  -2.399  0.00  0.00     0.020 A 
ATOM      2  C1  UNL d   1       0.964   1.256  -2.236  0.00  0.00     0.020 A 
ATOM      3  C2  UNL d   1       0.390   2.114  -3.177  0.00  0.00     0.034 A 
ATOM      4  C3  UNL d   1       1.132   2.541  -4.285  0.00  0.00     0.017 A 
ATOM      5  C4  UNL d   1       2.452   2.104  -4.447  0.00  0.00     0.017 A 
ATOM      6  C5  UNL d   1       3.021   1.246  -3.502  0.00  0.00     0.034 A 
ATOM      7 Cl   UNL d   1       3.429   2.588  -5.788  0.00  0.00    -0.070 Cl
ATOM      8 Cl1  UNL d   1       0.359   3.601  -5.409  0.00  0.00    -0.070 Cl
ENDROOT
TORSDOF 0
ENDMDL
