MODEL 1
REMARK minimizedAffinity 7.11893034
REMARK minimizedRMSD -1
REMARK  0 active torsions:
REMARK  status: ('A' for Active; 'I' for Inactive)
ROOT
ATOM      1  C   UNL d   1      -3.587  -4.109   5.998  0.00  0.00     0.020 A 
ATOM      2  C1  UNL d   1      -2.611  -5.105   6.000  0.00  0.00     0.020 A 
ATOM      3  C2  UNL d   1      -1.518  -5.012   5.136  0.00  0.00     0.034 A 
ATOM      4  C3  UNL d   1      -1.398  -3.921   4.267  0.00  0.00     0.017 A 
ATOM      5  C4  UNL d   1      -2.379  -2.922   4.266  0.00  0.00     0.017 A 
ATOM      6  C5  UNL d   1      -3.471  -3.020   5.133  0.00  0.00     0.034 A 
ATOM      7 Cl   UNL d   1      -2.300  -1.547   3.223  0.00  0.00    -0.070 Cl
ATOM      8 Cl1  UNL d   1      -0.020  -3.870   3.226  0.00  0.00    -0.070 Cl
ENDROOT
TORSDOF 0
ENDMDL
