MODEL 1
REMARK minimizedAffinity 5.30309486
REMARK minimizedRMSD -1
REMARK  0 active torsions:
REMARK  status: ('A' for Active; 'I' for Inactive)
ROOT
ATOM      1  C   UNL d   1      -5.232   5.677  -5.988  0.00  0.00     0.020 A 
ATOM      2  C1  UNL d   1      -5.995   6.000  -4.867  0.00  0.00     0.020 A 
ATOM      3  C2  UNL d   1      -5.995   5.154  -3.755  0.00  0.00     0.034 A 
ATOM      4  C3  UNL d   1      -5.231   3.981  -3.763  0.00  0.00     0.017 A 
ATOM      5  C4  UNL d   1      -4.466   3.658  -4.889  0.00  0.00     0.017 A 
ATOM      6  C5  UNL d   1      -4.469   4.509  -5.999  0.00  0.00     0.034 A 
ATOM      7 Cl   UNL d   1      -3.498   2.229  -4.973  0.00  0.00    -0.070 Cl
ATOM      8 Cl1  UNL d   1      -5.279   2.982  -2.354  0.00  0.00    -0.070 Cl
ENDROOT
TORSDOF 0
ENDMDL
