MODEL 1
REMARK minimizedAffinity 7.40634108
REMARK minimizedRMSD -1
REMARK  0 active torsions:
REMARK  status: ('A' for Active; 'I' for Inactive)
ROOT
ATOM      1  C   UNL d   1       0.408   4.673  -5.947  0.00  0.00     0.020 A 
ATOM      2  C1  UNL d   1      -0.217   5.918  -5.985  0.00  0.00     0.020 A 
ATOM      3  C2  UNL d   1      -1.611   6.000  -6.000  0.00  0.00     0.034 A 
ATOM      4  C3  UNL d   1      -2.385   4.833  -5.977  0.00  0.00     0.017 A 
ATOM      5  C4  UNL d   1      -1.756   3.583  -5.939  0.00  0.00     0.017 A 
ATOM      6  C5  UNL d   1      -0.360   3.508  -5.924  0.00  0.00     0.034 A 
ATOM      7 Cl   UNL d   1      -2.643   2.100  -5.910  0.00  0.00    -0.070 Cl
ATOM      8 Cl1  UNL d   1      -4.104   5.009  -5.997  0.00  0.00    -0.070 Cl
ENDROOT
TORSDOF 0
ENDMDL
