MODEL 1
REMARK minimizedAffinity 8.27083015
REMARK minimizedRMSD -1
REMARK  0 active torsions:
REMARK  status: ('A' for Active; 'I' for Inactive)
ROOT
ATOM      1  C   UNL d   1      -5.286  -4.028   0.386  0.00  0.00     0.020 A 
ATOM      2  C1  UNL d   1      -5.229  -5.411   0.220  0.00  0.00     0.020 A 
ATOM      3  C2  UNL d   1      -4.102  -6.000  -0.357  0.00  0.00     0.034 A 
ATOM      4  C3  UNL d   1      -3.026  -5.205  -0.770  0.00  0.00     0.017 A 
ATOM      5  C4  UNL d   1      -3.084  -3.817  -0.603  0.00  0.00     0.017 A 
ATOM      6  C5  UNL d   1      -4.215  -3.233  -0.024  0.00  0.00     0.034 A 
ATOM      7 Cl   UNL d   1      -1.796  -2.770  -1.087  0.00  0.00    -0.070 Cl
ATOM      8 Cl1  UNL d   1      -1.664  -6.000  -1.475  0.00  0.00    -0.070 Cl
ENDROOT
TORSDOF 0
ENDMDL
