MODEL 1
REMARK minimizedAffinity 7.61760473
REMARK minimizedRMSD -1
REMARK  0 active torsions:
REMARK  status: ('A' for Active; 'I' for Inactive)
ROOT
ATOM      1  C   UNL d   1      -0.477  -4.091   3.008  0.00  0.00     0.020 A 
ATOM      2  C1  UNL d   1      -0.744  -3.075   2.092  0.00  0.00     0.020 A 
ATOM      3  C2  UNL d   1      -1.839  -2.229   2.286  0.00  0.00     0.034 A 
ATOM      4  C3  UNL d   1      -2.669  -2.398   3.400  0.00  0.00     0.017 A 
ATOM      5  C4  UNL d   1      -2.400  -3.418   4.320  0.00  0.00     0.017 A 
ATOM      6  C5  UNL d   1      -1.303  -4.262   4.120  0.00  0.00     0.034 A 
ATOM      7 Cl   UNL d   1      -3.379  -3.688   5.718  0.00  0.00    -0.070 Cl
ATOM      8 Cl1  UNL d   1      -4.004  -1.316   3.578  0.00  0.00    -0.070 Cl
ENDROOT
TORSDOF 0
ENDMDL
