MODEL 1
REMARK minimizedAffinity 15.8489361
REMARK minimizedRMSD -1
REMARK  0 active torsions:
REMARK  status: ('A' for Active; 'I' for Inactive)
ROOT
ATOM      1  C   UNL d   1       2.525   1.038  -3.861  0.00  0.00     0.020 A 
ATOM      2  C1  UNL d   1       2.403  -0.123  -3.099  0.00  0.00     0.020 A 
ATOM      3  C2  UNL d   1       1.965  -0.047  -1.775  0.00  0.00     0.034 A 
ATOM      4  C3  UNL d   1       1.647   1.193  -1.209  0.00  0.00     0.017 A 
ATOM      5  C4  UNL d   1       1.770   2.359  -1.975  0.00  0.00     0.017 A 
ATOM      6  C5  UNL d   1       2.209   2.276  -3.300  0.00  0.00     0.034 A 
ATOM      7 Cl   UNL d   1       1.397   3.925  -1.346  0.00  0.00    -0.070 Cl
ATOM      8 Cl1  UNL d   1       1.111   1.213   0.433  0.00  0.00    -0.070 Cl
ENDROOT
TORSDOF 0
ENDMDL
