MODEL 1
REMARK minimizedAffinity 6.66178513
REMARK minimizedRMSD -1
REMARK  0 active torsions:
REMARK  status: ('A' for Active; 'I' for Inactive)
ROOT
ATOM      1  C   UNL d   1      -1.099   5.986  -6.000  0.00  0.00     0.020 A 
ATOM      2  C1  UNL d   1       0.279   6.000  -5.788  0.00  0.00     0.020 A 
ATOM      3  C2  UNL d   1       0.928   4.848  -5.336  0.00  0.00     0.034 A 
ATOM      4  C3  UNL d   1       0.199   3.678  -5.095  0.00  0.00     0.017 A 
ATOM      5  C4  UNL d   1      -1.184   3.665  -5.309  0.00  0.00     0.017 A 
ATOM      6  C5  UNL d   1      -1.829   4.821  -5.761  0.00  0.00     0.034 A 
ATOM      7 Cl   UNL d   1      -2.151   2.259  -5.034  0.00  0.00    -0.070 Cl
ATOM      8 Cl1  UNL d   1       1.066   2.291  -4.539  0.00  0.00    -0.070 Cl
ENDROOT
TORSDOF 0
ENDMDL
