MODEL 1
REMARK minimizedAffinity 13.324975
REMARK minimizedRMSD -1
REMARK  0 active torsions:
REMARK  status: ('A' for Active; 'I' for Inactive)
ROOT
ATOM      1  C   UNL d   1      -4.133   1.299   0.944  0.00  0.00     0.020 A 
ATOM      2  C1  UNL d   1      -4.462   2.077  -0.165  0.00  0.00     0.020 A 
ATOM      3  C2  UNL d   1      -3.458   2.736  -0.878  0.00  0.00     0.034 A 
ATOM      4  C3  UNL d   1      -2.120   2.619  -0.481  0.00  0.00     0.017 A 
ATOM      5  C4  UNL d   1      -1.791   1.838   0.632  0.00  0.00     0.017 A 
ATOM      6  C5  UNL d   1      -2.801   1.180   1.342  0.00  0.00     0.034 A 
ATOM      7 Cl   UNL d   1      -0.164   1.646   1.181  0.00  0.00    -0.070 Cl
ATOM      8 Cl1  UNL d   1      -0.931   3.462  -1.409  0.00  0.00    -0.070 Cl
ENDROOT
TORSDOF 0
ENDMDL
