MODEL 1
REMARK minimizedAffinity 12.2280731
REMARK minimizedRMSD -1
REMARK  0 active torsions:
REMARK  status: ('A' for Active; 'I' for Inactive)
ROOT
ATOM      1  C   UNL d   1      -2.459  -4.949  -2.227  0.00  0.00     0.020 A 
ATOM      2  C1  UNL d   1      -3.380  -5.991  -2.120  0.00  0.00     0.020 A 
ATOM      3  C2  UNL d   1      -4.305  -6.000  -1.074  0.00  0.00     0.034 A 
ATOM      4  C3  UNL d   1      -4.311  -4.965  -0.131  0.00  0.00     0.017 A 
ATOM      5  C4  UNL d   1      -3.387  -3.921  -0.239  0.00  0.00     0.017 A 
ATOM      6  C5  UNL d   1      -2.463  -3.916  -1.289  0.00  0.00     0.034 A 
ATOM      7 Cl   UNL d   1      -3.333  -2.610   0.886  0.00  0.00    -0.070 Cl
ATOM      8 Cl1  UNL d   1      -5.483  -5.041   1.137  0.00  0.00    -0.070 Cl
ENDROOT
TORSDOF 0
ENDMDL
