MODEL 1
REMARK minimizedAffinity 6.77097225
REMARK minimizedRMSD -1
REMARK  0 active torsions:
REMARK  status: ('A' for Active; 'I' for Inactive)
ROOT
ATOM      1  C   UNL d   1      -1.854   5.995  -5.967  0.00  0.00     0.020 A 
ATOM      2  C1  UNL d   1      -0.562   5.998  -5.442  0.00  0.00     0.020 A 
ATOM      3  C2  UNL d   1      -0.006   4.815  -4.950  0.00  0.00     0.034 A 
ATOM      4  C3  UNL d   1      -0.741   3.625  -4.982  0.00  0.00     0.017 A 
ATOM      5  C4  UNL d   1      -2.038   3.623  -5.509  0.00  0.00     0.017 A 
ATOM      6  C5  UNL d   1      -2.590   4.810  -6.000  0.00  0.00     0.034 A 
ATOM      7 Cl   UNL d   1      -3.006   2.193  -5.581  0.00  0.00    -0.070 Cl
ATOM      8 Cl1  UNL d   1       0.010   2.200  -4.357  0.00  0.00    -0.070 Cl
ENDROOT
TORSDOF 0
ENDMDL
