MODEL 1
REMARK minimizedAffinity -0.0778676048
REMARK minimizedRMSD -1
REMARK  0 active torsions:
REMARK  status: ('A' for Active; 'I' for Inactive)
ROOT
ATOM      1  C   UNL d   1       1.157   4.697  -5.997  0.00  0.00     0.020 A 
ATOM      2  C1  UNL d   1       1.036   3.308  -5.997  0.00  0.00     0.020 A 
ATOM      3  C2  UNL d   1      -0.230   2.718  -5.998  0.00  0.00     0.034 A 
ATOM      4  C3  UNL d   1      -1.379   3.517  -5.999  0.00  0.00     0.017 A 
ATOM      5  C4  UNL d   1      -1.256   4.911  -5.999  0.00  0.00     0.017 A 
ATOM      6  C5  UNL d   1       0.014   5.496  -5.998  0.00  0.00     0.034 A 
ATOM      7 Cl   UNL d   1      -2.628   5.962  -6.000  0.00  0.00    -0.070 Cl
ATOM      8 Cl1  UNL d   1      -2.912   2.719  -6.000  0.00  0.00    -0.070 Cl
ENDROOT
TORSDOF 0
ENDMDL
