MODEL 1
REMARK minimizedAffinity 0.451478064
REMARK minimizedRMSD -1
REMARK  0 active torsions:
REMARK  status: ('A' for Active; 'I' for Inactive)
ROOT
ATOM      1  C   UNL d   1       2.979   3.168  -2.068  0.00  0.00     0.020 A 
ATOM      2  C1  UNL d   1       3.640   4.127  -2.835  0.00  0.00     0.020 A 
ATOM      3  C2  UNL d   1       3.047   4.619  -3.999  0.00  0.00     0.034 A 
ATOM      4  C3  UNL d   1       1.790   4.154  -4.400  0.00  0.00     0.017 A 
ATOM      5  C4  UNL d   1       1.127   3.192  -3.630  0.00  0.00     0.017 A 
ATOM      6  C5  UNL d   1       1.726   2.702  -2.464  0.00  0.00     0.034 A 
ATOM      7 Cl   UNL d   1      -0.426   2.569  -4.060  0.00  0.00    -0.070 Cl
ATOM      8 Cl1  UNL d   1       1.116   4.807  -5.851  0.00  0.00    -0.070 Cl
ENDROOT
TORSDOF 0
ENDMDL
