MODEL 1
REMARK minimizedAffinity 9.50994587
REMARK minimizedRMSD -1
REMARK  0 active torsions:
REMARK  status: ('A' for Active; 'I' for Inactive)
ROOT
ATOM      1  C   UNL d   1      -3.095   4.176  -5.997  0.00  0.00     0.020 A 
ATOM      2  C1  UNL d   1      -3.093   2.859  -5.539  0.00  0.00     0.020 A 
ATOM      3  C2  UNL d   1      -1.906   2.281  -5.082  0.00  0.00     0.034 A 
ATOM      4  C3  UNL d   1      -0.718   3.020  -5.083  0.00  0.00     0.017 A 
ATOM      5  C4  UNL d   1      -0.721   4.341  -5.544  0.00  0.00     0.017 A 
ATOM      6  C5  UNL d   1      -1.912   4.915  -6.000  0.00  0.00     0.034 A 
ATOM      7 Cl   UNL d   1       0.707   5.315  -5.575  0.00  0.00    -0.070 Cl
ATOM      8 Cl1  UNL d   1       0.712   2.241  -4.504  0.00  0.00    -0.070 Cl
ENDROOT
TORSDOF 0
ENDMDL
