MODEL 1
REMARK minimizedAffinity 2.59472013
REMARK minimizedRMSD -1
REMARK  0 active torsions:
REMARK  status: ('A' for Active; 'I' for Inactive)
ROOT
ATOM      1  C   UNL d   1      -1.136   2.947  -5.203  0.00  0.00     0.020 A 
ATOM      2  C1  UNL d   1      -0.832   4.187  -5.763  0.00  0.00     0.020 A 
ATOM      3  C2  UNL d   1      -1.848   5.115  -6.000  0.00  0.00     0.034 A 
ATOM      4  C3  UNL d   1      -3.174   4.804  -5.676  0.00  0.00     0.017 A 
ATOM      5  C4  UNL d   1      -3.479   3.559  -5.114  0.00  0.00     0.017 A 
ATOM      6  C5  UNL d   1      -2.457   2.634  -4.879  0.00  0.00     0.034 A 
ATOM      7 Cl   UNL d   1      -5.091   3.104  -4.688  0.00  0.00    -0.070 Cl
ATOM      8 Cl1  UNL d   1      -4.380   5.999  -5.996  0.00  0.00    -0.070 Cl
ENDROOT
TORSDOF 0
ENDMDL
