MODEL 1
REMARK minimizedAffinity -3.89752889
REMARK minimizedRMSD -1
REMARK  1 active torsions:
REMARK  status: ('A' for Active; 'I' for Inactive)
REMARK    1  A    between atoms: N_2  and  C1_3 
ROOT
ATOM      1  C1  UNL d   1       0.860  -0.455  -0.700  0.00  0.00     0.143 A 
ATOM      2  C2  UNL d   1      -0.205  -0.950   0.060  0.00  0.00    -0.057 A 
ATOM      3  C3  UNL d   1      -1.251  -0.117   0.474  0.00  0.00     0.033 A 
ATOM      4  C4  UNL d   1      -1.236   1.238   0.157  0.00  0.00    -0.042 A 
ATOM      5  C5  UNL d   1      -0.175   1.757  -0.576  0.00  0.00     0.033 A 
ATOM      6  C6  UNL d   1       0.863   0.918  -0.992  0.00  0.00    -0.057 A 
ENDROOT
BRANCH   1   7
ATOM      7  N   UNL d   1       1.978  -1.212  -1.057  0.00  0.00    -0.732 N 
ATOM      8  C   UNL d   1       3.285  -0.597  -1.150  0.00  0.00     0.284 C 
ATOM      9  H3  UNL d   1       1.981  -2.131  -0.621  0.00  0.00     0.395 HD
ENDBRANCH   1   7
TORSDOF 1
ENDMDL
