MODEL 1
REMARK minimizedAffinity 1.49711168
REMARK minimizedRMSD -1
REMARK  1 active torsions:
REMARK  status: ('A' for Active; 'I' for Inactive)
REMARK    1  A    between atoms: N_2  and  C1_3 
ROOT
ATOM      1  C1  UNL d   1       1.277  -0.868  -0.975  0.00  0.00     0.143 A 
ATOM      2  C2  UNL d   1       0.402  -1.786  -0.385  0.00  0.00    -0.057 A 
ATOM      3  C3  UNL d   1      -0.846  -1.385   0.110  0.00  0.00     0.033 A 
ATOM      4  C4  UNL d   1      -1.228  -0.050   0.048  0.00  0.00    -0.042 A 
ATOM      5  C5  UNL d   1      -0.364   0.884  -0.512  0.00  0.00     0.033 A 
ATOM      6  C6  UNL d   1       0.878   0.477  -1.010  0.00  0.00    -0.057 A 
ENDROOT
BRANCH   1   7
ATOM      7  N   UNL d   1       2.570  -1.187  -1.396  0.00  0.00    -0.732 N 
ATOM      8  C   UNL d   1       3.693  -0.352  -1.026  0.00  0.00     0.284 C 
ATOM      9  H3  UNL d   1       2.760  -2.186  -1.345  0.00  0.00     0.395 HD
ENDBRANCH   1   7
TORSDOF 1
ENDMDL
