MODEL 1
REMARK minimizedAffinity -3.48179412
REMARK minimizedRMSD -1
REMARK  1 active torsions:
REMARK  status: ('A' for Active; 'I' for Inactive)
REMARK    1  A    between atoms: N_2  and  C1_3 
ROOT
ATOM      1  C1  UNL d   1       0.917  -0.135  -0.660  0.00  0.00     0.143 A 
ATOM      2  C2  UNL d   1       1.948  -1.043  -0.922  0.00  0.00    -0.057 A 
ATOM      3  C3  UNL d   1       2.931  -0.770  -1.880  0.00  0.00     0.033 A 
ATOM      4  C4  UNL d   1       2.883   0.409  -2.617  0.00  0.00    -0.042 A 
ATOM      5  C5  UNL d   1       1.854   1.315  -2.392  0.00  0.00     0.033 A 
ATOM      6  C6  UNL d   1       0.879   1.040  -1.428  0.00  0.00    -0.057 A 
ENDROOT
BRANCH   1   7
ATOM      7  N   UNL d   1      -0.145  -0.392   0.210  0.00  0.00    -0.732 N 
ATOM      8  C   UNL d   1      -1.416   0.280   0.042  0.00  0.00     0.284 C 
ATOM      9  H3  UNL d   1      -0.225  -1.379   0.444  0.00  0.00     0.395 HD
ENDBRANCH   1   7
TORSDOF 1
ENDMDL
