MODEL 1
REMARK minimizedAffinity -2.48524356
REMARK minimizedRMSD -1
REMARK  1 active torsions:
REMARK  status: ('A' for Active; 'I' for Inactive)
REMARK    1  A    between atoms: N_2  and  C1_3 
ROOT
ATOM      1  C1  UNL d   1      -0.874   0.112   0.171  0.00  0.00     0.143 A 
ATOM      2  C2  UNL d   1      -0.675   1.213  -0.668  0.00  0.00    -0.057 A 
ATOM      3  C3  UNL d   1       0.363   1.233  -1.607  0.00  0.00     0.033 A 
ATOM      4  C4  UNL d   1       1.242   0.159  -1.704  0.00  0.00    -0.042 A 
ATOM      5  C5  UNL d   1       1.078  -0.936  -0.863  0.00  0.00     0.033 A 
ATOM      6  C6  UNL d   1       0.035  -0.953   0.069  0.00  0.00    -0.057 A 
ENDROOT
BRANCH   1   7
ATOM      7  N   UNL d   1      -1.827   0.073   1.192  0.00  0.00    -0.732 N 
ATOM      8  C   UNL d   1      -1.807   1.053   2.257  0.00  0.00     0.284 C 
ATOM      9  H3  UNL d   1      -2.759  -0.145   0.846  0.00  0.00     0.395 HD
ENDBRANCH   1   7
TORSDOF 1
ENDMDL
