MODEL 1
REMARK minimizedAffinity -4.64250088
REMARK minimizedRMSD -1
REMARK  1 active torsions:
REMARK  status: ('A' for Active; 'I' for Inactive)
REMARK    1  A    between atoms: N_2  and  C1_3 
ROOT
ATOM      1  C1  UNL d   1       0.437  -0.130   0.360  0.00  0.00     0.143 A 
ATOM      2  C2  UNL d   1       1.617   0.397   0.894  0.00  0.00    -0.057 A 
ATOM      3  C3  UNL d   1       2.844   0.244   0.236  0.00  0.00     0.033 A 
ATOM      4  C4  UNL d   1       2.916  -0.466  -0.957  0.00  0.00    -0.042 A 
ATOM      5  C5  UNL d   1       1.759  -1.020  -1.495  0.00  0.00     0.033 A 
ATOM      6  C6  UNL d   1       0.536  -0.858  -0.836  0.00  0.00    -0.057 A 
ENDROOT
BRANCH   1   7
ATOM      7  N   UNL d   1      -0.797  -0.097   1.015  0.00  0.00    -0.732 N 
ATOM      8  C   UNL d   1      -1.978   0.393   0.337  0.00  0.00     0.284 C 
ATOM      9  H3  UNL d   1      -0.957  -0.925   1.584  0.00  0.00     0.395 HD
ENDBRANCH   1   7
TORSDOF 1
ENDMDL
