MODEL 1
REMARK minimizedAffinity -3.94971061
REMARK minimizedRMSD -1
REMARK  1 active torsions:
REMARK  status: ('A' for Active; 'I' for Inactive)
REMARK    1  A    between atoms: N_2  and  C1_3 
ROOT
ATOM      1  C1  UNL d   1       0.129   0.211  -0.981  0.00  0.00     0.143 A 
ATOM      2  C2  UNL d   1       1.111  -0.769  -1.160  0.00  0.00    -0.057 A 
ATOM      3  C3  UNL d   1       2.109  -0.629  -2.131  0.00  0.00     0.033 A 
ATOM      4  C4  UNL d   1       2.126   0.484  -2.964  0.00  0.00    -0.042 A 
ATOM      5  C5  UNL d   1       1.145   1.460  -2.822  0.00  0.00     0.033 A 
ATOM      6  C6  UNL d   1       0.155   1.318  -1.845  0.00  0.00    -0.057 A 
ENDROOT
BRANCH   1   7
ATOM      7  N   UNL d   1      -0.947   0.084  -0.099  0.00  0.00    -0.732 N 
ATOM      8  C   UNL d   1      -0.739   0.150   1.331  0.00  0.00     0.284 C 
ATOM      9  H3  UNL d   1      -1.775   0.578  -0.423  0.00  0.00     0.395 HD
ENDBRANCH   1   7
TORSDOF 1
ENDMDL
