MODEL 1
REMARK minimizedAffinity -4.5589695
REMARK minimizedRMSD -1
REMARK  1 active torsions:
REMARK  status: ('A' for Active; 'I' for Inactive)
REMARK    1  A    between atoms: N_2  and  C1_3 
ROOT
ATOM      1  C1  UNL d   1       0.255  -0.121  -0.304  0.00  0.00     0.143 A 
ATOM      2  C2  UNL d   1       0.667  -1.435  -0.548  0.00  0.00    -0.057 A 
ATOM      3  C3  UNL d   1       1.944  -1.716  -1.047  0.00  0.00     0.033 A 
ATOM      4  C4  UNL d   1       2.826  -0.680  -1.340  0.00  0.00    -0.042 A 
ATOM      5  C5  UNL d   1       2.429   0.635  -1.130  0.00  0.00     0.033 A 
ATOM      6  C6  UNL d   1       1.154   0.909  -0.625  0.00  0.00    -0.057 A 
ENDROOT
BRANCH   1   7
ATOM      7  N   UNL d   1      -1.036   0.228   0.098  0.00  0.00    -0.732 N 
ATOM      8  C   UNL d   1      -1.315   0.554   1.480  0.00  0.00     0.284 C 
ATOM      9  H3  UNL d   1      -1.502   0.834  -0.574  0.00  0.00     0.395 HD
ENDBRANCH   1   7
TORSDOF 1
ENDMDL
