MODEL 1
REMARK minimizedAffinity -2.67652988
REMARK minimizedRMSD -1
REMARK  1 active torsions:
REMARK  status: ('A' for Active; 'I' for Inactive)
REMARK    1  A    between atoms: N_2  and  C1_3 
ROOT
ATOM      1  C1  UNL d   1       1.748   0.572  -0.930  0.00  0.00     0.143 A 
ATOM      2  C2  UNL d   1       1.121   1.686  -1.499  0.00  0.00    -0.057 A 
ATOM      3  C3  UNL d   1      -0.221   1.981  -1.231  0.00  0.00     0.033 A 
ATOM      4  C4  UNL d   1      -0.971   1.147  -0.408  0.00  0.00    -0.042 A 
ATOM      5  C5  UNL d   1      -0.376   0.021   0.150  0.00  0.00     0.033 A 
ATOM      6  C6  UNL d   1       0.966  -0.265  -0.117  0.00  0.00    -0.057 A 
ENDROOT
BRANCH   1   7
ATOM      7  N   UNL d   1       3.050   0.171  -1.236  0.00  0.00    -0.732 N 
ATOM      8  C   UNL d   1       3.290  -1.035  -2.000  0.00  0.00     0.284 C 
ATOM      9  H3  UNL d   1       3.647   0.953  -1.495  0.00  0.00     0.395 HD
ENDBRANCH   1   7
TORSDOF 1
ENDMDL
