MODEL 1
REMARK minimizedAffinity -5.1869235
REMARK minimizedRMSD -1
REMARK  1 active torsions:
REMARK  status: ('A' for Active; 'I' for Inactive)
REMARK    1  A    between atoms: N_2  and  C1_3 
ROOT
ATOM      1  C1  UNL d   1       0.434  -0.086   0.134  0.00  0.00     0.143 A 
ATOM      2  C2  UNL d   1       0.655  -1.461  -0.003  0.00  0.00    -0.057 A 
ATOM      3  C3  UNL d   1       1.842  -1.953  -0.559  0.00  0.00     0.033 A 
ATOM      4  C4  UNL d   1       2.820  -1.076  -1.015  0.00  0.00    -0.042 A 
ATOM      5  C5  UNL d   1       2.611   0.295  -0.911  0.00  0.00     0.033 A 
ATOM      6  C6  UNL d   1       1.426   0.780  -0.349  0.00  0.00    -0.057 A 
ENDROOT
BRANCH   1   7
ATOM      7  N   UNL d   1      -0.766   0.467   0.588  0.00  0.00    -0.732 N 
ATOM      8  C   UNL d   1      -0.860   1.039   1.914  0.00  0.00     0.284 C 
ATOM      9  H3  UNL d   1      -1.242   1.006  -0.132  0.00  0.00     0.395 HD
ENDBRANCH   1   7
TORSDOF 1
ENDMDL
