MODEL 1
REMARK minimizedAffinity -1.07230747
REMARK minimizedRMSD -1
REMARK  1 active torsions:
REMARK  status: ('A' for Active; 'I' for Inactive)
REMARK    1  A    between atoms: N_2  and  C1_3 
ROOT
ATOM      1  C1  UNL d   1       0.533  -0.105  -0.792  0.00  0.00     0.143 A 
ATOM      2  C2  UNL d   1       0.865   0.983  -1.606  0.00  0.00    -0.057 A 
ATOM      3  C3  UNL d   1      -0.034   2.037  -1.813  0.00  0.00     0.033 A 
ATOM      4  C4  UNL d   1      -1.296   2.006  -1.229  0.00  0.00    -0.042 A 
ATOM      5  C5  UNL d   1      -1.657   0.923  -0.436  0.00  0.00     0.033 A 
ATOM      6  C6  UNL d   1      -0.753  -0.123  -0.228  0.00  0.00    -0.057 A 
ENDROOT
BRANCH   1   7
ATOM      7  N   UNL d   1       1.345  -1.229  -0.627  0.00  0.00    -0.732 N 
ATOM      8  C   UNL d   1       2.390  -1.530  -1.581  0.00  0.00     0.284 C 
ATOM      9  H3  UNL d   1       1.613  -1.376   0.344  0.00  0.00     0.395 HD
ENDBRANCH   1   7
TORSDOF 1
ENDMDL
