MODEL 1
REMARK minimizedAffinity 1.4549973
REMARK minimizedRMSD -1
REMARK  1 active torsions:
REMARK  status: ('A' for Active; 'I' for Inactive)
REMARK    1  A    between atoms: N_2  and  C1_3 
ROOT
ATOM      1  C1  UNL d   1      -1.539  -0.275   0.508  0.00  0.00     0.143 A 
ATOM      2  C2  UNL d   1      -0.967   0.878  -0.040  0.00  0.00    -0.057 A 
ATOM      3  C3  UNL d   1       0.234   0.822  -0.757  0.00  0.00     0.033 A 
ATOM      4  C4  UNL d   1       0.901  -0.388  -0.915  0.00  0.00    -0.042 A 
ATOM      5  C5  UNL d   1       0.364  -1.543  -0.358  0.00  0.00     0.033 A 
ATOM      6  C6  UNL d   1      -0.840  -1.482   0.352  0.00  0.00    -0.057 A 
ENDROOT
BRANCH   1   7
ATOM      7  N   UNL d   1      -2.679  -0.269   1.315  0.00  0.00    -0.732 N 
ATOM      8  C   UNL d   1      -2.586   0.066   2.720  0.00  0.00     0.284 C 
ATOM      9  H3  UNL d   1      -3.486   0.134   0.845  0.00  0.00     0.395 HD
ENDBRANCH   1   7
TORSDOF 1
ENDMDL
