MODEL 1
REMARK minimizedAffinity -2.59211302
REMARK minimizedRMSD -1
REMARK  1 active torsions:
REMARK  status: ('A' for Active; 'I' for Inactive)
REMARK    1  A    between atoms: N_2  and  C1_3 
ROOT
ATOM      1  C1  UNL d   1      -1.423   0.745   1.160  0.00  0.00     0.143 A 
ATOM      2  C2  UNL d   1      -1.830   1.800   0.336  0.00  0.00    -0.057 A 
ATOM      3  C3  UNL d   1      -1.111   2.140  -0.816  0.00  0.00     0.033 A 
ATOM      4  C4  UNL d   1       0.048   1.447  -1.150  0.00  0.00    -0.042 A 
ATOM      5  C5  UNL d   1       0.485   0.411  -0.332  0.00  0.00     0.033 A 
ATOM      6  C6  UNL d   1      -0.241   0.072   0.814  0.00  0.00    -0.057 A 
ENDROOT
BRANCH   1   7
ATOM      7  N   UNL d   1      -2.040   0.422   2.372  0.00  0.00    -0.732 N 
ATOM      8  C   UNL d   1      -2.126   1.397   3.438  0.00  0.00     0.284 C 
ATOM      9  H3  UNL d   1      -2.885  -0.128   2.242  0.00  0.00     0.395 HD
ENDBRANCH   1   7
TORSDOF 1
ENDMDL
