MODEL 1
REMARK minimizedAffinity 0.620153546
REMARK minimizedRMSD -1
REMARK  1 active torsions:
REMARK  status: ('A' for Active; 'I' for Inactive)
REMARK    1  A    between atoms: N_2  and  C1_3 
ROOT
ATOM      1  C1  UNL d   1       0.390  -0.154  -1.331  0.00  0.00     0.143 A 
ATOM      2  C2  UNL d   1      -0.802  -0.214  -0.601  0.00  0.00    -0.057 A 
ATOM      3  C3  UNL d   1      -1.102  -1.315   0.209  0.00  0.00     0.033 A 
ATOM      4  C4  UNL d   1      -0.226  -2.393   0.282  0.00  0.00    -0.042 A 
ATOM      5  C5  UNL d   1       0.954  -2.366  -0.455  0.00  0.00     0.033 A 
ATOM      6  C6  UNL d   1       1.251  -1.260  -1.257  0.00  0.00    -0.057 A 
ENDROOT
BRANCH   1   7
ATOM      7  N   UNL d   1       0.700   0.869  -2.231  0.00  0.00    -0.732 N 
ATOM      8  C   UNL d   1       1.287   0.565  -3.518  0.00  0.00     0.284 C 
ATOM      9  H3  UNL d   1      -0.016   1.591  -2.260  0.00  0.00     0.395 HD
ENDBRANCH   1   7
TORSDOF 1
ENDMDL
