MODEL 1
REMARK minimizedAffinity 0.406924725
REMARK minimizedRMSD -1
REMARK  0 active torsions:
REMARK  status: ('A' for Active; 'I' for Inactive)
ROOT
ATOM      1  C   UNL d   1       1.164  -0.310   1.692  0.00  0.00     0.124 A 
ATOM      2  C1  UNL d   1       2.444   0.228   1.704  0.00  0.00     0.062 A 
ATOM      3  C2  UNL d   1       2.760   1.300   0.874  0.00  0.00     0.162 A 
ATOM      4  C3  UNL d   1       1.795   1.842   0.025  0.00  0.00    -0.034 A 
ATOM      5  C4  UNL d   1       0.511   1.295   0.018  0.00  0.00     0.162 A 
ATOM      6  C5  UNL d   1       0.199   0.224   0.849  0.00  0.00     0.062 A 
ATOM      7  F   UNL d   1      -1.038  -0.295   0.836  0.00  0.00    -0.097 F 
ATOM      8  F1  UNL d   1      -0.441   1.792  -0.786  0.00  0.00    -0.096 F 
ATOM      9  I   UNL d   1       2.265   3.444  -1.217  0.00  0.00    -0.060 I 
ATOM     10  F2  UNL d   1       4.004   1.800   0.907  0.00  0.00    -0.096 F 
ATOM     11  F3  UNL d   1       3.378  -0.286   2.516  0.00  0.00    -0.097 F 
ATOM     12  F4  UNL d   1       0.862  -1.341   2.491  0.00  0.00    -0.092 F 
ENDROOT
TORSDOF 0
ENDMDL
