MODEL 1
REMARK minimizedAffinity -6.47945786
REMARK minimizedRMSD -1
REMARK  0 active torsions:
REMARK  status: ('A' for Active; 'I' for Inactive)
ROOT
ATOM      1  C   UNL d   1      -0.066  -0.546   2.222  0.00  0.00     0.124 A 
ATOM      2  C1  UNL d   1       1.241  -0.079   2.198  0.00  0.00     0.062 A 
ATOM      3  C2  UNL d   1       1.688   0.696   1.131  0.00  0.00     0.162 A 
ATOM      4  C3  UNL d   1       0.827   1.010   0.080  0.00  0.00    -0.034 A 
ATOM      5  C4  UNL d   1      -0.485   0.536   0.110  0.00  0.00     0.162 A 
ATOM      6  C5  UNL d   1      -0.928  -0.238   1.178  0.00  0.00     0.062 A 
ATOM      7  F   UNL d   1      -2.191  -0.688   1.199  0.00  0.00    -0.097 F 
ATOM      8  F1  UNL d   1      -1.340   0.819  -0.885  0.00  0.00    -0.096 F 
ATOM      9  I   UNL d   1       1.492   2.168  -1.517  0.00  0.00    -0.060 I 
ATOM     10  F2  UNL d   1       2.956   1.134   1.135  0.00  0.00    -0.096 F 
ATOM     11  F3  UNL d   1       2.076  -0.375   3.204  0.00  0.00    -0.097 F 
ATOM     12  F4  UNL d   1      -0.493  -1.292   3.248  0.00  0.00    -0.092 F 
ENDROOT
TORSDOF 0
ENDMDL
