MODEL 1
REMARK minimizedAffinity 2.32578278
REMARK minimizedRMSD -1
REMARK  0 active torsions:
REMARK  status: ('A' for Active; 'I' for Inactive)
ROOT
ATOM      1  C   UNL d   1       2.930  -1.307  -4.947  0.00  0.00     0.124 A 
ATOM      2  C1  UNL d   1       1.948  -2.219  -4.587  0.00  0.00     0.062 A 
ATOM      3  C2  UNL d   1       1.025  -1.899  -3.595  0.00  0.00     0.162 A 
ATOM      4  C3  UNL d   1       1.078  -0.660  -2.958  0.00  0.00    -0.034 A 
ATOM      5  C4  UNL d   1       2.069   0.252  -3.325  0.00  0.00     0.162 A 
ATOM      6  C5  UNL d   1       2.989  -0.072  -4.316  0.00  0.00     0.062 A 
ATOM      7  F   UNL d   1       3.937   0.811  -4.663  0.00  0.00    -0.097 F 
ATOM      8  F1  UNL d   1       2.149   1.453  -2.732  0.00  0.00    -0.096 F 
ATOM      9  I   UNL d   1      -0.300  -0.178  -1.475  0.00  0.00    -0.060 I 
ATOM     10  F2  UNL d   1       0.087  -2.801  -3.267  0.00  0.00    -0.096 F 
ATOM     11  F3  UNL d   1       1.889  -3.413  -5.194  0.00  0.00    -0.097 F 
ATOM     12  F4  UNL d   1       3.817  -1.618  -5.901  0.00  0.00    -0.092 F 
ENDROOT
TORSDOF 0
ENDMDL
