MODEL 1
REMARK minimizedAffinity -0.75266248
REMARK minimizedRMSD -1
REMARK  0 active torsions:
REMARK  status: ('A' for Active; 'I' for Inactive)
ROOT
ATOM      1  C   UNL d   1      -0.532  -0.125   2.450  0.00  0.00     0.124 A 
ATOM      2  C1  UNL d   1      -1.291  -0.247   1.294  0.00  0.00     0.062 A 
ATOM      3  C2  UNL d   1      -0.669  -0.273   0.048  0.00  0.00     0.162 A 
ATOM      4  C3  UNL d   1       0.719  -0.178  -0.048  0.00  0.00    -0.034 A 
ATOM      5  C4  UNL d   1       1.475  -0.054   1.119  0.00  0.00     0.162 A 
ATOM      6  C5  UNL d   1       0.850  -0.029   2.361  0.00  0.00     0.062 A 
ATOM      7  F   UNL d   1       1.584   0.090   3.477  0.00  0.00    -0.097 F 
ATOM      8  F1  UNL d   1       2.812   0.040   1.063  0.00  0.00    -0.096 F 
ATOM      9  I   UNL d   1       1.651  -0.217  -1.908  0.00  0.00    -0.060 I 
ATOM     10  F2  UNL d   1      -1.427  -0.392  -1.052  0.00  0.00    -0.096 F 
ATOM     11  F3  UNL d   1      -2.626  -0.339   1.376  0.00  0.00    -0.097 F 
ATOM     12  F4  UNL d   1      -1.132  -0.099   3.647  0.00  0.00    -0.092 F 
ENDROOT
TORSDOF 0
ENDMDL
