MODEL 1
REMARK minimizedAffinity 5.2538991
REMARK minimizedRMSD -1
REMARK  0 active torsions:
REMARK  status: ('A' for Active; 'I' for Inactive)
ROOT
ATOM      1  C   UNL d   1      -1.003   0.555   2.141  0.00  0.00     0.124 A 
ATOM      2  C1  UNL d   1       0.304   0.156   1.900  0.00  0.00     0.062 A 
ATOM      3  C2  UNL d   1       0.680  -0.285   0.635  0.00  0.00     0.162 A 
ATOM      4  C3  UNL d   1      -0.253  -0.329  -0.401  0.00  0.00    -0.034 A 
ATOM      5  C4  UNL d   1      -1.566   0.072  -0.151  0.00  0.00     0.162 A 
ATOM      6  C5  UNL d   1      -1.937   0.513   1.115  0.00  0.00     0.062 A 
ATOM      7  F   UNL d   1      -3.201   0.898   1.345  0.00  0.00    -0.097 F 
ATOM      8  F1  UNL d   1      -2.489   0.043  -1.125  0.00  0.00    -0.096 F 
ATOM      9  I   UNL d   1       0.305  -0.989  -2.294  0.00  0.00    -0.060 I 
ATOM     10  F2  UNL d   1       1.951  -0.664   0.432  0.00  0.00    -0.096 F 
ATOM     11  F3  UNL d   1       1.208   0.195   2.890  0.00  0.00    -0.097 F 
ATOM     12  F4  UNL d   1      -1.363   0.979   3.359  0.00  0.00    -0.092 F 
ENDROOT
TORSDOF 0
ENDMDL
