MODEL 1
REMARK minimizedAffinity 4.8489356
REMARK minimizedRMSD -1
REMARK  0 active torsions:
REMARK  status: ('A' for Active; 'I' for Inactive)
ROOT
ATOM      1  C   UNL d   1       1.755  -0.642  -1.955  0.00  0.00     0.124 A 
ATOM      2  C1  UNL d   1       2.744  -1.384  -2.587  0.00  0.00     0.062 A 
ATOM      3  C2  UNL d   1       3.953  -0.786  -2.933  0.00  0.00     0.162 A 
ATOM      4  C3  UNL d   1       4.180   0.560  -2.648  0.00  0.00    -0.034 A 
ATOM      5  C4  UNL d   1       3.180   1.299  -2.014  0.00  0.00     0.162 A 
ATOM      6  C5  UNL d   1       1.974   0.698  -1.669  0.00  0.00     0.062 A 
ATOM      7  F   UNL d   1       1.019   1.416  -1.059  0.00  0.00    -0.097 F 
ATOM      8  F1  UNL d   1       3.365   2.596  -1.725  0.00  0.00    -0.096 F 
ATOM      9  I   UNL d   1       5.985   1.457  -3.165  0.00  0.00    -0.060 I 
ATOM     10  F2  UNL d   1       4.891  -1.527  -3.543  0.00  0.00    -0.096 F 
ATOM     11  F3  UNL d   1       2.535  -2.678  -2.865  0.00  0.00    -0.097 F 
ATOM     12  F4  UNL d   1       0.593  -1.219  -1.624  0.00  0.00    -0.092 F 
ENDROOT
TORSDOF 0
ENDMDL
