MODEL 1
REMARK minimizedAffinity 18.576334
REMARK minimizedRMSD -1
REMARK  0 active torsions:
REMARK  status: ('A' for Active; 'I' for Inactive)
ROOT
ATOM      1  C   UNL d   1      -0.547  -2.295  -4.883  0.00  0.00     0.124 A 
ATOM      2  C1  UNL d   1      -1.634  -1.858  -4.139  0.00  0.00     0.062 A 
ATOM      3  C2  UNL d   1      -1.436  -1.118  -2.977  0.00  0.00     0.162 A 
ATOM      4  C3  UNL d   1      -0.144  -0.809  -2.551  0.00  0.00    -0.034 A 
ATOM      5  C4  UNL d   1       0.945  -1.253  -3.304  0.00  0.00     0.162 A 
ATOM      6  C5  UNL d   1       0.741  -1.992  -4.465  0.00  0.00     0.062 A 
ATOM      7  F   UNL d   1       1.793  -2.413  -5.182  0.00  0.00    -0.097 F 
ATOM      8  F1  UNL d   1       2.200  -0.973  -2.923  0.00  0.00    -0.096 F 
ATOM      9  I   UNL d   1       0.157   0.297  -0.814  0.00  0.00    -0.060 I 
ATOM     10  F2  UNL d   1      -2.506  -0.709  -2.278  0.00  0.00    -0.096 F 
ATOM     11  F3  UNL d   1      -2.880  -2.150  -4.541  0.00  0.00    -0.097 F 
ATOM     12  F4  UNL d   1      -0.740  -3.007  -6.000  0.00  0.00    -0.092 F 
ENDROOT
TORSDOF 0
ENDMDL
