MODEL 1
REMARK minimizedAffinity 2.38844991
REMARK minimizedRMSD -1
REMARK  0 active torsions:
REMARK  status: ('A' for Active; 'I' for Inactive)
ROOT
ATOM      1  C   UNL d   1       2.504  -3.012  -3.462  0.00  0.00     0.124 A 
ATOM      2  C1  UNL d   1       3.602  -2.186  -3.271  0.00  0.00     0.062 A 
ATOM      3  C2  UNL d   1       3.467  -0.994  -2.565  0.00  0.00     0.162 A 
ATOM      4  C3  UNL d   1       2.228  -0.621  -2.044  0.00  0.00    -0.034 A 
ATOM      5  C4  UNL d   1       1.127  -1.458  -2.241  0.00  0.00     0.162 A 
ATOM      6  C5  UNL d   1       1.268  -2.648  -2.947  0.00  0.00     0.062 A 
ATOM      7  F   UNL d   1       0.206  -3.446  -3.131  0.00  0.00    -0.097 F 
ATOM      8  F1  UNL d   1      -0.079  -1.130  -1.754  0.00  0.00    -0.096 F 
ATOM      9  I   UNL d   1       2.021   1.160  -0.988  0.00  0.00    -0.060 I 
ATOM     10  F2  UNL d   1       4.545  -0.214  -2.396  0.00  0.00    -0.096 F 
ATOM     11  F3  UNL d   1       4.798  -2.535  -3.768  0.00  0.00    -0.097 F 
ATOM     12  F4  UNL d   1       2.637  -4.158  -4.142  0.00  0.00    -0.092 F 
ENDROOT
TORSDOF 0
ENDMDL
