MODEL 1
REMARK minimizedAffinity 8.33857536
REMARK minimizedRMSD -1
REMARK  0 active torsions:
REMARK  status: ('A' for Active; 'I' for Inactive)
ROOT
ATOM      1  C   UNL d   1      -1.051  -1.458  -3.263  0.00  0.00     0.124 A 
ATOM      2  C1  UNL d   1      -0.414  -2.263  -4.197  0.00  0.00     0.062 A 
ATOM      3  C2  UNL d   1       0.937  -2.079  -4.474  0.00  0.00     0.162 A 
ATOM      4  C3  UNL d   1       1.662  -1.085  -3.815  0.00  0.00    -0.034 A 
ATOM      5  C4  UNL d   1       1.014  -0.278  -2.878  0.00  0.00     0.162 A 
ATOM      6  C5  UNL d   1      -0.337  -0.467  -2.604  0.00  0.00     0.062 A 
ATOM      7  F   UNL d   1      -0.951   0.312  -1.702  0.00  0.00    -0.097 F 
ATOM      8  F1  UNL d   1       1.680   0.686  -2.226  0.00  0.00    -0.096 F 
ATOM      9  I   UNL d   1       3.682  -0.806  -4.227  0.00  0.00    -0.060 I 
ATOM     10  F2  UNL d   1       1.527  -2.871  -5.381  0.00  0.00    -0.096 F 
ATOM     11  F3  UNL d   1      -1.102  -3.221  -4.835  0.00  0.00    -0.097 F 
ATOM     12  F4  UNL d   1      -2.352  -1.637  -2.999  0.00  0.00    -0.092 F 
ENDROOT
TORSDOF 0
ENDMDL
