MODEL 1
REMARK minimizedAffinity 6.51714468
REMARK minimizedRMSD -1
REMARK  0 active torsions:
REMARK  status: ('A' for Active; 'I' for Inactive)
ROOT
ATOM      1  C   UNL d   1       1.918  -2.873  -2.879  0.00  0.00     0.124 A 
ATOM      2  C1  UNL d   1       0.889  -2.596  -1.989  0.00  0.00     0.062 A 
ATOM      3  C2  UNL d   1       0.744  -1.315  -1.463  0.00  0.00     0.162 A 
ATOM      4  C3  UNL d   1       1.629  -0.301  -1.827  0.00  0.00    -0.034 A 
ATOM      5  C4  UNL d   1       2.662  -0.587  -2.722  0.00  0.00     0.162 A 
ATOM      6  C5  UNL d   1       2.803  -1.868  -3.245  0.00  0.00     0.062 A 
ATOM      7  F   UNL d   1       3.797  -2.134  -4.104  0.00  0.00    -0.097 F 
ATOM      8  F1  UNL d   1       3.531   0.365  -3.093  0.00  0.00    -0.096 F 
ATOM      9  I   UNL d   1       1.416   1.616  -1.044  0.00  0.00    -0.060 I 
ATOM     10  F2  UNL d   1      -0.259  -1.076  -0.606  0.00  0.00    -0.096 F 
ATOM     11  F3  UNL d   1       0.033  -3.565  -1.633  0.00  0.00    -0.097 F 
ATOM     12  F4  UNL d   1       2.056  -4.106  -3.382  0.00  0.00    -0.092 F 
ENDROOT
TORSDOF 0
ENDMDL
