MODEL 1
REMARK minimizedAffinity 12.0729465
REMARK minimizedRMSD -1
REMARK  0 active torsions:
REMARK  status: ('A' for Active; 'I' for Inactive)
ROOT
ATOM      1  C   UNL d   1      -2.505   0.166   3.009  0.00  0.00     0.124 A 
ATOM      2  C1  UNL d   1      -3.778  -0.373   3.132  0.00  0.00     0.062 A 
ATOM      3  C2  UNL d   1      -4.777   0.334   3.795  0.00  0.00     0.162 A 
ATOM      4  C3  UNL d   1      -4.507   1.589   4.340  0.00  0.00    -0.034 A 
ATOM      5  C4  UNL d   1      -3.224   2.125   4.213  0.00  0.00     0.162 A 
ATOM      6  C5  UNL d   1      -2.229   1.415   3.549  0.00  0.00     0.062 A 
ATOM      7  F   UNL d   1      -1.000   1.938   3.431  0.00  0.00    -0.097 F 
ATOM      8  F1  UNL d   1      -2.931   3.330   4.725  0.00  0.00    -0.096 F 
ATOM      9  I   UNL d   1      -5.998   2.650   5.332  0.00  0.00    -0.060 I 
ATOM     10  F2  UNL d   1      -5.997  -0.212   3.899  0.00  0.00    -0.096 F 
ATOM     11  F3  UNL d   1      -4.046  -1.580   2.612  0.00  0.00    -0.097 F 
ATOM     12  F4  UNL d   1      -1.545  -0.516   2.372  0.00  0.00    -0.092 F 
ENDROOT
TORSDOF 0
ENDMDL
