MODEL 1
REMARK minimizedAffinity 9.67018986
REMARK minimizedRMSD -1
REMARK  0 active torsions:
REMARK  status: ('A' for Active; 'I' for Inactive)
ROOT
ATOM      1  C   UNL d   1      -4.376  -5.996  -0.155  0.00  0.00     0.124 A 
ATOM      2  C1  UNL d   1      -4.370  -5.996   1.233  0.00  0.00     0.062 A 
ATOM      3  C2  UNL d   1      -3.165  -5.996   1.928  0.00  0.00     0.162 A 
ATOM      4  C3  UNL d   1      -1.953  -5.995   1.237  0.00  0.00    -0.034 A 
ATOM      5  C4  UNL d   1      -1.967  -5.996  -0.159  0.00  0.00     0.162 A 
ATOM      6  C5  UNL d   1      -3.174  -5.996  -0.850  0.00  0.00     0.062 A 
ATOM      7  F   UNL d   1      -3.178  -5.997  -2.191  0.00  0.00    -0.097 F 
ATOM      8  F1  UNL d   1      -0.820  -5.995  -0.856  0.00  0.00    -0.096 F 
ATOM      9  I   UNL d   1      -0.148  -5.995   2.273  0.00  0.00    -0.060 I 
ATOM     10  F2  UNL d   1      -3.189  -5.996   3.269  0.00  0.00    -0.096 F 
ATOM     11  F3  UNL d   1      -5.530  -5.997   1.907  0.00  0.00    -0.097 F 
ATOM     12  F4  UNL d   1      -5.537  -5.998  -0.821  0.00  0.00    -0.092 F 
ENDROOT
TORSDOF 0
ENDMDL
