MODEL 1
REMARK minimizedAffinity 7.29481411
REMARK minimizedRMSD -1
REMARK  0 active torsions:
REMARK  status: ('A' for Active; 'I' for Inactive)
ROOT
ATOM      1  C   UNL d   1      -1.886  -3.114   0.733  0.00  0.00     0.124 A 
ATOM      2  C1  UNL d   1      -1.911  -4.166   1.638  0.00  0.00     0.062 A 
ATOM      3  C2  UNL d   1      -3.030  -4.990   1.723  0.00  0.00     0.162 A 
ATOM      4  C3  UNL d   1      -4.133  -4.765   0.899  0.00  0.00    -0.034 A 
ATOM      5  C4  UNL d   1      -4.101  -3.704  -0.007  0.00  0.00     0.162 A 
ATOM      6  C5  UNL d   1      -2.981  -2.884  -0.088  0.00  0.00     0.062 A 
ATOM      7  F   UNL d   1      -2.958  -1.868  -0.963  0.00  0.00    -0.097 F 
ATOM      8  F1  UNL d   1      -5.145  -3.460  -0.814  0.00  0.00    -0.096 F 
ATOM      9  I   UNL d   1      -5.808  -5.995   1.023  0.00  0.00    -0.060 I 
ATOM     10  F2  UNL d   1      -3.027  -6.000   2.606  0.00  0.00    -0.096 F 
ATOM     11  F3  UNL d   1      -0.856  -4.390   2.434  0.00  0.00    -0.097 F 
ATOM     12  F4  UNL d   1      -0.809  -2.322   0.655  0.00  0.00    -0.092 F 
ENDROOT
TORSDOF 0
ENDMDL
