MODEL 1
REMARK minimizedAffinity 8.96784878
REMARK minimizedRMSD -1
REMARK  1 active torsions:
REMARK  status: ('A' for Active; 'I' for Inactive)
REMARK    1  A    between atoms: C3_4  and  O_7 
ROOT
ATOM      1  C   UNL d   1      -0.763   2.153  -0.513  0.00  0.00    -0.033 A 
ATOM      2  C1  UNL d   1      -0.825   2.585  -1.839  0.00  0.00     0.039 A 
ATOM      3  C2  UNL d   1       0.211   2.280  -2.724  0.00  0.00    -0.080 A 
ATOM      4  C3  UNL d   1       1.301   1.542  -2.271  0.00  0.00     0.150 A 
ATOM      5  C4  UNL d   1       1.368   1.104  -0.953  0.00  0.00    -0.007 A 
ATOM      6  C5  UNL d   1       0.333   1.411  -0.070  0.00  0.00     0.039 A 
ENDROOT
BRANCH   4   7
ATOM      7  O   UNL d   1       2.338   1.223  -3.097  0.00  0.00    -0.526 OA
ATOM      8  H5  UNL d   1       2.169   1.616  -3.969  0.00  0.00     0.418 HD
ENDBRANCH   4   7
TORSDOF 1
ENDMDL
