MODEL 1
REMARK minimizedAffinity 6.77981806
REMARK minimizedRMSD -1
REMARK  1 active torsions:
REMARK  status: ('A' for Active; 'I' for Inactive)
REMARK    1  A    between atoms: C3_4  and  O_7 
ROOT
ATOM      1  C   UNL d   1      -2.079  -3.892   4.874  0.00  0.00    -0.033 A 
ATOM      2  C1  UNL d   1      -3.358  -3.451   5.220  0.00  0.00     0.039 A 
ATOM      3  C2  UNL d   1      -3.563  -2.124   5.600  0.00  0.00    -0.080 A 
ATOM      4  C3  UNL d   1      -2.481  -1.247   5.630  0.00  0.00     0.150 A 
ATOM      5  C4  UNL d   1      -1.205  -1.678   5.284  0.00  0.00    -0.007 A 
ATOM      6  C5  UNL d   1      -1.003  -3.004   4.905  0.00  0.00     0.039 A 
ENDROOT
BRANCH   4   7
ATOM      7  O   UNL d   1      -2.631   0.056   6.000  0.00  0.00    -0.526 OA
ATOM      8  H5  UNL d   1      -3.561   0.204   6.240  0.00  0.00     0.418 HD
ENDBRANCH   4   7
TORSDOF 1
ENDMDL
