MODEL 1
REMARK minimizedAffinity 0.146261767
REMARK minimizedRMSD -1
REMARK  1 active torsions:
REMARK  status: ('A' for Active; 'I' for Inactive)
REMARK    1  A    between atoms: C3_4  and  O_7 
ROOT
ATOM      1  C   UNL d   1      -4.877   1.505  -5.202  0.00  0.00    -0.033 A 
ATOM      2  C1  UNL d   1      -5.999   2.121  -5.761  0.00  0.00     0.039 A 
ATOM      3  C2  UNL d   1      -5.996   3.496  -6.000  0.00  0.00    -0.080 A 
ATOM      4  C3  UNL d   1      -4.866   4.243  -5.677  0.00  0.00     0.150 A 
ATOM      5  C4  UNL d   1      -3.744   3.636  -5.124  0.00  0.00    -0.007 A 
ATOM      6  C5  UNL d   1      -3.749   2.262  -4.885  0.00  0.00     0.039 A 
ENDROOT
BRANCH   4   7
ATOM      7  O   UNL d   1      -4.818   5.590  -5.887  0.00  0.00    -0.526 OA
ATOM      8  H5  UNL d   1      -5.674   5.876  -6.247  0.00  0.00     0.418 HD
ENDBRANCH   4   7
TORSDOF 1
ENDMDL
