MODEL 1
REMARK minimizedAffinity 10.7869864
REMARK minimizedRMSD -1
REMARK  1 active torsions:
REMARK  status: ('A' for Active; 'I' for Inactive)
REMARK    1  A    between atoms: C3_4  and  O_7 
ROOT
ATOM      1  C   UNL d   1       3.761  -5.998  -1.873  0.00  0.00    -0.033 A 
ATOM      2  C1  UNL d   1       2.465  -6.000  -2.392  0.00  0.00     0.039 A 
ATOM      3  C2  UNL d   1       1.506  -5.124  -1.881  0.00  0.00    -0.080 A 
ATOM      4  C3  UNL d   1       1.855  -4.252  -0.854  0.00  0.00     0.150 A 
ATOM      5  C4  UNL d   1       3.145  -4.242  -0.334  0.00  0.00    -0.007 A 
ATOM      6  C5  UNL d   1       4.102  -5.118  -0.845  0.00  0.00     0.039 A 
ENDROOT
BRANCH   4   7
ATOM      7  O   UNL d   1       0.951  -3.381  -0.320  0.00  0.00    -0.526 OA
ATOM      8  H5  UNL d   1       0.095  -3.521  -0.757  0.00  0.00     0.418 HD
ENDBRANCH   4   7
TORSDOF 1
ENDMDL
