MODEL 1
REMARK minimizedAffinity 5.73223782
REMARK minimizedRMSD -1
REMARK  1 active torsions:
REMARK  status: ('A' for Active; 'I' for Inactive)
REMARK    1  A    between atoms: C3_4  and  O_7 
ROOT
ATOM      1  C   UNL d   1      -0.717  -2.622   6.000  0.00  0.00    -0.033 A 
ATOM      2  C1  UNL d   1      -1.777  -1.713   5.984  0.00  0.00     0.039 A 
ATOM      3  C2  UNL d   1      -2.912  -1.975   5.213  0.00  0.00    -0.080 A 
ATOM      4  C3  UNL d   1      -2.974  -3.147   4.465  0.00  0.00     0.150 A 
ATOM      5  C4  UNL d   1      -1.924  -4.059   4.480  0.00  0.00    -0.007 A 
ATOM      6  C5  UNL d   1      -0.791  -3.796   5.249  0.00  0.00     0.039 A 
ENDROOT
BRANCH   4   7
ATOM      7  O   UNL d   1      -4.059  -3.443   3.694  0.00  0.00    -0.526 OA
ATOM      8  H5  UNL d   1      -4.693  -2.710   3.760  0.00  0.00     0.418 HD
ENDBRANCH   4   7
TORSDOF 1
ENDMDL
