MODEL 1
REMARK minimizedAffinity 10.7760439
REMARK minimizedRMSD -1
REMARK  1 active torsions:
REMARK  status: ('A' for Active; 'I' for Inactive)
REMARK    1  A    between atoms: C3_4  and  O_7 
ROOT
ATOM      1  C   UNL d   1      -2.258   2.279  -0.037  0.00  0.00    -0.033 A 
ATOM      2  C1  UNL d   1      -0.904   2.338  -0.374  0.00  0.00     0.039 A 
ATOM      3  C2  UNL d   1       0.048   1.727   0.443  0.00  0.00    -0.080 A 
ATOM      4  C3  UNL d   1      -0.366   1.059   1.593  0.00  0.00     0.150 A 
ATOM      5  C4  UNL d   1      -1.713   0.993   1.933  0.00  0.00    -0.007 A 
ATOM      6  C5  UNL d   1      -2.662   1.605   1.116  0.00  0.00     0.039 A 
ENDROOT
BRANCH   4   7
ATOM      7  O   UNL d   1       0.527   0.451   2.424  0.00  0.00    -0.526 OA
ATOM      8  H5  UNL d   1       1.423   0.603   2.078  0.00  0.00     0.418 HD
ENDBRANCH   4   7
TORSDOF 1
ENDMDL
