MODEL 1
REMARK minimizedAffinity 12.2442369
REMARK minimizedRMSD -1
REMARK  1 active torsions:
REMARK  status: ('A' for Active; 'I' for Inactive)
REMARK    1  A    between atoms: C3_4  and  O_7 
ROOT
ATOM      1  C   UNL d   1      -6.000  -1.281  -0.581  0.00  0.00    -0.033 A 
ATOM      2  C1  UNL d   1      -5.997  -0.735   0.704  0.00  0.00     0.039 A 
ATOM      3  C2  UNL d   1      -5.996  -1.573   1.820  0.00  0.00    -0.080 A 
ATOM      4  C3  UNL d   1      -5.996  -2.954   1.638  0.00  0.00     0.150 A 
ATOM      5  C4  UNL d   1      -5.994  -3.504   0.361  0.00  0.00    -0.007 A 
ATOM      6  C5  UNL d   1      -5.997  -2.665  -0.753  0.00  0.00     0.039 A 
ENDROOT
BRANCH   4   7
ATOM      7  O   UNL d   1      -5.999  -3.812   2.697  0.00  0.00    -0.526 OA
ATOM      8  H5  UNL d   1      -6.029  -3.290   3.516  0.00  0.00     0.418 HD
ENDBRANCH   4   7
TORSDOF 1
ENDMDL
