MODEL 1
REMARK minimizedAffinity -0.590423703
REMARK minimizedRMSD -1
REMARK  1 active torsions:
REMARK  status: ('A' for Active; 'I' for Inactive)
REMARK    1  A    between atoms: C3_4  and  O_7 
ROOT
ATOM      1  C   UNL d   1      -1.437   5.672  -4.881  0.00  0.00    -0.033 A 
ATOM      2  C1  UNL d   1      -2.739   5.997  -5.266  0.00  0.00     0.039 A 
ATOM      3  C2  UNL d   1      -3.727   5.011  -5.294  0.00  0.00    -0.080 A 
ATOM      4  C3  UNL d   1      -3.401   3.706  -4.935  0.00  0.00     0.150 A 
ATOM      5  C4  UNL d   1      -2.107   3.376  -4.547  0.00  0.00    -0.007 A 
ATOM      6  C5  UNL d   1      -1.121   4.362  -4.520  0.00  0.00     0.039 A 
ENDROOT
BRANCH   4   7
ATOM      7  O   UNL d   1      -4.331   2.709  -4.951  0.00  0.00    -0.526 OA
ATOM      8  H5  UNL d   1      -5.172   3.078  -5.267  0.00  0.00     0.418 HD
ENDBRANCH   4   7
TORSDOF 1
ENDMDL
