MODEL 1
REMARK minimizedAffinity 11.912179
REMARK minimizedRMSD -1
REMARK  1 active torsions:
REMARK  status: ('A' for Active; 'I' for Inactive)
REMARK    1  A    between atoms: C3_4  and  O_7 
ROOT
ATOM      1  C   UNL d   1      -2.965  -1.647   6.000  0.00  0.00    -0.033 A 
ATOM      2  C1  UNL d   1      -3.525  -2.675   5.239  0.00  0.00     0.039 A 
ATOM      3  C2  UNL d   1      -2.705  -3.506   4.474  0.00  0.00    -0.080 A 
ATOM      4  C3  UNL d   1      -1.328  -3.299   4.478  0.00  0.00     0.150 A 
ATOM      5  C4  UNL d   1      -0.763  -2.280   5.237  0.00  0.00    -0.007 A 
ATOM      6  C5  UNL d   1      -1.583  -1.450   6.000  0.00  0.00     0.039 A 
ENDROOT
BRANCH   4   7
ATOM      7  O   UNL d   1      -0.488  -4.082   3.743  0.00  0.00    -0.526 OA
ATOM      8  H5  UNL d   1      -1.021  -4.725   3.248  0.00  0.00     0.418 HD
ENDBRANCH   4   7
TORSDOF 1
ENDMDL
