MODEL 1
REMARK minimizedAffinity 3.98897552
REMARK minimizedRMSD -1
REMARK  1 active torsions:
REMARK  status: ('A' for Active; 'I' for Inactive)
REMARK    1  A    between atoms: C3_4  and  O_7 
ROOT
ATOM      1  C   UNL d   1      -1.499   6.000  -4.558  0.00  0.00    -0.033 A 
ATOM      2  C1  UNL d   1      -0.817   4.792  -4.396  0.00  0.00     0.039 A 
ATOM      3  C2  UNL d   1      -1.504   3.581  -4.500  0.00  0.00    -0.080 A 
ATOM      4  C3  UNL d   1      -2.870   3.591  -4.768  0.00  0.00     0.150 A 
ATOM      5  C4  UNL d   1      -3.555   4.790  -4.935  0.00  0.00    -0.007 A 
ATOM      6  C5  UNL d   1      -2.868   5.999  -4.829  0.00  0.00     0.039 A 
ENDROOT
BRANCH   4   7
ATOM      7  O   UNL d   1      -3.583   2.434  -4.875  0.00  0.00    -0.526 OA
ATOM      8  H5  UNL d   1      -2.985   1.687  -4.708  0.00  0.00     0.418 HD
ENDBRANCH   4   7
TORSDOF 1
ENDMDL
