MODEL 1
REMARK minimizedAffinity 7.18397093
REMARK minimizedRMSD -1
REMARK  1 active torsions:
REMARK  status: ('A' for Active; 'I' for Inactive)
REMARK    1  A    between atoms: C3_4  and  O_7 
ROOT
ATOM      1  C   UNL d   1      -2.632  -1.704   5.411  0.00  0.00    -0.033 A 
ATOM      2  C1  UNL d   1      -2.918  -2.937   4.820  0.00  0.00     0.039 A 
ATOM      3  C2  UNL d   1      -1.956  -3.949   4.813  0.00  0.00    -0.080 A 
ATOM      4  C3  UNL d   1      -0.715  -3.717   5.400  0.00  0.00     0.150 A 
ATOM      5  C4  UNL d   1      -0.426  -2.493   5.994  0.00  0.00    -0.007 A 
ATOM      6  C5  UNL d   1      -1.387  -1.483   5.999  0.00  0.00     0.039 A 
ENDROOT
BRANCH   4   7
ATOM      7  O   UNL d   1       0.257  -4.672   5.413  0.00  0.00    -0.526 OA
ATOM      8  H5  UNL d   1      -0.075  -5.455   4.942  0.00  0.00     0.418 HD
ENDBRANCH   4   7
TORSDOF 1
ENDMDL
