MODEL 1
REMARK minimizedAffinity -0.873636901
REMARK minimizedRMSD -1
REMARK  1 active torsions:
REMARK  status: ('A' for Active; 'I' for Inactive)
REMARK    1  A    between atoms: C3_4  and  O_7 
ROOT
ATOM      1  C   UNL d   1      -1.889   6.000  -4.653  0.00  0.00    -0.033 A 
ATOM      2  C1  UNL d   1      -2.672   5.693  -5.767  0.00  0.00     0.039 A 
ATOM      3  C2  UNL d   1      -3.130   4.388  -5.962  0.00  0.00    -0.080 A 
ATOM      4  C3  UNL d   1      -2.799   3.402  -5.037  0.00  0.00     0.150 A 
ATOM      5  C4  UNL d   1      -2.022   3.702  -3.923  0.00  0.00    -0.007 A 
ATOM      6  C5  UNL d   1      -1.565   5.005  -3.730  0.00  0.00     0.039 A 
ENDROOT
BRANCH   4   7
ATOM      7  O   UNL d   1      -3.219   2.114  -5.187  0.00  0.00    -0.526 OA
ATOM      8  H5  UNL d   1      -3.722   2.049  -6.016  0.00  0.00     0.418 HD
ENDBRANCH   4   7
TORSDOF 1
ENDMDL
