MODEL 1
REMARK minimizedAffinity 9.65521145
REMARK minimizedRMSD -1
REMARK  1 active torsions:
REMARK  status: ('A' for Active; 'I' for Inactive)
REMARK    1  A    between atoms: C3_4  and  O_7 
ROOT
ATOM      1  C   UNL d   1       1.118  -1.634   2.005  0.00  0.00    -0.033 A 
ATOM      2  C1  UNL d   1       0.709  -2.962   1.870  0.00  0.00     0.039 A 
ATOM      3  C2  UNL d   1      -0.111  -3.544   2.839  0.00  0.00    -0.080 A 
ATOM      4  C3  UNL d   1      -0.515  -2.788   3.935  0.00  0.00     0.150 A 
ATOM      5  C4  UNL d   1      -0.115  -1.463   4.074  0.00  0.00    -0.007 A 
ATOM      6  C5  UNL d   1       0.705  -0.884   3.106  0.00  0.00     0.039 A 
ENDROOT
BRANCH   4   7
ATOM      7  O   UNL d   1      -1.312  -3.313   4.909  0.00  0.00    -0.526 OA
ATOM      8  H5  UNL d   1      -1.485  -4.245   4.695  0.00  0.00     0.418 HD
ENDBRANCH   4   7
TORSDOF 1
ENDMDL
