MODEL 1
REMARK minimizedAffinity 14.2465744
REMARK minimizedRMSD -1
REMARK  1 active torsions:
REMARK  status: ('A' for Active; 'I' for Inactive)
REMARK    1  A    between atoms: C3_4  and  O_7 
ROOT
ATOM      1  C   UNL d   1      -2.056   1.981   0.221  0.00  0.00    -0.033 A 
ATOM      2  C1  UNL d   1      -1.827   3.236  -0.347  0.00  0.00     0.039 A 
ATOM      3  C2  UNL d   1      -2.722   4.283  -0.117  0.00  0.00    -0.080 A 
ATOM      4  C3  UNL d   1      -3.840   4.063   0.683  0.00  0.00     0.150 A 
ATOM      5  C4  UNL d   1      -4.072   2.816   1.255  0.00  0.00    -0.007 A 
ATOM      6  C5  UNL d   1      -3.178   1.772   1.024  0.00  0.00     0.039 A 
ENDROOT
BRANCH   4   7
ATOM      7  O   UNL d   1      -4.743   5.052   0.932  0.00  0.00    -0.526 OA
ATOM      8  H5  UNL d   1      -4.469   5.849   0.448  0.00  0.00     0.418 HD
ENDBRANCH   4   7
TORSDOF 1
ENDMDL
