MODEL 1
REMARK minimizedAffinity 5.59921312
REMARK minimizedRMSD -1
REMARK  1 active torsions:
REMARK  status: ('A' for Active; 'I' for Inactive)
REMARK    1  A    between atoms: C3_4  and  O_7 
ROOT
ATOM      1  C   UNL d   1      -5.999  -4.959   5.013  0.00  0.00    -0.033 A 
ATOM      2  C1  UNL d   1      -4.915  -5.204   4.168  0.00  0.00     0.039 A 
ATOM      3  C2  UNL d   1      -3.778  -4.397   4.236  0.00  0.00    -0.080 A 
ATOM      4  C3  UNL d   1      -3.737  -3.350   5.152  0.00  0.00     0.150 A 
ATOM      5  C4  UNL d   1      -4.812  -3.102   6.000  0.00  0.00    -0.007 A 
ATOM      6  C5  UNL d   1      -5.947  -3.908   5.930  0.00  0.00     0.039 A 
ENDROOT
BRANCH   4   7
ATOM      7  O   UNL d   1      -2.651  -2.532   5.252  0.00  0.00    -0.526 OA
ATOM      8  H5  UNL d   1      -1.998  -2.804   4.585  0.00  0.00     0.418 HD
ENDBRANCH   4   7
TORSDOF 1
ENDMDL
