MODEL 1
REMARK minimizedAffinity 4.40538025
REMARK minimizedRMSD -1
REMARK  0 active torsions:
REMARK  status: ('A' for Active; 'I' for Inactive)
ROOT
ATOM      1  C1  BNZ d   1       3.908   3.777  -5.166  0.00  0.00     0.000 A 
ATOM      2  C2  BNZ d   1       3.318   4.895  -5.692  0.00  0.00     0.000 A 
ATOM      3  C3  BNZ d   1       4.061   6.000  -6.000  0.00  0.00     0.000 A 
ATOM      4  C4  BNZ d   1       5.386   6.000  -5.745  0.00  0.00     0.000 A 
ATOM      5  C5  BNZ d   1       5.994   4.883  -5.207  0.00  0.00     0.000 A 
ATOM      6  C6  BNZ d   1       5.249   3.759  -4.934  0.00  0.00     0.000 A 
ENDROOT
TORSDOF 0
ENDMDL
