MODEL 1
REMARK minimizedAffinity -3.12916541
REMARK minimizedRMSD -1
REMARK  0 active torsions:
REMARK  status: ('A' for Active; 'I' for Inactive)
ROOT
ATOM      1  C1  BNZ d   1      -0.753   5.999  -5.398  0.00  0.00     0.000 A 
ATOM      2  C2  BNZ d   1      -2.122   5.993  -5.342  0.00  0.00     0.000 A 
ATOM      3  C3  BNZ d   1      -2.773   5.999  -4.140  0.00  0.00     0.000 A 
ATOM      4  C4  BNZ d   1      -2.057   5.970  -2.998  0.00  0.00     0.000 A 
ATOM      5  C5  BNZ d   1      -0.677   5.966  -3.038  0.00  0.00     0.000 A 
ATOM      6  C6  BNZ d   1      -0.024   6.000  -4.249  0.00  0.00     0.000 A 
ENDROOT
TORSDOF 0
ENDMDL
