MODEL 1
REMARK minimizedAffinity 1.82166016
REMARK minimizedRMSD -1
REMARK  0 active torsions:
REMARK  status: ('A' for Active; 'I' for Inactive)
ROOT
ATOM      1  C1  BNZ d   1       1.265   2.555  -0.214  0.00  0.00     0.000 A 
ATOM      2  C2  BNZ d   1       0.730   1.815   0.806  0.00  0.00     0.000 A 
ATOM      3  C3  BNZ d   1       0.534   0.469   0.667  0.00  0.00     0.000 A 
ATOM      4  C4  BNZ d   1       0.836  -0.127  -0.505  0.00  0.00     0.000 A 
ATOM      5  C5  BNZ d   1       1.368   0.607  -1.546  0.00  0.00     0.000 A 
ATOM      6  C6  BNZ d   1       1.599   1.955  -1.389  0.00  0.00     0.000 A 
ENDROOT
TORSDOF 0
ENDMDL
