MODEL 1
REMARK minimizedAffinity -1.11849523
REMARK minimizedRMSD -1
REMARK  0 active torsions:
REMARK  status: ('A' for Active; 'I' for Inactive)
ROOT
ATOM      1  C1  BNZ d   1      -0.126   5.960  -4.826  0.00  0.00     0.000 A 
ATOM      2  C2  BNZ d   1       0.580   5.982  -6.000  0.00  0.00     0.000 A 
ATOM      3  C3  BNZ d   1       1.947   5.982  -5.995  0.00  0.00     0.000 A 
ATOM      4  C4  BNZ d   1       2.606   6.000  -4.818  0.00  0.00     0.000 A 
ATOM      5  C5  BNZ d   1       1.908   5.987  -3.626  0.00  0.00     0.000 A 
ATOM      6  C6  BNZ d   1       0.533   5.948  -3.636  0.00  0.00     0.000 A 
ENDROOT
TORSDOF 0
ENDMDL
