MODEL 1
REMARK minimizedAffinity -1.94241488
REMARK minimizedRMSD -1
REMARK  0 active torsions:
REMARK  status: ('A' for Active; 'I' for Inactive)
ROOT
ATOM      1  C1  BNZ d   1      -0.140   6.000  -3.352  0.00  0.00     0.000 A 
ATOM      2  C2  BNZ d   1       0.992   5.999  -4.123  0.00  0.00     0.000 A 
ATOM      3  C3  BNZ d   1       1.050   5.273  -5.280  0.00  0.00     0.000 A 
ATOM      4  C4  BNZ d   1      -0.006   4.517  -5.643  0.00  0.00     0.000 A 
ATOM      5  C5  BNZ d   1      -1.151   4.500  -4.871  0.00  0.00     0.000 A 
ATOM      6  C6  BNZ d   1      -1.221   5.263  -3.728  0.00  0.00     0.000 A 
ENDROOT
TORSDOF 0
ENDMDL
