MODEL 1
REMARK minimizedAffinity 0.395042807
REMARK minimizedRMSD -1
REMARK  0 active torsions:
REMARK  status: ('A' for Active; 'I' for Inactive)
ROOT
ATOM      1  C1  BNZ d   1       3.291   5.067  -4.881  0.00  0.00     0.000 A 
ATOM      2  C2  BNZ d   1       4.088   4.163  -4.232  0.00  0.00     0.000 A 
ATOM      3  C3  BNZ d   1       5.446   4.186  -4.391  0.00  0.00     0.000 A 
ATOM      4  C4  BNZ d   1       6.000   5.086  -5.228  0.00  0.00     0.000 A 
ATOM      5  C5  BNZ d   1       5.209   5.998  -5.897  0.00  0.00     0.000 A 
ATOM      6  C6  BNZ d   1       3.846   5.997  -5.704  0.00  0.00     0.000 A 
ENDROOT
TORSDOF 0
ENDMDL
