MODEL 1
REMARK minimizedAffinity -0.265413016
REMARK minimizedRMSD -1
REMARK  0 active torsions:
REMARK  status: ('A' for Active; 'I' for Inactive)
ROOT
ATOM      1  C1  BNZ d   1       1.114   1.287   1.081  0.00  0.00     0.000 A 
ATOM      2  C2  BNZ d   1       0.639   0.025   0.844  0.00  0.00     0.000 A 
ATOM      3  C3  BNZ d   1       0.576  -0.472  -0.428  0.00  0.00     0.000 A 
ATOM      4  C4  BNZ d   1       0.950   0.308  -1.463  0.00  0.00     0.000 A 
ATOM      5  C5  BNZ d   1       1.423   1.586  -1.241  0.00  0.00     0.000 A 
ATOM      6  C6  BNZ d   1       1.522   2.068   0.044  0.00  0.00     0.000 A 
ENDROOT
TORSDOF 0
ENDMDL
