MODEL 1
REMARK minimizedAffinity 0.428713828
REMARK minimizedRMSD -1
REMARK  0 active torsions:
REMARK  status: ('A' for Active; 'I' for Inactive)
ROOT
ATOM      1  C1  BNZ d   1      -3.393   5.982  -2.176  0.00  0.00     0.000 A 
ATOM      2  C2  BNZ d   1      -3.822   5.988  -3.477  0.00  0.00     0.000 A 
ATOM      3  C3  BNZ d   1      -2.926   5.975  -4.509  0.00  0.00     0.000 A 
ATOM      4  C4  BNZ d   1      -1.605   5.996  -4.241  0.00  0.00     0.000 A 
ATOM      5  C5  BNZ d   1      -1.157   6.000  -2.935  0.00  0.00     0.000 A 
ATOM      6  C6  BNZ d   1      -2.061   5.974  -1.898  0.00  0.00     0.000 A 
ENDROOT
TORSDOF 0
ENDMDL
