MODEL 1
REMARK minimizedAffinity -2.41682625
REMARK minimizedRMSD -1
REMARK  0 active torsions:
REMARK  status: ('A' for Active; 'I' for Inactive)
ROOT
ATOM      1  C1  BNZ d   1      -1.384   5.944  -2.909  0.00  0.00     0.000 A 
ATOM      2  C2  BNZ d   1      -2.149   5.955  -1.773  0.00  0.00     0.000 A 
ATOM      3  C3  BNZ d   1      -3.514   5.963  -1.848  0.00  0.00     0.000 A 
ATOM      4  C4  BNZ d   1      -4.111   6.000  -3.056  0.00  0.00     0.000 A 
ATOM      5  C5  BNZ d   1      -3.354   5.999  -4.211  0.00  0.00     0.000 A 
ATOM      6  C6  BNZ d   1      -1.981   5.952  -4.132  0.00  0.00     0.000 A 
ENDROOT
TORSDOF 0
ENDMDL
