MODEL 1
REMARK minimizedAffinity 1.094648
REMARK minimizedRMSD -1
REMARK  0 active torsions:
REMARK  status: ('A' for Active; 'I' for Inactive)
ROOT
ATOM      1  C1  BNZ d   1       0.208   1.241   1.662  0.00  0.00     0.000 A 
ATOM      2  C2  BNZ d   1       0.284   2.588   1.423  0.00  0.00     0.000 A 
ATOM      3  C3  BNZ d   1       1.124   3.082   0.464  0.00  0.00     0.000 A 
ATOM      4  C4  BNZ d   1       1.915   2.235  -0.225  0.00  0.00     0.000 A 
ATOM      5  C5  BNZ d   1       1.857   0.876   0.010  0.00  0.00     0.000 A 
ATOM      6  C6  BNZ d   1       0.982   0.378   0.949  0.00  0.00     0.000 A 
ENDROOT
TORSDOF 0
ENDMDL
