MODEL 1
REMARK minimizedAffinity -2.13663173
REMARK minimizedRMSD -1
REMARK  0 active torsions:
REMARK  status: ('A' for Active; 'I' for Inactive)
ROOT
ATOM      1  C1  BNZ d   1      -1.443   5.952  -4.885  0.00  0.00     0.000 A 
ATOM      2  C2  BNZ d   1      -0.104   5.895  -4.602  0.00  0.00     0.000 A 
ATOM      3  C3  BNZ d   1       0.337   5.862  -3.309  0.00  0.00     0.000 A 
ATOM      4  C4  BNZ d   1      -0.557   5.927  -2.302  0.00  0.00     0.000 A 
ATOM      5  C5  BNZ d   1      -1.909   5.995  -2.570  0.00  0.00     0.000 A 
ATOM      6  C6  BNZ d   1      -2.352   5.988  -3.873  0.00  0.00     0.000 A 
ENDROOT
TORSDOF 0
ENDMDL
