MODEL 1
REMARK minimizedAffinity -1.77072799
REMARK minimizedRMSD -1
REMARK  0 active torsions:
REMARK  status: ('A' for Active; 'I' for Inactive)
ROOT
ATOM      1  C1  BNZ d   1       0.377   0.291   0.524  0.00  0.00     0.000 A 
ATOM      2  C2  BNZ d   1       0.831   1.368  -0.190  0.00  0.00     0.000 A 
ATOM      3  C3  BNZ d   1       0.937   2.599   0.394  0.00  0.00     0.000 A 
ATOM      4  C4  BNZ d   1       0.552   2.761   1.676  0.00  0.00     0.000 A 
ATOM      5  C5  BNZ d   1       0.083   1.687   2.406  0.00  0.00     0.000 A 
ATOM      6  C6  BNZ d   1       0.014   0.440   1.827  0.00  0.00     0.000 A 
ENDROOT
TORSDOF 0
ENDMDL
