MODEL 1
REMARK minimizedAffinity -2.87924218
REMARK minimizedRMSD -1
REMARK  0 active torsions:
REMARK  status: ('A' for Active; 'I' for Inactive)
ROOT
ATOM      1  C1  BNZ d   1       0.367   0.450   0.936  0.00  0.00     0.000 A 
ATOM      2  C2  BNZ d   1       0.461   1.645   1.599  0.00  0.00     0.000 A 
ATOM      3  C3  BNZ d   1       1.076   2.720   1.020  0.00  0.00     0.000 A 
ATOM      4  C4  BNZ d   1       1.631   2.587  -0.202  0.00  0.00     0.000 A 
ATOM      5  C5  BNZ d   1       1.553   1.386  -0.879  0.00  0.00     0.000 A 
ATOM      6  C6  BNZ d   1       0.899   0.318  -0.309  0.00  0.00     0.000 A 
ENDROOT
TORSDOF 0
ENDMDL
