MODEL 1
REMARK minimizedAffinity -2.62160373
REMARK minimizedRMSD -1
REMARK  0 active torsions:
REMARK  status: ('A' for Active; 'I' for Inactive)
ROOT
ATOM      1  C1  BNZ d   1      -3.343   6.000  -2.682  0.00  0.00     0.000 A 
ATOM      2  C2  BNZ d   1      -3.045   6.000  -4.018  0.00  0.00     0.000 A 
ATOM      3  C3  BNZ d   1      -1.760   5.814  -4.448  0.00  0.00     0.000 A 
ATOM      4  C4  BNZ d   1      -0.772   5.669  -3.542  0.00  0.00     0.000 A 
ATOM      5  C5  BNZ d   1      -1.056   5.676  -2.191  0.00  0.00     0.000 A 
ATOM      6  C6  BNZ d   1      -2.355   5.824  -1.763  0.00  0.00     0.000 A 
ENDROOT
TORSDOF 0
ENDMDL
