MODEL 1
REMARK minimizedAffinity 1.62269342
REMARK minimizedRMSD -1
REMARK  0 active torsions:
REMARK  status: ('A' for Active; 'I' for Inactive)
ROOT
ATOM      1  C1  BNZ d   1      -1.382   5.990  -3.910  0.00  0.00     0.000 A 
ATOM      2  C2  BNZ d   1      -2.705   5.984  -4.265  0.00  0.00     0.000 A 
ATOM      3  C3  BNZ d   1      -3.685   5.999  -3.313  0.00  0.00     0.000 A 
ATOM      4  C4  BNZ d   1      -3.343   5.979  -2.009  0.00  0.00     0.000 A 
ATOM      5  C5  BNZ d   1      -2.014   5.975  -1.635  0.00  0.00     0.000 A 
ATOM      6  C6  BNZ d   1      -1.030   6.000  -2.596  0.00  0.00     0.000 A 
ENDROOT
TORSDOF 0
ENDMDL
