MODEL 1
REMARK minimizedAffinity -1.63718474
REMARK minimizedRMSD -1
REMARK  0 active torsions:
REMARK  status: ('A' for Active; 'I' for Inactive)
ROOT
ATOM      1  C1  BNZ d   1       2.994   5.196   5.617  0.00  0.00     0.000 A 
ATOM      2  C2  BNZ d   1       4.034   6.000   6.000  0.00  0.00     0.000 A 
ATOM      3  C3  BNZ d   1       5.319   5.532   5.995  0.00  0.00     0.000 A 
ATOM      4  C4  BNZ d   1       5.557   4.251   5.646  0.00  0.00     0.000 A 
ATOM      5  C5  BNZ d   1       4.517   3.426   5.266  0.00  0.00     0.000 A 
ATOM      6  C6  BNZ d   1       3.230   3.912   5.235  0.00  0.00     0.000 A 
ENDROOT
TORSDOF 0
ENDMDL
