MODEL 1
REMARK minimizedAffinity 4.74985695
REMARK minimizedRMSD -1
REMARK  0 active torsions:
REMARK  status: ('A' for Active; 'I' for Inactive)
ROOT
ATOM      1  C1  BNZ d   1       3.788   3.635   5.908  0.00  0.00     0.000 A 
ATOM      2  C2  BNZ d   1       5.157   3.610   5.896  0.00  0.00     0.000 A 
ATOM      3  C3  BNZ d   1       5.880   4.769   5.952  0.00  0.00     0.000 A 
ATOM      4  C4  BNZ d   1       5.233   5.952   5.980  0.00  0.00     0.000 A 
ATOM      5  C5  BNZ d   1       3.853   5.995   5.983  0.00  0.00     0.000 A 
ATOM      6  C6  BNZ d   1       3.130   4.825   5.966  0.00  0.00     0.000 A 
ENDROOT
TORSDOF 0
ENDMDL
