MODEL 1
REMARK minimizedAffinity 2.46724558
REMARK minimizedRMSD -1
REMARK  0 active torsions:
REMARK  status: ('A' for Active; 'I' for Inactive)
ROOT
ATOM      1  C1  BNZ d   1       3.779   3.415   5.767  0.00  0.00     0.000 A 
ATOM      2  C2  BNZ d   1       5.103   3.709   5.572  0.00  0.00     0.000 A 
ATOM      3  C3  BNZ d   1       5.546   5.001   5.615  0.00  0.00     0.000 A 
ATOM      4  C4  BNZ d   1       4.661   6.000   5.812  0.00  0.00     0.000 A 
ATOM      5  C5  BNZ d   1       3.322   5.720   6.000  0.00  0.00     0.000 A 
ATOM      6  C6  BNZ d   1       2.886   4.415   5.995  0.00  0.00     0.000 A 
ENDROOT
TORSDOF 0
ENDMDL
