MODEL 1
REMARK minimizedAffinity 10.5715208
REMARK minimizedRMSD -1
REMARK  0 active torsions:
REMARK  status: ('A' for Active; 'I' for Inactive)
ROOT
ATOM      1  C1  BNZ d   1       3.516   1.922  -2.400  0.00  0.00     0.000 A 
ATOM      2  C2  BNZ d   1       3.099   2.461  -1.212  0.00  0.00     0.000 A 
ATOM      3  C3  BNZ d   1       3.997   3.005  -0.337  0.00  0.00     0.000 A 
ATOM      4  C4  BNZ d   1       5.313   2.974  -0.632  0.00  0.00     0.000 A 
ATOM      5  C5  BNZ d   1       5.750   2.426  -1.821  0.00  0.00     0.000 A 
ATOM      6  C6  BNZ d   1       4.840   1.914  -2.717  0.00  0.00     0.000 A 
ENDROOT
TORSDOF 0
ENDMDL
