MODEL 1
REMARK minimizedAffinity -1.30587196
REMARK minimizedRMSD -1
REMARK  0 active torsions:
REMARK  status: ('A' for Active; 'I' for Inactive)
ROOT
ATOM      1  C1  BNZ d   1       4.350   5.971   5.993  0.00  0.00     0.000 A 
ATOM      2  C2  BNZ d   1       3.240   5.169   6.000  0.00  0.00     0.000 A 
ATOM      3  C3  BNZ d   1       3.361   3.807   5.994  0.00  0.00     0.000 A 
ATOM      4  C4  BNZ d   1       4.588   3.251   5.941  0.00  0.00     0.000 A 
ATOM      5  C5  BNZ d   1       5.716   4.046   5.924  0.00  0.00     0.000 A 
ATOM      6  C6  BNZ d   1       5.592   5.416   5.969  0.00  0.00     0.000 A 
ENDROOT
TORSDOF 0
ENDMDL
