MODEL 1
REMARK minimizedAffinity 2.17864347
REMARK minimizedRMSD -1
REMARK  0 active torsions:
REMARK  status: ('A' for Active; 'I' for Inactive)
ROOT
ATOM      1  C1  BNZ d   1       3.745   3.697   5.691  0.00  0.00     0.000 A 
ATOM      2  C2  BNZ d   1       5.090   3.440   5.665  0.00  0.00     0.000 A 
ATOM      3  C3  BNZ d   1       5.999   4.448   5.827  0.00  0.00     0.000 A 
ATOM      4  C4  BNZ d   1       5.564   5.716   5.975  0.00  0.00     0.000 A 
ATOM      5  C5  BNZ d   1       4.211   5.993   5.994  0.00  0.00     0.000 A 
ATOM      6  C6  BNZ d   1       3.299   4.970   5.869  0.00  0.00     0.000 A 
ENDROOT
TORSDOF 0
ENDMDL
