MODEL 1
REMARK minimizedAffinity 6.09544945
REMARK minimizedRMSD -1
REMARK  0 active torsions:
REMARK  status: ('A' for Active; 'I' for Inactive)
ROOT
ATOM      1  C1  BNZ d   1       3.940   3.686   5.256  0.00  0.00     0.000 A 
ATOM      2  C2  BNZ d   1       3.504   4.778   5.959  0.00  0.00     0.000 A 
ATOM      3  C3  BNZ d   1       4.236   5.932   5.983  0.00  0.00     0.000 A 
ATOM      4  C4  BNZ d   1       5.420   5.981   5.338  0.00  0.00     0.000 A 
ATOM      5  C5  BNZ d   1       5.877   4.885   4.633  0.00  0.00     0.000 A 
ATOM      6  C6  BNZ d   1       5.119   3.738   4.579  0.00  0.00     0.000 A 
ENDROOT
TORSDOF 0
ENDMDL
