MODEL 1
REMARK minimizedAffinity -1.78708017
REMARK minimizedRMSD -1
REMARK  0 active torsions:
REMARK  status: ('A' for Active; 'I' for Inactive)
ROOT
ATOM      1  C1  BNZ d   1       4.886   3.445   5.981  0.00  0.00     0.000 A 
ATOM      2  C2  BNZ d   1       5.999   4.242   6.000  0.00  0.00     0.000 A 
ATOM      3  C3  BNZ d   1       5.963   5.508   5.486  0.00  0.00     0.000 A 
ATOM      4  C4  BNZ d   1       4.826   5.961   4.919  0.00  0.00     0.000 A 
ATOM      5  C5  BNZ d   1       3.698   5.166   4.884  0.00  0.00     0.000 A 
ATOM      6  C6  BNZ d   1       3.727   3.907   5.437  0.00  0.00     0.000 A 
ENDROOT
TORSDOF 0
ENDMDL
