MODEL 1
REMARK minimizedAffinity 3.71819353
REMARK minimizedRMSD -1
REMARK  0 active torsions:
REMARK  status: ('A' for Active; 'I' for Inactive)
ROOT
ATOM      1  C1  BNZ d   1       2.915   4.883   5.622  0.00  0.00     0.000 A 
ATOM      2  C2  BNZ d   1       3.617   5.997   6.000  0.00  0.00     0.000 A 
ATOM      3  C3  BNZ d   1       4.984   6.000   5.985  0.00  0.00     0.000 A 
ATOM      4  C4  BNZ d   1       5.646   4.879   5.632  0.00  0.00     0.000 A 
ATOM      5  C5  BNZ d   1       4.952   3.746   5.258  0.00  0.00     0.000 A 
ATOM      6  C6  BNZ d   1       3.576   3.759   5.236  0.00  0.00     0.000 A 
ENDROOT
TORSDOF 0
ENDMDL
