MODEL 1
REMARK minimizedAffinity 0.326233834
REMARK minimizedRMSD -1
REMARK  0 active torsions:
REMARK  status: ('A' for Active; 'I' for Inactive)
ROOT
ATOM      1  C1  BNZ d   1       5.918   3.783   5.943  0.00  0.00     0.000 A 
ATOM      2  C2  BNZ d   1       5.999   5.150   5.944  0.00  0.00     0.000 A 
ATOM      3  C3  BNZ d   1       4.869   5.917   5.993  0.00  0.00     0.000 A 
ATOM      4  C4  BNZ d   1       3.661   5.319   6.000  0.00  0.00     0.000 A 
ATOM      5  C5  BNZ d   1       3.562   3.941   5.990  0.00  0.00     0.000 A 
ATOM      6  C6  BNZ d   1       4.703   3.172   5.980  0.00  0.00     0.000 A 
ENDROOT
TORSDOF 0
ENDMDL
