MODEL 1
REMARK minimizedAffinity -3.52604055
REMARK minimizedRMSD -1
REMARK  0 active torsions:
REMARK  status: ('A' for Active; 'I' for Inactive)
ROOT
ATOM      1  C2' OXE d   1      -0.766  -0.431   1.572  0.00  0.00     0.078 C 
ATOM      2  C1' OXE d   1       0.020   0.901  -0.771  0.00  0.00     0.078 C 
ATOM      3  C1  OXE d   1      -0.215  -0.586  -0.853  0.00  0.00    -0.078 A 
ATOM      4  C2  OXE d   1      -0.554  -1.238   0.309  0.00  0.00    -0.078 A 
ATOM      5  C3  OXE d   1      -0.836  -2.600   0.278  0.00  0.00     0.003 A 
ATOM      6  C4  OXE d   1      -0.628  -3.341  -0.892  0.00  0.00    -0.002 A 
ATOM      7  C5  OXE d   1      -0.245  -2.704  -2.077  0.00  0.00    -0.002 A 
ATOM      8  C6  OXE d   1      -0.076  -1.324  -2.084  0.00  0.00     0.003 A 
ENDROOT
TORSDOF 0
ENDMDL
