MODEL 1
REMARK minimizedAffinity -1.70859754
REMARK minimizedRMSD -1
REMARK  0 active torsions:
REMARK  status: ('A' for Active; 'I' for Inactive)
ROOT
ATOM      1  C2' OXE d   1       0.225  -0.267  -2.322  0.00  0.00     0.078 C 
ATOM      2  C1' OXE d   1       0.388   1.467  -0.121  0.00  0.00     0.078 C 
ATOM      3  C1  OXE d   1      -0.233   0.110   0.097  0.00  0.00    -0.078 A 
ATOM      4  C2  OXE d   1      -0.351  -0.714  -0.996  0.00  0.00    -0.078 A 
ATOM      5  C3  OXE d   1      -0.866  -1.998  -0.839  0.00  0.00     0.003 A 
ATOM      6  C4  OXE d   1      -1.405  -2.400   0.389  0.00  0.00    -0.002 A 
ATOM      7  C5  OXE d   1      -1.331  -1.561   1.506  0.00  0.00    -0.002 A 
ATOM      8  C6  OXE d   1      -0.711  -0.322   1.388  0.00  0.00     0.003 A 
ENDROOT
TORSDOF 0
ENDMDL
