MODEL 1
REMARK minimizedAffinity -2.88023424
REMARK minimizedRMSD -1
REMARK  0 active torsions:
REMARK  status: ('A' for Active; 'I' for Inactive)
ROOT
ATOM      1  C2' OXE d   1      -0.594   1.732  -1.281  0.00  0.00     0.078 C 
ATOM      2  C1' OXE d   1       1.788   2.191   0.132  0.00  0.00     0.078 C 
ATOM      3  C1  OXE d   1       0.959   0.993   0.521  0.00  0.00    -0.078 A 
ATOM      4  C2  OXE d   1      -0.228   0.802  -0.145  0.00  0.00    -0.078 A 
ATOM      5  C3  OXE d   1      -1.004  -0.318   0.137  0.00  0.00     0.003 A 
ATOM      6  C4  OXE d   1      -0.664  -1.168   1.197  0.00  0.00    -0.002 A 
ATOM      7  C5  OXE d   1       0.520  -0.969   1.914  0.00  0.00    -0.002 A 
ATOM      8  C6  OXE d   1       1.363   0.079   1.561  0.00  0.00     0.003 A 
ENDROOT
TORSDOF 0
ENDMDL
