MODEL 1
REMARK minimizedAffinity -4.6087532
REMARK minimizedRMSD -1
REMARK  0 active torsions:
REMARK  status: ('A' for Active; 'I' for Inactive)
ROOT
ATOM      1  C2' OXE d   1      -0.058   1.287   0.131  0.00  0.00     0.078 C 
ATOM      2  C1' OXE d   1      -1.220  -0.557   1.901  0.00  0.00     0.078 C 
ATOM      3  C1  OXE d   1      -0.844  -1.044   0.524  0.00  0.00    -0.078 A 
ATOM      4  C2  OXE d   1      -0.319  -0.124  -0.351  0.00  0.00    -0.078 A 
ATOM      5  C3  OXE d   1       0.096  -0.533  -1.615  0.00  0.00     0.003 A 
ATOM      6  C4  OXE d   1      -0.158  -1.837  -2.057  0.00  0.00    -0.002 A 
ATOM      7  C5  OXE d   1      -0.729  -2.780  -1.195  0.00  0.00    -0.002 A 
ATOM      8  C6  OXE d   1      -1.037  -2.412   0.110  0.00  0.00     0.003 A 
ENDROOT
TORSDOF 0
ENDMDL
