MODEL 1
REMARK minimizedAffinity -3.3522923
REMARK minimizedRMSD -1
REMARK  0 active torsions:
REMARK  status: ('A' for Active; 'I' for Inactive)
ROOT
ATOM      1  C2' OXE d   1      -0.449  -2.635   0.637  0.00  0.00     0.078 C 
ATOM      2  C1' OXE d   1      -1.230  -0.323   2.023  0.00  0.00     0.078 C 
ATOM      3  C1  OXE d   1      -0.645  -0.152   0.644  0.00  0.00    -0.078 A 
ATOM      4  C2  OXE d   1      -0.222  -1.285  -0.008  0.00  0.00    -0.078 A 
ATOM      5  C3  OXE d   1       0.275  -1.190  -1.305  0.00  0.00     0.003 A 
ATOM      6  C4  OXE d   1       0.492   0.064  -1.891  0.00  0.00    -0.002 A 
ATOM      7  C5  OXE d   1       0.105   1.233  -1.227  0.00  0.00    -0.002 A 
ATOM      8  C6  OXE d   1      -0.503   1.140   0.020  0.00  0.00     0.003 A 
ENDROOT
TORSDOF 0
ENDMDL
