MODEL 1
REMARK minimizedAffinity -3.19457722
REMARK minimizedRMSD -1
REMARK  0 active torsions:
REMARK  status: ('A' for Active; 'I' for Inactive)
ROOT
ATOM      1  C2' OXE d   1      -0.018   1.356  -1.340  0.00  0.00     0.078 C 
ATOM      2  C1' OXE d   1       1.742   2.124   0.708  0.00  0.00     0.078 C 
ATOM      3  C1  OXE d   1       0.797   0.982   0.984  0.00  0.00    -0.078 A 
ATOM      4  C2  OXE d   1      -0.093   0.644  -0.007  0.00  0.00    -0.078 A 
ATOM      5  C3  OXE d   1      -0.950  -0.438   0.176  0.00  0.00     0.003 A 
ATOM      6  C4  OXE d   1      -1.020  -1.085   1.416  0.00  0.00    -0.002 A 
ATOM      7  C5  OXE d   1      -0.150  -0.730   2.452  0.00  0.00    -0.002 A 
ATOM      8  C6  OXE d   1       0.792   0.271   2.239  0.00  0.00     0.003 A 
ENDROOT
TORSDOF 0
ENDMDL
