MODEL 1
REMARK minimizedAffinity -0.197360292
REMARK minimizedRMSD -1
REMARK  0 active torsions:
REMARK  status: ('A' for Active; 'I' for Inactive)
ROOT
ATOM      1  C2' OXE d   1      -0.696  -0.033   2.332  0.00  0.00     0.078 C 
ATOM      2  C1' OXE d   1      -0.982  -2.267   0.657  0.00  0.00     0.078 C 
ATOM      3  C1  OXE d   1      -0.575  -0.960   0.023  0.00  0.00    -0.078 A 
ATOM      4  C2  OXE d   1      -0.483   0.138   0.843  0.00  0.00    -0.078 A 
ATOM      5  C3  OXE d   1      -0.059   1.356   0.319  0.00  0.00     0.003 A 
ATOM      6  C4  OXE d   1       0.127   1.508  -1.060  0.00  0.00    -0.002 A 
ATOM      7  C5  OXE d   1      -0.001   0.411  -1.919  0.00  0.00    -0.002 A 
ATOM      8  C6  OXE d   1      -0.309  -0.837  -1.388  0.00  0.00     0.003 A 
ENDROOT
TORSDOF 0
ENDMDL
