MODEL 1
REMARK minimizedAffinity -3.79159665
REMARK minimizedRMSD -1
REMARK  0 active torsions:
REMARK  status: ('A' for Active; 'I' for Inactive)
ROOT
ATOM      1  C2' OXE d   1      -0.154   1.151   0.009  0.00  0.00     0.078 C 
ATOM      2  C1' OXE d   1      -1.258  -0.652   1.856  0.00  0.00     0.078 C 
ATOM      3  C1  OXE d   1      -0.958  -1.162   0.468  0.00  0.00    -0.078 A 
ATOM      4  C2  OXE d   1      -0.461  -0.261  -0.442  0.00  0.00    -0.078 A 
ATOM      5  C3  OXE d   1      -0.116  -0.692  -1.720  0.00  0.00     0.003 A 
ATOM      6  C4  OXE d   1      -0.413  -1.996  -2.133  0.00  0.00    -0.002 A 
ATOM      7  C5  OXE d   1      -0.956  -2.919  -1.233  0.00  0.00    -0.002 A 
ATOM      8  C6  OXE d   1      -1.194  -2.531   0.081  0.00  0.00     0.003 A 
ENDROOT
TORSDOF 0
ENDMDL
