MODEL 1
REMARK minimizedAffinity -2.702842
REMARK minimizedRMSD -1
REMARK  0 active torsions:
REMARK  status: ('A' for Active; 'I' for Inactive)
ROOT
ATOM      1  C2' OXE d   1       2.642  -0.216   0.693  0.00  0.00     0.078 C 
ATOM      2  C1' OXE d   1       0.115   0.531  -0.274  0.00  0.00     0.078 C 
ATOM      3  C1  OXE d   1       0.978   1.604   0.342  0.00  0.00    -0.078 A 
ATOM      4  C2  OXE d   1       2.194   1.220   0.855  0.00  0.00    -0.078 A 
ATOM      5  C3  OXE d   1       3.053   2.179   1.384  0.00  0.00     0.003 A 
ATOM      6  C4  OXE d   1       2.626   3.504   1.539  0.00  0.00    -0.002 A 
ATOM      7  C5  OXE d   1       1.376   3.908   1.060  0.00  0.00    -0.002 A 
ATOM      8  C6  OXE d   1       0.559   2.981   0.422  0.00  0.00     0.003 A 
ENDROOT
TORSDOF 0
ENDMDL
