MODEL 1
REMARK minimizedAffinity -1.16098619
REMARK minimizedRMSD -1
REMARK  0 active torsions:
REMARK  status: ('A' for Active; 'I' for Inactive)
ROOT
ATOM      1  C2' OXE d   1       1.371   2.573   0.115  0.00  0.00     0.078 C 
ATOM      2  C1' OXE d   1      -0.773   1.807  -1.527  0.00  0.00     0.078 C 
ATOM      3  C1  OXE d   1      -0.448   0.933  -0.341  0.00  0.00    -0.078 A 
ATOM      4  C2  OXE d   1       0.632   1.290   0.430  0.00  0.00    -0.078 A 
ATOM      5  C3  OXE d   1       0.943   0.549   1.567  0.00  0.00     0.003 A 
ATOM      6  C4  OXE d   1       0.261  -0.642   1.845  0.00  0.00    -0.002 A 
ATOM      7  C5  OXE d   1      -0.817  -1.045   1.049  0.00  0.00    -0.002 A 
ATOM      8  C6  OXE d   1      -1.210  -0.248  -0.020  0.00  0.00     0.003 A 
ENDROOT
TORSDOF 0
ENDMDL
