MODEL 1
REMARK minimizedAffinity -0.492720574
REMARK minimizedRMSD -1
REMARK  0 active torsions:
REMARK  status: ('A' for Active; 'I' for Inactive)
ROOT
ATOM      1  C2' OXE d   1       0.301  -1.569  -2.538  0.00  0.00     0.078 C 
ATOM      2  C1' OXE d   1      -0.452  -2.607  -0.041  0.00  0.00     0.078 C 
ATOM      3  C1  OXE d   1      -0.321  -1.110  -0.170  0.00  0.00    -0.078 A 
ATOM      4  C2  OXE d   1       0.093  -0.614  -1.382  0.00  0.00    -0.078 A 
ATOM      5  C3  OXE d   1       0.177   0.763  -1.571  0.00  0.00     0.003 A 
ATOM      6  C4  OXE d   1      -0.007   1.639  -0.495  0.00  0.00    -0.002 A 
ATOM      7  C5  OXE d   1      -0.391   1.151   0.759  0.00  0.00    -0.002 A 
ATOM      8  C6  OXE d   1      -0.593  -0.214   0.927  0.00  0.00     0.003 A 
ENDROOT
TORSDOF 0
ENDMDL
