MODEL 1
REMARK minimizedAffinity -3.12808704
REMARK minimizedRMSD -1
REMARK  0 active torsions:
REMARK  status: ('A' for Active; 'I' for Inactive)
ROOT
ATOM      1  C2' OXE d   1      -0.215   0.428  -2.130  0.00  0.00     0.078 C 
ATOM      2  C1' OXE d   1      -0.041  -2.281  -2.846  0.00  0.00     0.078 C 
ATOM      3  C1  OXE d   1      -0.369  -1.952  -1.411  0.00  0.00    -0.078 A 
ATOM      4  C2  OXE d   1      -0.406  -0.624  -1.059  0.00  0.00    -0.078 A 
ATOM      5  C3  OXE d   1      -0.758  -0.265   0.239  0.00  0.00     0.003 A 
ATOM      6  C4  OXE d   1      -0.923  -1.244   1.225  0.00  0.00    -0.002 A 
ATOM      7  C5  OXE d   1      -0.850  -2.602   0.897  0.00  0.00    -0.002 A 
ATOM      8  C6  OXE d   1      -0.617  -2.972  -0.423  0.00  0.00     0.003 A 
ENDROOT
TORSDOF 0
ENDMDL
