MODEL 1
REMARK minimizedAffinity -5.14129543
REMARK minimizedRMSD -1
REMARK  0 active torsions:
REMARK  status: ('A' for Active; 'I' for Inactive)
ROOT
ATOM      1  C2' OXE d   1       0.019   0.004  -2.215  0.00  0.00     0.078 C 
ATOM      2  C1' OXE d   1       0.971   1.365   0.048  0.00  0.00     0.078 C 
ATOM      3  C1  OXE d   1       0.195   0.090   0.268  0.00  0.00    -0.078 A 
ATOM      4  C2  OXE d   1      -0.307  -0.544  -0.842  0.00  0.00    -0.078 A 
ATOM      5  C3  OXE d   1      -0.982  -1.753  -0.699  0.00  0.00     0.003 A 
ATOM      6  C4  OXE d   1      -1.288  -2.248   0.575  0.00  0.00    -0.002 A 
ATOM      7  C5  OXE d   1      -0.820  -1.596   1.720  0.00  0.00    -0.002 A 
ATOM      8  C6  OXE d   1      -0.042  -0.451   1.584  0.00  0.00     0.003 A 
ENDROOT
TORSDOF 0
ENDMDL
