MODEL 1
REMARK minimizedAffinity -3.3184042
REMARK minimizedRMSD -1
REMARK  0 active torsions:
REMARK  status: ('A' for Active; 'I' for Inactive)
ROOT
ATOM      1  C2' OXE d   1       1.954   2.067   0.528  0.00  0.00     0.078 C 
ATOM      2  C1' OXE d   1      -0.374   1.673  -0.990  0.00  0.00     0.078 C 
ATOM      3  C1  OXE d   1      -0.093   0.704   0.132  0.00  0.00    -0.078 A 
ATOM      4  C2  OXE d   1       1.072   0.877   0.839  0.00  0.00    -0.078 A 
ATOM      5  C3  OXE d   1       1.353   0.044   1.919  0.00  0.00     0.003 A 
ATOM      6  C4  OXE d   1       0.538  -1.060   2.193  0.00  0.00    -0.002 A 
ATOM      7  C5  OXE d   1      -0.633  -1.278   1.459  0.00  0.00    -0.002 A 
ATOM      8  C6  OXE d   1      -0.985  -0.382   0.455  0.00  0.00     0.003 A 
ENDROOT
TORSDOF 0
ENDMDL
