MODEL 1
REMARK minimizedAffinity -2.8913269
REMARK minimizedRMSD -1
REMARK  0 active torsions:
REMARK  status: ('A' for Active; 'I' for Inactive)
ROOT
ATOM      1  C2' OXE d   1       0.571   1.339  -0.700  0.00  0.00     0.078 C 
ATOM      2  C1' OXE d   1       0.523  -0.938  -2.341  0.00  0.00     0.078 C 
ATOM      3  C1  OXE d   1      -0.019  -1.070  -0.940  0.00  0.00    -0.078 A 
ATOM      4  C2  OXE d   1       0.052   0.037  -0.128  0.00  0.00    -0.078 A 
ATOM      5  C3  OXE d   1      -0.484  -0.014   1.156  0.00  0.00     0.003 A 
ATOM      6  C4  OXE d   1      -0.953  -1.224   1.680  0.00  0.00    -0.002 A 
ATOM      7  C5  OXE d   1      -0.998  -2.374   0.883  0.00  0.00    -0.002 A 
ATOM      8  C6  OXE d   1      -0.575  -2.303  -0.439  0.00  0.00     0.003 A 
ENDROOT
TORSDOF 0
ENDMDL
