MODEL 1
REMARK minimizedAffinity -2.44675779
REMARK minimizedRMSD -1
REMARK  0 active torsions:
REMARK  status: ('A' for Active; 'I' for Inactive)
ROOT
ATOM      1  C2' OXE d   1      -0.070   1.158  -0.871  0.00  0.00     0.078 C 
ATOM      2  C1' OXE d   1       0.110  -1.332  -2.154  0.00  0.00     0.078 C 
ATOM      3  C1  OXE d   1      -0.207  -1.322  -0.679  0.00  0.00    -0.078 A 
ATOM      4  C2  OXE d   1      -0.248  -0.101  -0.050  0.00  0.00    -0.078 A 
ATOM      5  C3  OXE d   1      -0.590  -0.031   1.297  0.00  0.00     0.003 A 
ATOM      6  C4  OXE d   1      -0.743  -1.201   2.051  0.00  0.00    -0.002 A 
ATOM      7  C5  OXE d   1      -0.667  -2.456   1.438  0.00  0.00    -0.002 A 
ATOM      8  C6  OXE d   1      -0.442  -2.532   0.068  0.00  0.00     0.003 A 
ENDROOT
TORSDOF 0
ENDMDL
