MODEL 1
REMARK minimizedAffinity -2.41453981
REMARK minimizedRMSD -1
REMARK  0 active torsions:
REMARK  status: ('A' for Active; 'I' for Inactive)
ROOT
ATOM      1  C2' OXE d   1       0.056  -0.135   2.664  0.00  0.00     0.078 C 
ATOM      2  C1' OXE d   1      -0.387  -0.114  -0.108  0.00  0.00     0.078 C 
ATOM      3  C1  OXE d   1       0.184   1.131   0.523  0.00  0.00    -0.078 A 
ATOM      4  C2  OXE d   1       0.354   1.128   1.887  0.00  0.00    -0.078 A 
ATOM      5  C3  OXE d   1       0.929   2.231   2.512  0.00  0.00     0.003 A 
ATOM      6  C4  OXE d   1       1.192   3.400   1.787  0.00  0.00    -0.002 A 
ATOM      7  C5  OXE d   1       0.989   3.437   0.403  0.00  0.00    -0.002 A 
ATOM      8  C6  OXE d   1       0.527   2.300  -0.249  0.00  0.00     0.003 A 
ENDROOT
TORSDOF 0
ENDMDL
