MODEL 1
REMARK minimizedAffinity -3.33758926
REMARK minimizedRMSD -1
REMARK  2 active torsions:
REMARK  status: ('A' for Active; 'I' for Inactive)
REMARK    1  A    between atoms: C1_2  and  C2_3 
REMARK    2  A    between atoms: C2_3  and  C3_4 
ROOT
ATOM      1  C3  UNL d   1      -0.856   0.315  -0.215  0.00  0.00    -0.075 A 
ATOM      2  C4  UNL d   1       0.239   1.186  -0.112  0.00  0.00     0.002 A 
ATOM      3  C5  UNL d   1       1.422   0.767   0.497  0.00  0.00     0.002 A 
ATOM      4  C6  UNL d   1       1.522  -0.521   1.019  0.00  0.00    -0.004 A 
ATOM      5  C7  UNL d   1       0.436  -1.388   0.938  0.00  0.00     0.002 A 
ATOM      6  C8  UNL d   1      -0.748  -0.974   0.325  0.00  0.00     0.002 A 
ENDROOT
BRANCH   1   7
ATOM      7  C2  UNL d   1      -2.129   0.752  -0.899  0.00  0.00     0.056 C 
BRANCH   7   8
ATOM      8  C1  UNL d   1      -2.511  -0.103  -2.111  0.00  0.00     0.007 C 
ATOM      9  C   UNL d   1      -2.706   0.711  -3.383  0.00  0.00     0.009 C 
ENDBRANCH   7   8
ENDBRANCH   1   7
TORSDOF 2
ENDMDL
