MODEL 1
REMARK minimizedAffinity -3.56483102
REMARK minimizedRMSD -1
REMARK  2 active torsions:
REMARK  status: ('A' for Active; 'I' for Inactive)
REMARK    1  A    between atoms: C1_2  and  C2_3 
REMARK    2  A    between atoms: C2_3  and  C3_4 
ROOT
ATOM      1  C3  UNL d   1      -0.132   0.498  -0.103  0.00  0.00    -0.075 A 
ATOM      2  C4  UNL d   1       0.862   1.486  -0.154  0.00  0.00     0.002 A 
ATOM      3  C5  UNL d   1       2.113   1.262   0.421  0.00  0.00     0.002 A 
ATOM      4  C6  UNL d   1       2.383   0.055   1.062  0.00  0.00    -0.004 A 
ATOM      5  C7  UNL d   1       1.397  -0.927   1.133  0.00  0.00     0.002 A 
ATOM      6  C8  UNL d   1       0.146  -0.708   0.554  0.00  0.00     0.002 A 
ENDROOT
BRANCH   1   7
ATOM      7  C2  UNL d   1      -1.478   0.723  -0.749  0.00  0.00     0.056 C 
BRANCH   7   8
ATOM      8  C1  UNL d   1      -1.874  -0.361  -1.758  0.00  0.00     0.007 C 
ATOM      9  C   UNL d   1      -2.612   0.190  -2.972  0.00  0.00     0.009 C 
ENDBRANCH   7   8
ENDBRANCH   1   7
TORSDOF 2
ENDMDL
