MODEL 1
REMARK minimizedAffinity 8.08390903
REMARK minimizedRMSD -1
REMARK  2 active torsions:
REMARK  status: ('A' for Active; 'I' for Inactive)
REMARK    1  A    between atoms: C1_2  and  C2_3 
REMARK    2  A    between atoms: C2_3  and  C3_4 
ROOT
ATOM      1  C3  UNL d   1       1.173   0.644   1.336  0.00  0.00    -0.075 A 
ATOM      2  C4  UNL d   1       0.454   1.773   1.756  0.00  0.00     0.002 A 
ATOM      3  C5  UNL d   1       0.355   2.896   0.934  0.00  0.00     0.002 A 
ATOM      4  C6  UNL d   1       0.981   2.909  -0.310  0.00  0.00    -0.004 A 
ATOM      5  C7  UNL d   1       1.712   1.800  -0.730  0.00  0.00     0.002 A 
ATOM      6  C8  UNL d   1       1.809   0.673   0.088  0.00  0.00     0.002 A 
ENDROOT
BRANCH   1   7
ATOM      7  C2  UNL d   1       1.259  -0.585   2.209  0.00  0.00     0.056 C 
BRANCH   7   8
ATOM      8  C1  UNL d   1       1.017  -1.900   1.459  0.00  0.00     0.007 C 
ATOM      9  C   UNL d   1       0.270  -2.936   2.289  0.00  0.00     0.009 C 
ENDBRANCH   7   8
ENDBRANCH   1   7
TORSDOF 2
ENDMDL
