MODEL 1
REMARK minimizedAffinity -0.53585273
REMARK minimizedRMSD -1
REMARK  2 active torsions:
REMARK  status: ('A' for Active; 'I' for Inactive)
REMARK    1  A    between atoms: C1_2  and  C2_3 
REMARK    2  A    between atoms: C2_3  and  C3_4 
ROOT
ATOM      1  C3  UNL d   1      -0.327   0.151  -0.040  0.00  0.00    -0.075 A 
ATOM      2  C4  UNL d   1       0.240  -0.264   1.174  0.00  0.00     0.002 A 
ATOM      3  C5  UNL d   1       1.464   0.253   1.598  0.00  0.00     0.002 A 
ATOM      4  C6  UNL d   1       2.141   1.183   0.811  0.00  0.00    -0.004 A 
ATOM      5  C7  UNL d   1       1.595   1.590  -0.404  0.00  0.00     0.002 A 
ATOM      6  C8  UNL d   1       0.368   1.078  -0.829  0.00  0.00     0.002 A 
ENDROOT
BRANCH   1   7
ATOM      7  C2  UNL d   1      -1.666  -0.383  -0.490  0.00  0.00     0.056 C 
BRANCH   7   8
ATOM      8  C1  UNL d   1      -2.177   0.237  -1.795  0.00  0.00     0.007 C 
ATOM      9  C   UNL d   1      -2.596  -0.800  -2.828  0.00  0.00     0.009 C 
ENDBRANCH   7   8
ENDBRANCH   1   7
TORSDOF 2
ENDMDL
