MODEL 1
REMARK minimizedAffinity -5.38353443
REMARK minimizedRMSD -1
REMARK  0 active torsions:
REMARK  status: ('A' for Active; 'I' for Inactive)
ROOT
ATOM      1  C   UNL d   1      -0.141  -3.453   1.059  0.00  0.00     0.078 C 
ATOM      2  C1  UNL d   1       0.117  -2.210   0.261  0.00  0.00    -0.077 A 
ATOM      3  C2  UNL d   1       0.671  -2.279  -1.023  0.00  0.00    -0.001 A 
ATOM      4  C3  UNL d   1       0.915  -1.113  -1.750  0.00  0.00     0.003 A 
ATOM      5  C4  UNL d   1       0.610   0.131  -1.201  0.00  0.00    -0.005 A 
ATOM      6  C5  UNL d   1       0.061   0.210   0.077  0.00  0.00     0.003 A 
ATOM      7  C6  UNL d   1      -0.184  -0.955   0.806  0.00  0.00    -0.001 A 
ENDROOT
TORSDOF 0
ENDMDL
