MODEL 1
REMARK minimizedAffinity -3.24660254
REMARK minimizedRMSD -1
REMARK  0 active torsions:
REMARK  status: ('A' for Active; 'I' for Inactive)
ROOT
ATOM      1  C   UNL d   1      -1.785  -4.260  -0.049  0.00  0.00     0.078 C 
ATOM      2  C1  UNL d   1      -0.919  -3.044  -0.193  0.00  0.00    -0.077 A 
ATOM      3  C2  UNL d   1       0.283  -3.096  -0.909  0.00  0.00    -0.001 A 
ATOM      4  C3  UNL d   1       1.085  -1.959  -1.026  0.00  0.00     0.003 A 
ATOM      5  C4  UNL d   1       0.693  -0.762  -0.428  0.00  0.00    -0.005 A 
ATOM      6  C5  UNL d   1      -0.500  -0.702   0.288  0.00  0.00     0.003 A 
ATOM      7  C6  UNL d   1      -1.303  -1.838   0.406  0.00  0.00    -0.001 A 
ENDROOT
TORSDOF 0
ENDMDL
