MODEL 1
REMARK minimizedAffinity 2.27992177
REMARK minimizedRMSD -1
REMARK  0 active torsions:
REMARK  status: ('A' for Active; 'I' for Inactive)
ROOT
ATOM      1  C   UNL d   1      -1.402  -1.416  -1.107  0.00  0.00     0.078 C 
ATOM      2  C1  UNL d   1      -1.592  -2.588  -2.022  0.00  0.00    -0.077 A 
ATOM      3  C2  UNL d   1      -2.444  -3.644  -1.675  0.00  0.00    -0.001 A 
ATOM      4  C3  UNL d   1      -2.604  -4.733  -2.533  0.00  0.00     0.003 A 
ATOM      5  C4  UNL d   1      -1.914  -4.779  -3.742  0.00  0.00    -0.005 A 
ATOM      6  C5  UNL d   1      -1.061  -3.734  -4.095  0.00  0.00     0.003 A 
ATOM      7  C6  UNL d   1      -0.900  -2.644  -3.239  0.00  0.00    -0.001 A 
ENDROOT
TORSDOF 0
ENDMDL
