MODEL 1
REMARK minimizedAffinity -5.2460537
REMARK minimizedRMSD -1
REMARK  0 active torsions:
REMARK  status: ('A' for Active; 'I' for Inactive)
ROOT
ATOM      1  C   UNL d   1      -0.229  -5.419  -1.404  0.00  0.00     0.078 C 
ATOM      2  C1  UNL d   1       0.094  -3.969  -1.200  0.00  0.00    -0.077 A 
ATOM      3  C2  UNL d   1       0.647  -3.201  -2.232  0.00  0.00    -0.001 A 
ATOM      4  C3  UNL d   1       0.952  -1.855  -2.025  0.00  0.00     0.003 A 
ATOM      5  C4  UNL d   1       0.709  -1.265  -0.786  0.00  0.00    -0.005 A 
ATOM      6  C5  UNL d   1       0.161  -2.021   0.248  0.00  0.00     0.003 A 
ATOM      7  C6  UNL d   1      -0.145  -3.368   0.042  0.00  0.00    -0.001 A 
ENDROOT
TORSDOF 0
ENDMDL
