MODEL 1
REMARK minimizedAffinity -1.5692364
REMARK minimizedRMSD -1
REMARK  0 active torsions:
REMARK  status: ('A' for Active; 'I' for Inactive)
ROOT
ATOM      1  C   UNL d   1       0.710  -0.750  -2.901  0.00  0.00     0.078 C 
ATOM      2  C1  UNL d   1       0.139  -0.545  -1.529  0.00  0.00    -0.077 A 
ATOM      3  C2  UNL d   1       0.041   0.736  -0.972  0.00  0.00    -0.001 A 
ATOM      4  C3  UNL d   1      -0.483   0.910   0.309  0.00  0.00     0.003 A 
ATOM      5  C4  UNL d   1      -0.912  -0.192   1.046  0.00  0.00    -0.005 A 
ATOM      6  C5  UNL d   1      -0.816  -1.471   0.501  0.00  0.00     0.003 A 
ATOM      7  C6  UNL d   1      -0.292  -1.647  -0.781  0.00  0.00    -0.001 A 
ENDROOT
TORSDOF 0
ENDMDL
