MODEL 1
REMARK minimizedAffinity -5.34466934
REMARK minimizedRMSD -1
REMARK  0 active torsions:
REMARK  status: ('A' for Active; 'I' for Inactive)
ROOT
ATOM      1  C   UNL d   1      -0.243   0.480   0.032  0.00  0.00     0.078 C 
ATOM      2  C1  UNL d   1      -0.078  -0.916  -0.489  0.00  0.00    -0.077 A 
ATOM      3  C2  UNL d   1       0.163  -1.156  -1.847  0.00  0.00    -0.001 A 
ATOM      4  C3  UNL d   1       0.305  -2.461  -2.319  0.00  0.00     0.003 A 
ATOM      5  C4  UNL d   1       0.206  -3.538  -1.440  0.00  0.00    -0.005 A 
ATOM      6  C5  UNL d   1      -0.035  -3.310  -0.087  0.00  0.00     0.003 A 
ATOM      7  C6  UNL d   1      -0.178  -2.005   0.387  0.00  0.00    -0.001 A 
ENDROOT
TORSDOF 0
ENDMDL
