MODEL 1
REMARK minimizedAffinity -1.64201319
REMARK minimizedRMSD -1
REMARK  0 active torsions:
REMARK  status: ('A' for Active; 'I' for Inactive)
ROOT
ATOM      1  C   UNL d   1      -0.162   0.456  -0.115  0.00  0.00     0.078 C 
ATOM      2  C1  UNL d   1       0.545   1.722   0.269  0.00  0.00    -0.077 A 
ATOM      3  C2  UNL d   1       1.942   1.804   0.243  0.00  0.00    -0.001 A 
ATOM      4  C3  UNL d   1       2.587   2.986   0.612  0.00  0.00     0.003 A 
ATOM      5  C4  UNL d   1       1.842   4.094   1.011  0.00  0.00    -0.005 A 
ATOM      6  C5  UNL d   1       0.451   4.021   1.042  0.00  0.00     0.003 A 
ATOM      7  C6  UNL d   1      -0.195   2.840   0.673  0.00  0.00    -0.001 A 
ENDROOT
TORSDOF 0
ENDMDL
