MODEL 1
REMARK minimizedAffinity -1.15725732
REMARK minimizedRMSD -1
REMARK  0 active torsions:
REMARK  status: ('A' for Active; 'I' for Inactive)
ROOT
ATOM      1  C   UNL d   1      -1.495  -1.080   1.192  0.00  0.00     0.078 C 
ATOM      2  C1  UNL d   1      -0.655  -0.295   0.229  0.00  0.00    -0.077 A 
ATOM      3  C2  UNL d   1      -0.403  -0.772  -1.063  0.00  0.00    -0.001 A 
ATOM      4  C3  UNL d   1       0.389  -0.036  -1.946  0.00  0.00     0.003 A 
ATOM      5  C4  UNL d   1       0.937   1.181  -1.545  0.00  0.00    -0.005 A 
ATOM      6  C5  UNL d   1       0.694   1.663  -0.261  0.00  0.00     0.003 A 
ATOM      7  C6  UNL d   1      -0.098   0.928   0.623  0.00  0.00    -0.001 A 
ENDROOT
TORSDOF 0
ENDMDL
