MODEL 1
REMARK minimizedAffinity -5.02506399
REMARK minimizedRMSD -1
REMARK  0 active torsions:
REMARK  status: ('A' for Active; 'I' for Inactive)
ROOT
ATOM      1  C   UNL d   1      -0.156   0.844  -0.196  0.00  0.00     0.078 C 
ATOM      2  C1  UNL d   1      -0.187  -0.653  -0.122  0.00  0.00    -0.077 A 
ATOM      3  C2  UNL d   1      -0.214  -1.433  -1.284  0.00  0.00    -0.001 A 
ATOM      4  C3  UNL d   1      -0.253  -2.825  -1.200  0.00  0.00     0.003 A 
ATOM      5  C4  UNL d   1      -0.266  -3.451   0.045  0.00  0.00    -0.005 A 
ATOM      6  C5  UNL d   1      -0.242  -2.683   1.208  0.00  0.00     0.003 A 
ATOM      7  C6  UNL d   1      -0.203  -1.291   1.125  0.00  0.00    -0.001 A 
ENDROOT
TORSDOF 0
ENDMDL
