MODEL 1
REMARK minimizedAffinity -5.23456049
REMARK minimizedRMSD -1
REMARK  0 active torsions:
REMARK  status: ('A' for Active; 'I' for Inactive)
ROOT
ATOM      1  C   UNL d   1      -0.132   0.098  -0.020  0.00  0.00     0.078 C 
ATOM      2  C1  UNL d   1       0.115  -1.323  -0.428  0.00  0.00    -0.077 A 
ATOM      3  C2  UNL d   1       0.025  -1.715  -1.770  0.00  0.00    -0.001 A 
ATOM      4  C3  UNL d   1       0.248  -3.044  -2.134  0.00  0.00     0.003 A 
ATOM      5  C4  UNL d   1       0.561  -3.992  -1.162  0.00  0.00    -0.005 A 
ATOM      6  C5  UNL d   1       0.651  -3.613   0.175  0.00  0.00     0.003 A 
ATOM      7  C6  UNL d   1       0.428  -2.284   0.541  0.00  0.00    -0.001 A 
ENDROOT
TORSDOF 0
ENDMDL
