MODEL 1
REMARK minimizedAffinity -5.91084385
REMARK minimizedRMSD -1
REMARK  0 active torsions:
REMARK  status: ('A' for Active; 'I' for Inactive)
ROOT
ATOM      1  C   UNL d   1       0.370   0.218  -0.211  0.00  0.00     0.078 C 
ATOM      2  C1  UNL d   1       0.373  -1.271  -0.387  0.00  0.00    -0.077 A 
ATOM      3  C2  UNL d   1       0.365  -1.847  -1.664  0.00  0.00    -0.001 A 
ATOM      4  C3  UNL d   1       0.358  -3.234  -1.813  0.00  0.00     0.003 A 
ATOM      5  C4  UNL d   1       0.359  -4.059  -0.689  0.00  0.00    -0.005 A 
ATOM      6  C5  UNL d   1       0.365  -3.496   0.585  0.00  0.00     0.003 A 
ATOM      7  C6  UNL d   1       0.372  -2.108   0.736  0.00  0.00    -0.001 A 
ENDROOT
TORSDOF 0
ENDMDL
