MODEL 1
REMARK minimizedAffinity -5.23574972
REMARK minimizedRMSD -1
REMARK  0 active torsions:
REMARK  status: ('A' for Active; 'I' for Inactive)
ROOT
ATOM      1  C   UNL d   1       0.754  -3.465  -0.306  0.00  0.00     0.078 C 
ATOM      2  C1  UNL d   1       0.578  -2.054  -0.782  0.00  0.00    -0.077 A 
ATOM      3  C2  UNL d   1       0.223  -1.032   0.107  0.00  0.00    -0.001 A 
ATOM      4  C3  UNL d   1       0.053   0.276  -0.352  0.00  0.00     0.003 A 
ATOM      5  C4  UNL d   1       0.236   0.573  -1.701  0.00  0.00    -0.005 A 
ATOM      6  C5  UNL d   1       0.587  -0.438  -2.593  0.00  0.00     0.003 A 
ATOM      7  C6  UNL d   1       0.757  -1.746  -2.136  0.00  0.00    -0.001 A 
ENDROOT
TORSDOF 0
ENDMDL
