MODEL 1
REMARK minimizedAffinity -5.2528038
REMARK minimizedRMSD -1
REMARK  0 active torsions:
REMARK  status: ('A' for Active; 'I' for Inactive)
ROOT
ATOM      1  C   UNL d   1      -0.865  -0.464   0.940  0.00  0.00     0.078 C 
ATOM      2  C1  UNL d   1      -0.440  -1.688   0.185  0.00  0.00    -0.077 A 
ATOM      3  C2  UNL d   1      -0.580  -2.965   0.743  0.00  0.00    -0.001 A 
ATOM      4  C3  UNL d   1      -0.170  -4.094   0.032  0.00  0.00     0.003 A 
ATOM      5  C4  UNL d   1       0.383  -3.958  -1.239  0.00  0.00    -0.005 A 
ATOM      6  C5  UNL d   1       0.528  -2.692  -1.802  0.00  0.00     0.003 A 
ATOM      7  C6  UNL d   1       0.120  -1.561  -1.093  0.00  0.00    -0.001 A 
ENDROOT
TORSDOF 0
ENDMDL
