MODEL 1
REMARK minimizedAffinity -4.40322208
REMARK minimizedRMSD -1
REMARK  0 active torsions:
REMARK  status: ('A' for Active; 'I' for Inactive)
ROOT
ATOM      1  C   UNL d   1       0.767   3.553   0.908  0.00  0.00     0.078 C 
ATOM      2  C1  UNL d   1       1.114   2.466  -0.065  0.00  0.00    -0.077 A 
ATOM      3  C2  UNL d   1       0.149   1.546  -0.493  0.00  0.00    -0.001 A 
ATOM      4  C3  UNL d   1       0.488   0.534  -1.391  0.00  0.00     0.003 A 
ATOM      5  C4  UNL d   1       1.793   0.430  -1.869  0.00  0.00    -0.005 A 
ATOM      6  C5  UNL d   1       2.761   1.340  -1.447  0.00  0.00     0.003 A 
ATOM      7  C6  UNL d   1       2.424   2.353  -0.548  0.00  0.00    -0.001 A 
ENDROOT
TORSDOF 0
ENDMDL
