MODEL 1
REMARK minimizedAffinity -4.52607632
REMARK minimizedRMSD -1
REMARK  0 active torsions:
REMARK  status: ('A' for Active; 'I' for Inactive)
ROOT
ATOM      1  C   UNL d   1       0.354   0.377  -0.418  0.00  0.00     0.078 C 
ATOM      2  C1  UNL d   1       0.227  -1.081  -0.744  0.00  0.00    -0.077 A 
ATOM      3  C2  UNL d   1       0.547  -1.566  -2.018  0.00  0.00    -0.001 A 
ATOM      4  C3  UNL d   1       0.414  -2.924  -2.311  0.00  0.00     0.003 A 
ATOM      5  C4  UNL d   1      -0.039  -3.809  -1.335  0.00  0.00    -0.005 A 
ATOM      6  C5  UNL d   1      -0.362  -3.336  -0.064  0.00  0.00     0.003 A 
ATOM      7  C6  UNL d   1      -0.230  -1.978   0.230  0.00  0.00    -0.001 A 
ENDROOT
TORSDOF 0
ENDMDL
