MODEL 1
REMARK minimizedAffinity -4.89548397
REMARK minimizedRMSD -1
REMARK  0 active torsions:
REMARK  status: ('A' for Active; 'I' for Inactive)
ROOT
ATOM      1  C   UNL d   1      -0.595  -0.333   1.047  0.00  0.00     0.078 C 
ATOM      2  C1  UNL d   1      -0.343  -1.294  -0.076  0.00  0.00    -0.077 A 
ATOM      3  C2  UNL d   1       0.326  -0.887  -1.237  0.00  0.00    -0.001 A 
ATOM      4  C3  UNL d   1       0.545  -1.790  -2.279  0.00  0.00     0.003 A 
ATOM      5  C4  UNL d   1       0.097  -3.105  -2.170  0.00  0.00    -0.005 A 
ATOM      6  C5  UNL d   1      -0.571  -3.518  -1.020  0.00  0.00     0.003 A 
ATOM      7  C6  UNL d   1      -0.791  -2.617   0.023  0.00  0.00    -0.001 A 
ENDROOT
TORSDOF 0
ENDMDL
