MODEL 1
REMARK minimizedAffinity -4.93336344
REMARK minimizedRMSD -1
REMARK  0 active torsions:
REMARK  status: ('A' for Active; 'I' for Inactive)
ROOT
ATOM      1  O1  BZF d   1       0.417  -0.594   2.842  0.00  0.00    -0.204 OA
ATOM      2  C2  BZF d   1      -0.867  -1.035   3.098  0.00  0.00     0.174 A 
ATOM      3  C3  BZF d   1      -1.620  -0.987   1.981  0.00  0.00    -0.012 A 
ATOM      4  C3A BZF d   1      -0.728  -0.572   0.942  0.00  0.00    -0.107 A 
ATOM      5  C4  BZF d   1      -0.882  -0.357  -0.397  0.00  0.00     0.055 A 
ATOM      6  C5  BZF d   1       0.170   0.115  -1.116  0.00  0.00    -0.016 A 
ATOM      7  C6  BZF d   1       1.388   0.386  -0.527  0.00  0.00     0.022 A 
ATOM      8  C7  BZF d   1       1.591   0.182   0.797  0.00  0.00     0.029 A 
ATOM      9  C7A BZF d   1       0.539  -0.325   1.520  0.00  0.00     0.058 A 
ENDROOT
TORSDOF 0
ENDMDL
