MODEL 1
REMARK minimizedAffinity -1.94055605
REMARK minimizedRMSD -1
REMARK  0 active torsions:
REMARK  status: ('A' for Active; 'I' for Inactive)
ROOT
ATOM      1  O1  BZF d   1      -2.044   0.827   0.424  0.00  0.00    -0.204 OA
ATOM      2  C2  BZF d   1      -1.692   0.926  -0.908  0.00  0.00     0.174 A 
ATOM      3  C3  BZF d   1      -0.357   0.812  -1.059  0.00  0.00    -0.012 A 
ATOM      4  C3A BZF d   1       0.149   0.537   0.251  0.00  0.00    -0.107 A 
ATOM      5  C4  BZF d   1       1.401   0.307   0.745  0.00  0.00     0.055 A 
ATOM      6  C5  BZF d   1       1.563   0.144   2.084  0.00  0.00    -0.016 A 
ATOM      7  C6  BZF d   1       0.497   0.211   2.958  0.00  0.00     0.022 A 
ATOM      8  C7  BZF d   1      -0.764   0.432   2.514  0.00  0.00     0.029 A 
ATOM      9  C7A BZF d   1      -0.936   0.564   1.158  0.00  0.00     0.058 A 
ENDROOT
TORSDOF 0
ENDMDL
