MODEL 1
REMARK minimizedAffinity -3.01166439
REMARK minimizedRMSD -1
REMARK  0 active torsions:
REMARK  status: ('A' for Active; 'I' for Inactive)
ROOT
ATOM      1  O1  BZF d   1      -1.364  -0.425  -0.136  0.00  0.00    -0.204 OA
ATOM      2  C2  BZF d   1      -0.682  -0.167  -1.309  0.00  0.00     0.174 A 
ATOM      3  C3  BZF d   1       0.618   0.093  -1.060  0.00  0.00    -0.012 A 
ATOM      4  C3A BZF d   1       0.777  -0.101   0.349  0.00  0.00    -0.107 A 
ATOM      5  C4  BZF d   1       1.845  -0.008   1.195  0.00  0.00     0.055 A 
ATOM      6  C5  BZF d   1       1.649  -0.189   2.528  0.00  0.00    -0.016 A 
ATOM      7  C6  BZF d   1       0.401  -0.458   3.049  0.00  0.00     0.022 A 
ATOM      8  C7  BZF d   1      -0.688  -0.565   2.248  0.00  0.00     0.029 A 
ATOM      9  C7A BZF d   1      -0.488  -0.415   0.898  0.00  0.00     0.058 A 
ENDROOT
TORSDOF 0
ENDMDL
