MODEL 1
REMARK minimizedAffinity -4.04864502
REMARK minimizedRMSD -1
REMARK  0 active torsions:
REMARK  status: ('A' for Active; 'I' for Inactive)
ROOT
ATOM      1  O1  BZF d   1       0.273  -2.127  -0.064  0.00  0.00    -0.204 OA
ATOM      2  C2  BZF d   1       0.785  -1.330  -1.070  0.00  0.00     0.174 A 
ATOM      3  C3  BZF d   1       0.942  -0.061  -0.641  0.00  0.00    -0.012 A 
ATOM      4  C3A BZF d   1       0.589  -0.086   0.745  0.00  0.00    -0.107 A 
ATOM      5  C4  BZF d   1       0.558   0.867   1.723  0.00  0.00     0.055 A 
ATOM      6  C5  BZF d   1       0.094   0.533   2.956  0.00  0.00    -0.016 A 
ATOM      7  C6  BZF d   1      -0.351  -0.740   3.244  0.00  0.00     0.022 A 
ATOM      8  C7  BZF d   1      -0.335  -1.720   2.308  0.00  0.00     0.029 A 
ATOM      9  C7A BZF d   1       0.164  -1.395   1.070  0.00  0.00     0.058 A 
ENDROOT
TORSDOF 0
ENDMDL
