MODEL 1
REMARK minimizedAffinity -0.703918993
REMARK minimizedRMSD -1
REMARK  0 active torsions:
REMARK  status: ('A' for Active; 'I' for Inactive)
ROOT
ATOM      1  O1  BZF d   1       0.685   0.275   2.809  0.00  0.00    -0.204 OA
ATOM      2  C2  BZF d   1      -0.385  -0.439   3.313  0.00  0.00     0.174 A 
ATOM      3  C3  BZF d   1      -1.219  -0.813   2.321  0.00  0.00    -0.012 A 
ATOM      4  C3A BZF d   1      -0.586  -0.379   1.113  0.00  0.00    -0.107 A 
ATOM      5  C4  BZF d   1      -0.920  -0.474  -0.208  0.00  0.00     0.055 A 
ATOM      6  C5  BZF d   1      -0.121   0.118  -1.134  0.00  0.00    -0.016 A 
ATOM      7  C6  BZF d   1       1.013   0.816  -0.776  0.00  0.00     0.022 A 
ATOM      8  C7  BZF d   1       1.387   0.933   0.521  0.00  0.00     0.029 A 
ATOM      9  C7A BZF d   1       0.600   0.308   1.458  0.00  0.00     0.058 A 
ENDROOT
TORSDOF 0
ENDMDL
