MODEL 1
REMARK minimizedAffinity -3.30341411
REMARK minimizedRMSD -1
REMARK  0 active torsions:
REMARK  status: ('A' for Active; 'I' for Inactive)
ROOT
ATOM      1  O1  BZF d   1      -1.052   0.006  -0.731  0.00  0.00    -0.204 OA
ATOM      2  C2  BZF d   1       0.328   0.005  -0.685  0.00  0.00     0.174 A 
ATOM      3  C3  BZF d   1       0.764   0.016   0.592  0.00  0.00    -0.012 A 
ATOM      4  C3A BZF d   1      -0.418  -0.070   1.394  0.00  0.00    -0.107 A 
ATOM      5  C4  BZF d   1      -0.637  -0.117   2.741  0.00  0.00     0.055 A 
ATOM      6  C5  BZF d   1      -1.915  -0.124   3.202  0.00  0.00    -0.016 A 
ATOM      7  C6  BZF d   1      -2.996  -0.081   2.346  0.00  0.00     0.022 A 
ATOM      8  C7  BZF d   1      -2.829  -0.038   1.002  0.00  0.00     0.029 A 
ATOM      9  C7A BZF d   1      -1.538  -0.064   0.532  0.00  0.00     0.058 A 
ENDROOT
TORSDOF 0
ENDMDL
