MODEL 1
REMARK minimizedAffinity -3.20360851
REMARK minimizedRMSD -1
REMARK  0 active torsions:
REMARK  status: ('A' for Active; 'I' for Inactive)
ROOT
ATOM      1  O1  BZF d   1      -1.845   0.886  -1.160  0.00  0.00    -0.204 OA
ATOM      2  C2  BZF d   1      -0.714   1.096  -1.924  0.00  0.00     0.174 A 
ATOM      3  C3  BZF d   1       0.386   0.655  -1.281  0.00  0.00    -0.012 A 
ATOM      4  C3A BZF d   1      -0.097   0.054  -0.076  0.00  0.00    -0.107 A 
ATOM      5  C4  BZF d   1       0.514  -0.576   0.970  0.00  0.00     0.055 A 
ATOM      6  C5  BZF d   1      -0.237  -0.984   2.026  0.00  0.00    -0.016 A 
ATOM      7  C6  BZF d   1      -1.600  -0.773   2.072  0.00  0.00     0.022 A 
ATOM      8  C7  BZF d   1      -2.252  -0.158   1.055  0.00  0.00     0.029 A 
ATOM      9  C7A BZF d   1      -1.500   0.226  -0.028  0.00  0.00     0.058 A 
ENDROOT
TORSDOF 0
ENDMDL
