MODEL 1
REMARK minimizedAffinity -4.62245703
REMARK minimizedRMSD -1
REMARK  0 active torsions:
REMARK  status: ('A' for Active; 'I' for Inactive)
ROOT
ATOM      1  O1  BZF d   1      -0.638   0.129  -0.130  0.00  0.00    -0.204 OA
ATOM      2  C2  BZF d   1       0.711   0.383  -0.291  0.00  0.00     0.174 A 
ATOM      3  C3  BZF d   1       1.315   0.532   0.905  0.00  0.00    -0.012 A 
ATOM      4  C3A BZF d   1       0.298   0.269   1.877  0.00  0.00    -0.107 A 
ATOM      5  C4  BZF d   1       0.288   0.245   3.242  0.00  0.00     0.055 A 
ATOM      6  C5  BZF d   1      -0.887   0.025   3.890  0.00  0.00    -0.016 A 
ATOM      7  C6  BZF d   1      -2.068  -0.170   3.205  0.00  0.00     0.022 A 
ATOM      8  C7  BZF d   1      -2.107  -0.160   1.850  0.00  0.00     0.029 A 
ATOM      9  C7A BZF d   1      -0.916   0.029   1.192  0.00  0.00     0.058 A 
ENDROOT
TORSDOF 0
ENDMDL
