MODEL 1
REMARK minimizedAffinity -1.14121544
REMARK minimizedRMSD -1
REMARK  0 active torsions:
REMARK  status: ('A' for Active; 'I' for Inactive)
ROOT
ATOM      1  O1  BZF d   1       0.798   1.361  -0.204  0.00  0.00    -0.204 OA
ATOM      2  C2  BZF d   1       0.262   0.785  -1.340  0.00  0.00     0.174 A 
ATOM      3  C3  BZF d   1      -0.468  -0.305  -1.025  0.00  0.00    -0.012 A 
ATOM      4  C3A BZF d   1      -0.459  -0.363   0.405  0.00  0.00    -0.107 A 
ATOM      5  C4  BZF d   1      -1.024  -1.212   1.313  0.00  0.00     0.055 A 
ATOM      6  C5  BZF d   1      -0.763  -1.035   2.635  0.00  0.00    -0.016 A 
ATOM      7  C6  BZF d   1       0.062  -0.023   3.082  0.00  0.00     0.022 A 
ATOM      8  C7  BZF d   1       0.641   0.847   2.219  0.00  0.00     0.029 A 
ATOM      9  C7A BZF d   1       0.352   0.690   0.886  0.00  0.00     0.058 A 
ENDROOT
TORSDOF 0
ENDMDL
