MODEL 1
REMARK minimizedAffinity -2.63955498
REMARK minimizedRMSD -1
REMARK  0 active torsions:
REMARK  status: ('A' for Active; 'I' for Inactive)
ROOT
ATOM      1  O1  BZF d   1      -0.891  -0.342   2.087  0.00  0.00    -0.204 OA
ATOM      2  C2  BZF d   1      -2.129  -0.667   1.566  0.00  0.00     0.174 A 
ATOM      3  C3  BZF d   1      -2.180  -0.389   0.247  0.00  0.00    -0.012 A 
ATOM      4  C3A BZF d   1      -0.865   0.058  -0.095  0.00  0.00    -0.107 A 
ATOM      5  C4  BZF d   1      -0.286   0.465  -1.263  0.00  0.00     0.055 A 
ATOM      6  C5  BZF d   1       0.999   0.907  -1.244  0.00  0.00    -0.016 A 
ATOM      7  C6  BZF d   1       1.732   0.960  -0.076  0.00  0.00     0.022 A 
ATOM      8  C7  BZF d   1       1.202   0.562   1.106  0.00  0.00     0.029 A 
ATOM      9  C7A BZF d   1      -0.086   0.084   1.085  0.00  0.00     0.058 A 
ENDROOT
TORSDOF 0
ENDMDL
