MODEL 1
REMARK minimizedAffinity -2.78073812
REMARK minimizedRMSD -1
REMARK  0 active torsions:
REMARK  status: ('A' for Active; 'I' for Inactive)
ROOT
ATOM      1  O1  BZF d   1       1.374  -0.199  -0.821  0.00  0.00    -0.204 OA
ATOM      2  C2  BZF d   1       0.307  -0.050  -1.686  0.00  0.00     0.174 A 
ATOM      3  C3  BZF d   1      -0.862  -0.068  -1.012  0.00  0.00    -0.012 A 
ATOM      4  C3A BZF d   1      -0.498  -0.147   0.370  0.00  0.00    -0.107 A 
ATOM      5  C4  BZF d   1      -1.218  -0.183   1.529  0.00  0.00     0.055 A 
ATOM      6  C5  BZF d   1      -0.562  -0.336   2.710  0.00  0.00    -0.016 A 
ATOM      7  C6  BZF d   1       0.811  -0.459   2.766  0.00  0.00     0.022 A 
ATOM      8  C7  BZF d   1       1.568  -0.424   1.643  0.00  0.00     0.029 A 
ATOM      9  C7A BZF d   1       0.911  -0.237   0.452  0.00  0.00     0.058 A 
ENDROOT
TORSDOF 0
ENDMDL
