MODEL 1
REMARK minimizedAffinity -6.0496912
REMARK minimizedRMSD -1
REMARK  0 active torsions:
REMARK  status: ('A' for Active; 'I' for Inactive)
ROOT
ATOM      1  O1  BZF d   1      -1.003   0.132  -0.672  0.00  0.00    -0.204 OA
ATOM      2  C2  BZF d   1       0.337   0.411  -0.855  0.00  0.00     0.174 A 
ATOM      3  C3  BZF d   1       0.988   0.433   0.326  0.00  0.00    -0.012 A 
ATOM      4  C3A BZF d   1       0.009   0.058   1.301  0.00  0.00    -0.107 A 
ATOM      5  C4  BZF d   1       0.052  -0.114   2.655  0.00  0.00     0.055 A 
ATOM      6  C5  BZF d   1      -1.096  -0.411   3.319  0.00  0.00    -0.016 A 
ATOM      7  C6  BZF d   1      -2.303  -0.538   2.662  0.00  0.00     0.022 A 
ATOM      8  C7  BZF d   1      -2.394  -0.380   1.319  0.00  0.00     0.029 A 
ATOM      9  C7A BZF d   1      -1.230  -0.113   0.641  0.00  0.00     0.058 A 
ENDROOT
TORSDOF 0
ENDMDL
