MODEL 1
REMARK minimizedAffinity -1.78420627
REMARK minimizedRMSD -1
REMARK  0 active torsions:
REMARK  status: ('A' for Active; 'I' for Inactive)
ROOT
ATOM      1  O1  BZF d   1       1.056  -0.410  -0.957  0.00  0.00    -0.204 OA
ATOM      2  C2  BZF d   1       0.118  -1.076  -1.722  0.00  0.00     0.174 A 
ATOM      3  C3  BZF d   1      -0.933  -1.456  -0.966  0.00  0.00    -0.012 A 
ATOM      4  C3A BZF d   1      -0.675  -0.919   0.335  0.00  0.00    -0.107 A 
ATOM      5  C4  BZF d   1      -1.362  -0.946   1.515  0.00  0.00     0.055 A 
ATOM      6  C5  BZF d   1      -0.800  -0.387   2.619  0.00  0.00    -0.016 A 
ATOM      7  C6  BZF d   1       0.447   0.201   2.580  0.00  0.00     0.022 A 
ATOM      8  C7  BZF d   1       1.164   0.257   1.432  0.00  0.00     0.029 A 
ATOM      9  C7A BZF d   1       0.585  -0.278   0.307  0.00  0.00     0.058 A 
ENDROOT
TORSDOF 0
ENDMDL
