MODEL 1
REMARK minimizedAffinity -3.00115228
REMARK minimizedRMSD -1
REMARK  0 active torsions:
REMARK  status: ('A' for Active; 'I' for Inactive)
ROOT
ATOM      1  O1  BZF d   1      -0.432   0.057  -0.863  0.00  0.00    -0.204 OA
ATOM      2  C2  BZF d   1       0.853   0.556  -0.960  0.00  0.00     0.174 A 
ATOM      3  C3  BZF d   1       1.409   0.684   0.262  0.00  0.00    -0.012 A 
ATOM      4  C3A BZF d   1       0.444   0.151   1.173  0.00  0.00    -0.107 A 
ATOM      5  C4  BZF d   1       0.423  -0.014   2.529  0.00  0.00     0.055 A 
ATOM      6  C5  BZF d   1      -0.701  -0.499   3.118  0.00  0.00    -0.016 A 
ATOM      7  C6  BZF d   1      -1.823  -0.824   2.384  0.00  0.00     0.022 A 
ATOM      8  C7  BZF d   1      -1.848  -0.683   1.036  0.00  0.00     0.029 A 
ATOM      9  C7A BZF d   1      -0.702  -0.224   0.434  0.00  0.00     0.058 A 
ENDROOT
TORSDOF 0
ENDMDL
