MODEL 1
REMARK minimizedAffinity -2.50557303
REMARK minimizedRMSD -1
REMARK  0 active torsions:
REMARK  status: ('A' for Active; 'I' for Inactive)
ROOT
ATOM      1  O1  BZF d   1      -0.854  -0.111  -0.756  0.00  0.00    -0.204 OA
ATOM      2  C2  BZF d   1       0.396   0.345  -1.128  0.00  0.00     0.174 A 
ATOM      3  C3  BZF d   1       1.144   0.630  -0.043  0.00  0.00    -0.012 A 
ATOM      4  C3A BZF d   1       0.343   0.245   1.078  0.00  0.00    -0.107 A 
ATOM      5  C4  BZF d   1       0.545   0.269   2.429  0.00  0.00     0.055 A 
ATOM      6  C5  BZF d   1      -0.467  -0.109   3.254  0.00  0.00    -0.016 A 
ATOM      7  C6  BZF d   1      -1.692  -0.510   2.765  0.00  0.00     0.022 A 
ATOM      8  C7  BZF d   1      -1.938  -0.555   1.433  0.00  0.00     0.029 A 
ATOM      9  C7A BZF d   1      -0.907  -0.205   0.595  0.00  0.00     0.058 A 
ENDROOT
TORSDOF 0
ENDMDL
