MODEL 1
REMARK minimizedAffinity 11.9589434
REMARK minimizedRMSD -1
REMARK  2 active torsions:
REMARK  status: ('A' for Active; 'I' for Inactive)
REMARK    1  A    between atoms: C1_2  and  C2_3 
REMARK    2  A    between atoms: C2_3  and  C3_4 
ROOT
ATOM      1  C3  UNL d   1      -0.230   4.401  -3.126  0.00  0.00    -0.075 A 
ATOM      2  C4  UNL d   1      -1.451   5.058  -3.337  0.00  0.00     0.002 A 
ATOM      3  C5  UNL d   1      -2.659   4.405  -3.091  0.00  0.00     0.002 A 
ATOM      4  C6  UNL d   1      -2.662   3.086  -2.642  0.00  0.00    -0.004 A 
ATOM      5  C7  UNL d   1      -1.455   2.418  -2.444  0.00  0.00     0.002 A 
ATOM      6  C8  UNL d   1      -0.245   3.071  -2.685  0.00  0.00     0.002 A 
ENDROOT
BRANCH   1   7
ATOM      7  C2  UNL d   1       1.081   5.113  -3.362  0.00  0.00     0.056 C 
BRANCH   7   8
ATOM      8  C1  UNL d   1       1.518   5.145  -4.830  0.00  0.00     0.007 C 
ATOM      9  C   UNL d   1       2.442   3.994  -5.207  0.00  0.00     0.009 C 
ENDBRANCH   7   8
ENDBRANCH   1   7
TORSDOF 2
ENDMDL
