MODEL 1
REMARK minimizedAffinity 4.81056261
REMARK minimizedRMSD -1
REMARK  2 active torsions:
REMARK  status: ('A' for Active; 'I' for Inactive)
REMARK    1  A    between atoms: C1_2  and  C2_3 
REMARK    2  A    between atoms: C2_3  and  C3_4 
ROOT
ATOM      1  C3  UNL d   1      -1.178   2.633  -2.691  0.00  0.00    -0.075 A 
ATOM      2  C4  UNL d   1      -0.022   3.262  -3.175  0.00  0.00     0.002 A 
ATOM      3  C5  UNL d   1      -0.116   4.410  -3.961  0.00  0.00     0.002 A 
ATOM      4  C6  UNL d   1      -1.365   4.938  -4.282  0.00  0.00    -0.004 A 
ATOM      5  C7  UNL d   1      -2.521   4.312  -3.820  0.00  0.00     0.002 A 
ATOM      6  C8  UNL d   1      -2.429   3.165  -3.030  0.00  0.00     0.002 A 
ENDROOT
BRANCH   1   7
ATOM      7  C2  UNL d   1      -1.081   1.407  -1.815  0.00  0.00     0.056 C 
BRANCH   7   8
ATOM      8  C1  UNL d   1      -2.431   0.746  -1.517  0.00  0.00     0.007 C 
ATOM      9  C   UNL d   1      -2.341  -0.768  -1.378  0.00  0.00     0.009 C 
ENDBRANCH   7   8
ENDBRANCH   1   7
TORSDOF 2
ENDMDL
