MODEL 1
REMARK minimizedAffinity 10.0379725
REMARK minimizedRMSD -1
REMARK  2 active torsions:
REMARK  status: ('A' for Active; 'I' for Inactive)
REMARK    1  A    between atoms: C1_2  and  C2_3 
REMARK    2  A    between atoms: C2_3  and  C3_4 
ROOT
ATOM      1  C3  UNL d   1      -0.401  -1.499   0.588  0.00  0.00    -0.075 A 
ATOM      2  C4  UNL d   1      -1.289  -2.232   1.388  0.00  0.00     0.002 A 
ATOM      3  C5  UNL d   1      -0.955  -2.559   2.702  0.00  0.00     0.002 A 
ATOM      4  C6  UNL d   1       0.273  -2.167   3.230  0.00  0.00    -0.004 A 
ATOM      5  C7  UNL d   1       1.171  -1.452   2.439  0.00  0.00     0.002 A 
ATOM      6  C8  UNL d   1       0.837  -1.120   1.125  0.00  0.00     0.002 A 
ENDROOT
BRANCH   1   7
ATOM      7  C2  UNL d   1      -0.769  -1.117  -0.825  0.00  0.00     0.056 C 
BRANCH   7   8
ATOM      8  C1  UNL d   1      -2.171  -0.514  -0.963  0.00  0.00     0.007 C 
ATOM      9  C   UNL d   1      -3.222  -1.530  -1.390  0.00  0.00     0.009 C 
ENDBRANCH   7   8
ENDBRANCH   1   7
TORSDOF 2
ENDMDL
