MODEL 1
REMARK minimizedAffinity 1.22792387
REMARK minimizedRMSD -1
REMARK  2 active torsions:
REMARK  status: ('A' for Active; 'I' for Inactive)
REMARK    1  A    between atoms: C1_2  and  C2_3 
REMARK    2  A    between atoms: C2_3  and  C3_4 
ROOT
ATOM      1  C3  UNL d   1      -0.267   3.561  -2.820  0.00  0.00    -0.075 A 
ATOM      2  C4  UNL d   1      -1.427   4.269  -3.166  0.00  0.00     0.002 A 
ATOM      3  C5  UNL d   1      -2.685   3.682  -3.024  0.00  0.00     0.002 A 
ATOM      4  C6  UNL d   1      -2.798   2.379  -2.545  0.00  0.00    -0.004 A 
ATOM      5  C7  UNL d   1      -1.652   1.660  -2.214  0.00  0.00     0.002 A 
ATOM      6  C8  UNL d   1      -0.392   2.246  -2.351  0.00  0.00     0.002 A 
ENDROOT
BRANCH   1   7
ATOM      7  C2  UNL d   1       1.095   4.201  -2.944  0.00  0.00     0.056 C 
BRANCH   7   8
ATOM      8  C1  UNL d   1       1.495   4.543  -4.383  0.00  0.00     0.007 C 
ATOM      9  C   UNL d   1       2.222   5.876  -4.503  0.00  0.00     0.009 C 
ENDBRANCH   7   8
ENDBRANCH   1   7
TORSDOF 2
ENDMDL
