MODEL 1
REMARK minimizedAffinity 8.96724796
REMARK minimizedRMSD -1
REMARK  2 active torsions:
REMARK  status: ('A' for Active; 'I' for Inactive)
REMARK    1  A    between atoms: C1_2  and  C2_3 
REMARK    2  A    between atoms: C2_3  and  C3_4 
ROOT
ATOM      1  C3  UNL d   1       5.954  -0.540  -2.916  0.00  0.00    -0.075 A 
ATOM      2  C4  UNL d   1       5.981   0.832  -3.206  0.00  0.00     0.002 A 
ATOM      3  C5  UNL d   1       5.997   1.276  -4.529  0.00  0.00     0.002 A 
ATOM      4  C6  UNL d   1       5.997   0.356  -5.576  0.00  0.00    -0.004 A 
ATOM      5  C7  UNL d   1       5.988  -1.009  -5.299  0.00  0.00     0.002 A 
ATOM      6  C8  UNL d   1       5.967  -1.456  -3.976  0.00  0.00     0.002 A 
ENDROOT
BRANCH   1   7
ATOM      7  C2  UNL d   1       5.907  -1.027  -1.487  0.00  0.00     0.056 C 
BRANCH   7   8
ATOM      8  C1  UNL d   1       4.498  -1.055  -0.884  0.00  0.00     0.007 C 
ATOM      9  C   UNL d   1       4.498  -1.157   0.635  0.00  0.00     0.009 C 
ENDBRANCH   7   8
ENDBRANCH   1   7
TORSDOF 2
ENDMDL
