MODEL 1
REMARK minimizedAffinity 1.59583235
REMARK minimizedRMSD -1
REMARK  2 active torsions:
REMARK  status: ('A' for Active; 'I' for Inactive)
REMARK    1  A    between atoms: C1_2  and  C2_3 
REMARK    2  A    between atoms: C2_3  and  C3_4 
ROOT
ATOM      1  C3  UNL d   1      -0.947  -0.989   2.238  0.00  0.00    -0.075 A 
ATOM      2  C4  UNL d   1      -0.377  -1.238   0.981  0.00  0.00     0.002 A 
ATOM      3  C5  UNL d   1       0.863  -1.868   0.878  0.00  0.00     0.002 A 
ATOM      4  C6  UNL d   1       1.553  -2.248   2.028  0.00  0.00    -0.004 A 
ATOM      5  C7  UNL d   1       1.003  -1.991   3.282  0.00  0.00     0.002 A 
ATOM      6  C8  UNL d   1      -0.240  -1.365   3.388  0.00  0.00     0.002 A 
ENDROOT
BRANCH   1   7
ATOM      7  C2  UNL d   1      -2.303  -0.335   2.356  0.00  0.00     0.056 C 
BRANCH   7   8
ATOM      8  C1  UNL d   1      -2.476   0.519   3.617  0.00  0.00     0.007 C 
ATOM      9  C   UNL d   1      -3.729   1.384   3.589  0.00  0.00     0.009 C 
ENDBRANCH   7   8
ENDBRANCH   1   7
TORSDOF 2
ENDMDL
