MODEL 1
REMARK minimizedAffinity 3.00230718
REMARK minimizedRMSD -1
REMARK  2 active torsions:
REMARK  status: ('A' for Active; 'I' for Inactive)
REMARK    1  A    between atoms: C1_2  and  C2_3 
REMARK    2  A    between atoms: C2_3  and  C3_4 
ROOT
ATOM      1  C3  UNL d   1       1.074  -2.429   2.028  0.00  0.00    -0.075 A 
ATOM      2  C4  UNL d   1       1.175  -3.818   2.185  0.00  0.00     0.002 A 
ATOM      3  C5  UNL d   1       2.041  -4.561   1.382  0.00  0.00     0.002 A 
ATOM      4  C6  UNL d   1       2.808  -3.927   0.407  0.00  0.00    -0.004 A 
ATOM      5  C7  UNL d   1       2.703  -2.549   0.230  0.00  0.00     0.002 A 
ATOM      6  C8  UNL d   1       1.840  -1.803   1.035  0.00  0.00     0.002 A 
ENDROOT
BRANCH   1   7
ATOM      7  C2  UNL d   1       0.160  -1.615   2.913  0.00  0.00     0.056 C 
BRANCH   7   8
ATOM      8  C1  UNL d   1       0.893  -0.618   3.817  0.00  0.00     0.007 C 
ATOM      9  C   UNL d   1       1.123   0.734   3.156  0.00  0.00     0.009 C 
ENDBRANCH   7   8
ENDBRANCH   1   7
TORSDOF 2
ENDMDL
