MODEL 1
REMARK minimizedAffinity 5.9546566
REMARK minimizedRMSD -1
REMARK  2 active torsions:
REMARK  status: ('A' for Active; 'I' for Inactive)
REMARK    1  A    between atoms: C1_2  and  C2_3 
REMARK    2  A    between atoms: C2_3  and  C3_4 
ROOT
ATOM      1  C3  UNL d   1       0.652   1.627  -1.899  0.00  0.00    -0.075 A 
ATOM      2  C4  UNL d   1       0.489   2.808  -2.637  0.00  0.00     0.002 A 
ATOM      3  C5  UNL d   1      -0.785   3.245  -3.003  0.00  0.00     0.002 A 
ATOM      4  C6  UNL d   1      -1.908   2.503  -2.645  0.00  0.00    -0.004 A 
ATOM      5  C7  UNL d   1      -1.757   1.319  -1.926  0.00  0.00     0.002 A 
ATOM      6  C8  UNL d   1      -0.484   0.882  -1.555  0.00  0.00     0.002 A 
ENDROOT
BRANCH   1   7
ATOM      7  C2  UNL d   1       2.026   1.165  -1.475  0.00  0.00     0.056 C 
BRANCH   7   8
ATOM      8  C1  UNL d   1       2.109   0.716  -0.013  0.00  0.00     0.007 C 
ATOM      9  C   UNL d   1       2.197   1.878   0.968  0.00  0.00     0.009 C 
ENDBRANCH   7   8
ENDBRANCH   1   7
TORSDOF 2
ENDMDL
