MODEL 1
REMARK minimizedAffinity 5.54541063
REMARK minimizedRMSD -1
REMARK  2 active torsions:
REMARK  status: ('A' for Active; 'I' for Inactive)
REMARK    1  A    between atoms: C1_2  and  C2_3 
REMARK    2  A    between atoms: C2_3  and  C3_4 
ROOT
ATOM      1  C3  UNL d   1       0.595   2.113  -2.499  0.00  0.00    -0.075 A 
ATOM      2  C4  UNL d   1       0.849   0.926  -3.202  0.00  0.00     0.002 A 
ATOM      3  C5  UNL d   1       1.831   0.038  -2.762  0.00  0.00     0.002 A 
ATOM      4  C6  UNL d   1       2.576   0.329  -1.621  0.00  0.00    -0.004 A 
ATOM      5  C7  UNL d   1       2.344   1.513  -0.924  0.00  0.00     0.002 A 
ATOM      6  C8  UNL d   1       1.359   2.401  -1.360  0.00  0.00     0.002 A 
ENDROOT
BRANCH   1   7
ATOM      7  C2  UNL d   1      -0.487   3.064  -2.953  0.00  0.00     0.056 C 
BRANCH   7   8
ATOM      8  C1  UNL d   1      -1.901   2.645  -2.538  0.00  0.00     0.007 C 
ATOM      9  C   UNL d   1      -2.966   3.664  -2.920  0.00  0.00     0.009 C 
ENDBRANCH   7   8
ENDBRANCH   1   7
TORSDOF 2
ENDMDL
