MODEL 1
REMARK minimizedAffinity -2.16319799
REMARK minimizedRMSD -1
REMARK  0 active torsions:
REMARK  status: ('A' for Active; 'I' for Inactive)
ROOT
ATOM      1  C1  BNZ d   1      -0.744  -0.946   1.943  0.00  0.00     0.000 A 
ATOM      2  C2  BNZ d   1      -2.075  -0.682   1.752  0.00  0.00     0.000 A 
ATOM      3  C3  BNZ d   1      -2.517  -0.119   0.588  0.00  0.00     0.000 A 
ATOM      4  C4  BNZ d   1      -1.625   0.216  -0.367  0.00  0.00     0.000 A 
ATOM      5  C5  BNZ d   1      -0.280  -0.035  -0.186  0.00  0.00     0.000 A 
ATOM      6  C6  BNZ d   1       0.157  -0.638   0.971  0.00  0.00     0.000 A 
ENDROOT
TORSDOF 0
ENDMDL
