MODEL 1
REMARK minimizedAffinity -2.96890831
REMARK minimizedRMSD -1
REMARK  0 active torsions:
REMARK  status: ('A' for Active; 'I' for Inactive)
ROOT
ATOM      1  C1  BNZ d   1       3.497   2.815   0.209  0.00  0.00     0.000 A 
ATOM      2  C2  BNZ d   1       3.002   1.776  -0.533  0.00  0.00     0.000 A 
ATOM      3  C3  BNZ d   1       2.156   0.859   0.024  0.00  0.00     0.000 A 
ATOM      4  C4  BNZ d   1       1.838   0.958   1.331  0.00  0.00     0.000 A 
ATOM      5  C5  BNZ d   1       2.336   1.994   2.095  0.00  0.00     0.000 A 
ATOM      6  C6  BNZ d   1       3.157   2.938   1.521  0.00  0.00     0.000 A 
ENDROOT
TORSDOF 0
ENDMDL
