MODEL 1
REMARK minimizedAffinity -3.82847285
REMARK minimizedRMSD -1
REMARK  0 active torsions:
REMARK  status: ('A' for Active; 'I' for Inactive)
ROOT
ATOM      1  C1  BNZ d   1       0.647  -0.020  -0.098  0.00  0.00     0.000 A 
ATOM      2  C2  BNZ d   1       0.640  -0.737   1.069  0.00  0.00     0.000 A 
ATOM      3  C3  BNZ d   1      -0.528  -1.228   1.582  0.00  0.00     0.000 A 
ATOM      4  C4  BNZ d   1      -1.690  -0.968   0.950  0.00  0.00     0.000 A 
ATOM      5  C5  BNZ d   1      -1.701  -0.239  -0.222  0.00  0.00     0.000 A 
ATOM      6  C6  BNZ d   1      -0.519   0.221  -0.756  0.00  0.00     0.000 A 
ENDROOT
TORSDOF 0
ENDMDL
