MODEL 1
REMARK minimizedAffinity -4.31708336
REMARK minimizedRMSD -1
REMARK  0 active torsions:
REMARK  status: ('A' for Active; 'I' for Inactive)
ROOT
ATOM      1  C1  BNZ d   1      -0.867  -0.501   1.181  0.00  0.00     0.000 A 
ATOM      2  C2  BNZ d   1       0.499  -0.507   1.075  0.00  0.00     0.000 A 
ATOM      3  C3  BNZ d   1       1.113  -0.106  -0.079  0.00  0.00     0.000 A 
ATOM      4  C4  BNZ d   1       0.361   0.261  -1.137  0.00  0.00     0.000 A 
ATOM      5  C5  BNZ d   1      -1.016   0.263  -1.049  0.00  0.00     0.000 A 
ATOM      6  C6  BNZ d   1      -1.630  -0.104   0.127  0.00  0.00     0.000 A 
ENDROOT
TORSDOF 0
ENDMDL
