MODEL 1
REMARK minimizedAffinity -3.12001681
REMARK minimizedRMSD -1
REMARK  0 active torsions:
REMARK  status: ('A' for Active; 'I' for Inactive)
ROOT
ATOM      1  C1  BNZ d   1       2.665   0.725   0.389  0.00  0.00     0.000 A 
ATOM      2  C2  BNZ d   1       1.788  -0.182  -0.143  0.00  0.00     0.000 A 
ATOM      3  C3  BNZ d   1       0.443   0.062  -0.143  0.00  0.00     0.000 A 
ATOM      4  C4  BNZ d   1      -0.026   1.192   0.424  0.00  0.00     0.000 A 
ATOM      5  C5  BNZ d   1       0.845   2.112   0.973  0.00  0.00     0.000 A 
ATOM      6  C6  BNZ d   1       2.201   1.882   0.936  0.00  0.00     0.000 A 
ENDROOT
TORSDOF 0
ENDMDL
