MODEL 1
REMARK minimizedAffinity -3.53819084
REMARK minimizedRMSD -1
REMARK  0 active torsions:
REMARK  status: ('A' for Active; 'I' for Inactive)
ROOT
ATOM      1  C1  BNZ d   1      -1.108  -0.984   1.030  0.00  0.00     0.000 A 
ATOM      2  C2  BNZ d   1       0.179  -0.641   0.714  0.00  0.00     0.000 A 
ATOM      3  C3  BNZ d   1       0.483  -0.119  -0.513  0.00  0.00     0.000 A 
ATOM      4  C4  BNZ d   1      -0.492   0.020  -1.434  0.00  0.00     0.000 A 
ATOM      5  C5  BNZ d   1      -1.793  -0.330  -1.134  0.00  0.00     0.000 A 
ATOM      6  C6  BNZ d   1      -2.102  -0.818   0.115  0.00  0.00     0.000 A 
ENDROOT
TORSDOF 0
ENDMDL
