MODEL 1
REMARK minimizedAffinity -3.21740794
REMARK minimizedRMSD -1
REMARK  0 active torsions:
REMARK  status: ('A' for Active; 'I' for Inactive)
ROOT
ATOM      1  C1  BNZ d   1       0.678  -0.200   0.121  0.00  0.00     0.000 A 
ATOM      2  C2  BNZ d   1      -0.448   0.288  -0.487  0.00  0.00     0.000 A 
ATOM      3  C3  BNZ d   1      -1.688  -0.159  -0.127  0.00  0.00     0.000 A 
ATOM      4  C4  BNZ d   1      -1.799  -1.122   0.810  0.00  0.00     0.000 A 
ATOM      5  C5  BNZ d   1      -0.674  -1.632   1.426  0.00  0.00     0.000 A 
ATOM      6  C6  BNZ d   1       0.571  -1.151   1.089  0.00  0.00     0.000 A 
ENDROOT
TORSDOF 0
ENDMDL
