MODEL 1
REMARK minimizedAffinity -3.06094027
REMARK minimizedRMSD -1
REMARK  0 active torsions:
REMARK  status: ('A' for Active; 'I' for Inactive)
ROOT
ATOM      1  C1  BNZ d   1       1.788   0.768  -0.393  0.00  0.00     0.000 A 
ATOM      2  C2  BNZ d   1       0.421   0.838  -0.438  0.00  0.00     0.000 A 
ATOM      3  C3  BNZ d   1      -0.344   0.187   0.489  0.00  0.00     0.000 A 
ATOM      4  C4  BNZ d   1       0.256  -0.566   1.433  0.00  0.00     0.000 A 
ATOM      5  C5  BNZ d   1       1.633  -0.655   1.486  0.00  0.00     0.000 A 
ATOM      6  C6  BNZ d   1       2.401   0.033   0.575  0.00  0.00     0.000 A 
ENDROOT
TORSDOF 0
ENDMDL
