MODEL 1
REMARK minimizedAffinity -2.49415541
REMARK minimizedRMSD -1
REMARK  0 active torsions:
REMARK  status: ('A' for Active; 'I' for Inactive)
ROOT
ATOM      1  C1  BNZ d   1      -1.298  -0.267   0.065  0.00  0.00     0.000 A 
ATOM      2  C2  BNZ d   1      -0.342  -0.382   1.038  0.00  0.00     0.000 A 
ATOM      3  C3  BNZ d   1       0.959  -0.046   0.783  0.00  0.00     0.000 A 
ATOM      4  C4  BNZ d   1       1.308   0.365  -0.453  0.00  0.00     0.000 A 
ATOM      5  C5  BNZ d   1       0.357   0.477  -1.447  0.00  0.00     0.000 A 
ATOM      6  C6  BNZ d   1      -0.959   0.175  -1.177  0.00  0.00     0.000 A 
ENDROOT
TORSDOF 0
ENDMDL
