MODEL 1
REMARK minimizedAffinity -1.01549184
REMARK minimizedRMSD -1
REMARK  0 active torsions:
REMARK  status: ('A' for Active; 'I' for Inactive)
ROOT
ATOM      1  C1  BNZ d   1      -3.620   5.968   3.834  0.00  0.00     0.000 A 
ATOM      2  C2  BNZ d   1      -4.808   6.000   4.514  0.00  0.00     0.000 A 
ATOM      3  C3  BNZ d   1      -5.999   5.993   3.843  0.00  0.00     0.000 A 
ATOM      4  C4  BNZ d   1      -6.000   5.994   2.495  0.00  0.00     0.000 A 
ATOM      5  C5  BNZ d   1      -4.810   5.971   1.795  0.00  0.00     0.000 A 
ATOM      6  C6  BNZ d   1      -3.614   5.939   2.474  0.00  0.00     0.000 A 
ENDROOT
TORSDOF 0
ENDMDL
