MODEL 1
REMARK minimizedAffinity -3.34925222
REMARK minimizedRMSD -1
REMARK  0 active torsions:
REMARK  status: ('A' for Active; 'I' for Inactive)
ROOT
ATOM      1  C1  BNZ d   1       0.281  -0.601   0.985  0.00  0.00     0.000 A 
ATOM      2  C2  BNZ d   1      -1.034  -0.721   0.624  0.00  0.00     0.000 A 
ATOM      3  C3  BNZ d   1      -1.465  -0.297  -0.602  0.00  0.00     0.000 A 
ATOM      4  C4  BNZ d   1      -0.590   0.282  -1.448  0.00  0.00     0.000 A 
ATOM      5  C5  BNZ d   1       0.738   0.419  -1.095  0.00  0.00     0.000 A 
ATOM      6  C6  BNZ d   1       1.176  -0.044   0.124  0.00  0.00     0.000 A 
ENDROOT
TORSDOF 0
ENDMDL
