MODEL 1
REMARK minimizedAffinity -4.45809174
REMARK minimizedRMSD -1
REMARK  0 active torsions:
REMARK  status: ('A' for Active; 'I' for Inactive)
ROOT
ATOM      1  C1  BNZ d   1       3.730   2.447  -1.855  0.00  0.00     0.000 A 
ATOM      2  C2  BNZ d   1       3.145   1.891  -0.749  0.00  0.00     0.000 A 
ATOM      3  C3  BNZ d   1       2.496   2.671   0.166  0.00  0.00     0.000 A 
ATOM      4  C4  BNZ d   1       2.468   4.009  -0.004  0.00  0.00     0.000 A 
ATOM      5  C5  BNZ d   1       3.062   4.585  -1.109  0.00  0.00     0.000 A 
ATOM      6  C6  BNZ d   1       3.680   3.793  -2.049  0.00  0.00     0.000 A 
ENDROOT
TORSDOF 0
ENDMDL
