MODEL 1
REMARK minimizedAffinity -4.98115921
REMARK minimizedRMSD -1
REMARK  0 active torsions:
REMARK  status: ('A' for Active; 'I' for Inactive)
ROOT
ATOM      1  C1  BNZ d   1      -1.029   0.367  -1.492  0.00  0.00     0.000 A 
ATOM      2  C2  BNZ d   1      -2.254  -0.245  -1.476  0.00  0.00     0.000 A 
ATOM      3  C3  BNZ d   1      -2.722  -0.846  -0.341  0.00  0.00     0.000 A 
ATOM      4  C4  BNZ d   1      -1.948  -0.869   0.763  0.00  0.00     0.000 A 
ATOM      5  C5  BNZ d   1      -0.707  -0.264   0.761  0.00  0.00     0.000 A 
ATOM      6  C6  BNZ d   1      -0.256   0.374  -0.372  0.00  0.00     0.000 A 
ENDROOT
TORSDOF 0
ENDMDL
