MODEL 1
REMARK minimizedAffinity -3.77986622
REMARK minimizedRMSD -1
REMARK  0 active torsions:
REMARK  status: ('A' for Active; 'I' for Inactive)
ROOT
ATOM      1  C1  BNZ d   1      -0.982   0.183  -1.233  0.00  0.00     0.000 A 
ATOM      2  C2  BNZ d   1      -2.003  -0.528  -1.805  0.00  0.00     0.000 A 
ATOM      3  C3  BNZ d   1      -2.784  -1.360  -1.053  0.00  0.00     0.000 A 
ATOM      4  C4  BNZ d   1      -2.519  -1.510   0.261  0.00  0.00     0.000 A 
ATOM      5  C5  BNZ d   1      -1.487  -0.807   0.851  0.00  0.00     0.000 A 
ATOM      6  C6  BNZ d   1      -0.728   0.059   0.098  0.00  0.00     0.000 A 
ENDROOT
TORSDOF 0
ENDMDL
