MODEL 1
REMARK minimizedAffinity -2.49846601
REMARK minimizedRMSD -1
REMARK  0 active torsions:
REMARK  status: ('A' for Active; 'I' for Inactive)
ROOT
ATOM      1  C1  BNZ d   1       0.318  -0.197  -0.068  0.00  0.00     0.000 A 
ATOM      2  C2  BNZ d   1      -0.775  -0.807   0.488  0.00  0.00     0.000 A 
ATOM      3  C3  BNZ d   1      -2.017  -0.656  -0.062  0.00  0.00     0.000 A 
ATOM      4  C4  BNZ d   1      -2.171   0.135  -1.142  0.00  0.00     0.000 A 
ATOM      5  C5  BNZ d   1      -1.081   0.765  -1.710  0.00  0.00     0.000 A 
ATOM      6  C6  BNZ d   1       0.174   0.579  -1.177  0.00  0.00     0.000 A 
ENDROOT
TORSDOF 0
ENDMDL
