MODEL 1
REMARK minimizedAffinity 2.3791697
REMARK minimizedRMSD -1
REMARK  0 active torsions:
REMARK  status: ('A' for Active; 'I' for Inactive)
ROOT
ATOM      1  C   UNL d   1       0.337  -2.648  -0.505  0.00  0.00     0.023 A 
ATOM      2  C1  UNL d   1      -0.064  -1.315  -0.420  0.00  0.00     0.003 A 
ATOM      3  C2  UNL d   1       0.874  -0.291  -0.574  0.00  0.00     0.048 A 
ATOM      4  C3  UNL d   1       2.210  -0.609  -0.813  0.00  0.00     0.023 A 
ATOM      5  C4  UNL d   1       2.616  -1.942  -0.900  0.00  0.00     0.048 A 
ATOM      6  C5  UNL d   1       1.675  -2.961  -0.744  0.00  0.00     0.003 A 
ATOM      7  I   UNL d   1       3.608   0.913  -1.043  0.00  0.00    -0.146 I 
ENDROOT
TORSDOF 0
ENDMDL
