MODEL 1
REMARK minimizedAffinity -2.148489
REMARK minimizedRMSD -1
REMARK  0 active torsions:
REMARK  status: ('A' for Active; 'I' for Inactive)
ROOT
ATOM      1  C   UNL d   1      -1.077   1.156  -1.890  0.00  0.00     0.023 A 
ATOM      2  C1  UNL d   1      -0.058   1.271  -0.945  0.00  0.00     0.003 A 
ATOM      3  C2  UNL d   1       0.566   0.125  -0.447  0.00  0.00     0.048 A 
ATOM      4  C3  UNL d   1       0.166  -1.132  -0.899  0.00  0.00     0.023 A 
ATOM      5  C4  UNL d   1      -0.854  -1.251  -1.845  0.00  0.00     0.048 A 
ATOM      6  C5  UNL d   1      -1.475  -0.103  -2.339  0.00  0.00     0.003 A 
ATOM      7  I   UNL d   1       1.093  -2.839  -0.159  0.00  0.00    -0.146 I 
ENDROOT
TORSDOF 0
ENDMDL
