MODEL 1
REMARK minimizedAffinity 12.4835243
REMARK minimizedRMSD -1
REMARK  0 active torsions:
REMARK  status: ('A' for Active; 'I' for Inactive)
ROOT
ATOM      1  C   UNL d   1      -1.967  -0.509  -2.782  0.00  0.00     0.023 A 
ATOM      2  C1  UNL d   1      -1.318   0.669  -2.411  0.00  0.00     0.003 A 
ATOM      3  C2  UNL d   1      -1.876   1.497  -1.434  0.00  0.00     0.048 A 
ATOM      4  C3  UNL d   1      -3.082   1.140  -0.831  0.00  0.00     0.023 A 
ATOM      5  C4  UNL d   1      -3.734  -0.038  -1.199  0.00  0.00     0.048 A 
ATOM      6  C5  UNL d   1      -3.174  -0.862  -2.176  0.00  0.00     0.003 A 
ATOM      7  I   UNL d   1      -3.913   2.371   0.623  0.00  0.00    -0.146 I 
ENDROOT
TORSDOF 0
ENDMDL
