MODEL 1
REMARK minimizedAffinity 9.71114254
REMARK minimizedRMSD -1
REMARK  0 active torsions:
REMARK  status: ('A' for Active; 'I' for Inactive)
ROOT
ATOM      1  C   UNL d   1       4.324   2.877  -2.376  0.00  0.00     0.023 A 
ATOM      2  C1  UNL d   1       4.687   1.787  -3.168  0.00  0.00     0.003 A 
ATOM      3  C2  UNL d   1       4.287   0.498  -2.809  0.00  0.00     0.048 A 
ATOM      4  C3  UNL d   1       3.523   0.306  -1.659  0.00  0.00     0.023 A 
ATOM      5  C4  UNL d   1       3.156   1.394  -0.864  0.00  0.00     0.048 A 
ATOM      6  C5  UNL d   1       3.560   2.681  -1.226  0.00  0.00     0.003 A 
ATOM      7  I   UNL d   1       2.926  -1.611  -1.123  0.00  0.00    -0.146 I 
ENDROOT
TORSDOF 0
ENDMDL
