MODEL 1
REMARK minimizedAffinity 7.84544897
REMARK minimizedRMSD -1
REMARK  0 active torsions:
REMARK  status: ('A' for Active; 'I' for Inactive)
ROOT
ATOM      1  C   UNL d   1      -1.544   0.102  -1.920  0.00  0.00     0.023 A 
ATOM      2  C1  UNL d   1      -1.767   0.008  -0.546  0.00  0.00     0.003 A 
ATOM      3  C2  UNL d   1      -3.044   0.227  -0.027  0.00  0.00     0.048 A 
ATOM      4  C3  UNL d   1      -4.095   0.540  -0.888  0.00  0.00     0.023 A 
ATOM      5  C4  UNL d   1      -3.878   0.635  -2.264  0.00  0.00     0.048 A 
ATOM      6  C5  UNL d   1      -2.599   0.415  -2.778  0.00  0.00     0.003 A 
ATOM      7  I   UNL d   1      -5.998   0.868  -0.119  0.00  0.00    -0.146 I 
ENDROOT
TORSDOF 0
ENDMDL
