MODEL 1
REMARK minimizedAffinity 7.6351862
REMARK minimizedRMSD -1
REMARK  0 active torsions:
REMARK  status: ('A' for Active; 'I' for Inactive)
ROOT
ATOM      1  C   UNL d   1       3.053   0.239  -1.670  0.00  0.00     0.023 A 
ATOM      2  C1  UNL d   1       3.776   1.428  -1.774  0.00  0.00     0.003 A 
ATOM      3  C2  UNL d   1       4.098   2.153  -0.625  0.00  0.00     0.048 A 
ATOM      4  C3  UNL d   1       3.694   1.684   0.625  0.00  0.00     0.023 A 
ATOM      5  C4  UNL d   1       2.972   0.495   0.734  0.00  0.00     0.048 A 
ATOM      6  C5  UNL d   1       2.651  -0.227  -0.418  0.00  0.00     0.003 A 
ATOM      7  I   UNL d   1       4.173   2.762   2.336  0.00  0.00    -0.146 I 
ENDROOT
TORSDOF 0
ENDMDL
