MODEL 1
REMARK minimizedAffinity 11.3295612
REMARK minimizedRMSD -1
REMARK  0 active torsions:
REMARK  status: ('A' for Active; 'I' for Inactive)
ROOT
ATOM      1  C1  DEN d   1       0.099  -4.584  -5.946  0.00  0.00     0.130 A 
ATOM      2  C2  DEN d   1      -0.461  -5.933  -5.914  0.00  0.00    -0.031 A 
ATOM      3  C3  DEN d   1      -1.933  -5.816  -5.916  0.00  0.00     0.027 A 
ATOM      4  C4  DEN d   1      -3.392  -3.691  -5.971  0.00  0.00     0.027 A 
ATOM      5  C5  DEN d   1      -3.370  -2.314  -5.992  0.00  0.00    -0.003 A 
ATOM      6  C6  DEN d   1      -2.200  -1.602  -5.965  0.00  0.00     0.001 A 
ATOM      7  C7  DEN d   1      -1.001  -2.266  -5.961  0.00  0.00     0.017 A 
ATOM      8  C8  DEN d   1      -1.016  -3.655  -5.932  0.00  0.00    -0.094 A 
ATOM      9  C9  DEN d   1      -2.209  -4.356  -5.972  0.00  0.00    -0.072 A 
ENDROOT
TORSDOF 0
ENDMDL
