MODEL 1
REMARK minimizedAffinity 3.45177698
REMARK minimizedRMSD -1
REMARK  0 active torsions:
REMARK  status: ('A' for Active; 'I' for Inactive)
ROOT
ATOM      1  C1  DEN d   1      -3.558  -0.973   0.769  0.00  0.00     0.130 A 
ATOM      2  C2  DEN d   1      -4.107   0.111  -0.041  0.00  0.00    -0.031 A 
ATOM      3  C3  DEN d   1      -5.166   0.776   0.745  0.00  0.00     0.027 A 
ATOM      4  C4  DEN d   1      -6.000   0.238   3.126  0.00  0.00     0.027 A 
ATOM      5  C5  DEN d   1      -5.845  -0.602   4.206  0.00  0.00    -0.003 A 
ATOM      6  C6  DEN d   1      -4.948  -1.637   4.204  0.00  0.00     0.001 A 
ATOM      7  C7  DEN d   1      -4.139  -1.832   3.116  0.00  0.00     0.017 A 
ATOM      8  C8  DEN d   1      -4.294  -0.993   2.019  0.00  0.00    -0.094 A 
ATOM      9  C9  DEN d   1      -5.198   0.055   2.046  0.00  0.00    -0.072 A 
ENDROOT
TORSDOF 0
ENDMDL
