MODEL 1
REMARK minimizedAffinity 9.64625645
REMARK minimizedRMSD -1
REMARK  0 active torsions:
REMARK  status: ('A' for Active; 'I' for Inactive)
ROOT
ATOM      1  C1  DEN d   1      -1.620   2.672  -2.939  0.00  0.00     0.130 A 
ATOM      2  C2  DEN d   1      -1.396   4.015  -3.468  0.00  0.00    -0.031 A 
ATOM      3  C3  DEN d   1      -0.565   4.755  -2.498  0.00  0.00     0.027 A 
ATOM      4  C4  DEN d   1       0.396   3.956  -0.242  0.00  0.00     0.027 A 
ATOM      5  C5  DEN d   1       0.466   2.897   0.637  0.00  0.00    -0.003 A 
ATOM      6  C6  DEN d   1      -0.178   1.711   0.404  0.00  0.00     0.001 A 
ATOM      7  C7  DEN d   1      -0.883   1.538  -0.758  0.00  0.00     0.017 A 
ATOM      8  C8  DEN d   1      -0.963   2.603  -1.646  0.00  0.00    -0.094 A 
ATOM      9  C9  DEN d   1      -0.296   3.791  -1.397  0.00  0.00    -0.072 A 
ENDROOT
TORSDOF 0
ENDMDL
