MODEL 1
REMARK minimizedAffinity -1.71791446
REMARK minimizedRMSD -1
REMARK  0 active torsions:
REMARK  status: ('A' for Active; 'I' for Inactive)
ROOT
ATOM      1  C1  DEN d   1      -5.999  -2.508   5.815  0.00  0.00     0.130 A 
ATOM      2  C2  DEN d   1      -5.438  -3.856   5.786  0.00  0.00    -0.031 A 
ATOM      3  C3  DEN d   1      -4.754  -4.038   4.490  0.00  0.00     0.027 A 
ATOM      4  C4  DEN d   1      -4.503  -2.370   2.539  0.00  0.00     0.027 A 
ATOM      5  C5  DEN d   1      -4.820  -1.104   2.096  0.00  0.00    -0.003 A 
ATOM      6  C6  DEN d   1      -5.575  -0.238   2.842  0.00  0.00     0.001 A 
ATOM      7  C7  DEN d   1      -6.000  -0.609   4.090  0.00  0.00     0.017 A 
ATOM      8  C8  DEN d   1      -5.691  -1.886   4.540  0.00  0.00    -0.094 A 
ATOM      9  C9  DEN d   1      -4.917  -2.743   3.777  0.00  0.00    -0.072 A 
ENDROOT
TORSDOF 0
ENDMDL
