MODEL 1
REMARK minimizedAffinity 5.9534049
REMARK minimizedRMSD -1
REMARK  0 active torsions:
REMARK  status: ('A' for Active; 'I' for Inactive)
ROOT
ATOM      1  C1  DEN d   1      -3.713  -0.773   0.569  0.00  0.00     0.130 A 
ATOM      2  C2  DEN d   1      -4.287   0.403  -0.081  0.00  0.00    -0.031 A 
ATOM      3  C3  DEN d   1      -5.288   0.987   0.834  0.00  0.00     0.027 A 
ATOM      4  C4  DEN d   1      -6.000   0.192   3.182  0.00  0.00     0.027 A 
ATOM      5  C5  DEN d   1      -5.801  -0.767   4.151  0.00  0.00    -0.003 A 
ATOM      6  C6  DEN d   1      -4.925  -1.806   3.981  0.00  0.00     0.001 A 
ATOM      7  C7  DEN d   1      -4.181  -1.885   2.833  0.00  0.00     0.017 A 
ATOM      8  C8  DEN d   1      -4.381  -0.926   1.849  0.00  0.00    -0.094 A 
ATOM      9  C9  DEN d   1      -5.262   0.124   2.045  0.00  0.00    -0.072 A 
ENDROOT
TORSDOF 0
ENDMDL
