MODEL 1
REMARK minimizedAffinity 6.24178934
REMARK minimizedRMSD -1
REMARK  0 active torsions:
REMARK  status: ('A' for Active; 'I' for Inactive)
ROOT
ATOM      1  C1  DEN d   1      -4.525  -0.507   2.287  0.00  0.00     0.130 A 
ATOM      2  C2  DEN d   1      -5.263   0.750   2.372  0.00  0.00    -0.031 A 
ATOM      3  C3  DEN d   1      -5.975   0.775   3.666  0.00  0.00     0.027 A 
ATOM      4  C4  DEN d   1      -6.000  -0.999   5.538  0.00  0.00     0.027 A 
ATOM      5  C5  DEN d   1      -5.534  -2.239   5.916  0.00  0.00    -0.003 A 
ATOM      6  C6  DEN d   1      -4.733  -2.997   5.104  0.00  0.00     0.001 A 
ATOM      7  C7  DEN d   1      -4.337  -2.503   3.889  0.00  0.00     0.017 A 
ATOM      8  C8  DEN d   1      -4.809  -1.256   3.498  0.00  0.00    -0.094 A 
ATOM      9  C9  DEN d   1      -5.607  -0.500   4.339  0.00  0.00    -0.072 A 
ENDROOT
TORSDOF 0
ENDMDL
