MODEL 1
REMARK minimizedAffinity 4.02671337
REMARK minimizedRMSD -1
REMARK  0 active torsions:
REMARK  status: ('A' for Active; 'I' for Inactive)
ROOT
ATOM      1  C1  DEN d   1      -1.328   5.999  -3.698  0.00  0.00     0.130 A 
ATOM      2  C2  DEN d   1      -0.430   5.928  -4.847  0.00  0.00    -0.031 A 
ATOM      3  C3  DEN d   1      -1.155   5.271  -5.953  0.00  0.00     0.027 A 
ATOM      4  C4  DEN d   1      -3.569   4.366  -5.999  0.00  0.00     0.027 A 
ATOM      5  C5  DEN d   1      -4.716   4.189  -5.257  0.00  0.00    -0.003 A 
ATOM      6  C6  DEN d   1      -4.802   4.569  -3.944  0.00  0.00     0.001 A 
ATOM      7  C7  DEN d   1      -3.736   5.188  -3.345  0.00  0.00     0.017 A 
ATOM      8  C8  DEN d   1      -2.574   5.362  -4.085  0.00  0.00    -0.094 A 
ATOM      9  C9  DEN d   1      -2.511   4.982  -5.415  0.00  0.00    -0.072 A 
ENDROOT
TORSDOF 0
ENDMDL
