MODEL 1
REMARK minimizedAffinity 11.9190607
REMARK minimizedRMSD -1
REMARK  0 active torsions:
REMARK  status: ('A' for Active; 'I' for Inactive)
ROOT
ATOM      1  C   UNL d   1       4.843  -4.478  -6.000  0.00  0.00     0.020 A 
ATOM      2  C1  UNL d   1       5.998  -3.696  -5.988  0.00  0.00     0.020 A 
ATOM      3  C2  UNL d   1       5.985  -2.443  -5.373  0.00  0.00     0.034 A 
ATOM      4  C3  UNL d   1       4.816  -1.967  -4.767  0.00  0.00     0.017 A 
ATOM      5  C4  UNL d   1       3.658  -2.753  -4.780  0.00  0.00     0.017 A 
ATOM      6  C5  UNL d   1       3.676  -4.008  -5.397  0.00  0.00     0.034 A 
ATOM      7 Cl   UNL d   1       2.178  -2.234  -4.054  0.00  0.00    -0.070 Cl
ATOM      8 Cl1  UNL d   1       4.873  -0.408  -4.025  0.00  0.00    -0.070 Cl
ENDROOT
TORSDOF 0
ENDMDL
