MODEL 1
REMARK minimizedAffinity 8.10507488
REMARK minimizedRMSD -1
REMARK  0 active torsions:
REMARK  status: ('A' for Active; 'I' for Inactive)
ROOT
ATOM      1  C   UNL d   1       2.623   4.891  -1.856  0.00  0.00     0.020 A 
ATOM      2  C1  UNL d   1       2.824   4.190  -3.045  0.00  0.00     0.020 A 
ATOM      3  C2  UNL d   1       1.950   3.163  -3.407  0.00  0.00     0.034 A 
ATOM      4  C3  UNL d   1       0.870   2.834  -2.580  0.00  0.00     0.017 A 
ATOM      5  C4  UNL d   1       0.668   3.538  -1.387  0.00  0.00     0.017 A 
ATOM      6  C5  UNL d   1       1.547   4.565  -1.029  0.00  0.00     0.034 A 
ATOM      7 Cl   UNL d   1      -0.642   3.189  -0.315  0.00  0.00    -0.070 Cl
ATOM      8 Cl1  UNL d   1      -0.171   1.553  -3.090  0.00  0.00    -0.070 Cl
ENDROOT
TORSDOF 0
ENDMDL
