MODEL 1
REMARK minimizedAffinity 8.04634857
REMARK minimizedRMSD -1
REMARK  0 active torsions:
REMARK  status: ('A' for Active; 'I' for Inactive)
ROOT
ATOM      1  C   UNL d   1      -3.946   2.210  -2.889  0.00  0.00     0.020 A 
ATOM      2  C1  UNL d   1      -4.136   0.893  -3.307  0.00  0.00     0.020 A 
ATOM      3  C2  UNL d   1      -3.061   0.002  -3.316  0.00  0.00     0.034 A 
ATOM      4  C3  UNL d   1      -1.792   0.425  -2.907  0.00  0.00     0.017 A 
ATOM      5  C4  UNL d   1      -1.602   1.747  -2.487  0.00  0.00     0.017 A 
ATOM      6  C5  UNL d   1      -2.682   2.636  -2.480  0.00  0.00     0.034 A 
ATOM      7 Cl   UNL d   1      -0.065   2.343  -1.968  0.00  0.00    -0.070 Cl
ATOM      8 Cl1  UNL d   1      -0.508  -0.731  -2.943  0.00  0.00    -0.070 Cl
ENDROOT
TORSDOF 0
ENDMDL
