MODEL 1
REMARK minimizedAffinity 1.61163235
REMARK minimizedRMSD -1
REMARK  0 active torsions:
REMARK  status: ('A' for Active; 'I' for Inactive)
ROOT
ATOM      1  C   UNL d   1      -2.246   1.786  -4.195  0.00  0.00     0.020 A 
ATOM      2  C1  UNL d   1      -2.945   0.760  -3.562  0.00  0.00     0.020 A 
ATOM      3  C2  UNL d   1      -4.101   1.048  -2.833  0.00  0.00     0.034 A 
ATOM      4  C3  UNL d   1      -4.561   2.366  -2.736  0.00  0.00     0.017 A 
ATOM      5  C4  UNL d   1      -3.858   3.396  -3.372  0.00  0.00     0.017 A 
ATOM      6  C5  UNL d   1      -2.702   3.102  -4.100  0.00  0.00     0.034 A 
ATOM      7 Cl   UNL d   1      -4.364   5.047  -3.297  0.00  0.00    -0.070 Cl
ATOM      8 Cl1  UNL d   1      -5.997   2.651  -1.818  0.00  0.00    -0.070 Cl
ENDROOT
TORSDOF 0
ENDMDL
