MODEL 1
REMARK minimizedAffinity 2.77653432
REMARK minimizedRMSD -1
REMARK  0 active torsions:
REMARK  status: ('A' for Active; 'I' for Inactive)
ROOT
ATOM      1  C   UNL d   1      -4.549   4.519  -3.738  0.00  0.00     0.020 A 
ATOM      2  C1  UNL d   1      -5.726   4.322  -3.016  0.00  0.00     0.020 A 
ATOM      3  C2  UNL d   1      -5.998   3.074  -2.452  0.00  0.00     0.034 A 
ATOM      4  C3  UNL d   1      -5.094   2.018  -2.609  0.00  0.00     0.017 A 
ATOM      5  C4  UNL d   1      -3.913   2.216  -3.334  0.00  0.00     0.017 A 
ATOM      6  C5  UNL d   1      -3.645   3.468  -3.897  0.00  0.00     0.034 A 
ATOM      7 Cl   UNL d   1      -2.749   0.961  -3.571  0.00  0.00    -0.070 Cl
ATOM      8 Cl1  UNL d   1      -5.496   0.502  -1.884  0.00  0.00    -0.070 Cl
ENDROOT
TORSDOF 0
ENDMDL
