MODEL 1
REMARK minimizedAffinity -3.42396665
REMARK minimizedRMSD -1
REMARK  0 active torsions:
REMARK  status: ('A' for Active; 'I' for Inactive)
ROOT
ATOM      1  C   UNL d   1       5.453  -5.802  -6.000  0.00  0.00     0.020 A 
ATOM      2  C1  UNL d   1       4.073  -6.000  -5.994  0.00  0.00     0.020 A 
ATOM      3  C2  UNL d   1       3.211  -4.902  -5.972  0.00  0.00     0.034 A 
ATOM      4  C3  UNL d   1       3.727  -3.601  -5.954  0.00  0.00     0.017 A 
ATOM      5  C4  UNL d   1       5.113  -3.404  -5.960  0.00  0.00     0.017 A 
ATOM      6  C5  UNL d   1       5.972  -4.507  -5.983  0.00  0.00     0.034 A 
ATOM      7 Cl   UNL d   1       5.825  -1.829  -5.940  0.00  0.00    -0.070 Cl
ATOM      8 Cl1  UNL d   1       2.603  -2.290  -5.927  0.00  0.00    -0.070 Cl
ENDROOT
TORSDOF 0
ENDMDL
