MODEL 1
REMARK minimizedAffinity 2.41142535
REMARK minimizedRMSD -1
REMARK  0 active torsions:
REMARK  status: ('A' for Active; 'I' for Inactive)
ROOT
ATOM      1  C   UNL d   1       5.995  -5.414  -5.721  0.00  0.00     0.020 A 
ATOM      2  C1  UNL d   1       5.944  -4.048  -5.998  0.00  0.00     0.020 A 
ATOM      3  C2  UNL d   1       4.927  -3.263  -5.452  0.00  0.00     0.034 A 
ATOM      4  C3  UNL d   1       3.957  -3.843  -4.626  0.00  0.00     0.017 A 
ATOM      5  C4  UNL d   1       4.009  -5.214  -4.349  0.00  0.00     0.017 A 
ATOM      6  C5  UNL d   1       5.030  -5.995  -4.899  0.00  0.00     0.034 A 
ATOM      7 Cl   UNL d   1       2.847  -6.000  -3.340  0.00  0.00    -0.070 Cl
ATOM      8 Cl1  UNL d   1       2.728  -2.811  -3.985  0.00  0.00    -0.070 Cl
ENDROOT
TORSDOF 0
ENDMDL
