MODEL 1
REMARK minimizedAffinity 4.39139271
REMARK minimizedRMSD -1
REMARK  0 active torsions:
REMARK  status: ('A' for Active; 'I' for Inactive)
ROOT
ATOM      1  C   UNL d   1      -4.831   4.155  -2.930  0.00  0.00     0.020 A 
ATOM      2  C1  UNL d   1      -4.817   3.326  -4.051  0.00  0.00     0.020 A 
ATOM      3  C2  UNL d   1      -4.010   2.186  -4.066  0.00  0.00     0.034 A 
ATOM      4  C3  UNL d   1      -3.214   1.873  -2.959  0.00  0.00     0.017 A 
ATOM      5  C4  UNL d   1      -3.228   2.706  -1.834  0.00  0.00     0.017 A 
ATOM      6  C5  UNL d   1      -4.038   3.846  -1.824  0.00  0.00     0.034 A 
ATOM      7 Cl   UNL d   1      -2.273   2.384  -0.430  0.00  0.00    -0.070 Cl
ATOM      8 Cl1  UNL d   1      -2.240   0.448  -3.046  0.00  0.00    -0.070 Cl
ENDROOT
TORSDOF 0
ENDMDL
