MODEL 1
REMARK minimizedAffinity 2.54219222
REMARK minimizedRMSD -1
REMARK  0 active torsions:
REMARK  status: ('A' for Active; 'I' for Inactive)
ROOT
ATOM      1  C   UNL d   1       5.514  -5.449  -5.574  0.00  0.00     0.020 A 
ATOM      2  C1  UNL d   1       4.319  -5.568  -4.865  0.00  0.00     0.020 A 
ATOM      3  C2  UNL d   1       3.610  -4.424  -4.495  0.00  0.00     0.034 A 
ATOM      4  C3  UNL d   1       4.094  -3.155  -4.833  0.00  0.00     0.017 A 
ATOM      5  C4  UNL d   1       5.293  -3.036  -5.545  0.00  0.00     0.017 A 
ATOM      6  C5  UNL d   1       6.000  -4.185  -5.913  0.00  0.00     0.034 A 
ATOM      7 Cl   UNL d   1       5.954  -1.505  -5.998  0.00  0.00    -0.070 Cl
ATOM      8 Cl1  UNL d   1       3.165  -1.783  -4.343  0.00  0.00    -0.070 Cl
ENDROOT
TORSDOF 0
ENDMDL
