MODEL 1
REMARK minimizedAffinity 13.4393282
REMARK minimizedRMSD -1
REMARK  0 active torsions:
REMARK  status: ('A' for Active; 'I' for Inactive)
ROOT
ATOM      1  C   UNL d   1      -2.275   0.563  -2.972  0.00  0.00     0.020 A 
ATOM      2  C1  UNL d   1      -2.059   1.495  -3.986  0.00  0.00     0.020 A 
ATOM      3  C2  UNL d   1      -2.895   2.607  -4.102  0.00  0.00     0.034 A 
ATOM      4  C3  UNL d   1      -3.951   2.791  -3.202  0.00  0.00     0.017 A 
ATOM      5  C4  UNL d   1      -4.167   1.855  -2.183  0.00  0.00     0.017 A 
ATOM      6  C5  UNL d   1      -3.327   0.743  -2.072  0.00  0.00     0.034 A 
ATOM      7 Cl   UNL d   1      -5.449   2.014  -1.035  0.00  0.00    -0.070 Cl
ATOM      8 Cl1  UNL d   1      -4.945   4.190  -3.404  0.00  0.00    -0.070 Cl
ENDROOT
TORSDOF 0
ENDMDL
