MODEL 1
REMARK minimizedAffinity 8.45969486
REMARK minimizedRMSD -1
REMARK  0 active torsions:
REMARK  status: ('A' for Active; 'I' for Inactive)
ROOT
ATOM      1  C   UNL d   1      -2.649   0.843  -2.929  0.00  0.00     0.020 A 
ATOM      2  C1  UNL d   1      -3.531   1.007  -1.862  0.00  0.00     0.020 A 
ATOM      3  C2  UNL d   1      -4.340   2.143  -1.792  0.00  0.00     0.034 A 
ATOM      4  C3  UNL d   1      -4.268   3.120  -2.791  0.00  0.00     0.017 A 
ATOM      5  C4  UNL d   1      -3.383   2.955  -3.863  0.00  0.00     0.017 A 
ATOM      6  C5  UNL d   1      -2.576   1.815  -3.928  0.00  0.00     0.034 A 
ATOM      7 Cl   UNL d   1      -3.239   4.117  -5.134  0.00  0.00    -0.070 Cl
ATOM      8 Cl1  UNL d   1      -5.298   4.500  -2.641  0.00  0.00    -0.070 Cl
ENDROOT
TORSDOF 0
ENDMDL
