MODEL 1
REMARK minimizedAffinity 14.5458155
REMARK minimizedRMSD -1
REMARK  0 active torsions:
REMARK  status: ('A' for Active; 'I' for Inactive)
ROOT
ATOM      1  C   UNL d   1      -4.438   3.077  -4.131  0.00  0.00     0.020 A 
ATOM      2  C1  UNL d   1      -4.284   4.092  -3.188  0.00  0.00     0.020 A 
ATOM      3  C2  UNL d   1      -3.533   3.863  -2.033  0.00  0.00     0.034 A 
ATOM      4  C3  UNL d   1      -2.934   2.617  -1.818  0.00  0.00     0.017 A 
ATOM      5  C4  UNL d   1      -3.090   1.599  -2.766  0.00  0.00     0.017 A 
ATOM      6  C5  UNL d   1      -3.842   1.833  -3.920  0.00  0.00     0.034 A 
ATOM      7 Cl   UNL d   1      -2.381   0.034  -2.571  0.00  0.00    -0.070 Cl
ATOM      8 Cl1  UNL d   1      -2.019   2.404  -0.368  0.00  0.00    -0.070 Cl
ENDROOT
TORSDOF 0
ENDMDL
