MODEL 1
REMARK minimizedAffinity -3.52596164
REMARK minimizedRMSD -1
REMARK  1 active torsions:
REMARK  status: ('A' for Active; 'I' for Inactive)
REMARK    1  A    between atoms: N_2  and  C1_3 
ROOT
ATOM      1  C1  UNL d   1       1.313   0.488  -2.439  0.00  0.00     0.143 A 
ATOM      2  C2  UNL d   1       0.488   0.626  -3.561  0.00  0.00    -0.057 A 
ATOM      3  C3  UNL d   1       0.953   1.230  -4.735  0.00  0.00     0.033 A 
ATOM      4  C4  UNL d   1       2.248   1.735  -4.798  0.00  0.00    -0.042 A 
ATOM      5  C5  UNL d   1       3.077   1.632  -3.687  0.00  0.00     0.033 A 
ATOM      6  C6  UNL d   1       2.609   1.021  -2.520  0.00  0.00    -0.057 A 
ENDROOT
BRANCH   1   7
ATOM      7  N   UNL d   1       0.878  -0.015  -1.211  0.00  0.00    -0.732 N 
ATOM      8  C   UNL d   1       1.826  -0.537  -0.250  0.00  0.00     0.284 C 
ATOM      9  H3  UNL d   1       0.138   0.551  -0.800  0.00  0.00     0.395 HD
ENDBRANCH   1   7
TORSDOF 1
ENDMDL
