MODEL 1
REMARK minimizedAffinity 1.75279021
REMARK minimizedRMSD -1
REMARK  1 active torsions:
REMARK  status: ('A' for Active; 'I' for Inactive)
REMARK    1  A    between atoms: N_2  and  C1_3 
ROOT
ATOM      1  C1  UNL d   1      -0.205  -1.681  -0.695  0.00  0.00     0.143 A 
ATOM      2  C2  UNL d   1       0.542  -1.844   0.477  0.00  0.00    -0.057 A 
ATOM      3  C3  UNL d   1       1.528  -0.920   0.843  0.00  0.00     0.033 A 
ATOM      4  C4  UNL d   1       1.805   0.172   0.026  0.00  0.00    -0.042 A 
ATOM      5  C5  UNL d   1       1.092   0.340  -1.156  0.00  0.00     0.033 A 
ATOM      6  C6  UNL d   1       0.104  -0.583  -1.513  0.00  0.00    -0.057 A 
ENDROOT
BRANCH   1   7
ATOM      7  N   UNL d   1      -1.130  -2.618  -1.164  0.00  0.00    -0.732 N 
ATOM      8  C   UNL d   1      -0.754  -4.005  -1.330  0.00  0.00     0.284 C 
ATOM      9  H3  UNL d   1      -2.056  -2.483  -0.764  0.00  0.00     0.395 HD
ENDBRANCH   1   7
TORSDOF 1
ENDMDL
