MODEL 1
REMARK minimizedAffinity 0.187010795
REMARK minimizedRMSD -1
REMARK  1 active torsions:
REMARK  status: ('A' for Active; 'I' for Inactive)
REMARK    1  A    between atoms: N_2  and  C1_3 
ROOT
ATOM      1  C1  UNL d   1       1.367  -0.309   0.899  0.00  0.00     0.143 A 
ATOM      2  C2  UNL d   1       2.346   0.620   0.530  0.00  0.00    -0.057 A 
ATOM      3  C3  UNL d   1       2.750   1.635   1.406  0.00  0.00     0.033 A 
ATOM      4  C4  UNL d   1       2.159   1.757   2.660  0.00  0.00    -0.042 A 
ATOM      5  C5  UNL d   1       1.166   0.860   3.038  0.00  0.00     0.033 A 
ATOM      6  C6  UNL d   1       0.772  -0.156   2.161  0.00  0.00    -0.057 A 
ENDROOT
BRANCH   1   7
ATOM      7  N   UNL d   1       0.853  -1.280   0.037  0.00  0.00    -0.732 N 
ATOM      8  C   UNL d   1      -0.358  -1.031  -0.717  0.00  0.00     0.284 C 
ATOM      9  H3  UNL d   1       1.581  -1.755  -0.492  0.00  0.00     0.395 HD
ENDBRANCH   1   7
TORSDOF 1
ENDMDL
