MODEL 1
REMARK minimizedAffinity 0.772362828
REMARK minimizedRMSD -1
REMARK  1 active torsions:
REMARK  status: ('A' for Active; 'I' for Inactive)
REMARK    1  A    between atoms: N_2  and  C1_3 
ROOT
ATOM      1  C1  UNL d   1       1.212  -0.299   0.444  0.00  0.00     0.143 A 
ATOM      2  C2  UNL d   1       2.342   0.073  -0.292  0.00  0.00    -0.057 A 
ATOM      3  C3  UNL d   1       3.047   1.246   0.005  0.00  0.00     0.033 A 
ATOM      4  C4  UNL d   1       2.616   2.085   1.027  0.00  0.00    -0.042 A 
ATOM      5  C5  UNL d   1       1.481   1.747   1.755  0.00  0.00     0.033 A 
ATOM      6  C6  UNL d   1       0.785   0.572   1.459  0.00  0.00    -0.057 A 
ENDROOT
BRANCH   1   7
ATOM      7  N   UNL d   1       0.411  -1.401   0.135  0.00  0.00    -0.732 N 
ATOM      8  C   UNL d   1      -0.806  -1.236  -0.630  0.00  0.00     0.284 C 
ATOM      9  H3  UNL d   1       0.958  -2.218  -0.125  0.00  0.00     0.395 HD
ENDBRANCH   1   7
TORSDOF 1
ENDMDL
