MODEL 1
REMARK minimizedAffinity 0.316768795
REMARK minimizedRMSD -1
REMARK  1 active torsions:
REMARK  status: ('A' for Active; 'I' for Inactive)
REMARK    1  A    between atoms: N_2  and  C1_3 
ROOT
ATOM      1  C1  UNL d   1       0.475  -0.509   0.238  0.00  0.00     0.143 A 
ATOM      2  C2  UNL d   1       1.784  -0.952   0.016  0.00  0.00    -0.057 A 
ATOM      3  C3  UNL d   1       2.883  -0.255   0.530  0.00  0.00     0.033 A 
ATOM      4  C4  UNL d   1       2.694   0.919   1.253  0.00  0.00    -0.042 A 
ATOM      5  C5  UNL d   1       1.404   1.392   1.464  0.00  0.00     0.033 A 
ATOM      6  C6  UNL d   1       0.309   0.687   0.954  0.00  0.00    -0.057 A 
ENDROOT
BRANCH   1   7
ATOM      7  N   UNL d   1      -0.654  -1.105  -0.330  0.00  0.00    -0.732 N 
ATOM      8  C   UNL d   1      -1.631  -0.306  -1.037  0.00  0.00     0.284 C 
ATOM      9  H3  UNL d   1      -0.441  -1.993  -0.777  0.00  0.00     0.395 HD
ENDBRANCH   1   7
TORSDOF 1
ENDMDL
