MODEL 1
REMARK minimizedAffinity 0.635268331
REMARK minimizedRMSD -1
REMARK  1 active torsions:
REMARK  status: ('A' for Active; 'I' for Inactive)
REMARK    1  A    between atoms: N_2  and  C1_3 
ROOT
ATOM      1  C1  UNL d   1       2.390   2.113  -2.657  0.00  0.00     0.143 A 
ATOM      2  C2  UNL d   1       1.828   1.149  -1.814  0.00  0.00    -0.057 A 
ATOM      3  C3  UNL d   1       1.618   1.408  -0.454  0.00  0.00     0.033 A 
ATOM      4  C4  UNL d   1       1.994   2.629   0.094  0.00  0.00    -0.042 A 
ATOM      5  C5  UNL d   1       2.578   3.594  -0.720  0.00  0.00     0.033 A 
ATOM      6  C6  UNL d   1       2.779   3.332  -2.079  0.00  0.00    -0.057 A 
ENDROOT
BRANCH   1   7
ATOM      7  N   UNL d   1       2.715   1.882  -3.996  0.00  0.00    -0.732 N 
ATOM      8  C   UNL d   1       3.915   1.153  -4.348  0.00  0.00     0.284 C 
ATOM      9  H3  UNL d   1       1.901   1.639  -4.557  0.00  0.00     0.395 HD
ENDBRANCH   1   7
TORSDOF 1
ENDMDL
