MODEL 1
REMARK minimizedAffinity 2.26918578
REMARK minimizedRMSD -1
REMARK  1 active torsions:
REMARK  status: ('A' for Active; 'I' for Inactive)
REMARK    1  A    between atoms: N_2  and  C1_3 
ROOT
ATOM      1  C1  UNL d   1       0.880  -0.033   1.463  0.00  0.00     0.143 A 
ATOM      2  C2  UNL d   1       2.072  -0.287   0.776  0.00  0.00    -0.057 A 
ATOM      3  C3  UNL d   1       2.072  -0.938  -0.464  0.00  0.00     0.033 A 
ATOM      4  C4  UNL d   1       0.877  -1.374  -1.027  0.00  0.00    -0.042 A 
ATOM      5  C5  UNL d   1      -0.318  -1.155  -0.350  0.00  0.00     0.033 A 
ATOM      6  C6  UNL d   1      -0.312  -0.499   0.885  0.00  0.00    -0.057 A 
ENDROOT
BRANCH   1   7
ATOM      7  N   UNL d   1       0.823   0.521   2.743  0.00  0.00    -0.732 N 
ATOM      8  C   UNL d   1       0.406  -0.278   3.875  0.00  0.00     0.284 C 
ATOM      9  H3  UNL d   1       1.611   1.135   2.936  0.00  0.00     0.395 HD
ENDBRANCH   1   7
TORSDOF 1
ENDMDL
