MODEL 1
REMARK minimizedAffinity 2.70608234
REMARK minimizedRMSD -1
REMARK  1 active torsions:
REMARK  status: ('A' for Active; 'I' for Inactive)
REMARK    1  A    between atoms: N_2  and  C1_3 
ROOT
ATOM      1  C1  UNL d   1       1.352  -0.403   0.715  0.00  0.00     0.143 A 
ATOM      2  C2  UNL d   1       0.955  -0.269   2.049  0.00  0.00    -0.057 A 
ATOM      3  C3  UNL d   1       1.400   0.800   2.836  0.00  0.00     0.033 A 
ATOM      4  C4  UNL d   1       2.277   1.742   2.308  0.00  0.00    -0.042 A 
ATOM      5  C5  UNL d   1       2.705   1.615   0.991  0.00  0.00     0.033 A 
ATOM      6  C6  UNL d   1       2.252   0.549   0.209  0.00  0.00    -0.057 A 
ENDROOT
BRANCH   1   7
ATOM      7  N   UNL d   1       1.023  -1.496  -0.089  0.00  0.00    -0.732 N 
ATOM      8  C   UNL d   1      -0.168  -1.475  -0.912  0.00  0.00     0.284 C 
ATOM      9  H3  UNL d   1       1.837  -1.902  -0.546  0.00  0.00     0.395 HD
ENDBRANCH   1   7
TORSDOF 1
ENDMDL
