MODEL 1
REMARK minimizedAffinity 8.18750095
REMARK minimizedRMSD -1
REMARK  1 active torsions:
REMARK  status: ('A' for Active; 'I' for Inactive)
REMARK    1  A    between atoms: N_2  and  C1_3 
ROOT
ATOM      1  C1  UNL d   1       4.866  -0.541   5.235  0.00  0.00     0.143 A 
ATOM      2  C2  UNL d   1       5.999  -1.321   4.977  0.00  0.00    -0.057 A 
ATOM      3  C3  UNL d   1       5.971  -2.713   5.126  0.00  0.00     0.033 A 
ATOM      4  C4  UNL d   1       4.815  -3.349   5.565  0.00  0.00    -0.042 A 
ATOM      5  C5  UNL d   1       3.685  -2.591   5.852  0.00  0.00     0.033 A 
ATOM      6  C6  UNL d   1       3.716  -1.202   5.694  0.00  0.00    -0.057 A 
ENDROOT
BRANCH   1   7
ATOM      7  N   UNL d   1       4.859   0.855   5.200  0.00  0.00    -0.732 N 
ATOM      8  C   UNL d   1       5.994   1.611   5.686  0.00  0.00     0.284 C 
ATOM      9  H3  UNL d   1       4.453   1.220   4.341  0.00  0.00     0.395 HD
ENDBRANCH   1   7
TORSDOF 1
ENDMDL
