MODEL 1
REMARK minimizedAffinity -2.47818375
REMARK minimizedRMSD -1
REMARK  0 active torsions:
REMARK  status: ('A' for Active; 'I' for Inactive)
ROOT
ATOM      1  C   UNL d   1       0.429  -1.734   0.732  0.00  0.00     0.078 C 
ATOM      2  C1  UNL d   1       0.479  -0.506  -0.126  0.00  0.00    -0.077 A 
ATOM      3  C2  UNL d   1       0.077  -0.546  -1.467  0.00  0.00    -0.001 A 
ATOM      4  C3  UNL d   1       0.138   0.604  -2.257  0.00  0.00     0.003 A 
ATOM      5  C4  UNL d   1       0.601   1.801  -1.715  0.00  0.00    -0.005 A 
ATOM      6  C5  UNL d   1       1.005   1.850  -0.383  0.00  0.00     0.003 A 
ATOM      7  C6  UNL d   1       0.945   0.702   0.409  0.00  0.00    -0.001 A 
ENDROOT
TORSDOF 0
ENDMDL
