MODEL 1
REMARK minimizedAffinity -1.83152008
REMARK minimizedRMSD -1
REMARK  0 active torsions:
REMARK  status: ('A' for Active; 'I' for Inactive)
ROOT
ATOM      1  C   UNL d   1      -2.198  -0.146   0.906  0.00  0.00     0.078 C 
ATOM      2  C1  UNL d   1      -0.738  -0.064   0.574  0.00  0.00    -0.077 A 
ATOM      3  C2  UNL d   1      -0.214   1.040  -0.109  0.00  0.00    -0.001 A 
ATOM      4  C3  UNL d   1       1.145   1.098  -0.420  0.00  0.00     0.003 A 
ATOM      5  C4  UNL d   1       1.992   0.054  -0.052  0.00  0.00    -0.005 A 
ATOM      6  C5  UNL d   1       1.480  -1.050   0.626  0.00  0.00     0.003 A 
ATOM      7  C6  UNL d   1       0.120  -1.109   0.938  0.00  0.00    -0.001 A 
ENDROOT
TORSDOF 0
ENDMDL
