MODEL 1
REMARK minimizedAffinity -3.76355672
REMARK minimizedRMSD -1
REMARK  0 active torsions:
REMARK  status: ('A' for Active; 'I' for Inactive)
ROOT
ATOM      1  C   UNL d   1       1.662   0.004   0.629  0.00  0.00     0.078 C 
ATOM      2  C1  UNL d   1       0.342  -0.704   0.718  0.00  0.00    -0.077 A 
ATOM      3  C2  UNL d   1       0.073  -1.598   1.761  0.00  0.00    -0.001 A 
ATOM      4  C3  UNL d   1      -1.156  -2.257   1.827  0.00  0.00     0.003 A 
ATOM      5  C4  UNL d   1      -2.125  -2.028   0.852  0.00  0.00    -0.005 A 
ATOM      6  C5  UNL d   1      -1.865  -1.142  -0.191  0.00  0.00     0.003 A 
ATOM      7  C6  UNL d   1      -0.637  -0.482  -0.258  0.00  0.00    -0.001 A 
ENDROOT
TORSDOF 0
ENDMDL
