MODEL 1
REMARK minimizedAffinity -4.47951221
REMARK minimizedRMSD -1
REMARK  0 active torsions:
REMARK  status: ('A' for Active; 'I' for Inactive)
ROOT
ATOM      1  C   UNL d   1      -1.959  -2.004   2.119  0.00  0.00     0.078 C 
ATOM      2  C1  UNL d   1      -1.311  -0.813   1.479  0.00  0.00    -0.077 A 
ATOM      3  C2  UNL d   1      -0.144  -0.949   0.718  0.00  0.00    -0.001 A 
ATOM      4  C3  UNL d   1       0.454   0.170   0.136  0.00  0.00     0.003 A 
ATOM      5  C4  UNL d   1      -0.108   1.433   0.310  0.00  0.00    -0.005 A 
ATOM      6  C5  UNL d   1      -1.268   1.579   1.068  0.00  0.00     0.003 A 
ATOM      7  C6  UNL d   1      -1.867   0.461   1.651  0.00  0.00    -0.001 A 
ENDROOT
TORSDOF 0
ENDMDL
