MODEL 1
REMARK minimizedAffinity -5.26393557
REMARK minimizedRMSD -1
REMARK  0 active torsions:
REMARK  status: ('A' for Active; 'I' for Inactive)
ROOT
ATOM      1  C   UNL d   1      -0.015   1.181   0.433  0.00  0.00     0.078 C 
ATOM      2  C1  UNL d   1      -0.554  -0.195   0.689  0.00  0.00    -0.077 A 
ATOM      3  C2  UNL d   1      -1.869  -0.530   0.345  0.00  0.00    -0.001 A 
ATOM      4  C3  UNL d   1      -2.360  -1.812   0.599  0.00  0.00     0.003 A 
ATOM      5  C4  UNL d   1      -1.544  -2.768   1.198  0.00  0.00    -0.005 A 
ATOM      6  C5  UNL d   1      -0.234  -2.443   1.546  0.00  0.00     0.003 A 
ATOM      7  C6  UNL d   1       0.259  -1.162   1.294  0.00  0.00    -0.001 A 
ENDROOT
TORSDOF 0
ENDMDL
