MODEL 1
REMARK minimizedAffinity -5.01550102
REMARK minimizedRMSD -1
REMARK  0 active torsions:
REMARK  status: ('A' for Active; 'I' for Inactive)
ROOT
ATOM      1  C   UNL d   1       0.986   0.914  -1.418  0.00  0.00     0.078 C 
ATOM      2  C1  UNL d   1      -0.037   0.076  -0.710  0.00  0.00    -0.077 A 
ATOM      3  C2  UNL d   1      -0.873   0.632   0.265  0.00  0.00    -0.001 A 
ATOM      4  C3  UNL d   1      -1.814  -0.162   0.923  0.00  0.00     0.003 A 
ATOM      5  C4  UNL d   1      -1.927  -1.516   0.614  0.00  0.00    -0.005 A 
ATOM      6  C5  UNL d   1      -1.097  -2.078  -0.354  0.00  0.00     0.003 A 
ATOM      7  C6  UNL d   1      -0.155  -1.286  -1.013  0.00  0.00    -0.001 A 
ENDROOT
TORSDOF 0
ENDMDL
