MODEL 1
REMARK minimizedAffinity -4.39112568
REMARK minimizedRMSD -1
REMARK  0 active torsions:
REMARK  status: ('A' for Active; 'I' for Inactive)
ROOT
ATOM      1  C   UNL d   1       0.653   0.791  -0.710  0.00  0.00     0.078 C 
ATOM      2  C1  UNL d   1       0.298  -0.450   0.053  0.00  0.00    -0.077 A 
ATOM      3  C2  UNL d   1       1.094  -1.599  -0.028  0.00  0.00    -0.001 A 
ATOM      4  C3  UNL d   1       0.746  -2.751   0.680  0.00  0.00     0.003 A 
ATOM      5  C4  UNL d   1      -0.400  -2.765   1.474  0.00  0.00    -0.005 A 
ATOM      6  C5  UNL d   1      -1.199  -1.627   1.559  0.00  0.00     0.003 A 
ATOM      7  C6  UNL d   1      -0.853  -0.474   0.851  0.00  0.00    -0.001 A 
ENDROOT
TORSDOF 0
ENDMDL
