MODEL 1
REMARK minimizedAffinity -5.13731575
REMARK minimizedRMSD -1
REMARK  0 active torsions:
REMARK  status: ('A' for Active; 'I' for Inactive)
ROOT
ATOM      1  C   UNL d   1      -1.721  -2.784   0.857  0.00  0.00     0.078 C 
ATOM      2  C1  UNL d   1      -0.621  -1.795   0.608  0.00  0.00    -0.077 A 
ATOM      3  C2  UNL d   1       0.718  -2.131   0.844  0.00  0.00    -0.001 A 
ATOM      4  C3  UNL d   1       1.731  -1.198   0.618  0.00  0.00     0.003 A 
ATOM      5  C4  UNL d   1       1.415   0.078   0.155  0.00  0.00    -0.005 A 
ATOM      6  C5  UNL d   1       0.086   0.422  -0.081  0.00  0.00     0.003 A 
ATOM      7  C6  UNL d   1      -0.928  -0.510   0.145  0.00  0.00    -0.001 A 
ENDROOT
TORSDOF 0
ENDMDL
