MODEL 1
REMARK minimizedAffinity -2.08496904
REMARK minimizedRMSD -1
REMARK  0 active torsions:
REMARK  status: ('A' for Active; 'I' for Inactive)
ROOT
ATOM      1  C   UNL d   1       0.150   0.846  -1.459  0.00  0.00     0.078 C 
ATOM      2  C1  UNL d   1       0.195  -0.307  -0.501  0.00  0.00    -0.077 A 
ATOM      3  C2  UNL d   1      -0.348  -0.198   0.785  0.00  0.00    -0.001 A 
ATOM      4  C3  UNL d   1      -0.289  -1.277   1.669  0.00  0.00     0.003 A 
ATOM      5  C4  UNL d   1       0.312  -2.471   1.277  0.00  0.00    -0.005 A 
ATOM      6  C5  UNL d   1       0.858  -2.588   0.000  0.00  0.00     0.003 A 
ATOM      7  C6  UNL d   1       0.800  -1.510  -0.885  0.00  0.00    -0.001 A 
ENDROOT
TORSDOF 0
ENDMDL
