MODEL 1
REMARK minimizedAffinity -4.47438288
REMARK minimizedRMSD -1
REMARK  0 active torsions:
REMARK  status: ('A' for Active; 'I' for Inactive)
ROOT
ATOM      1  C   UNL d   1       0.758   1.320   0.276  0.00  0.00     0.078 C 
ATOM      2  C1  UNL d   1       0.763   1.338  -1.223  0.00  0.00    -0.077 A 
ATOM      3  C2  UNL d   1       0.039   0.392  -1.958  0.00  0.00    -0.001 A 
ATOM      4  C3  UNL d   1       0.061   0.415  -3.354  0.00  0.00     0.003 A 
ATOM      5  C4  UNL d   1       0.805   1.382  -4.026  0.00  0.00    -0.005 A 
ATOM      6  C5  UNL d   1       1.531   2.327  -3.303  0.00  0.00     0.003 A 
ATOM      7  C6  UNL d   1       1.510   2.305  -1.907  0.00  0.00    -0.001 A 
ENDROOT
TORSDOF 0
ENDMDL
