MODEL 1
REMARK minimizedAffinity -3.2316761
REMARK minimizedRMSD -1
REMARK  0 active torsions:
REMARK  status: ('A' for Active; 'I' for Inactive)
ROOT
ATOM      1  C   UNL d   1       0.776   1.876  -0.445  0.00  0.00     0.078 C 
ATOM      2  C1  UNL d   1       0.816   0.404  -0.163  0.00  0.00    -0.077 A 
ATOM      3  C2  UNL d   1       1.821  -0.150   0.640  0.00  0.00    -0.001 A 
ATOM      4  C3  UNL d   1       1.852  -1.524   0.886  0.00  0.00     0.003 A 
ATOM      5  C4  UNL d   1       0.881  -2.355   0.331  0.00  0.00    -0.005 A 
ATOM      6  C5  UNL d   1      -0.122  -1.814  -0.471  0.00  0.00     0.003 A 
ATOM      7  C6  UNL d   1      -0.154  -0.440  -0.718  0.00  0.00    -0.001 A 
ENDROOT
TORSDOF 0
ENDMDL
