MODEL 1
REMARK minimizedAffinity -3.0531826
REMARK minimizedRMSD -1
REMARK  0 active torsions:
REMARK  status: ('A' for Active; 'I' for Inactive)
ROOT
ATOM      1  C   UNL d   1       0.364  -1.550   0.654  0.00  0.00     0.078 C 
ATOM      2  C1  UNL d   1       0.468  -0.458  -0.368  0.00  0.00    -0.077 A 
ATOM      3  C2  UNL d   1       0.495   0.889   0.016  0.00  0.00    -0.001 A 
ATOM      4  C3  UNL d   1       0.582   1.896  -0.946  0.00  0.00     0.003 A 
ATOM      5  C4  UNL d   1       0.642   1.567  -2.299  0.00  0.00    -0.005 A 
ATOM      6  C5  UNL d   1       0.614   0.230  -2.691  0.00  0.00     0.003 A 
ATOM      7  C6  UNL d   1       0.527  -0.778  -1.730  0.00  0.00    -0.001 A 
ENDROOT
TORSDOF 0
ENDMDL
