MODEL 1
REMARK minimizedAffinity -3.65338302
REMARK minimizedRMSD -1
REMARK  0 active torsions:
REMARK  status: ('A' for Active; 'I' for Inactive)
ROOT
ATOM      1  C   UNL d   1       0.339  -1.306   0.873  0.00  0.00     0.078 C 
ATOM      2  C1  UNL d   1       0.681  -0.370  -0.248  0.00  0.00    -0.077 A 
ATOM      3  C2  UNL d   1       0.667  -0.804  -1.579  0.00  0.00    -0.001 A 
ATOM      4  C3  UNL d   1       0.998   0.075  -2.612  0.00  0.00     0.003 A 
ATOM      5  C4  UNL d   1       1.345   1.393  -2.324  0.00  0.00    -0.005 A 
ATOM      6  C5  UNL d   1       1.364   1.834  -1.003  0.00  0.00     0.003 A 
ATOM      7  C6  UNL d   1       1.034   0.956   0.031  0.00  0.00    -0.001 A 
ENDROOT
TORSDOF 0
ENDMDL
