MODEL 1
REMARK minimizedAffinity -4.47669554
REMARK minimizedRMSD -1
REMARK  0 active torsions:
REMARK  status: ('A' for Active; 'I' for Inactive)
ROOT
ATOM      1  C   UNL d   1      -0.333  -2.741   1.247  0.00  0.00     0.078 C 
ATOM      2  C1  UNL d   1       0.027  -1.472   0.533  0.00  0.00    -0.077 A 
ATOM      3  C2  UNL d   1       1.260  -1.334  -0.116  0.00  0.00    -0.001 A 
ATOM      4  C3  UNL d   1       1.585  -0.143  -0.768  0.00  0.00     0.003 A 
ATOM      5  C4  UNL d   1       0.683   0.919  -0.775  0.00  0.00    -0.005 A 
ATOM      6  C5  UNL d   1      -0.545   0.792  -0.130  0.00  0.00     0.003 A 
ATOM      7  C6  UNL d   1      -0.872  -0.398   0.522  0.00  0.00    -0.001 A 
ENDROOT
TORSDOF 0
ENDMDL
