MODEL 1
REMARK minimizedAffinity -2.7901721
REMARK minimizedRMSD -1
REMARK  0 active torsions:
REMARK  status: ('A' for Active; 'I' for Inactive)
ROOT
ATOM      1  C   UNL d   1       4.539   1.651  -2.376  0.00  0.00     0.078 C 
ATOM      2  C1  UNL d   1       3.042   1.706  -2.332  0.00  0.00    -0.077 A 
ATOM      3  C2  UNL d   1       2.321   2.475  -3.255  0.00  0.00    -0.001 A 
ATOM      4  C3  UNL d   1       0.927   2.524  -3.196  0.00  0.00     0.003 A 
ATOM      5  C4  UNL d   1       0.242   1.809  -2.216  0.00  0.00    -0.005 A 
ATOM      6  C5  UNL d   1       0.951   1.043  -1.292  0.00  0.00     0.003 A 
ATOM      7  C6  UNL d   1       2.344   0.992  -1.350  0.00  0.00    -0.001 A 
ENDROOT
TORSDOF 0
ENDMDL
