MODEL 1
REMARK minimizedAffinity -2.3107841
REMARK minimizedRMSD -1
REMARK  0 active torsions:
REMARK  status: ('A' for Active; 'I' for Inactive)
ROOT
ATOM      1  C   UNL d   1       1.332   1.724  -2.104  0.00  0.00     0.078 C 
ATOM      2  C1  UNL d   1       1.064   0.507  -1.270  0.00  0.00    -0.077 A 
ATOM      3  C2  UNL d   1       0.823   0.613   0.105  0.00  0.00    -0.001 A 
ATOM      4  C3  UNL d   1       0.585  -0.530   0.870  0.00  0.00     0.003 A 
ATOM      5  C4  UNL d   1       0.587  -1.787   0.270  0.00  0.00    -0.005 A 
ATOM      6  C5  UNL d   1       0.829  -1.903  -1.097  0.00  0.00     0.003 A 
ATOM      7  C6  UNL d   1       1.067  -0.761  -1.864  0.00  0.00    -0.001 A 
ENDROOT
TORSDOF 0
ENDMDL
