MODEL 1
REMARK minimizedAffinity -3.474787
REMARK minimizedRMSD -1
REMARK  0 active torsions:
REMARK  status: ('A' for Active; 'I' for Inactive)
ROOT
ATOM      1  C   UNL d   1       0.132  -1.233  -0.491  0.00  0.00     0.124 A 
ATOM      2  C1  UNL d   1       1.499  -1.379  -0.298  0.00  0.00     0.062 A 
ATOM      3  C2  UNL d   1       2.245  -0.335   0.241  0.00  0.00     0.162 A 
ATOM      4  C3  UNL d   1       1.626   0.864   0.592  0.00  0.00    -0.034 A 
ATOM      5  C4  UNL d   1       0.252   1.004   0.394  0.00  0.00     0.162 A 
ATOM      6  C5  UNL d   1      -0.490  -0.042  -0.144  0.00  0.00     0.062 A 
ATOM      7  F   UNL d   1      -1.810   0.101  -0.330  0.00  0.00    -0.097 F 
ATOM      8  F1  UNL d   1      -0.375   2.144   0.721  0.00  0.00    -0.096 F 
ATOM      9  I   UNL d   1       2.739   2.428   1.398  0.00  0.00    -0.060 I 
ATOM     10  F2  UNL d   1       3.565  -0.504   0.416  0.00  0.00    -0.096 F 
ATOM     11  F3  UNL d   1       2.103  -2.529  -0.632  0.00  0.00    -0.097 F 
ATOM     12  F4  UNL d   1      -0.583  -2.239  -1.010  0.00  0.00    -0.092 F 
ENDROOT
TORSDOF 0
ENDMDL
