MODEL 1
REMARK minimizedAffinity 6.11010361
REMARK minimizedRMSD -1
REMARK  0 active torsions:
REMARK  status: ('A' for Active; 'I' for Inactive)
ROOT
ATOM      1  C   UNL d   1       1.670  -1.982  -0.897  0.00  0.00     0.124 A 
ATOM      2  C1  UNL d   1       2.665  -1.065  -0.589  0.00  0.00     0.062 A 
ATOM      3  C2  UNL d   1       2.329   0.230  -0.204  0.00  0.00     0.162 A 
ATOM      4  C3  UNL d   1       0.990   0.615  -0.124  0.00  0.00    -0.034 A 
ATOM      5  C4  UNL d   1      -0.005  -0.313  -0.436  0.00  0.00     0.162 A 
ATOM      6  C5  UNL d   1       0.337  -1.606  -0.821  0.00  0.00     0.062 A 
ATOM      7  F   UNL d   1      -0.626  -2.490  -1.118  0.00  0.00    -0.097 F 
ATOM      8  F1  UNL d   1      -1.301   0.024  -0.370  0.00  0.00    -0.096 F 
ATOM      9  I   UNL d   1       0.483   2.550   0.452  0.00  0.00    -0.060 I 
ATOM     10  F2  UNL d   1       3.311   1.095   0.088  0.00  0.00    -0.096 F 
ATOM     11  F3  UNL d   1       3.954  -1.426  -0.663  0.00  0.00    -0.097 F 
ATOM     12  F4  UNL d   1       1.997  -3.227  -1.269  0.00  0.00    -0.092 F 
ENDROOT
TORSDOF 0
ENDMDL
