MODEL 1
REMARK minimizedAffinity 8.92360497
REMARK minimizedRMSD -1
REMARK  0 active torsions:
REMARK  status: ('A' for Active; 'I' for Inactive)
ROOT
ATOM      1  C   UNL d   1       3.531   1.442  -0.183  0.00  0.00     0.124 A 
ATOM      2  C1  UNL d   1       2.334   1.500   0.518  0.00  0.00     0.062 A 
ATOM      3  C2  UNL d   1       1.398   0.478   0.392  0.00  0.00     0.162 A 
ATOM      4  C3  UNL d   1       1.655  -0.613  -0.438  0.00  0.00    -0.034 A 
ATOM      5  C4  UNL d   1       2.861  -0.665  -1.140  0.00  0.00     0.162 A 
ATOM      6  C5  UNL d   1       3.793   0.359  -1.011  0.00  0.00     0.062 A 
ATOM      7  F   UNL d   1       4.949   0.301  -1.689  0.00  0.00    -0.097 F 
ATOM      8  F1  UNL d   1       3.140  -1.700  -1.947  0.00  0.00    -0.096 F 
ATOM      9  I   UNL d   1       0.258  -2.144  -0.629  0.00  0.00    -0.060 I 
ATOM     10  F2  UNL d   1       0.250   0.561   1.081  0.00  0.00    -0.096 F 
ATOM     11  F3  UNL d   1       2.078   2.546   1.318  0.00  0.00    -0.097 F 
ATOM     12  F4  UNL d   1       4.429   2.427  -0.060  0.00  0.00    -0.092 F 
ENDROOT
TORSDOF 0
ENDMDL
