MODEL 1
REMARK minimizedAffinity 14.4134922
REMARK minimizedRMSD -1
REMARK  0 active torsions:
REMARK  status: ('A' for Active; 'I' for Inactive)
ROOT
ATOM      1  C   UNL d   1       0.526   1.401   3.517  0.00  0.00     0.124 A 
ATOM      2  C1  UNL d   1       1.070   0.172   3.864  0.00  0.00     0.062 A 
ATOM      3  C2  UNL d   1       1.374  -0.762   2.878  0.00  0.00     0.162 A 
ATOM      4  C3  UNL d   1       1.137  -0.471   1.535  0.00  0.00    -0.034 A 
ATOM      5  C4  UNL d   1       0.589   0.767   1.194  0.00  0.00     0.162 A 
ATOM      6  C5  UNL d   1       0.286   1.697   2.183  0.00  0.00     0.062 A 
ATOM      7  F   UNL d   1      -0.239   2.884   1.845  0.00  0.00    -0.097 F 
ATOM      8  F1  UNL d   1       0.348   1.080  -0.088  0.00  0.00    -0.096 F 
ATOM      9  I   UNL d   1       1.592  -1.865   0.058  0.00  0.00    -0.060 I 
ATOM     10  F2  UNL d   1       1.899  -1.942   3.242  0.00  0.00    -0.096 F 
ATOM     11  F3  UNL d   1       1.301  -0.117   5.153  0.00  0.00    -0.097 F 
ATOM     12  F4  UNL d   1       0.233   2.297   4.468  0.00  0.00    -0.092 F 
ENDROOT
TORSDOF 0
ENDMDL
