MODEL 1
REMARK minimizedAffinity 6.36961794
REMARK minimizedRMSD -1
REMARK  0 active torsions:
REMARK  status: ('A' for Active; 'I' for Inactive)
ROOT
ATOM      1  C   UNL d   1       2.273   0.144  -0.376  0.00  0.00     0.124 A 
ATOM      2  C1  UNL d   1       2.750  -1.158  -0.432  0.00  0.00     0.062 A 
ATOM      3  C2  UNL d   1       1.867  -2.232  -0.355  0.00  0.00     0.162 A 
ATOM      4  C3  UNL d   1       0.497  -2.008  -0.223  0.00  0.00    -0.034 A 
ATOM      5  C4  UNL d   1       0.024  -0.695  -0.167  0.00  0.00     0.162 A 
ATOM      6  C5  UNL d   1       0.911   0.374  -0.244  0.00  0.00     0.062 A 
ATOM      7  F   UNL d   1       0.448   1.631  -0.190  0.00  0.00    -0.097 F 
ATOM      8  F1  UNL d   1      -1.287  -0.444  -0.040  0.00  0.00    -0.096 F 
ATOM      9  I   UNL d   1      -0.826  -3.610  -0.107  0.00  0.00    -0.060 I 
ATOM     10  F2  UNL d   1       2.357  -3.479  -0.411  0.00  0.00    -0.096 F 
ATOM     11  F3  UNL d   1       4.066  -1.384  -0.559  0.00  0.00    -0.097 F 
ATOM     12  F4  UNL d   1       3.125   1.174  -0.449  0.00  0.00    -0.092 F 
ENDROOT
TORSDOF 0
ENDMDL
