MODEL 1
REMARK minimizedAffinity 1.41897142
REMARK minimizedRMSD -1
REMARK  0 active torsions:
REMARK  status: ('A' for Active; 'I' for Inactive)
ROOT
ATOM      1  C   UNL d   1       3.014  -1.980  -1.787  0.00  0.00     0.124 A 
ATOM      2  C1  UNL d   1       3.618  -0.740  -1.627  0.00  0.00     0.062 A 
ATOM      3  C2  UNL d   1       3.130   0.160  -0.684  0.00  0.00     0.162 A 
ATOM      4  C3  UNL d   1       2.032  -0.177   0.108  0.00  0.00    -0.034 A 
ATOM      5  C4  UNL d   1       1.430  -1.425  -0.059  0.00  0.00     0.162 A 
ATOM      6  C5  UNL d   1       1.921  -2.321  -1.003  0.00  0.00     0.062 A 
ATOM      7  F   UNL d   1       1.336  -3.518  -1.155  0.00  0.00    -0.097 F 
ATOM      8  F1  UNL d   1       0.372  -1.780   0.686  0.00  0.00    -0.096 F 
ATOM      9  I   UNL d   1       1.300   1.167   1.519  0.00  0.00    -0.060 I 
ATOM     10  F2  UNL d   1       3.733   1.350  -0.552  0.00  0.00    -0.096 F 
ATOM     11  F3  UNL d   1       4.673  -0.408  -2.384  0.00  0.00    -0.097 F 
ATOM     12  F4  UNL d   1       3.484  -2.844  -2.695  0.00  0.00    -0.092 F 
ENDROOT
TORSDOF 0
ENDMDL
