MODEL 1
REMARK minimizedAffinity 12.6735592
REMARK minimizedRMSD -1
REMARK  0 active torsions:
REMARK  status: ('A' for Active; 'I' for Inactive)
ROOT
ATOM      1  C   UNL d   1       1.884   0.969  -0.371  0.00  0.00     0.124 A 
ATOM      2  C1  UNL d   1       2.574  -0.139  -0.842  0.00  0.00     0.062 A 
ATOM      3  C2  UNL d   1       1.904  -1.339  -1.064  0.00  0.00     0.162 A 
ATOM      4  C3  UNL d   1       0.535  -1.437  -0.817  0.00  0.00    -0.034 A 
ATOM      5  C4  UNL d   1      -0.152  -0.318  -0.342  0.00  0.00     0.162 A 
ATOM      6  C5  UNL d   1       0.522   0.878  -0.121  0.00  0.00     0.062 A 
ATOM      7  F   UNL d   1      -0.146   1.948   0.335  0.00  0.00    -0.097 F 
ATOM      8  F1  UNL d   1      -1.469  -0.377  -0.093  0.00  0.00    -0.096 F 
ATOM      9  I   UNL d   1      -0.470  -3.228  -1.148  0.00  0.00    -0.060 I 
ATOM     10  F2  UNL d   1       2.597  -2.393  -1.520  0.00  0.00    -0.096 F 
ATOM     11  F3  UNL d   1       3.891  -0.055  -1.083  0.00  0.00    -0.097 F 
ATOM     12  F4  UNL d   1       2.531   2.121  -0.156  0.00  0.00    -0.092 F 
ENDROOT
TORSDOF 0
ENDMDL
