MODEL 1
REMARK minimizedAffinity 3.57895517
REMARK minimizedRMSD -1
REMARK  0 active torsions:
REMARK  status: ('A' for Active; 'I' for Inactive)
ROOT
ATOM      1  C   UNL d   1      -2.763   0.203   0.642  0.00  0.00     0.124 A 
ATOM      2  C1  UNL d   1      -2.535   1.245   1.531  0.00  0.00     0.062 A 
ATOM      3  C2  UNL d   1      -1.315   1.915   1.526  0.00  0.00     0.162 A 
ATOM      4  C3  UNL d   1      -0.314   1.547   0.628  0.00  0.00    -0.034 A 
ATOM      5  C4  UNL d   1      -0.550   0.497  -0.262  0.00  0.00     0.162 A 
ATOM      6  C5  UNL d   1      -1.770  -0.169  -0.253  0.00  0.00     0.062 A 
ATOM      7  F   UNL d   1      -1.989  -1.176  -1.112  0.00  0.00    -0.097 F 
ATOM      8  F1  UNL d   1       0.392   0.117  -1.139  0.00  0.00    -0.096 F 
ATOM      9  I   UNL d   1       1.512   2.546   0.617  0.00  0.00    -0.060 I 
ATOM     10  F2  UNL d   1      -1.123   2.918   2.396  0.00  0.00    -0.096 F 
ATOM     11  F3  UNL d   1      -3.492   1.606   2.398  0.00  0.00    -0.097 F 
ATOM     12  F4  UNL d   1      -3.937  -0.441   0.650  0.00  0.00    -0.092 F 
ENDROOT
TORSDOF 0
ENDMDL
