MODEL 1
REMARK minimizedAffinity 9.51912689
REMARK minimizedRMSD -1
REMARK  0 active torsions:
REMARK  status: ('A' for Active; 'I' for Inactive)
ROOT
ATOM      1  C   UNL d   1       0.464  -1.710   0.379  0.00  0.00     0.077 C 
ATOM      2  C1  UNL d   1       1.899  -2.143   0.324  0.00  0.00    -0.074 A 
ATOM      3  C2  UNL d   1       2.883  -1.305  -0.212  0.00  0.00    -0.005 A 
ATOM      4  C3  UNL d   1       4.215  -1.717  -0.248  0.00  0.00     0.006 A 
ATOM      5  C4  UNL d   1       4.576  -2.970   0.250  0.00  0.00    -0.005 A 
ATOM      6  C5  UNL d   1       3.607  -3.821   0.791  0.00  0.00    -0.074 A 
ATOM      7  C6  UNL d   1       3.980  -5.166   1.339  0.00  0.00     0.077 C 
ATOM      8  C7  UNL d   1       2.272  -3.396   0.830  0.00  0.00    -0.001 A 
ENDROOT
TORSDOF 0
ENDMDL
