MODEL 1
REMARK minimizedAffinity 9.26033878
REMARK minimizedRMSD -1
REMARK  0 active torsions:
REMARK  status: ('A' for Active; 'I' for Inactive)
ROOT
ATOM      1  C   UNL d   1       3.959   1.554  -5.999  0.00  0.00     0.077 C 
ATOM      2  C1  UNL d   1       4.002   3.053  -5.991  0.00  0.00    -0.074 A 
ATOM      3  C2  UNL d   1       5.222   3.737  -5.998  0.00  0.00    -0.005 A 
ATOM      4  C3  UNL d   1       5.246   5.131  -6.000  0.00  0.00     0.006 A 
ATOM      5  C4  UNL d   1       4.053   5.855  -5.995  0.00  0.00    -0.005 A 
ATOM      6  C5  UNL d   1       2.824   5.188  -5.990  0.00  0.00    -0.074 A 
ATOM      7  C6  UNL d   1       1.532   5.951  -5.995  0.00  0.00     0.077 C 
ATOM      8  C7  UNL d   1       2.808   3.787  -5.995  0.00  0.00    -0.001 A 
ENDROOT
TORSDOF 0
ENDMDL
