MODEL 1
REMARK minimizedAffinity -2.93024755
REMARK minimizedRMSD -1
REMARK  0 active torsions:
REMARK  status: ('A' for Active; 'I' for Inactive)
ROOT
ATOM      1  C   UNL d   1      -1.837   6.000   5.998  0.00  0.00     0.077 C 
ATOM      2  C1  UNL d   1      -0.545   5.772   5.272  0.00  0.00    -0.074 A 
ATOM      3  C2  UNL d   1      -0.536   5.371   3.932  0.00  0.00    -0.005 A 
ATOM      4  C3  UNL d   1       0.674   5.171   3.266  0.00  0.00     0.006 A 
ATOM      5  C4  UNL d   1       1.884   5.370   3.932  0.00  0.00    -0.005 A 
ATOM      6  C5  UNL d   1       1.894   5.772   5.272  0.00  0.00    -0.074 A 
ATOM      7  C6  UNL d   1       3.185   6.000   6.000  0.00  0.00     0.077 C 
ATOM      8  C7  UNL d   1       0.674   5.977   5.932  0.00  0.00    -0.001 A 
ENDROOT
TORSDOF 0
ENDMDL
