MODEL 1
REMARK minimizedAffinity -3.32429504
REMARK minimizedRMSD -1
REMARK  0 active torsions:
REMARK  status: ('A' for Active; 'I' for Inactive)
ROOT
ATOM      1  C   UNL d   1       1.485   1.711  -6.000  0.00  0.00     0.077 C 
ATOM      2  C1  UNL d   1       1.822   3.172  -5.999  0.00  0.00    -0.074 A 
ATOM      3  C2  UNL d   1       0.815   4.142  -5.981  0.00  0.00    -0.005 A 
ATOM      4  C3  UNL d   1       1.144   5.497  -5.971  0.00  0.00     0.006 A 
ATOM      5  C4  UNL d   1       2.481   5.896  -5.979  0.00  0.00    -0.005 A 
ATOM      6  C5  UNL d   1       3.502   4.940  -5.997  0.00  0.00    -0.074 A 
ATOM      7  C6  UNL d   1       4.944   5.352  -5.996  0.00  0.00     0.077 C 
ATOM      8  C7  UNL d   1       3.163   3.580  -5.999  0.00  0.00    -0.001 A 
ENDROOT
TORSDOF 0
ENDMDL
