MODEL 1
REMARK minimizedAffinity 5.55454779
REMARK minimizedRMSD -1
REMARK  0 active torsions:
REMARK  status: ('A' for Active; 'I' for Inactive)
ROOT
ATOM      1  C   UNL d   1       5.123  -2.574   5.605  0.00  0.00     0.077 C 
ATOM      2  C1  UNL d   1       4.790  -3.467   4.447  0.00  0.00    -0.074 A 
ATOM      3  C2  UNL d   1       4.447  -4.808   4.649  0.00  0.00    -0.005 A 
ATOM      4  C3  UNL d   1       4.130  -5.624   3.563  0.00  0.00     0.006 A 
ATOM      5  C4  UNL d   1       4.153  -5.109   2.266  0.00  0.00    -0.005 A 
ATOM      6  C5  UNL d   1       4.493  -3.770   2.045  0.00  0.00    -0.074 A 
ATOM      7  C6  UNL d   1       4.513  -3.198   0.659  0.00  0.00     0.077 C 
ATOM      8  C7  UNL d   1       4.803  -2.955   3.142  0.00  0.00    -0.001 A 
ENDROOT
TORSDOF 0
ENDMDL
