MODEL 1
REMARK minimizedAffinity -1.57245374
REMARK minimizedRMSD -1
REMARK  0 active torsions:
REMARK  status: ('A' for Active; 'I' for Inactive)
ROOT
ATOM      1  C   UNL d   1       5.972   2.460  -5.847  0.00  0.00     0.077 C 
ATOM      2  C1  UNL d   1       4.996   3.598  -5.893  0.00  0.00    -0.074 A 
ATOM      3  C2  UNL d   1       5.439   4.924  -5.926  0.00  0.00    -0.005 A 
ATOM      4  C3  UNL d   1       4.520   5.972  -5.978  0.00  0.00     0.006 A 
ATOM      5  C4  UNL d   1       3.150   5.704  -5.997  0.00  0.00    -0.005 A 
ATOM      6  C5  UNL d   1       2.689   4.384  -5.965  0.00  0.00    -0.074 A 
ATOM      7  C6  UNL d   1       1.220   4.079  -5.995  0.00  0.00     0.077 C 
ATOM      8  C7  UNL d   1       3.619   3.337  -5.920  0.00  0.00    -0.001 A 
ENDROOT
TORSDOF 0
ENDMDL
