MODEL 1
REMARK minimizedAffinity 6.43775034
REMARK minimizedRMSD -1
REMARK  0 active torsions:
REMARK  status: ('A' for Active; 'I' for Inactive)
ROOT
ATOM      1  C   UNL d   1       3.914  -3.093   2.085  0.00  0.00     0.077 C 
ATOM      2  C1  UNL d   1       4.545  -3.242   3.438  0.00  0.00    -0.074 A 
ATOM      3  C2  UNL d   1       5.120  -2.145   4.087  0.00  0.00    -0.005 A 
ATOM      4  C3  UNL d   1       5.695  -2.297   5.349  0.00  0.00     0.006 A 
ATOM      5  C4  UNL d   1       5.701  -3.545   5.973  0.00  0.00    -0.005 A 
ATOM      6  C5  UNL d   1       5.130  -4.653   5.339  0.00  0.00    -0.074 A 
ATOM      7  C6  UNL d   1       5.119  -6.000   6.000  0.00  0.00     0.077 C 
ATOM      8  C7  UNL d   1       4.548  -4.491   4.074  0.00  0.00    -0.001 A 
ENDROOT
TORSDOF 0
ENDMDL
