MODEL 1
REMARK minimizedAffinity -1.11712646
REMARK minimizedRMSD -1
REMARK  0 active torsions:
REMARK  status: ('A' for Active; 'I' for Inactive)
ROOT
ATOM      1  C   UNL d   1       1.327  -1.991   0.824  0.00  0.00     0.077 C 
ATOM      2  C1  UNL d   1       2.515  -2.890   0.999  0.00  0.00    -0.074 A 
ATOM      3  C2  UNL d   1       3.204  -3.394  -0.108  0.00  0.00    -0.005 A 
ATOM      4  C3  UNL d   1       4.313  -4.221   0.071  0.00  0.00     0.006 A 
ATOM      5  C4  UNL d   1       4.743  -4.552   1.357  0.00  0.00    -0.005 A 
ATOM      6  C5  UNL d   1       4.066  -4.057   2.476  0.00  0.00    -0.074 A 
ATOM      7  C6  UNL d   1       4.520  -4.395   3.865  0.00  0.00     0.077 C 
ATOM      8  C7  UNL d   1       2.957  -3.221   2.288  0.00  0.00    -0.001 A 
ENDROOT
TORSDOF 0
ENDMDL
