MODEL 1
REMARK minimizedAffinity 2.70609117
REMARK minimizedRMSD -1
REMARK  0 active torsions:
REMARK  status: ('A' for Active; 'I' for Inactive)
ROOT
ATOM      1  C   UNL d   1       5.954  -2.348   5.968  0.00  0.00     0.077 C 
ATOM      2  C1  UNL d   1       5.525  -3.617   5.293  0.00  0.00    -0.074 A 
ATOM      3  C2  UNL d   1       5.476  -4.825   5.997  0.00  0.00    -0.005 A 
ATOM      4  C3  UNL d   1       5.066  -5.995   5.358  0.00  0.00     0.006 A 
ATOM      5  C4  UNL d   1       4.701  -5.970   4.011  0.00  0.00    -0.005 A 
ATOM      6  C5  UNL d   1       4.743  -4.771   3.292  0.00  0.00    -0.074 A 
ATOM      7  C6  UNL d   1       4.345  -4.725   1.846  0.00  0.00     0.077 C 
ATOM      8  C7  UNL d   1       5.150  -3.598   3.942  0.00  0.00    -0.001 A 
ENDROOT
TORSDOF 0
ENDMDL
