MODEL 1
REMARK minimizedAffinity -2.31633329
REMARK minimizedRMSD -1
REMARK  0 active torsions:
REMARK  status: ('A' for Active; 'I' for Inactive)
ROOT
ATOM      1  C   UNL d   1       1.010   2.034  -5.975  0.00  0.00     0.077 C 
ATOM      2  C1  UNL d   1       2.198   2.949  -5.990  0.00  0.00    -0.074 A 
ATOM      3  C2  UNL d   1       2.036   4.338  -5.995  0.00  0.00    -0.005 A 
ATOM      4  C3  UNL d   1       3.150   5.176  -5.999  0.00  0.00     0.006 A 
ATOM      5  C4  UNL d   1       4.437   4.635  -5.999  0.00  0.00    -0.005 A 
ATOM      6  C5  UNL d   1       4.619   3.249  -5.994  0.00  0.00    -0.074 A 
ATOM      7  C6  UNL d   1       5.994   2.651  -5.984  0.00  0.00     0.077 C 
ATOM      8  C7  UNL d   1       3.494   2.413  -5.983  0.00  0.00    -0.001 A 
ENDROOT
TORSDOF 0
ENDMDL
