MODEL 1
REMARK minimizedAffinity -5.35252857
REMARK minimizedRMSD -1
REMARK  3 active torsions:
REMARK  status: ('A' for Active; 'I' for Inactive)
REMARK    1  A    between atoms: C3'_2  and  C2'_3 
REMARK    2  A    between atoms: C2'_3  and  C1'_4 
REMARK    3  A    between atoms: C1'_4  and  C1_5 
ROOT
ATOM      1  C1  N4B d   1      -0.095  -0.415   0.050  0.00  0.00    -0.075 A 
ATOM      2  C2  N4B d   1      -0.010  -0.433   1.460  0.00  0.00     0.002 A 
ATOM      3  C3  N4B d   1      -0.763   0.440   2.205  0.00  0.00     0.002 A 
ATOM      4  C4  N4B d   1      -1.592   1.350   1.564  0.00  0.00    -0.004 A 
ATOM      5  C5  N4B d   1      -1.688   1.344   0.204  0.00  0.00     0.002 A 
ATOM      6  C6  N4B d   1      -0.939   0.468  -0.557  0.00  0.00     0.002 A 
ENDROOT
BRANCH   1   7
ATOM      7  C1' N4B d   1       0.773  -1.293  -0.809  0.00  0.00     0.057 C 
BRANCH   7   8
ATOM      8  C2' N4B d   1       0.110  -1.473  -2.172  0.00  0.00     0.009 C 
BRANCH   8   9
ATOM      9  C3' N4B d   1       0.089  -2.928  -2.605  0.00  0.00     0.004 C 
ATOM     10  C4' N4B d   1      -0.041  -3.877  -1.451  0.00  0.00     0.003 C 
ENDBRANCH   8   9
ENDBRANCH   7   8
ENDBRANCH   1   7
TORSDOF 3
ENDMDL
