MODEL 1
REMARK minimizedAffinity -3.16527843
REMARK minimizedRMSD -1
REMARK  3 active torsions:
REMARK  status: ('A' for Active; 'I' for Inactive)
REMARK    1  A    between atoms: C3'_2  and  C2'_3 
REMARK    2  A    between atoms: C2'_3  and  C1'_4 
REMARK    3  A    between atoms: C1'_4  and  C1_5 
ROOT
ATOM      1  C1  N4B d   1      -0.198   0.245   0.395  0.00  0.00    -0.075 A 
ATOM      2  C2  N4B d   1      -1.124   1.059  -0.294  0.00  0.00     0.002 A 
ATOM      3  C3  N4B d   1      -2.081   1.753   0.405  0.00  0.00     0.002 A 
ATOM      4  C4  N4B d   1      -2.143   1.635   1.785  0.00  0.00    -0.004 A 
ATOM      5  C5  N4B d   1      -1.229   0.867   2.446  0.00  0.00     0.002 A 
ATOM      6  C6  N4B d   1      -0.259   0.167   1.757  0.00  0.00     0.002 A 
ENDROOT
BRANCH   1   7
ATOM      7  C1' N4B d   1       0.812  -0.599  -0.332  0.00  0.00     0.057 C 
BRANCH   7   8
ATOM      8  C2' N4B d   1       0.207  -1.083  -1.646  0.00  0.00     0.009 C 
BRANCH   8   9
ATOM      9  C3' N4B d   1       0.160  -2.599  -1.726  0.00  0.00     0.004 C 
ATOM     10  C4' N4B d   1      -0.435  -3.095  -3.010  0.00  0.00     0.003 C 
ENDBRANCH   8   9
ENDBRANCH   7   8
ENDBRANCH   1   7
TORSDOF 3
ENDMDL
