MODEL 1
REMARK minimizedAffinity -2.20480156
REMARK minimizedRMSD -1
REMARK  3 active torsions:
REMARK  status: ('A' for Active; 'I' for Inactive)
REMARK    1  A    between atoms: C3'_2  and  C2'_3 
REMARK    2  A    between atoms: C2'_3  and  C1'_4 
REMARK    3  A    between atoms: C1'_4  and  C1_5 
ROOT
ATOM      1  C1  N4B d   1      -0.483  -0.247   0.117  0.00  0.00    -0.075 A 
ATOM      2  C2  N4B d   1      -0.382  -0.225   1.526  0.00  0.00     0.002 A 
ATOM      3  C3  N4B d   1      -0.967   0.791   2.241  0.00  0.00     0.002 A 
ATOM      4  C4  N4B d   1      -1.640   1.802   1.571  0.00  0.00    -0.004 A 
ATOM      5  C5  N4B d   1      -1.755   1.760   0.212  0.00  0.00     0.002 A 
ATOM      6  C6  N4B d   1      -1.175   0.743  -0.519  0.00  0.00     0.002 A 
ENDROOT
BRANCH   1   7
ATOM      7  C1' N4B d   1       0.213  -1.290  -0.713  0.00  0.00     0.057 C 
BRANCH   7   8
ATOM      8  C2' N4B d   1      -0.610  -2.575  -0.695  0.00  0.00     0.009 C 
BRANCH   8   9
ATOM      9  C3' N4B d   1       0.019  -3.665  -1.546  0.00  0.00     0.004 C 
ATOM     10  C4' N4B d   1      -0.153  -3.425  -3.017  0.00  0.00     0.003 C 
ENDBRANCH   8   9
ENDBRANCH   7   8
ENDBRANCH   1   7
TORSDOF 3
ENDMDL
