MODEL 1
REMARK minimizedAffinity -3.41997242
REMARK minimizedRMSD -1
REMARK  3 active torsions:
REMARK  status: ('A' for Active; 'I' for Inactive)
REMARK    1  A    between atoms: C3'_2  and  C2'_3 
REMARK    2  A    between atoms: C2'_3  and  C1'_4 
REMARK    3  A    between atoms: C1'_4  and  C1_5 
ROOT
ATOM      1  C1  N4B d   1      -0.550   0.202   0.779  0.00  0.00    -0.075 A 
ATOM      2  C2  N4B d   1      -1.582   1.084   0.388  0.00  0.00     0.002 A 
ATOM      3  C3  N4B d   1      -1.426   1.869  -0.728  0.00  0.00     0.002 A 
ATOM      4  C4  N4B d   1      -0.247   1.804  -1.454  0.00  0.00    -0.004 A 
ATOM      5  C5  N4B d   1       0.734   0.931  -1.084  0.00  0.00     0.002 A 
ATOM      6  C6  N4B d   1       0.590   0.133   0.032  0.00  0.00     0.002 A 
ENDROOT
BRANCH   1   7
ATOM      7  C1' N4B d   1      -0.639  -0.615   2.039  0.00  0.00     0.057 C 
BRANCH   7   8
ATOM      8  C2' N4B d   1       0.106   0.109   3.157  0.00  0.00     0.009 C 
BRANCH   8   9
ATOM      9  C3' N4B d   1      -0.464   1.493   3.417  0.00  0.00     0.004 C 
ATOM     10  C4' N4B d   1       0.212   2.194   4.557  0.00  0.00     0.003 C 
ENDBRANCH   8   9
ENDBRANCH   7   8
ENDBRANCH   1   7
TORSDOF 3
ENDMDL
