MODEL 1
REMARK minimizedAffinity -5.73229599
REMARK minimizedRMSD -1
REMARK  3 active torsions:
REMARK  status: ('A' for Active; 'I' for Inactive)
REMARK    1  A    between atoms: C3'_2  and  C2'_3 
REMARK    2  A    between atoms: C2'_3  and  C1'_4 
REMARK    3  A    between atoms: C1'_4  and  C1_5 
ROOT
ATOM      1  C1  N4B d   1       0.142   0.271  -0.049  0.00  0.00    -0.075 A 
ATOM      2  C2  N4B d   1       0.201  -0.280   1.250  0.00  0.00     0.002 A 
ATOM      3  C3  N4B d   1      -0.457   0.335   2.287  0.00  0.00     0.002 A 
ATOM      4  C4  N4B d   1      -1.162   1.506   2.054  0.00  0.00    -0.004 A 
ATOM      5  C5  N4B d   1      -1.235   2.018   0.791  0.00  0.00     0.002 A 
ATOM      6  C6  N4B d   1      -0.581   1.409  -0.261  0.00  0.00     0.002 A 
ENDROOT
BRANCH   1   7
ATOM      7  C1' N4B d   1       0.916  -0.317  -1.197  0.00  0.00     0.057 C 
BRANCH   7   8
ATOM      8  C2' N4B d   1       0.758  -1.835  -1.181  0.00  0.00     0.009 C 
BRANCH   8   9
ATOM      9  C3' N4B d   1       0.789  -2.424  -2.581  0.00  0.00     0.004 C 
ATOM     10  C4' N4B d   1       0.616  -3.913  -2.589  0.00  0.00     0.003 C 
ENDBRANCH   8   9
ENDBRANCH   7   8
ENDBRANCH   1   7
TORSDOF 3
ENDMDL
