MODEL 1
REMARK minimizedAffinity -5.52230358
REMARK minimizedRMSD -1
REMARK  3 active torsions:
REMARK  status: ('A' for Active; 'I' for Inactive)
REMARK    1  A    between atoms: C3'_2  and  C2'_3 
REMARK    2  A    between atoms: C2'_3  and  C1'_4 
REMARK    3  A    between atoms: C1'_4  and  C1_5 
ROOT
ATOM      1  C1  N4B d   1       0.315  -0.108   0.377  0.00  0.00    -0.075 A 
ATOM      2  C2  N4B d   1       0.614  -0.309   1.743  0.00  0.00     0.002 A 
ATOM      3  C3  N4B d   1      -0.270   0.107   2.708  0.00  0.00     0.002 A 
ATOM      4  C4  N4B d   1      -1.445   0.741   2.334  0.00  0.00    -0.004 A 
ATOM      5  C5  N4B d   1      -1.739   0.909   1.013  0.00  0.00     0.002 A 
ATOM      6  C6  N4B d   1      -0.861   0.492   0.032  0.00  0.00     0.002 A 
ENDROOT
BRANCH   1   7
ATOM      7  C1' N4B d   1       1.289  -0.468  -0.711  0.00  0.00     0.057 C 
BRANCH   7   8
ATOM      8  C2' N4B d   1       1.252  -1.977  -0.936  0.00  0.00     0.009 C 
BRANCH   8   9
ATOM      9  C3' N4B d   1       0.399  -2.351  -2.136  0.00  0.00     0.004 C 
ATOM     10  C4' N4B d   1      -0.276  -3.681  -1.977  0.00  0.00     0.003 C 
ENDBRANCH   8   9
ENDBRANCH   7   8
ENDBRANCH   1   7
TORSDOF 3
ENDMDL
