MODEL 1
REMARK minimizedAffinity -5.34414768
REMARK minimizedRMSD -1
REMARK  0 active torsions:
REMARK  status: ('A' for Active; 'I' for Inactive)
ROOT
ATOM      1  C1  DEN d   1       1.061   1.232   0.294  0.00  0.00     0.130 A 
ATOM      2  C2  DEN d   1       0.687   0.805  -1.052  0.00  0.00    -0.031 A 
ATOM      3  C3  DEN d   1      -0.292  -0.294  -0.927  0.00  0.00     0.027 A 
ATOM      4  C4  DEN d   1      -1.265  -1.365   1.209  0.00  0.00     0.027 A 
ATOM      5  C5  DEN d   1      -1.240  -1.345   2.586  0.00  0.00    -0.003 A 
ATOM      6  C6  DEN d   1      -0.428  -0.496   3.289  0.00  0.00     0.001 A 
ATOM      7  C7  DEN d   1       0.360   0.402   2.618  0.00  0.00     0.017 A 
ATOM      8  C8  DEN d   1       0.346   0.383   1.230  0.00  0.00    -0.094 A 
ATOM      9  C9  DEN d   1      -0.491  -0.475   0.537  0.00  0.00    -0.072 A 
ENDROOT
TORSDOF 0
ENDMDL
