MODEL 1
REMARK minimizedAffinity -3.85230136
REMARK minimizedRMSD -1
REMARK  0 active torsions:
REMARK  status: ('A' for Active; 'I' for Inactive)
ROOT
ATOM      1  C1  DEN d   1      -1.451  -0.290  -0.584  0.00  0.00     0.130 A 
ATOM      2  C2  DEN d   1      -0.525   0.121  -1.636  0.00  0.00    -0.031 A 
ATOM      3  C3  DEN d   1       0.713   0.603  -0.991  0.00  0.00     0.027 A 
ATOM      4  C4  DEN d   1       1.284   0.748   1.520  0.00  0.00     0.027 A 
ATOM      5  C5  DEN d   1       0.810   0.526   2.794  0.00  0.00    -0.003 A 
ATOM      6  C6  DEN d   1      -0.453   0.052   3.030  0.00  0.00     0.001 A 
ATOM      7  C7  DEN d   1      -1.271  -0.258   1.975  0.00  0.00     0.017 A 
ATOM      8  C8  DEN d   1      -0.802  -0.030   0.688  0.00  0.00    -0.094 A 
ATOM      9  C9  DEN d   1       0.483   0.439   0.470  0.00  0.00    -0.072 A 
ENDROOT
TORSDOF 0
ENDMDL
