MODEL 1
REMARK minimizedAffinity -4.08770514
REMARK minimizedRMSD -1
REMARK  0 active torsions:
REMARK  status: ('A' for Active; 'I' for Inactive)
ROOT
ATOM      1  C1  DEN d   1       1.603   1.238   0.367  0.00  0.00     0.130 A 
ATOM      2  C2  DEN d   1       2.107   1.995   1.510  0.00  0.00    -0.031 A 
ATOM      3  C3  DEN d   1       1.357   1.567   2.708  0.00  0.00     0.027 A 
ATOM      4  C4  DEN d   1      -0.523  -0.188   2.903  0.00  0.00     0.027 A 
ATOM      5  C5  DEN d   1      -1.301  -1.083   2.202  0.00  0.00    -0.003 A 
ATOM      6  C6  DEN d   1      -1.189  -1.242   0.846  0.00  0.00     0.001 A 
ATOM      7  C7  DEN d   1      -0.248  -0.526   0.154  0.00  0.00     0.017 A 
ATOM      8  C8  DEN d   1       0.535   0.384   0.853  0.00  0.00    -0.094 A 
ATOM      9  C9  DEN d   1       0.415   0.521   2.226  0.00  0.00    -0.072 A 
ENDROOT
TORSDOF 0
ENDMDL
