MODEL 1
REMARK minimizedAffinity -4.43544531
REMARK minimizedRMSD -1
REMARK  0 active torsions:
REMARK  status: ('A' for Active; 'I' for Inactive)
ROOT
ATOM      1  C1  DEN d   1       3.531  -1.210  -4.408  0.00  0.00     0.130 A 
ATOM      2  C2  DEN d   1       4.169   0.085  -4.188  0.00  0.00    -0.031 A 
ATOM      3  C3  DEN d   1       3.218   0.944  -3.454  0.00  0.00     0.027 A 
ATOM      4  C4  DEN d   1       0.834   0.395  -2.637  0.00  0.00     0.027 A 
ATOM      5  C5  DEN d   1      -0.145  -0.573  -2.599  0.00  0.00    -0.003 A 
ATOM      6  C6  DEN d   1       0.019  -1.800  -3.186  0.00  0.00     0.001 A 
ATOM      7  C7  DEN d   1       1.205  -2.107  -3.798  0.00  0.00     0.017 A 
ATOM      8  C8  DEN d   1       2.194  -1.133  -3.847  0.00  0.00    -0.094 A 
ATOM      9  C9  DEN d   1       2.014   0.097  -3.236  0.00  0.00    -0.072 A 
ENDROOT
TORSDOF 0
ENDMDL
