MODEL 1
REMARK minimizedAffinity -5.04049206
REMARK minimizedRMSD -1
REMARK  0 active torsions:
REMARK  status: ('A' for Active; 'I' for Inactive)
ROOT
ATOM      1  C1  DEN d   1      -1.605  -0.561   1.897  0.00  0.00     0.130 A 
ATOM      2  C2  DEN d   1      -0.958  -0.317   3.184  0.00  0.00    -0.031 A 
ATOM      3  C3  DEN d   1       0.424   0.133   2.922  0.00  0.00     0.027 A 
ATOM      4  C4  DEN d   1       1.617   0.477   0.662  0.00  0.00     0.027 A 
ATOM      5  C5  DEN d   1       1.479   0.387  -0.706  0.00  0.00    -0.003 A 
ATOM      6  C6  DEN d   1       0.325  -0.054  -1.296  0.00  0.00     0.001 A 
ATOM      7  C7  DEN d   1      -0.754  -0.379  -0.517  0.00  0.00     0.017 A 
ATOM      8  C8  DEN d   1      -0.620  -0.298   0.863  0.00  0.00    -0.094 A 
ATOM      9  C9  DEN d   1       0.551   0.162   1.440  0.00  0.00    -0.072 A 
ENDROOT
TORSDOF 0
ENDMDL
