MODEL 1
REMARK minimizedAffinity -5.29394722
REMARK minimizedRMSD -1
REMARK  0 active torsions:
REMARK  status: ('A' for Active; 'I' for Inactive)
ROOT
ATOM      1  C1  DEN d   1       0.747   0.776  -1.261  0.00  0.00     0.130 A 
ATOM      2  C2  DEN d   1      -0.441   0.993  -2.082  0.00  0.00    -0.031 A 
ATOM      3  C3  DEN d   1      -1.622   0.593  -1.291  0.00  0.00     0.027 A 
ATOM      4  C4  DEN d   1      -1.726  -0.332   1.114  0.00  0.00     0.027 A 
ATOM      5  C5  DEN d   1      -0.976  -0.701   2.208  0.00  0.00    -0.003 A 
ATOM      6  C6  DEN d   1       0.393  -0.637   2.211  0.00  0.00     0.001 A 
ATOM      7  C7  DEN d   1       1.051  -0.150   1.112  0.00  0.00     0.017 A 
ATOM      8  C8  DEN d   1       0.301   0.217   0.003  0.00  0.00    -0.094 A 
ATOM      9  C9  DEN d   1      -1.082   0.157   0.025  0.00  0.00    -0.072 A 
ENDROOT
TORSDOF 0
ENDMDL
