MODEL 1
REMARK minimizedAffinity -4.56088161
REMARK minimizedRMSD -1
REMARK  0 active torsions:
REMARK  status: ('A' for Active; 'I' for Inactive)
ROOT
ATOM      1  C1  DEN d   1      -0.064  -0.565   2.712  0.00  0.00     0.130 A 
ATOM      2  C2  DEN d   1      -1.427  -1.050   2.513  0.00  0.00    -0.031 A 
ATOM      3  C3  DEN d   1      -1.822  -0.746   1.123  0.00  0.00     0.027 A 
ATOM      4  C4  DEN d   1      -0.460   0.419  -0.733  0.00  0.00     0.027 A 
ATOM      5  C5  DEN d   1       0.742   1.018  -1.034  0.00  0.00    -0.003 A 
ATOM      6  C6  DEN d   1       1.740   1.162  -0.106  0.00  0.00     0.001 A 
ATOM      7  C7  DEN d   1       1.569   0.659   1.157  0.00  0.00     0.017 A 
ATOM      8  C8  DEN d   1       0.356   0.059   1.470  0.00  0.00    -0.094 A 
ATOM      9  C9  DEN d   1      -0.635  -0.087   0.515  0.00  0.00    -0.072 A 
ENDROOT
TORSDOF 0
ENDMDL
