MODEL 1
REMARK minimizedAffinity -3.96450567
REMARK minimizedRMSD -1
REMARK  0 active torsions:
REMARK  status: ('A' for Active; 'I' for Inactive)
ROOT
ATOM      1  C1  DEN d   1      -1.122  -0.002  -0.574  0.00  0.00     0.130 A 
ATOM      2  C2  DEN d   1      -0.028   0.214  -1.517  0.00  0.00    -0.031 A 
ATOM      3  C3  DEN d   1       1.228   0.305  -0.745  0.00  0.00     0.027 A 
ATOM      4  C4  DEN d   1       1.583   0.129   1.803  0.00  0.00     0.027 A 
ATOM      5  C5  DEN d   1       0.952  -0.040   3.016  0.00  0.00    -0.003 A 
ATOM      6  C6  DEN d   1      -0.407  -0.174   3.119  0.00  0.00     0.001 A 
ATOM      7  C7  DEN d   1      -1.176  -0.185   1.985  0.00  0.00     0.017 A 
ATOM      8  C8  DEN d   1      -0.547  -0.007   0.759  0.00  0.00    -0.094 A 
ATOM      9  C9  DEN d   1       0.829   0.114   0.675  0.00  0.00    -0.072 A 
ENDROOT
TORSDOF 0
ENDMDL
