MODEL 1
REMARK minimizedAffinity -4.9202261
REMARK minimizedRMSD -1
REMARK  0 active torsions:
REMARK  status: ('A' for Active; 'I' for Inactive)
ROOT
ATOM      1  C1  DEN d   1      -1.209  -0.794   2.059  0.00  0.00     0.130 A 
ATOM      2  C2  DEN d   1      -0.470  -0.588   3.301  0.00  0.00    -0.031 A 
ATOM      3  C3  DEN d   1       0.823   0.041   2.964  0.00  0.00     0.027 A 
ATOM      4  C4  DEN d   1       1.745   0.715   0.651  0.00  0.00     0.027 A 
ATOM      5  C5  DEN d   1       1.484   0.728  -0.701  0.00  0.00    -0.003 A 
ATOM      6  C6  DEN d   1       0.331   0.207  -1.227  0.00  0.00     0.001 A 
ATOM      7  C7  DEN d   1      -0.624  -0.308  -0.391  0.00  0.00     0.017 A 
ATOM      8  C8  DEN d   1      -0.365  -0.330   0.973  0.00  0.00    -0.094 A 
ATOM      9  C9  DEN d   1       0.801   0.212   1.486  0.00  0.00    -0.072 A 
ENDROOT
TORSDOF 0
ENDMDL
