MODEL 1
REMARK minimizedAffinity -3.84394312
REMARK minimizedRMSD -1
REMARK  0 active torsions:
REMARK  status: ('A' for Active; 'I' for Inactive)
ROOT
ATOM      1  C1  DEN d   1      -0.717  -0.378  -0.530  0.00  0.00     0.130 A 
ATOM      2  C2  DEN d   1       0.414  -0.289  -1.450  0.00  0.00    -0.031 A 
ATOM      3  C3  DEN d   1       1.637  -0.075  -0.651  0.00  0.00     0.027 A 
ATOM      4  C4  DEN d   1       1.889   0.122   1.908  0.00  0.00     0.027 A 
ATOM      5  C5  DEN d   1       1.210   0.122   3.106  0.00  0.00    -0.003 A 
ATOM      6  C6  DEN d   1      -0.152  -0.009   3.174  0.00  0.00     0.001 A 
ATOM      7  C7  DEN d   1      -0.874  -0.192   2.024  0.00  0.00     0.017 A 
ATOM      8  C8  DEN d   1      -0.197  -0.186   0.812  0.00  0.00    -0.094 A 
ATOM      9  C9  DEN d   1       1.182  -0.064   0.765  0.00  0.00    -0.072 A 
ENDROOT
TORSDOF 0
ENDMDL
