MODEL 1
REMARK minimizedAffinity -2.90383625
REMARK minimizedRMSD -1
REMARK  0 active torsions:
REMARK  status: ('A' for Active; 'I' for Inactive)
ROOT
ATOM      1  C1  DEN d   1       0.383   0.903  -0.780  0.00  0.00     0.130 A 
ATOM      2  C2  DEN d   1       0.508  -0.333  -1.546  0.00  0.00    -0.031 A 
ATOM      3  C3  DEN d   1       0.432  -1.466  -0.602  0.00  0.00     0.027 A 
ATOM      4  C4  DEN d   1       0.129  -1.425   1.959  0.00  0.00     0.027 A 
ATOM      5  C5  DEN d   1      -0.012  -0.609   3.060  0.00  0.00    -0.003 A 
ATOM      6  C6  DEN d   1       0.003   0.757   2.963  0.00  0.00     0.001 A 
ATOM      7  C7  DEN d   1       0.117   1.349   1.733  0.00  0.00     0.017 A 
ATOM      8  C8  DEN d   1       0.266   0.533   0.619  0.00  0.00    -0.094 A 
ATOM      9  C9  DEN d   1       0.237  -0.846   0.737  0.00  0.00    -0.072 A 
ENDROOT
TORSDOF 0
ENDMDL
