MODEL 1
REMARK minimizedAffinity -1.99345756
REMARK minimizedRMSD -1
REMARK  0 active torsions:
REMARK  status: ('A' for Active; 'I' for Inactive)
ROOT
ATOM      1  C1  DEN d   1      -2.070   0.028   2.521  0.00  0.00     0.130 A 
ATOM      2  C2  DEN d   1      -1.353   0.245   3.775  0.00  0.00    -0.031 A 
ATOM      3  C3  DEN d   1       0.076   0.437   3.456  0.00  0.00     0.027 A 
ATOM      4  C4  DEN d   1       1.241   0.426   1.155  0.00  0.00     0.027 A 
ATOM      5  C5  DEN d   1       1.049   0.270  -0.200  0.00  0.00    -0.003 A 
ATOM      6  C6  DEN d   1      -0.180  -0.009  -0.735  0.00  0.00     0.001 A 
ATOM      7  C7  DEN d   1      -1.274  -0.096   0.085  0.00  0.00     0.017 A 
ATOM      8  C8  DEN d   1      -1.087   0.053   1.453  0.00  0.00    -0.094 A 
ATOM      9  C9  DEN d   1       0.162   0.346   1.974  0.00  0.00    -0.072 A 
ENDROOT
TORSDOF 0
ENDMDL
