MODEL 1
REMARK minimizedAffinity -6.55720854
REMARK minimizedRMSD -1
REMARK  0 active torsions:
REMARK  status: ('A' for Active; 'I' for Inactive)
ROOT
ATOM      1  C1  DEN d   1       0.086   0.236  -0.551  0.00  0.00     0.130 A 
ATOM      2  C2  DEN d   1       1.522   0.157  -0.296  0.00  0.00    -0.031 A 
ATOM      3  C3  DEN d   1       1.720   0.022   1.161  0.00  0.00     0.027 A 
ATOM      4  C4  DEN d   1      -0.047  -0.076   3.037  0.00  0.00     0.027 A 
ATOM      5  C5  DEN d   1      -1.396  -0.035   3.312  0.00  0.00    -0.003 A 
ATOM      6  C6  DEN d   1      -2.336   0.132   2.330  0.00  0.00     0.001 A 
ATOM      7  C7  DEN d   1      -1.942   0.219   1.021  0.00  0.00     0.017 A 
ATOM      8  C8  DEN d   1      -0.583   0.186   0.737  0.00  0.00    -0.094 A 
ATOM      9  C9  DEN d   1       0.351   0.004   1.742  0.00  0.00    -0.072 A 
ENDROOT
TORSDOF 0
ENDMDL
