MODEL 1
REMARK minimizedAffinity 4.36383009
REMARK minimizedRMSD -1
REMARK  1 active torsions:
REMARK  status: ('A' for Active; 'I' for Inactive)
REMARK    1  A    between atoms: N_2  and  C1_3 
ROOT
ATOM      1  C1  UNL d   1       3.654  -3.504  -0.434  0.00  0.00     0.143 A 
ATOM      2  C2  UNL d   1       2.444  -3.779   0.212  0.00  0.00    -0.057 A 
ATOM      3  C3  UNL d   1       1.805  -5.016   0.060  0.00  0.00     0.033 A 
ATOM      4  C4  UNL d   1       2.352  -5.991  -0.767  0.00  0.00    -0.042 A 
ATOM      5  C5  UNL d   1       3.542  -5.730  -1.439  0.00  0.00     0.033 A 
ATOM      6  C6  UNL d   1       4.179  -4.496  -1.277  0.00  0.00    -0.057 A 
ENDROOT
BRANCH   1   7
ATOM      7  N   UNL d   1       4.288  -2.259  -0.401  0.00  0.00    -0.732 N 
ATOM      8  C   UNL d   1       5.180  -1.915   0.686  0.00  0.00     0.284 C 
ATOM      9  H3  UNL d   1       4.617  -1.966  -1.318  0.00  0.00     0.395 HD
ENDBRANCH   1   7
TORSDOF 1
ENDMDL
