MODEL 1
REMARK minimizedAffinity 8.02917004
REMARK minimizedRMSD -1
REMARK  1 active torsions:
REMARK  status: ('A' for Active; 'I' for Inactive)
REMARK    1  A    between atoms: N_2  and  C1_3 
ROOT
ATOM      1  C1  UNL d   1       0.505   0.247   3.592  0.00  0.00     0.143 A 
ATOM      2  C2  UNL d   1      -0.818   0.684   3.469  0.00  0.00    -0.057 A 
ATOM      3  C3  UNL d   1      -1.182   1.634   2.507  0.00  0.00     0.033 A 
ATOM      4  C4  UNL d   1      -0.221   2.187   1.668  0.00  0.00    -0.042 A 
ATOM      5  C5  UNL d   1       1.105   1.786   1.789  0.00  0.00     0.033 A 
ATOM      6  C6  UNL d   1       1.461   0.832   2.747  0.00  0.00    -0.057 A 
ENDROOT
BRANCH   1   7
ATOM      7  N   UNL d   1       0.948  -0.622   4.593  0.00  0.00    -0.732 N 
ATOM      8  C   UNL d   1       1.800  -1.746   4.270  0.00  0.00     0.284 C 
ATOM      9  H3  UNL d   1       1.212  -0.131   5.444  0.00  0.00     0.395 HD
ENDBRANCH   1   7
TORSDOF 1
ENDMDL
