MODEL 1
REMARK minimizedAffinity 10.7799597
REMARK minimizedRMSD -1
REMARK  1 active torsions:
REMARK  status: ('A' for Active; 'I' for Inactive)
REMARK    1  A    between atoms: N_2  and  C1_3 
ROOT
ATOM      1  C1  UNL d   1       5.221  -3.858  -1.778  0.00  0.00     0.143 A 
ATOM      2  C2  UNL d   1       5.076  -4.893  -0.849  0.00  0.00    -0.057 A 
ATOM      3  C3  UNL d   1       4.201  -5.962  -1.083  0.00  0.00     0.033 A 
ATOM      4  C4  UNL d   1       3.433  -5.998  -2.241  0.00  0.00    -0.042 A 
ATOM      5  C5  UNL d   1       3.542  -4.967  -3.168  0.00  0.00     0.033 A 
ATOM      6  C6  UNL d   1       4.422  -3.906  -2.931  0.00  0.00    -0.057 A 
ENDROOT
BRANCH   1   7
ATOM      7  N   UNL d   1       5.999  -2.719  -1.558  0.00  0.00    -0.732 N 
ATOM      8  C   UNL d   1       5.382  -1.464  -1.187  0.00  0.00     0.284 C 
ATOM      9  H3  UNL d   1       6.856  -2.927  -1.051  0.00  0.00     0.395 HD
ENDBRANCH   1   7
TORSDOF 1
ENDMDL
