MODEL 1
REMARK minimizedAffinity 14.7860975
REMARK minimizedRMSD -1
REMARK  1 active torsions:
REMARK  status: ('A' for Active; 'I' for Inactive)
REMARK    1  A    between atoms: N_2  and  C1_3 
ROOT
ATOM      1  C1  UNL d   1      -0.240   3.213   1.321  0.00  0.00     0.143 A 
ATOM      2  C2  UNL d   1      -1.224   3.781   0.504  0.00  0.00    -0.057 A 
ATOM      3  C3  UNL d   1      -0.902   4.745  -0.458  0.00  0.00     0.033 A 
ATOM      4  C4  UNL d   1       0.411   5.181  -0.602  0.00  0.00    -0.042 A 
ATOM      5  C5  UNL d   1       1.402   4.649   0.216  0.00  0.00     0.033 A 
ATOM      6  C6  UNL d   1       1.075   3.682   1.171  0.00  0.00    -0.057 A 
ENDROOT
BRANCH   1   7
ATOM      7  N   UNL d   1      -0.512   2.323   2.363  0.00  0.00    -0.732 N 
ATOM      8  C   UNL d   1      -1.773   2.380   3.070  0.00  0.00     0.284 C 
ATOM      9  H3  UNL d   1      -0.191   1.379   2.161  0.00  0.00     0.395 HD
ENDBRANCH   1   7
TORSDOF 1
ENDMDL
