MODEL 1
REMARK minimizedAffinity 6.5993247
REMARK minimizedRMSD -1
REMARK  1 active torsions:
REMARK  status: ('A' for Active; 'I' for Inactive)
REMARK    1  A    between atoms: N_2  and  C1_3 
ROOT
ATOM      1  C1  UNL d   1       5.035  -4.268  -0.362  0.00  0.00     0.143 A 
ATOM      2  C2  UNL d   1       4.063  -3.481   0.265  0.00  0.00    -0.057 A 
ATOM      3  C3  UNL d   1       3.957  -2.111  -0.001  0.00  0.00     0.033 A 
ATOM      4  C4  UNL d   1       4.843  -1.496  -0.879  0.00  0.00    -0.042 A 
ATOM      5  C5  UNL d   1       5.833  -2.253  -1.494  0.00  0.00     0.033 A 
ATOM      6  C6  UNL d   1       5.930  -3.623  -1.230  0.00  0.00    -0.057 A 
ENDROOT
BRANCH   1   7
ATOM      7  N   UNL d   1       5.255  -5.616  -0.065  0.00  0.00    -0.732 N 
ATOM      8  C   UNL d   1       5.999  -5.999   1.115  0.00  0.00     0.284 C 
ATOM      9  H3  UNL d   1       4.436  -6.192  -0.246  0.00  0.00     0.395 HD
ENDBRANCH   1   7
TORSDOF 1
ENDMDL
