MODEL 1
REMARK minimizedAffinity -4.25946617
REMARK minimizedRMSD -1
REMARK  3 active torsions:
REMARK  status: ('A' for Active; 'I' for Inactive)
REMARK    1  A    between atoms: C3'_2  and  C2'_3 
REMARK    2  A    between atoms: C2'_3  and  C1'_4 
REMARK    3  A    between atoms: C1'_4  and  C1_5 
ROOT
ATOM      1  C1  N4B d   1      -1.343   0.056   1.157  0.00  0.00    -0.075 A 
ATOM      2  C2  N4B d   1      -1.599   0.831   2.309  0.00  0.00     0.002 A 
ATOM      3  C3  N4B d   1      -2.882   0.949   2.786  0.00  0.00     0.002 A 
ATOM      4  C4  N4B d   1      -3.922   0.319   2.120  0.00  0.00    -0.004 A 
ATOM      5  C5  N4B d   1      -3.663  -0.449   1.023  0.00  0.00     0.002 A 
ATOM      6  C6  N4B d   1      -2.378  -0.580   0.535  0.00  0.00     0.002 A 
ENDROOT
BRANCH   1   7
ATOM      7  C1' N4B d   1       0.029  -0.033   0.549  0.00  0.00     0.057 C 
BRANCH   7   8
ATOM      8  C2' N4B d   1       0.647   1.361   0.501  0.00  0.00     0.009 C 
BRANCH   8   9
ATOM      9  C3' N4B d   1       1.001   1.778  -0.917  0.00  0.00     0.004 C 
ATOM     10  C4' N4B d   1       1.965   0.836  -1.575  0.00  0.00     0.003 C 
ENDBRANCH   8   9
ENDBRANCH   7   8
ENDBRANCH   1   7
TORSDOF 3
ENDMDL
