MODEL 1
REMARK minimizedAffinity -3.35997701
REMARK minimizedRMSD -1
REMARK  3 active torsions:
REMARK  status: ('A' for Active; 'I' for Inactive)
REMARK    1  A    between atoms: C3'_2  and  C2'_3 
REMARK    2  A    between atoms: C2'_3  and  C1'_4 
REMARK    3  A    between atoms: C1'_4  and  C1_5 
ROOT
ATOM      1  C1  N4B d   1      -0.290   0.095   0.187  0.00  0.00    -0.075 A 
ATOM      2  C2  N4B d   1       0.058  -1.235  -0.139  0.00  0.00     0.002 A 
ATOM      3  C3  N4B d   1       1.097  -1.480  -1.003  0.00  0.00     0.002 A 
ATOM      4  C4  N4B d   1       1.788  -0.417  -1.564  0.00  0.00    -0.004 A 
ATOM      5  C5  N4B d   1       1.462   0.864  -1.224  0.00  0.00     0.002 A 
ATOM      6  C6  N4B d   1       0.423   1.125  -0.355  0.00  0.00     0.002 A 
ENDROOT
BRANCH   1   7
ATOM      7  C1' N4B d   1      -1.473   0.415   1.059  0.00  0.00     0.057 C 
BRANCH   7   8
ATOM      8  C2' N4B d   1      -2.727  -0.204   0.448  0.00  0.00     0.009 C 
BRANCH   8   9
ATOM      9  C3' N4B d   1      -3.996   0.348   1.075  0.00  0.00     0.004 C 
ATOM     10  C4' N4B d   1      -3.792   1.690   1.713  0.00  0.00     0.003 C 
ENDBRANCH   8   9
ENDBRANCH   7   8
ENDBRANCH   1   7
TORSDOF 3
ENDMDL
