MODEL 1
REMARK minimizedAffinity -2.48890924
REMARK minimizedRMSD -1
REMARK  3 active torsions:
REMARK  status: ('A' for Active; 'I' for Inactive)
REMARK    1  A    between atoms: C3'_2  and  C2'_3 
REMARK    2  A    between atoms: C2'_3  and  C1'_4 
REMARK    3  A    between atoms: C1'_4  and  C1_5 
ROOT
ATOM      1  C1  N4B d   1      -4.127   3.189  -5.854  0.00  0.00    -0.075 A 
ATOM      2  C2  N4B d   1      -5.518   3.428  -5.910  0.00  0.00     0.002 A 
ATOM      3  C3  N4B d   1      -5.991   4.714  -5.988  0.00  0.00     0.002 A 
ATOM      4  C4  N4B d   1      -5.098   5.775  -5.992  0.00  0.00    -0.004 A 
ATOM      5  C5  N4B d   1      -3.755   5.535  -5.963  0.00  0.00     0.002 A 
ATOM      6  C6  N4B d   1      -3.265   4.247  -5.889  0.00  0.00     0.002 A 
ENDROOT
BRANCH   1   7
ATOM      7  C1' N4B d   1      -3.565   1.805  -5.681  0.00  0.00     0.057 C 
BRANCH   7   8
ATOM      8  C2' N4B d   1      -4.652   0.781  -5.993  0.00  0.00     0.009 C 
BRANCH   8   9
ATOM      9  C3' N4B d   1      -4.112  -0.639  -5.993  0.00  0.00     0.004 C 
ATOM     10  C4' N4B d   1      -3.406  -0.992  -4.718  0.00  0.00     0.003 C 
ENDBRANCH   8   9
ENDBRANCH   7   8
ENDBRANCH   1   7
TORSDOF 3
ENDMDL
