MODEL 1
REMARK minimizedAffinity -5.89100075
REMARK minimizedRMSD -1
REMARK  3 active torsions:
REMARK  status: ('A' for Active; 'I' for Inactive)
REMARK    1  A    between atoms: C3'_2  and  C2'_3 
REMARK    2  A    between atoms: C2'_3  and  C1'_4 
REMARK    3  A    between atoms: C1'_4  and  C1_5 
ROOT
ATOM      1  C1  N4B d   1       0.091  -0.054   0.196  0.00  0.00    -0.075 A 
ATOM      2  C2  N4B d   1       0.964   1.000   0.546  0.00  0.00     0.002 A 
ATOM      3  C3  N4B d   1       1.737   1.600  -0.417  0.00  0.00     0.002 A 
ATOM      4  C4  N4B d   1       1.669   1.152  -1.728  0.00  0.00    -0.004 A 
ATOM      5  C5  N4B d   1       0.805   0.151  -2.063  0.00  0.00     0.002 A 
ATOM      6  C6  N4B d   1       0.019  -0.459  -1.105  0.00  0.00     0.002 A 
ENDROOT
BRANCH   1   7
ATOM      7  C1' N4B d   1      -0.710  -0.798   1.230  0.00  0.00     0.057 C 
BRANCH   7   8
ATOM      8  C2' N4B d   1      -1.673   0.171   1.910  0.00  0.00     0.009 C 
BRANCH   8   9
ATOM      9  C3' N4B d   1      -3.104  -0.027   1.441  0.00  0.00     0.004 C 
ATOM     10  C4' N4B d   1      -3.818   1.268   1.192  0.00  0.00     0.003 C 
ENDBRANCH   8   9
ENDBRANCH   7   8
ENDBRANCH   1   7
TORSDOF 3
ENDMDL
