MODEL 1
REMARK minimizedAffinity -2.84943986
REMARK minimizedRMSD -1
REMARK  3 active torsions:
REMARK  status: ('A' for Active; 'I' for Inactive)
REMARK    1  A    between atoms: C3'_2  and  C2'_3 
REMARK    2  A    between atoms: C2'_3  and  C1'_4 
REMARK    3  A    between atoms: C1'_4  and  C1_5 
ROOT
ATOM      1  C1  N4B d   1      -0.556  -0.137   0.666  0.00  0.00    -0.075 A 
ATOM      2  C2  N4B d   1      -0.271  -1.264  -0.136  0.00  0.00     0.002 A 
ATOM      3  C3  N4B d   1       0.585  -1.148  -1.204  0.00  0.00     0.002 A 
ATOM      4  C4  N4B d   1       1.149   0.084  -1.500  0.00  0.00    -0.004 A 
ATOM      5  C5  N4B d   1       0.888   1.161  -0.705  0.00  0.00     0.002 A 
ATOM      6  C6  N4B d   1       0.033   1.058   0.374  0.00  0.00     0.002 A 
ENDROOT
BRANCH   1   7
ATOM      7  C1' N4B d   1      -1.552  -0.196   1.792  0.00  0.00     0.057 C 
BRANCH   7   8
ATOM      8  C2' N4B d   1      -2.823  -0.884   1.301  0.00  0.00     0.009 C 
BRANCH   8   9
ATOM      9  C3' N4B d   1      -4.049  -0.005   1.477  0.00  0.00     0.004 C 
ATOM     10  C4' N4B d   1      -3.704   1.443   1.664  0.00  0.00     0.003 C 
ENDBRANCH   8   9
ENDBRANCH   7   8
ENDBRANCH   1   7
TORSDOF 3
ENDMDL
