MODEL 1
REMARK minimizedAffinity -0.854800344
REMARK minimizedRMSD -1
REMARK  3 active torsions:
REMARK  status: ('A' for Active; 'I' for Inactive)
REMARK    1  A    between atoms: C3'_2  and  C2'_3 
REMARK    2  A    between atoms: C2'_3  and  C1'_4 
REMARK    3  A    between atoms: C1'_4  and  C1_5 
ROOT
ATOM      1  C1  N4B d   1       0.611   0.247   0.242  0.00  0.00    -0.075 A 
ATOM      2  C2  N4B d   1       0.755  -1.135  -0.013  0.00  0.00     0.002 A 
ATOM      3  C3  N4B d   1       1.657  -1.568  -0.954  0.00  0.00     0.002 A 
ATOM      4  C4  N4B d   1       2.408  -0.642  -1.663  0.00  0.00    -0.004 A 
ATOM      5  C5  N4B d   1       2.281   0.689  -1.392  0.00  0.00     0.002 A 
ATOM      6  C6  N4B d   1       1.382   1.139  -0.446  0.00  0.00     0.002 A 
ENDROOT
BRANCH   1   7
ATOM      7  C1' N4B d   1      -0.422   0.773   1.200  0.00  0.00     0.057 C 
BRANCH   7   8
ATOM      8  C2' N4B d   1      -1.811   0.381   0.705  0.00  0.00     0.009 C 
BRANCH   8   9
ATOM      9  C3' N4B d   1      -2.897   0.766   1.694  0.00  0.00     0.004 C 
ATOM     10  C4' N4B d   1      -4.173   0.007   1.481  0.00  0.00     0.003 C 
ENDBRANCH   8   9
ENDBRANCH   7   8
ENDBRANCH   1   7
TORSDOF 3
ENDMDL
