MODEL 1
REMARK minimizedAffinity -3.23222399
REMARK minimizedRMSD -1
REMARK  3 active torsions:
REMARK  status: ('A' for Active; 'I' for Inactive)
REMARK    1  A    between atoms: C3'_2  and  C2'_3 
REMARK    2  A    between atoms: C2'_3  and  C1'_4 
REMARK    3  A    between atoms: C1'_4  and  C1_5 
ROOT
ATOM      1  C1  N4B d   1      -0.300   0.023   0.782  0.00  0.00    -0.075 A 
ATOM      2  C2  N4B d   1       0.179  -1.281   0.527  0.00  0.00     0.002 A 
ATOM      3  C3  N4B d   1       1.313  -1.460  -0.227  0.00  0.00     0.002 A 
ATOM      4  C4  N4B d   1       1.971  -0.357  -0.750  0.00  0.00    -0.004 A 
ATOM      5  C5  N4B d   1       1.516   0.900  -0.478  0.00  0.00     0.002 A 
ATOM      6  C6  N4B d   1       0.380   1.096   0.282  0.00  0.00     0.002 A 
ENDROOT
BRANCH   1   7
ATOM      7  C1' N4B d   1      -1.583   0.266   1.528  0.00  0.00     0.057 C 
BRANCH   7   8
ATOM      8  C2' N4B d   1      -2.716  -0.486   0.836  0.00  0.00     0.009 C 
BRANCH   8   9
ATOM      9  C3' N4B d   1      -4.081  -0.016   1.306  0.00  0.00     0.004 C 
ATOM     10  C4' N4B d   1      -4.082   1.416   1.749  0.00  0.00     0.003 C 
ENDBRANCH   8   9
ENDBRANCH   7   8
ENDBRANCH   1   7
TORSDOF 3
ENDMDL
