MODEL 1
REMARK minimizedAffinity 3.12160778
REMARK minimizedRMSD -1
REMARK  1 active torsions:
REMARK  status: ('A' for Active; 'I' for Inactive)
REMARK    1  A    between atoms: C3_4  and  O_7 
ROOT
ATOM      1  C   UNL d   1      -1.242  -0.821   3.006  0.00  0.00    -0.033 A 
ATOM      2  C1  UNL d   1      -0.002  -0.294   3.373  0.00  0.00     0.039 A 
ATOM      3  C2  UNL d   1       1.174  -0.945   2.998  0.00  0.00    -0.080 A 
ATOM      4  C3  UNL d   1       1.098  -2.121   2.256  0.00  0.00     0.150 A 
ATOM      5  C4  UNL d   1      -0.134  -2.649   1.883  0.00  0.00    -0.007 A 
ATOM      6  C5  UNL d   1      -1.308  -1.998   2.260  0.00  0.00     0.039 A 
ENDROOT
BRANCH   4   7
ATOM      7  O   UNL d   1       2.218  -2.795   1.871  0.00  0.00    -0.526 OA
ATOM      8  H5  UNL d   1       2.994  -2.329   2.224  0.00  0.00     0.418 HD
ENDBRANCH   4   7
TORSDOF 1
ENDMDL
