MODEL 1
REMARK minimizedAffinity 8.05422878
REMARK minimizedRMSD -1
REMARK  1 active torsions:
REMARK  status: ('A' for Active; 'I' for Inactive)
REMARK    1  A    between atoms: C3_4  and  O_7 
ROOT
ATOM      1  C   UNL d   1       2.290   1.099  -1.085  0.00  0.00    -0.033 A 
ATOM      2  C1  UNL d   1       1.991   1.035  -2.447  0.00  0.00     0.039 A 
ATOM      3  C2  UNL d   1       2.988   0.702  -3.367  0.00  0.00    -0.080 A 
ATOM      4  C3  UNL d   1       4.276   0.435  -2.912  0.00  0.00     0.150 A 
ATOM      5  C4  UNL d   1       4.579   0.494  -1.555  0.00  0.00    -0.007 A 
ATOM      6  C5  UNL d   1       3.583   0.827  -0.639  0.00  0.00     0.039 A 
ENDROOT
BRANCH   4   7
ATOM      7  O   UNL d   1       5.283   0.111  -3.772  0.00  0.00    -0.526 OA
ATOM      8  H5  UNL d   1       4.933   0.137  -4.678  0.00  0.00     0.418 HD
ENDBRANCH   4   7
TORSDOF 1
ENDMDL
