MODEL 1
REMARK minimizedAffinity 4.07430315
REMARK minimizedRMSD -1
REMARK  1 active torsions:
REMARK  status: ('A' for Active; 'I' for Inactive)
REMARK    1  A    between atoms: C3_4  and  O_7 
ROOT
ATOM      1  C   UNL d   1      -5.587  -0.919  -4.051  0.00  0.00    -0.033 A 
ATOM      2  C1  UNL d   1      -5.060   0.016  -3.159  0.00  0.00     0.039 A 
ATOM      3  C2  UNL d   1      -4.173  -0.392  -2.160  0.00  0.00    -0.080 A 
ATOM      4  C3  UNL d   1      -3.823  -1.736  -2.065  0.00  0.00     0.150 A 
ATOM      5  C4  UNL d   1      -4.341  -2.672  -2.953  0.00  0.00    -0.007 A 
ATOM      6  C5  UNL d   1      -5.227  -2.263  -3.949  0.00  0.00     0.039 A 
ENDROOT
BRANCH   4   7
ATOM      7  O   UNL d   1      -2.965  -2.182  -1.104  0.00  0.00    -0.526 OA
ATOM      8  H5  UNL d   1      -2.710  -1.429  -0.545  0.00  0.00     0.418 HD
ENDBRANCH   4   7
TORSDOF 1
ENDMDL
