MODEL 1
REMARK minimizedAffinity 4.92386198
REMARK minimizedRMSD -1
REMARK  1 active torsions:
REMARK  status: ('A' for Active; 'I' for Inactive)
REMARK    1  A    between atoms: C3_4  and  O_7 
ROOT
ATOM      1  C   UNL d   1       2.076  -0.289   0.706  0.00  0.00    -0.033 A 
ATOM      2  C1  UNL d   1       1.659   0.398  -0.436  0.00  0.00     0.039 A 
ATOM      3  C2  UNL d   1       0.539  -0.040  -1.146  0.00  0.00    -0.080 A 
ATOM      4  C3  UNL d   1      -0.154  -1.164  -0.703  0.00  0.00     0.150 A 
ATOM      5  C4  UNL d   1       0.254  -1.850   0.435  0.00  0.00    -0.007 A 
ATOM      6  C5  UNL d   1       1.373  -1.412   1.143  0.00  0.00     0.039 A 
ENDROOT
BRANCH   4   7
ATOM      7  O   UNL d   1      -1.249  -1.632  -1.366  0.00  0.00    -0.526 OA
ATOM      8  H5  UNL d   1      -1.396  -1.076  -2.149  0.00  0.00     0.418 HD
ENDBRANCH   4   7
TORSDOF 1
ENDMDL
