MODEL 1
REMARK minimizedAffinity 8.98030567
REMARK minimizedRMSD -1
REMARK  1 active torsions:
REMARK  status: ('A' for Active; 'I' for Inactive)
REMARK    1  A    between atoms: C3_4  and  O_7 
ROOT
ATOM      1  C   UNL d   1       1.166   0.973  -0.850  0.00  0.00    -0.033 A 
ATOM      2  C1  UNL d   1       0.263  -0.029  -1.209  0.00  0.00     0.039 A 
ATOM      3  C2  UNL d   1       0.174  -1.197  -0.449  0.00  0.00    -0.080 A 
ATOM      4  C3  UNL d   1       0.993  -1.351   0.666  0.00  0.00     0.150 A 
ATOM      5  C4  UNL d   1       1.893  -0.355   1.032  0.00  0.00    -0.007 A 
ATOM      6  C5  UNL d   1       1.981   0.810   0.272  0.00  0.00     0.039 A 
ENDROOT
BRANCH   4   7
ATOM      7  O   UNL d   1       0.946  -2.475   1.436  0.00  0.00    -0.526 OA
ATOM      8  H5  UNL d   1       0.300  -3.088   1.046  0.00  0.00     0.418 HD
ENDBRANCH   4   7
TORSDOF 1
ENDMDL
