MODEL 1
REMARK minimizedAffinity 2.20048499
REMARK minimizedRMSD -1
REMARK  1 active torsions:
REMARK  status: ('A' for Active; 'I' for Inactive)
REMARK    1  A    between atoms: C3_4  and  O_7 
ROOT
ATOM      1  C   UNL d   1       1.113   5.997   5.641  0.00  0.00    -0.033 A 
ATOM      2  C1  UNL d   1       0.452   5.437   4.546  0.00  0.00     0.039 A 
ATOM      3  C2  UNL d   1       1.061   4.424   3.804  0.00  0.00    -0.080 A 
ATOM      4  C3  UNL d   1       2.329   3.979   4.168  0.00  0.00     0.150 A 
ATOM      5  C4  UNL d   1       2.992   4.530   5.260  0.00  0.00    -0.007 A 
ATOM      6  C5  UNL d   1       2.382   5.542   5.999  0.00  0.00     0.039 A 
ENDROOT
BRANCH   4   7
ATOM      7  O   UNL d   1       2.966   2.995   3.471  0.00  0.00    -0.526 OA
ATOM      8  H5  UNL d   1       2.401   2.730   2.726  0.00  0.00     0.418 HD
ENDBRANCH   4   7
TORSDOF 1
ENDMDL
