MODEL 1
REMARK minimizedAffinity 8.74512959
REMARK minimizedRMSD -1
REMARK  1 active torsions:
REMARK  status: ('A' for Active; 'I' for Inactive)
REMARK    1  A    between atoms: C3_4  and  O_7 
ROOT
ATOM      1  C   UNL d   1       0.804   0.356  -0.819  0.00  0.00    -0.033 A 
ATOM      2  C1  UNL d   1       1.922   0.626  -0.027  0.00  0.00     0.039 A 
ATOM      3  C2  UNL d   1       2.317  -0.282   0.958  0.00  0.00    -0.080 A 
ATOM      4  C3  UNL d   1       1.587  -1.453   1.140  0.00  0.00     0.150 A 
ATOM      5  C4  UNL d   1       0.474  -1.729   0.353  0.00  0.00    -0.007 A 
ATOM      6  C5  UNL d   1       0.081  -0.822  -0.630  0.00  0.00     0.039 A 
ENDROOT
BRANCH   4   7
ATOM      7  O   UNL d   1       1.931  -2.366   2.092  0.00  0.00    -0.526 OA
ATOM      8  H5  UNL d   1       2.702  -2.028   2.579  0.00  0.00     0.418 HD
ENDBRANCH   4   7
TORSDOF 1
ENDMDL
