MODEL 1
REMARK minimizedAffinity 8.84170818
REMARK minimizedRMSD -1
REMARK  1 active torsions:
REMARK  status: ('A' for Active; 'I' for Inactive)
REMARK    1  A    between atoms: C3_4  and  O_7 
ROOT
ATOM      1  C   UNL d   1      -0.035  -1.023  -1.383  0.00  0.00    -0.033 A 
ATOM      2  C1  UNL d   1       0.587   0.057  -2.013  0.00  0.00     0.039 A 
ATOM      3  C2  UNL d   1       1.651   0.713  -1.391  0.00  0.00    -0.080 A 
ATOM      4  C3  UNL d   1       2.083   0.279  -0.140  0.00  0.00     0.150 A 
ATOM      5  C4  UNL d   1       1.471  -0.798   0.492  0.00  0.00    -0.007 A 
ATOM      6  C5  UNL d   1       0.408  -1.451  -0.131  0.00  0.00     0.039 A 
ENDROOT
BRANCH   4   7
ATOM      7  O   UNL d   1       3.115   0.891   0.508  0.00  0.00    -0.526 OA
ATOM      8  H5  UNL d   1       3.421   1.636  -0.035  0.00  0.00     0.418 HD
ENDBRANCH   4   7
TORSDOF 1
ENDMDL
