MODEL 1
REMARK minimizedAffinity 9.05970764
REMARK minimizedRMSD -1
REMARK  1 active torsions:
REMARK  status: ('A' for Active; 'I' for Inactive)
REMARK    1  A    between atoms: C3_4  and  O_7 
ROOT
ATOM      1  C   UNL d   1       1.796  -3.129   1.633  0.00  0.00    -0.033 A 
ATOM      2  C1  UNL d   1       3.064  -2.562   1.773  0.00  0.00     0.039 A 
ATOM      3  C2  UNL d   1       3.301  -1.259   1.330  0.00  0.00    -0.080 A 
ATOM      4  C3  UNL d   1       2.262  -0.535   0.751  0.00  0.00     0.150 A 
ATOM      5  C4  UNL d   1       0.995  -1.092   0.612  0.00  0.00    -0.007 A 
ATOM      6  C5  UNL d   1       0.761  -2.394   1.055  0.00  0.00     0.039 A 
ENDROOT
BRANCH   4   7
ATOM      7  O   UNL d   1       2.446   0.738   0.299  0.00  0.00    -0.526 OA
ATOM      8  H5  UNL d   1       3.377   0.981   0.435  0.00  0.00     0.418 HD
ENDBRANCH   4   7
TORSDOF 1
ENDMDL
