MODEL 1
REMARK minimizedAffinity 1.14138985
REMARK minimizedRMSD -1
REMARK  1 active torsions:
REMARK  status: ('A' for Active; 'I' for Inactive)
REMARK    1  A    between atoms: C3_4  and  O_7 
ROOT
ATOM      1  C   UNL d   1       5.070  -6.000   5.915  0.00  0.00    -0.033 A 
ATOM      2  C1  UNL d   1       3.675  -5.963   5.875  0.00  0.00     0.039 A 
ATOM      3  C2  UNL d   1       3.006  -4.737   5.900  0.00  0.00    -0.080 A 
ATOM      4  C3  UNL d   1       3.743  -3.558   5.964  0.00  0.00     0.150 A 
ATOM      5  C4  UNL d   1       5.134  -3.587   6.000  0.00  0.00    -0.007 A 
ATOM      6  C5  UNL d   1       5.800  -4.812   5.976  0.00  0.00     0.039 A 
ENDROOT
BRANCH   4   7
ATOM      7  O   UNL d   1       3.135  -2.338   5.996  0.00  0.00    -0.526 OA
ATOM      8  H5  UNL d   1       2.173  -2.474   5.994  0.00  0.00     0.418 HD
ENDBRANCH   4   7
TORSDOF 1
ENDMDL
