MODEL 1
REMARK minimizedAffinity 11.7498007
REMARK minimizedRMSD -1
REMARK  1 active torsions:
REMARK  status: ('A' for Active; 'I' for Inactive)
REMARK    1  A    between atoms: C3_4  and  O_7 
ROOT
ATOM      1  C   UNL d   1       1.476   0.985  -1.091  0.00  0.00    -0.033 A 
ATOM      2  C1  UNL d   1       0.643  -0.057  -1.502  0.00  0.00     0.039 A 
ATOM      3  C2  UNL d   1       0.392  -1.132  -0.646  0.00  0.00    -0.080 A 
ATOM      4  C3  UNL d   1       0.980  -1.152   0.616  0.00  0.00     0.150 A 
ATOM      5  C4  UNL d   1       1.809  -0.115   1.033  0.00  0.00    -0.007 A 
ATOM      6  C5  UNL d   1       2.058   0.956   0.177  0.00  0.00     0.039 A 
ENDROOT
BRANCH   4   7
ATOM      7  O   UNL d   1       0.769  -2.182   1.484  0.00  0.00    -0.526 OA
ATOM      8  H5  UNL d   1       0.200  -2.839   1.049  0.00  0.00     0.418 HD
ENDBRANCH   4   7
TORSDOF 1
ENDMDL
