MODEL 1
REMARK minimizedAffinity 5.16970348
REMARK minimizedRMSD -1
REMARK  0 active torsions:
REMARK  status: ('A' for Active; 'I' for Inactive)
ROOT
ATOM      1  C   UNL d   1       1.860   1.231   1.950  0.00  0.00     0.172 C 
ATOM      2  N   UNL d   1       1.744   0.498   0.711  0.00  0.00    -0.070 N 
ATOM      3  C1  UNL d   1       0.669   0.528  -0.136  0.00  0.00    -0.004 A 
ATOM      4  C2  UNL d   1       0.948  -0.303  -1.201  0.00  0.00    -0.047 A 
ATOM      5  C3  UNL d   1       2.235  -0.851  -0.984  0.00  0.00    -0.047 A 
ATOM      6  C4  UNL d   1       2.705  -0.338   0.206  0.00  0.00    -0.004 A 
ENDROOT
TORSDOF 0
ENDMDL
