MODEL 1
REMARK minimizedAffinity 0.555762112
REMARK minimizedRMSD -1
REMARK  0 active torsions:
REMARK  status: ('A' for Active; 'I' for Inactive)
ROOT
ATOM      1  C   UNL d   1      -1.807   0.790  -0.363  0.00  0.00     0.172 C 
ATOM      2  N   UNL d   1      -0.752   1.692   0.033  0.00  0.00    -0.070 N 
ATOM      3  C1  UNL d   1      -0.716   3.038  -0.217  0.00  0.00    -0.004 A 
ATOM      4  C2  UNL d   1       0.450   3.537   0.322  0.00  0.00    -0.047 A 
ATOM      5  C3  UNL d   1       1.140   2.453   0.915  0.00  0.00    -0.047 A 
ATOM      6  C4  UNL d   1       0.373   1.324   0.722  0.00  0.00    -0.004 A 
ENDROOT
TORSDOF 0
ENDMDL
