MODEL 1
REMARK minimizedAffinity 3.07115459
REMARK minimizedRMSD -1
REMARK  0 active torsions:
REMARK  status: ('A' for Active; 'I' for Inactive)
ROOT
ATOM      1  C   UNL d   1      -5.798   5.979   5.995  0.00  0.00     0.172 C 
ATOM      2  N   UNL d   1      -5.856   5.313   4.715  0.00  0.00    -0.070 N 
ATOM      3  C1  UNL d   1      -5.975   3.962   4.523  0.00  0.00    -0.004 A 
ATOM      4  C2  UNL d   1      -5.995   3.729   3.165  0.00  0.00    -0.047 A 
ATOM      5  C3  UNL d   1      -5.884   4.983   2.518  0.00  0.00    -0.047 A 
ATOM      6  C4  UNL d   1      -5.799   5.946   3.502  0.00  0.00    -0.004 A 
ENDROOT
TORSDOF 0
ENDMDL
