MODEL 1
REMARK minimizedAffinity -0.306266636
REMARK minimizedRMSD -1
REMARK  0 active torsions:
REMARK  status: ('A' for Active; 'I' for Inactive)
ROOT
ATOM      1  C   UNL d   1      -0.289  -4.377  -1.112  0.00  0.00     0.172 C 
ATOM      2  N   UNL d   1       0.763  -3.523  -0.612  0.00  0.00    -0.070 N 
ATOM      3  C1  UNL d   1       1.361  -3.629   0.616  0.00  0.00    -0.004 A 
ATOM      4  C2  UNL d   1       2.311  -2.635   0.709  0.00  0.00    -0.047 A 
ATOM      5  C3  UNL d   1       2.283  -1.907  -0.504  0.00  0.00    -0.047 A 
ATOM      6  C4  UNL d   1       1.316  -2.478  -1.303  0.00  0.00    -0.004 A 
ENDROOT
TORSDOF 0
ENDMDL
