MODEL 1
REMARK minimizedAffinity 1.41971064
REMARK minimizedRMSD -1
REMARK  0 active torsions:
REMARK  status: ('A' for Active; 'I' for Inactive)
ROOT
ATOM      1  C   UNL d   1       2.274   0.705   0.250  0.00  0.00     0.172 C 
ATOM      2  N   UNL d   1       2.137  -0.702  -0.045  0.00  0.00    -0.070 N 
ATOM      3  C1  UNL d   1       0.954  -1.383  -0.156  0.00  0.00    -0.004 A 
ATOM      4  C2  UNL d   1       1.250  -2.698  -0.444  0.00  0.00    -0.047 A 
ATOM      5  C3  UNL d   1       2.659  -2.811  -0.508  0.00  0.00    -0.047 A 
ATOM      6  C4  UNL d   1       3.183  -1.561  -0.257  0.00  0.00    -0.004 A 
ENDROOT
TORSDOF 0
ENDMDL
