MODEL 1
REMARK minimizedAffinity 1.52603865
REMARK minimizedRMSD -1
REMARK  0 active torsions:
REMARK  status: ('A' for Active; 'I' for Inactive)
ROOT
ATOM      1  C   UNL d   1       3.890   2.897   4.171  0.00  0.00     0.172 C 
ATOM      2  N   UNL d   1       2.725   2.071   4.381  0.00  0.00    -0.070 N 
ATOM      3  C1  UNL d   1       2.483   1.299   5.487  0.00  0.00    -0.004 A 
ATOM      4  C2  UNL d   1       1.272   0.668   5.303  0.00  0.00    -0.047 A 
ATOM      5  C3  UNL d   1       0.769   1.073   4.044  0.00  0.00    -0.047 A 
ATOM      6  C4  UNL d   1       1.689   1.941   3.495  0.00  0.00    -0.004 A 
ENDROOT
TORSDOF 0
ENDMDL
