MODEL 1
REMARK minimizedAffinity -1.64408064
REMARK minimizedRMSD -1
REMARK  0 active torsions:
REMARK  status: ('A' for Active; 'I' for Inactive)
ROOT
ATOM      1  C   UNL d   1      -5.973  -0.422   1.481  0.00  0.00     0.172 C 
ATOM      2  N   UNL d   1      -5.107  -0.252   0.338  0.00  0.00    -0.070 N 
ATOM      3  C1  UNL d   1      -4.062  -1.069  -0.000  0.00  0.00    -0.004 A 
ATOM      4  C2  UNL d   1      -3.491  -0.569  -1.150  0.00  0.00    -0.047 A 
ATOM      5  C3  UNL d   1      -4.217   0.590  -1.515  0.00  0.00    -0.047 A 
ATOM      6  C4  UNL d   1      -5.212   0.763  -0.576  0.00  0.00    -0.004 A 
ENDROOT
TORSDOF 0
ENDMDL
