MODEL 1
REMARK minimizedAffinity -3.43804526
REMARK minimizedRMSD -1
REMARK  0 active torsions:
REMARK  status: ('A' for Active; 'I' for Inactive)
ROOT
ATOM      1  C   UNL d   1       0.041  -1.965  -1.472  0.00  0.00     0.172 C 
ATOM      2  N   UNL d   1       1.394  -1.496  -1.290  0.00  0.00    -0.070 N 
ATOM      3  C1  UNL d   1       2.477  -2.280  -0.992  0.00  0.00    -0.004 A 
ATOM      4  C2  UNL d   1       3.580  -1.459  -0.903  0.00  0.00    -0.047 A 
ATOM      5  C3  UNL d   1       3.146  -0.136  -1.155  0.00  0.00    -0.047 A 
ATOM      6  C4  UNL d   1       1.788  -0.188  -1.392  0.00  0.00    -0.004 A 
ENDROOT
TORSDOF 0
ENDMDL
