MODEL 1
REMARK minimizedAffinity 4.46380949
REMARK minimizedRMSD -1
REMARK  0 active torsions:
REMARK  status: ('A' for Active; 'I' for Inactive)
ROOT
ATOM      1  C4' PXY d   1       4.556   1.881  -3.768  0.00  0.00     0.077 C 
ATOM      2  C1' PXY d   1       1.170   6.000  -5.999  0.00  0.00     0.077 C 
ATOM      3  C1  PXY d   1       2.050   4.918  -5.405  0.00  0.00    -0.082 A 
ATOM      4  C2  PXY d   1       3.349   4.918  -5.657  0.00  0.00     0.003 A 
ATOM      5  C3  PXY d   1       4.153   3.929  -5.153  0.00  0.00     0.003 A 
ATOM      6  C4  PXY d   1       3.632   2.959  -4.339  0.00  0.00    -0.082 A 
ATOM      7  C5  PXY d   1       2.309   2.958  -4.069  0.00  0.00     0.003 A 
ATOM      8  C6  PXY d   1       1.503   3.947  -4.623  0.00  0.00     0.003 A 
ENDROOT
TORSDOF 0
ENDMDL
