MODEL 1
REMARK minimizedAffinity 8.09458256
REMARK minimizedRMSD -1
REMARK  0 active torsions:
REMARK  status: ('A' for Active; 'I' for Inactive)
ROOT
ATOM      1  C4' PXY d   1      -5.167   4.962   5.998  0.00  0.00     0.077 C 
ATOM      2  C1' PXY d   1      -5.435  -0.197   3.405  0.00  0.00     0.077 C 
ATOM      3  C1  PXY d   1      -5.375   1.152   4.093  0.00  0.00    -0.082 A 
ATOM      4  C2  PXY d   1      -4.872   2.193   3.449  0.00  0.00     0.003 A 
ATOM      5  C3  PXY d   1      -4.780   3.413   4.067  0.00  0.00     0.003 A 
ATOM      6  C4  PXY d   1      -5.257   3.583   5.340  0.00  0.00    -0.082 A 
ATOM      7  C5  PXY d   1      -5.781   2.528   5.999  0.00  0.00     0.003 A 
ATOM      8  C6  PXY d   1      -5.827   1.289   5.369  0.00  0.00     0.003 A 
ENDROOT
TORSDOF 0
ENDMDL
