MODEL 1
REMARK minimizedAffinity 2.20232487
REMARK minimizedRMSD -1
REMARK  0 active torsions:
REMARK  status: ('A' for Active; 'I' for Inactive)
ROOT
ATOM      1  C4' PXY d   1      -5.998   3.820   5.999  0.00  0.00     0.077 C 
ATOM      2  C1' PXY d   1      -4.526  -0.203   2.117  0.00  0.00     0.077 C 
ATOM      3  C1  PXY d   1      -4.922   0.845   3.139  0.00  0.00    -0.082 A 
ATOM      4  C2  PXY d   1      -4.571   2.107   2.952  0.00  0.00     0.003 A 
ATOM      5  C3  PXY d   1      -4.893   3.061   3.882  0.00  0.00     0.003 A 
ATOM      6  C4  PXY d   1      -5.628   2.730   4.989  0.00  0.00    -0.082 A 
ATOM      7  C5  PXY d   1      -5.999   1.447   5.182  0.00  0.00     0.003 A 
ATOM      8  C6  PXY d   1      -5.627   0.486   4.246  0.00  0.00     0.003 A 
ENDROOT
TORSDOF 0
ENDMDL
