MODEL 1
REMARK minimizedAffinity 12.8517313
REMARK minimizedRMSD -1
REMARK  0 active torsions:
REMARK  status: ('A' for Active; 'I' for Inactive)
ROOT
ATOM      1  C4' PXY d   1      -4.392  -6.000   1.714  0.00  0.00     0.077 C 
ATOM      2  C1' PXY d   1       0.178  -2.570   0.837  0.00  0.00     0.077 C 
ATOM      3  C1  PXY d   1      -1.013  -3.480   1.065  0.00  0.00    -0.082 A 
ATOM      4  C2  PXY d   1      -2.237  -3.017   0.869  0.00  0.00     0.003 A 
ATOM      5  C3  PXY d   1      -3.326  -3.817   1.101  0.00  0.00     0.003 A 
ATOM      6  C4  PXY d   1      -3.160  -5.120   1.487  0.00  0.00    -0.082 A 
ATOM      7  C5  PXY d   1      -1.914  -5.603   1.679  0.00  0.00     0.003 A 
ATOM      8  C6  PXY d   1      -0.822  -4.763   1.478  0.00  0.00     0.003 A 
ENDROOT
TORSDOF 0
ENDMDL
