MODEL 1
REMARK minimizedAffinity 21.8910713
REMARK minimizedRMSD -1
REMARK  0 active torsions:
REMARK  status: ('A' for Active; 'I' for Inactive)
ROOT
ATOM      1  C4' PXY d   1      -4.092   3.608   6.000  0.00  0.00     0.077 C 
ATOM      2  C1' PXY d   1      -4.055  -0.799   2.260  0.00  0.00     0.077 C 
ATOM      3  C1  PXY d   1      -4.075   0.351   3.247  0.00  0.00    -0.082 A 
ATOM      4  C2  PXY d   1      -3.598   1.531   2.886  0.00  0.00     0.003 A 
ATOM      5  C3  PXY d   1      -3.578   2.573   3.777  0.00  0.00     0.003 A 
ATOM      6  C4  PXY d   1      -4.101   2.421   5.033  0.00  0.00    -0.082 A 
ATOM      7  C5  PXY d   1      -4.600   1.223   5.405  0.00  0.00     0.003 A 
ATOM      8  C6  PXY d   1      -4.573   0.166   4.500  0.00  0.00     0.003 A 
ENDROOT
TORSDOF 0
ENDMDL
