MODEL 1
REMARK minimizedAffinity 13.561121
REMARK minimizedRMSD -1
REMARK  0 active torsions:
REMARK  status: ('A' for Active; 'I' for Inactive)
ROOT
ATOM      1  C4' PXY d   1       5.553  -0.691   0.790  0.00  0.00     0.077 C 
ATOM      2  C1' PXY d   1       0.751   2.525   0.869  0.00  0.00     0.077 C 
ATOM      3  C1  PXY d   1       2.011   1.684   0.836  0.00  0.00    -0.082 A 
ATOM      4  C2  PXY d   1       2.204   0.757   1.760  0.00  0.00     0.003 A 
ATOM      5  C3  PXY d   1       3.353   0.009   1.763  0.00  0.00     0.003 A 
ATOM      6  C4  PXY d   1       4.291   0.175   0.779  0.00  0.00    -0.082 A 
ATOM      7  C5  PXY d   1       4.097   1.112  -0.173  0.00  0.00     0.003 A 
ATOM      8  C6  PXY d   1       2.943   1.889  -0.135  0.00  0.00     0.003 A 
ENDROOT
TORSDOF 0
ENDMDL
