MODEL 1
REMARK minimizedAffinity 6.61003399
REMARK minimizedRMSD -1
REMARK  0 active torsions:
REMARK  status: ('A' for Active; 'I' for Inactive)
ROOT
ATOM      1  C4' PXY d   1      -2.960   4.810  -1.158  0.00  0.00     0.077 C 
ATOM      2  C1' PXY d   1       1.703   2.214   1.063  0.00  0.00     0.077 C 
ATOM      3  C1  PXY d   1       0.484   2.892   0.468  0.00  0.00    -0.082 A 
ATOM      4  C2  PXY d   1      -0.117   3.861   1.138  0.00  0.00     0.003 A 
ATOM      5  C3  PXY d   1      -1.240   4.463   0.630  0.00  0.00     0.003 A 
ATOM      6  C4  PXY d   1      -1.720   4.105  -0.601  0.00  0.00    -0.082 A 
ATOM      7  C5  PXY d   1      -1.106   3.123  -1.296  0.00  0.00     0.003 A 
ATOM      8  C6  PXY d   1       0.007   2.497  -0.744  0.00  0.00     0.003 A 
ENDROOT
TORSDOF 0
ENDMDL
