MODEL 1
REMARK minimizedAffinity 18.9213238
REMARK minimizedRMSD -1
REMARK  0 active torsions:
REMARK  status: ('A' for Active; 'I' for Inactive)
ROOT
ATOM      1  C4' PXY d   1      -4.893   4.347   1.496  0.00  0.00     0.077 C 
ATOM      2  C1' PXY d   1      -2.701  -0.088   4.486  0.00  0.00     0.077 C 
ATOM      3  C1  PXY d   1      -3.271   1.083   3.711  0.00  0.00    -0.082 A 
ATOM      4  C2  PXY d   1      -4.312   0.897   2.915  0.00  0.00     0.003 A 
ATOM      5  C3  PXY d   1      -4.820   1.938   2.182  0.00  0.00     0.003 A 
ATOM      6  C4  PXY d   1      -4.291   3.195   2.305  0.00  0.00    -0.082 A 
ATOM      7  C5  PXY d   1      -3.236   3.396   3.123  0.00  0.00     0.003 A 
ATOM      8  C6  PXY d   1      -2.709   2.317   3.827  0.00  0.00     0.003 A 
ENDROOT
TORSDOF 0
ENDMDL
