MODEL 1
REMARK minimizedAffinity 19.2886848
REMARK minimizedRMSD -1
REMARK  0 active torsions:
REMARK  status: ('A' for Active; 'I' for Inactive)
ROOT
ATOM      1  C4' PXY d   1      -0.455  -3.264   1.939  0.00  0.00     0.077 C 
ATOM      2  C1' PXY d   1      -5.529  -5.991   1.445  0.00  0.00     0.077 C 
ATOM      3  C1  PXY d   1      -4.194  -5.286   1.582  0.00  0.00    -0.082 A 
ATOM      4  C2  PXY d   1      -4.127  -3.975   1.417  0.00  0.00     0.003 A 
ATOM      5  C3  PXY d   1      -2.922  -3.325   1.505  0.00  0.00     0.003 A 
ATOM      6  C4  PXY d   1      -1.783  -4.017   1.819  0.00  0.00    -0.082 A 
ATOM      7  C5  PXY d   1      -1.845  -5.353   2.000  0.00  0.00     0.003 A 
ATOM      8  C6  PXY d   1      -3.071  -6.000   1.865  0.00  0.00     0.003 A 
ENDROOT
TORSDOF 0
ENDMDL
