MODEL 1
REMARK minimizedAffinity 20.1110001
REMARK minimizedRMSD -1
REMARK  0 active torsions:
REMARK  status: ('A' for Active; 'I' for Inactive)
ROOT
ATOM      1  C4' PXY d   1      -3.928   1.066   3.121  0.00  0.00     0.077 C 
ATOM      2  C1' PXY d   1      -1.040  -3.251   0.584  0.00  0.00     0.077 C 
ATOM      3  C1  PXY d   1      -1.790  -2.121   1.260  0.00  0.00    -0.082 A 
ATOM      4  C2  PXY d   1      -2.998  -1.790   0.834  0.00  0.00     0.003 A 
ATOM      5  C3  PXY d   1      -3.678  -0.750   1.413  0.00  0.00     0.003 A 
ATOM      6  C4  PXY d   1      -3.137  -0.075   2.475  0.00  0.00    -0.082 A 
ATOM      7  C5  PXY d   1      -1.910  -0.413   2.923  0.00  0.00     0.003 A 
ATOM      8  C6  PXY d   1      -1.219  -1.446   2.295  0.00  0.00     0.003 A 
ENDROOT
TORSDOF 0
ENDMDL
