MODEL 1
REMARK minimizedAffinity 14.769968
REMARK minimizedRMSD -1
REMARK  0 active torsions:
REMARK  status: ('A' for Active; 'I' for Inactive)
ROOT
ATOM      1  C4' PXY d   1      -4.482  -6.000   1.510  0.00  0.00     0.077 C 
ATOM      2  C1' PXY d   1      -0.341  -1.973   1.276  0.00  0.00     0.077 C 
ATOM      3  C1  PXY d   1      -1.418  -3.039   1.337  0.00  0.00    -0.082 A 
ATOM      4  C2  PXY d   1      -2.645  -2.752   0.933  0.00  0.00     0.003 A 
ATOM      5  C3  PXY d   1      -3.639  -3.694   1.011  0.00  0.00     0.003 A 
ATOM      6  C4  PXY d   1      -3.361  -4.958   1.458  0.00  0.00    -0.082 A 
ATOM      7  C5  PXY d   1      -2.109  -5.262   1.862  0.00  0.00     0.003 A 
ATOM      8  C6  PXY d   1      -1.124  -4.279   1.813  0.00  0.00     0.003 A 
ENDROOT
TORSDOF 0
ENDMDL
