MODEL 1
REMARK minimizedAffinity 14.5649605
REMARK minimizedRMSD -1
REMARK  0 active torsions:
REMARK  status: ('A' for Active; 'I' for Inactive)
ROOT
ATOM      1  C4' PXY d   1       1.510   3.756  -2.601  0.00  0.00     0.077 C 
ATOM      2  C1' PXY d   1      -3.516   5.647  -0.462  0.00  0.00     0.077 C 
ATOM      3  C1  PXY d   1      -2.199   5.140  -1.016  0.00  0.00    -0.082 A 
ATOM      4  C2  PXY d   1      -1.325   6.000  -1.514  0.00  0.00     0.003 A 
ATOM      5  C3  PXY d   1      -0.142   5.556  -2.048  0.00  0.00     0.003 A 
ATOM      6  C4  PXY d   1       0.172   4.224  -2.023  0.00  0.00    -0.082 A 
ATOM      7  C5  PXY d   1      -0.710   3.341  -1.507  0.00  0.00     0.003 A 
ATOM      8  C6  PXY d   1      -1.922   3.808  -1.008  0.00  0.00     0.003 A 
ENDROOT
TORSDOF 0
ENDMDL
