MODEL 1
REMARK minimizedAffinity 23.4875336
REMARK minimizedRMSD -1
REMARK  0 active torsions:
REMARK  status: ('A' for Active; 'I' for Inactive)
ROOT
ATOM      1  C4' PXY d   1      -0.829   2.120   3.387  0.00  0.00     0.077 C 
ATOM      2  C1' PXY d   1       4.217  -0.694   3.595  0.00  0.00     0.077 C 
ATOM      3  C1  PXY d   1       2.897   0.049   3.529  0.00  0.00    -0.082 A 
ATOM      4  C2  PXY d   1       2.231   0.300   4.645  0.00  0.00     0.003 A 
ATOM      5  C3  PXY d   1       1.021   0.943   4.600  0.00  0.00     0.003 A 
ATOM      6  C4  PXY d   1       0.512   1.380   3.406  0.00  0.00    -0.082 A 
ATOM      7  C5  PXY d   1       1.191   1.137   2.265  0.00  0.00     0.003 A 
ATOM      8  C6  PXY d   1       2.398   0.447   2.328  0.00  0.00     0.003 A 
ENDROOT
TORSDOF 0
ENDMDL
