MODEL 1
REMARK minimizedAffinity 15.7876606
REMARK minimizedRMSD -1
REMARK  0 active torsions:
REMARK  status: ('A' for Active; 'I' for Inactive)
ROOT
ATOM      1  C4' PXY d   1      -6.000  -5.609  -1.984  0.00  0.00     0.077 C 
ATOM      2  C1' PXY d   1      -0.906  -3.723  -3.962  0.00  0.00     0.077 C 
ATOM      3  C1  PXY d   1      -2.239  -4.230  -3.447  0.00  0.00    -0.082 A 
ATOM      4  C2  PXY d   1      -3.265  -3.399  -3.360  0.00  0.00     0.003 A 
ATOM      5  C3  PXY d   1      -4.468  -3.833  -2.866  0.00  0.00     0.003 A 
ATOM      6  C4  PXY d   1      -4.638  -5.143  -2.508  0.00  0.00    -0.082 A 
ATOM      7  C5  PXY d   1      -3.599  -6.000  -2.604  0.00  0.00     0.003 A 
ATOM      8  C6  PXY d   1      -2.374  -5.530  -3.069  0.00  0.00     0.003 A 
ENDROOT
TORSDOF 0
ENDMDL
