MODEL 1
REMARK minimizedAffinity 24.6933765
REMARK minimizedRMSD -1
REMARK  0 active torsions:
REMARK  status: ('A' for Active; 'I' for Inactive)
ROOT
ATOM      1  C4' PXY d   1      -3.573  -3.016  -3.021  0.00  0.00     0.077 C 
ATOM      2  C1' PXY d   1       0.967  -6.000  -4.996  0.00  0.00     0.077 C 
ATOM      3  C1  PXY d   1      -0.218  -5.206  -4.481  0.00  0.00    -0.082 A 
ATOM      4  C2  PXY d   1      -1.011  -5.736  -3.564  0.00  0.00     0.003 A 
ATOM      5  C3  PXY d   1      -2.106  -5.044  -3.111  0.00  0.00     0.003 A 
ATOM      6  C4  PXY d   1      -2.360  -3.777  -3.563  0.00  0.00    -0.082 A 
ATOM      7  C5  PXY d   1      -1.549  -3.226  -4.490  0.00  0.00     0.003 A 
ATOM      8  C6  PXY d   1      -0.467  -3.960  -4.967  0.00  0.00     0.003 A 
ENDROOT
TORSDOF 0
ENDMDL
