MODEL 1
REMARK minimizedAffinity 22.045866
REMARK minimizedRMSD -1
REMARK  0 active torsions:
REMARK  status: ('A' for Active; 'I' for Inactive)
ROOT
ATOM      1  C4' PXY d   1      -0.744  -2.263   1.504  0.00  0.00     0.077 C 
ATOM      2  C1' PXY d   1       0.818   1.017   6.000  0.00  0.00     0.077 C 
ATOM      3  C1  PXY d   1       0.413   0.166   4.812  0.00  0.00    -0.082 A 
ATOM      4  C2  PXY d   1      -0.511  -0.770   4.963  0.00  0.00     0.003 A 
ATOM      5  C3  PXY d   1      -0.867  -1.570   3.908  0.00  0.00     0.003 A 
ATOM      6  C4  PXY d   1      -0.310  -1.374   2.672  0.00  0.00    -0.082 A 
ATOM      7  C5  PXY d   1       0.625  -0.415   2.508  0.00  0.00     0.003 A 
ATOM      8  C6  PXY d   1       1.002   0.359   3.601  0.00  0.00     0.003 A 
ENDROOT
TORSDOF 0
ENDMDL
