MODEL 1
REMARK minimizedAffinity 19.8628712
REMARK minimizedRMSD -1
REMARK  0 active torsions:
REMARK  status: ('A' for Active; 'I' for Inactive)
ROOT
ATOM      1  C4' PXY d   1      -4.481  -5.999   1.646  0.00  0.00     0.077 C 
ATOM      2  C1' PXY d   1      -0.266  -2.043   1.710  0.00  0.00     0.077 C 
ATOM      3  C1  PXY d   1      -1.363  -3.090   1.691  0.00  0.00    -0.082 A 
ATOM      4  C2  PXY d   1      -2.599  -2.736   1.382  0.00  0.00     0.003 A 
ATOM      5  C3  PXY d   1      -3.609  -3.664   1.391  0.00  0.00     0.003 A 
ATOM      6  C4  PXY d   1      -3.341  -4.977   1.669  0.00  0.00    -0.082 A 
ATOM      7  C5  PXY d   1      -2.079  -5.348   1.975  0.00  0.00     0.003 A 
ATOM      8  C6  PXY d   1      -1.076  -4.384   2.000  0.00  0.00     0.003 A 
ENDROOT
TORSDOF 0
ENDMDL
