MODEL 1
REMARK minimizedAffinity 17.6829967
REMARK minimizedRMSD -1
REMARK  0 active torsions:
REMARK  status: ('A' for Active; 'I' for Inactive)
ROOT
ATOM      1  C4' PXY d   1      -0.349  -0.747   3.079  0.00  0.00     0.077 C 
ATOM      2  C1' PXY d   1      -2.402  -5.975   1.711  0.00  0.00     0.077 C 
ATOM      3  C1  PXY d   1      -1.860  -4.602   2.057  0.00  0.00    -0.082 A 
ATOM      4  C2  PXY d   1      -1.491  -4.339   3.300  0.00  0.00     0.003 A 
ATOM      5  C3  PXY d   1      -1.029  -3.093   3.638  0.00  0.00     0.003 A 
ATOM      6  C4  PXY d   1      -0.893  -2.123   2.682  0.00  0.00    -0.082 A 
ATOM      7  C5  PXY d   1      -1.258  -2.386   1.409  0.00  0.00     0.003 A 
ATOM      8  C6  PXY d   1      -1.763  -3.645   1.096  0.00  0.00     0.003 A 
ENDROOT
TORSDOF 0
ENDMDL
