MODEL 1
REMARK minimizedAffinity 17.5056477
REMARK minimizedRMSD -1
REMARK  0 active torsions:
REMARK  status: ('A' for Active; 'I' for Inactive)
ROOT
ATOM      1  C4' PXY d   1      -1.896  -2.114  -1.042  0.00  0.00     0.077 C 
ATOM      2  C1' PXY d   1      -5.984  -3.325  -4.945  0.00  0.00     0.077 C 
ATOM      3  C1  PXY d   1      -4.903  -3.011  -3.930  0.00  0.00    -0.082 A 
ATOM      4  C2  PXY d   1      -5.194  -3.024  -2.640  0.00  0.00     0.003 A 
ATOM      5  C3  PXY d   1      -4.236  -2.711  -1.710  0.00  0.00     0.003 A 
ATOM      6  C4  PXY d   1      -2.954  -2.434  -2.102  0.00  0.00    -0.082 A 
ATOM      7  C5  PXY d   1      -2.646  -2.429  -3.417  0.00  0.00     0.003 A 
ATOM      8  C6  PXY d   1      -3.643  -2.710  -4.347  0.00  0.00     0.003 A 
ENDROOT
TORSDOF 0
ENDMDL
