MODEL 1
REMARK minimizedAffinity 10.4485884
REMARK minimizedRMSD -1
REMARK  0 active torsions:
REMARK  status: ('A' for Active; 'I' for Inactive)
ROOT
ATOM      1  C4' PXY d   1      -5.282  -2.638  -5.403  0.00  0.00     0.077 C 
ATOM      2  C1' PXY d   1      -4.026  -5.995  -0.868  0.00  0.00     0.077 C 
ATOM      3  C1  PXY d   1      -4.348  -5.105  -2.053  0.00  0.00    -0.082 A 
ATOM      4  C2  PXY d   1      -5.456  -5.313  -2.745  0.00  0.00     0.003 A 
ATOM      5  C3  PXY d   1      -5.747  -4.538  -3.838  0.00  0.00     0.003 A 
ATOM      6  C4  PXY d   1      -4.921  -3.505  -4.195  0.00  0.00    -0.082 A 
ATOM      7  C5  PXY d   1      -3.795  -3.280  -3.487  0.00  0.00     0.003 A 
ATOM      8  C6  PXY d   1      -3.497  -4.104  -2.405  0.00  0.00     0.003 A 
ENDROOT
TORSDOF 0
ENDMDL
