MODEL 1
REMARK minimizedAffinity -2.33795691
REMARK minimizedRMSD -1
REMARK  0 active torsions:
REMARK  status: ('A' for Active; 'I' for Inactive)
ROOT
ATOM      1  C   UNL d   1       0.142  -0.258  -3.478  0.00  0.00     0.078 C 
ATOM      2  C1  UNL d   1       1.326  -0.327  -2.561  0.00  0.00    -0.077 A 
ATOM      3  C2  UNL d   1       2.360  -1.245  -2.784  0.00  0.00    -0.001 A 
ATOM      4  C3  UNL d   1       3.451  -1.304  -1.916  0.00  0.00     0.003 A 
ATOM      5  C4  UNL d   1       3.519  -0.449  -0.818  0.00  0.00    -0.005 A 
ATOM      6  C5  UNL d   1       2.494   0.466  -0.586  0.00  0.00     0.003 A 
ATOM      7  C6  UNL d   1       1.402   0.527  -1.453  0.00  0.00    -0.001 A 
ENDROOT
TORSDOF 0
ENDMDL
