MODEL 1
REMARK minimizedAffinity 2.29718494
REMARK minimizedRMSD -1
REMARK  0 active torsions:
REMARK  status: ('A' for Active; 'I' for Inactive)
ROOT
ATOM      1  C   UNL d   1       0.828   0.691   0.510  0.00  0.00     0.078 C 
ATOM      2  C1  UNL d   1       1.594   0.105  -0.638  0.00  0.00    -0.077 A 
ATOM      3  C2  UNL d   1       0.939  -0.316  -1.802  0.00  0.00    -0.001 A 
ATOM      4  C3  UNL d   1       1.664  -0.869  -2.859  0.00  0.00     0.003 A 
ATOM      5  C4  UNL d   1       3.047  -1.006  -2.763  0.00  0.00    -0.005 A 
ATOM      6  C5  UNL d   1       3.707  -0.592  -1.608  0.00  0.00     0.003 A 
ATOM      7  C6  UNL d   1       2.984  -0.039  -0.550  0.00  0.00    -0.001 A 
ENDROOT
TORSDOF 0
ENDMDL
