MODEL 1
REMARK minimizedAffinity -1.37303948
REMARK minimizedRMSD -1
REMARK  0 active torsions:
REMARK  status: ('A' for Active; 'I' for Inactive)
ROOT
ATOM      1  C   UNL d   1       3.267  -1.615  -1.689  0.00  0.00     0.078 C 
ATOM      2  C1  UNL d   1       2.454  -0.570  -0.985  0.00  0.00    -0.077 A 
ATOM      3  C2  UNL d   1       1.267  -0.906  -0.321  0.00  0.00    -0.001 A 
ATOM      4  C3  UNL d   1       0.516   0.079   0.322  0.00  0.00     0.003 A 
ATOM      5  C4  UNL d   1       0.941   1.406   0.306  0.00  0.00    -0.005 A 
ATOM      6  C5  UNL d   1       2.118   1.749  -0.354  0.00  0.00     0.003 A 
ATOM      7  C6  UNL d   1       2.872   0.766  -0.997  0.00  0.00    -0.001 A 
ENDROOT
TORSDOF 0
ENDMDL
