MODEL 1
REMARK minimizedAffinity -3.90444279
REMARK minimizedRMSD -1
REMARK  0 active torsions:
REMARK  status: ('A' for Active; 'I' for Inactive)
ROOT
ATOM      1  C   UNL d   1       0.737   0.686   0.052  0.00  0.00     0.078 C 
ATOM      2  C1  UNL d   1       1.860   0.213  -0.821  0.00  0.00    -0.077 A 
ATOM      3  C2  UNL d   1       1.613  -0.292  -2.104  0.00  0.00    -0.001 A 
ATOM      4  C3  UNL d   1       2.668  -0.739  -2.902  0.00  0.00     0.003 A 
ATOM      5  C4  UNL d   1       3.977  -0.686  -2.426  0.00  0.00    -0.005 A 
ATOM      6  C5  UNL d   1       4.232  -0.188  -1.150  0.00  0.00     0.003 A 
ATOM      7  C6  UNL d   1       3.179   0.259  -0.351  0.00  0.00    -0.001 A 
ENDROOT
TORSDOF 0
ENDMDL
