MODEL 1
REMARK minimizedAffinity -2.12552428
REMARK minimizedRMSD -1
REMARK  0 active torsions:
REMARK  status: ('A' for Active; 'I' for Inactive)
ROOT
ATOM      1  C   UNL d   1      -4.137  -0.518  -5.982  0.00  0.00     0.078 C 
ATOM      2  C1  UNL d   1      -3.993   0.975  -5.993  0.00  0.00    -0.077 A 
ATOM      3  C2  UNL d   1      -2.729   1.577  -6.000  0.00  0.00    -0.001 A 
ATOM      4  C3  UNL d   1      -2.610   2.968  -6.000  0.00  0.00     0.003 A 
ATOM      5  C4  UNL d   1      -3.751   3.768  -5.991  0.00  0.00    -0.005 A 
ATOM      6  C5  UNL d   1      -5.013   3.177  -5.982  0.00  0.00     0.003 A 
ATOM      7  C6  UNL d   1      -5.134   1.787  -5.982  0.00  0.00    -0.001 A 
ENDROOT
TORSDOF 0
ENDMDL
