MODEL 1
REMARK minimizedAffinity -1.86570847
REMARK minimizedRMSD -1
REMARK  0 active torsions:
REMARK  status: ('A' for Active; 'I' for Inactive)
ROOT
ATOM      1  C   UNL d   1      -4.319  -0.049  -5.955  0.00  0.00     0.078 C 
ATOM      2  C1  UNL d   1      -4.266   1.450  -5.960  0.00  0.00    -0.077 A 
ATOM      3  C2  UNL d   1      -3.043   2.129  -5.914  0.00  0.00    -0.001 A 
ATOM      4  C3  UNL d   1      -3.010   3.524  -5.910  0.00  0.00     0.003 A 
ATOM      5  C4  UNL d   1      -4.197   4.252  -5.950  0.00  0.00    -0.005 A 
ATOM      6  C5  UNL d   1      -5.419   3.585  -5.994  0.00  0.00     0.003 A 
ATOM      7  C6  UNL d   1      -5.455   2.190  -5.998  0.00  0.00    -0.001 A 
ENDROOT
TORSDOF 0
ENDMDL
