MODEL 1
REMARK minimizedAffinity -2.14178634
REMARK minimizedRMSD -1
REMARK  0 active torsions:
REMARK  status: ('A' for Active; 'I' for Inactive)
ROOT
ATOM      1  C   UNL d   1      -4.018  -2.165   3.764  0.00  0.00     0.078 C 
ATOM      2  C1  UNL d   1      -3.785  -2.454   2.312  0.00  0.00    -0.077 A 
ATOM      3  C2  UNL d   1      -4.755  -2.145   1.350  0.00  0.00    -0.001 A 
ATOM      4  C3  UNL d   1      -4.528  -2.428   0.002  0.00  0.00     0.003 A 
ATOM      5  C4  UNL d   1      -3.334  -3.024  -0.396  0.00  0.00    -0.005 A 
ATOM      6  C5  UNL d   1      -2.364  -3.338   0.554  0.00  0.00     0.003 A 
ATOM      7  C6  UNL d   1      -2.588  -3.055   1.902  0.00  0.00    -0.001 A 
ENDROOT
TORSDOF 0
ENDMDL
