MODEL 1
REMARK minimizedAffinity -1.13374805
REMARK minimizedRMSD -1
REMARK  0 active torsions:
REMARK  status: ('A' for Active; 'I' for Inactive)
ROOT
ATOM      1  C   UNL d   1      -3.001  -0.808  -6.000  0.00  0.00     0.078 C 
ATOM      2  C1  UNL d   1      -3.124   0.686  -5.992  0.00  0.00    -0.077 A 
ATOM      3  C2  UNL d   1      -4.379   1.306  -5.996  0.00  0.00    -0.001 A 
ATOM      4  C3  UNL d   1      -4.479   2.698  -5.999  0.00  0.00     0.003 A 
ATOM      5  C4  UNL d   1      -3.327   3.482  -6.000  0.00  0.00    -0.005 A 
ATOM      6  C5  UNL d   1      -2.073   2.874  -5.998  0.00  0.00     0.003 A 
ATOM      7  C6  UNL d   1      -1.972   1.482  -5.995  0.00  0.00    -0.001 A 
ENDROOT
TORSDOF 0
ENDMDL
