MODEL 1
REMARK minimizedAffinity -0.14176929
REMARK minimizedRMSD -1
REMARK  0 active torsions:
REMARK  status: ('A' for Active; 'I' for Inactive)
ROOT
ATOM      1  C   UNL d   1       1.288  -0.116  -3.209  0.00  0.00     0.078 C 
ATOM      2  C1  UNL d   1       1.244   0.388  -1.797  0.00  0.00    -0.077 A 
ATOM      3  C2  UNL d   1       0.476  -0.263  -0.823  0.00  0.00    -0.001 A 
ATOM      4  C3  UNL d   1       0.437   0.223   0.485  0.00  0.00     0.003 A 
ATOM      5  C4  UNL d   1       1.163   1.361   0.831  0.00  0.00    -0.005 A 
ATOM      6  C5  UNL d   1       1.927   2.016  -0.132  0.00  0.00     0.003 A 
ATOM      7  C6  UNL d   1       1.968   1.533  -1.441  0.00  0.00    -0.001 A 
ENDROOT
TORSDOF 0
ENDMDL
