MODEL 1
REMARK minimizedAffinity -1.31735075
REMARK minimizedRMSD -1
REMARK  0 active torsions:
REMARK  status: ('A' for Active; 'I' for Inactive)
ROOT
ATOM      1  C   UNL d   1      -1.930   1.898  -5.967  0.00  0.00     0.078 C 
ATOM      2  C1  UNL d   1      -3.273   2.564  -5.980  0.00  0.00    -0.077 A 
ATOM      3  C2  UNL d   1      -3.385   3.960  -5.962  0.00  0.00    -0.001 A 
ATOM      4  C3  UNL d   1      -4.642   4.567  -5.964  0.00  0.00     0.003 A 
ATOM      5  C4  UNL d   1      -5.796   3.786  -5.984  0.00  0.00    -0.005 A 
ATOM      6  C5  UNL d   1      -5.694   2.397  -6.000  0.00  0.00     0.003 A 
ATOM      7  C6  UNL d   1      -4.438   1.788  -5.997  0.00  0.00    -0.001 A 
ENDROOT
TORSDOF 0
ENDMDL
