MODEL 1
REMARK minimizedAffinity -1.97485638
REMARK minimizedRMSD -1
REMARK  0 active torsions:
REMARK  status: ('A' for Active; 'I' for Inactive)
ROOT
ATOM      1  C   UNL d   1      -4.272   0.066  -5.384  0.00  0.00     0.078 C 
ATOM      2  C1  UNL d   1      -4.144   1.543  -5.605  0.00  0.00    -0.077 A 
ATOM      3  C2  UNL d   1      -2.890   2.166  -5.605  0.00  0.00    -0.001 A 
ATOM      4  C3  UNL d   1      -2.786   3.544  -5.802  0.00  0.00     0.003 A 
ATOM      5  C4  UNL d   1      -3.933   4.311  -6.000  0.00  0.00    -0.005 A 
ATOM      6  C5  UNL d   1      -5.185   3.700  -6.000  0.00  0.00     0.003 A 
ATOM      7  C6  UNL d   1      -5.291   2.322  -5.803  0.00  0.00    -0.001 A 
ENDROOT
TORSDOF 0
ENDMDL
