MODEL 1
REMARK minimizedAffinity 0.275784671
REMARK minimizedRMSD -1
REMARK  0 active torsions:
REMARK  status: ('A' for Active; 'I' for Inactive)
ROOT
ATOM      1  C   UNL d   1       3.632  -0.108  -0.244  0.00  0.00     0.078 C 
ATOM      2  C1  UNL d   1       2.198  -0.062  -0.682  0.00  0.00    -0.077 A 
ATOM      3  C2  UNL d   1       1.185   0.324   0.204  0.00  0.00    -0.001 A 
ATOM      4  C3  UNL d   1      -0.146   0.353  -0.215  0.00  0.00     0.003 A 
ATOM      5  C4  UNL d   1      -0.476  -0.003  -1.521  0.00  0.00    -0.005 A 
ATOM      6  C5  UNL d   1       0.524  -0.391  -2.409  0.00  0.00     0.003 A 
ATOM      7  C6  UNL d   1       1.856  -0.421  -1.992  0.00  0.00    -0.001 A 
ENDROOT
TORSDOF 0
ENDMDL
