MODEL 1
REMARK minimizedAffinity -3.94820023
REMARK minimizedRMSD -1
REMARK  0 active torsions:
REMARK  status: ('A' for Active; 'I' for Inactive)
ROOT
ATOM      1  C   UNL d   1      -3.941   3.933  -5.646  0.00  0.00     0.078 C 
ATOM      2  C1  UNL d   1      -4.004   2.435  -5.643  0.00  0.00    -0.077 A 
ATOM      3  C2  UNL d   1      -2.890   1.665  -5.998  0.00  0.00    -0.001 A 
ATOM      4  C3  UNL d   1      -2.967   0.271  -6.000  0.00  0.00     0.003 A 
ATOM      5  C4  UNL d   1      -4.156  -0.364  -5.648  0.00  0.00    -0.005 A 
ATOM      6  C5  UNL d   1      -5.270   0.393  -5.295  0.00  0.00     0.003 A 
ATOM      7  C6  UNL d   1      -5.196   1.787  -5.293  0.00  0.00    -0.001 A 
ENDROOT
TORSDOF 0
ENDMDL
