MODEL 1
REMARK minimizedAffinity -1.78881204
REMARK minimizedRMSD -1
REMARK  0 active torsions:
REMARK  status: ('A' for Active; 'I' for Inactive)
ROOT
ATOM      1  C   UNL d   1      -4.041  -0.290  -5.989  0.00  0.00     0.078 C 
ATOM      2  C1  UNL d   1      -3.977   1.208  -5.984  0.00  0.00    -0.077 A 
ATOM      3  C2  UNL d   1      -5.145   1.980  -5.994  0.00  0.00    -0.001 A 
ATOM      4  C3  UNL d   1      -5.071   3.373  -5.999  0.00  0.00     0.003 A 
ATOM      5  C4  UNL d   1      -3.830   4.008  -5.996  0.00  0.00    -0.005 A 
ATOM      6  C5  UNL d   1      -2.662   3.248  -5.988  0.00  0.00     0.003 A 
ATOM      7  C6  UNL d   1      -2.735   1.854  -5.982  0.00  0.00    -0.001 A 
ENDROOT
TORSDOF 0
ENDMDL
