MODEL 1
REMARK minimizedAffinity -0.895910501
REMARK minimizedRMSD -1
REMARK  0 active torsions:
REMARK  status: ('A' for Active; 'I' for Inactive)
ROOT
ATOM      1  C   UNL d   1      -3.788   0.385  -5.933  0.00  0.00     0.078 C 
ATOM      2  C1  UNL d   1      -3.576   1.869  -5.963  0.00  0.00    -0.077 A 
ATOM      3  C2  UNL d   1      -2.285   2.413  -5.961  0.00  0.00    -0.001 A 
ATOM      4  C3  UNL d   1      -2.102   3.796  -5.979  0.00  0.00     0.003 A 
ATOM      5  C4  UNL d   1      -3.205   4.648  -5.999  0.00  0.00    -0.005 A 
ATOM      6  C5  UNL d   1      -4.493   4.116  -5.999  0.00  0.00     0.003 A 
ATOM      7  C6  UNL d   1      -4.678   2.733  -5.981  0.00  0.00    -0.001 A 
ENDROOT
TORSDOF 0
ENDMDL
