MODEL 1
REMARK minimizedAffinity -0.975291252
REMARK minimizedRMSD -1
REMARK  0 active torsions:
REMARK  status: ('A' for Active; 'I' for Inactive)
ROOT
ATOM      1  C   UNL d   1      -4.824   2.355  -5.820  0.00  0.00     0.078 C 
ATOM      2  C1  UNL d   1      -3.982   1.118  -5.720  0.00  0.00    -0.077 A 
ATOM      3  C2  UNL d   1      -2.631   1.192  -5.361  0.00  0.00    -0.001 A 
ATOM      4  C3  UNL d   1      -1.857   0.033  -5.281  0.00  0.00     0.003 A 
ATOM      5  C4  UNL d   1      -2.425  -1.208  -5.559  0.00  0.00    -0.005 A 
ATOM      6  C5  UNL d   1      -3.769  -1.292  -5.919  0.00  0.00     0.003 A 
ATOM      7  C6  UNL d   1      -4.544  -0.134  -5.999  0.00  0.00    -0.001 A 
ENDROOT
TORSDOF 0
ENDMDL
