MODEL 1
REMARK minimizedAffinity -3.20126128
REMARK minimizedRMSD -1
REMARK  0 active torsions:
REMARK  status: ('A' for Active; 'I' for Inactive)
ROOT
ATOM      1  C   UNL d   1      -5.307  -3.005  -5.600  0.00  0.00     0.078 C 
ATOM      2  C1  UNL d   1      -4.074  -3.859  -5.588  0.00  0.00    -0.077 A 
ATOM      3  C2  UNL d   1      -2.839  -3.338  -5.185  0.00  0.00    -0.001 A 
ATOM      4  C3  UNL d   1      -1.698  -4.142  -5.187  0.00  0.00     0.003 A 
ATOM      5  C4  UNL d   1      -1.781  -5.472  -5.594  0.00  0.00    -0.005 A 
ATOM      6  C5  UNL d   1      -3.006  -6.000  -5.999  0.00  0.00     0.003 A 
ATOM      7  C6  UNL d   1      -4.148  -5.197  -5.996  0.00  0.00    -0.001 A 
ENDROOT
TORSDOF 0
ENDMDL
