MODEL 1
REMARK minimizedAffinity 0.539071381
REMARK minimizedRMSD -1
REMARK  0 active torsions:
REMARK  status: ('A' for Active; 'I' for Inactive)
ROOT
ATOM      1  C   UNL d   1      -1.912   0.777  -4.874  0.00  0.00     0.078 C 
ATOM      2  C1  UNL d   1      -3.336   0.528  -5.271  0.00  0.00    -0.077 A 
ATOM      3  C2  UNL d   1      -4.276   1.566  -5.276  0.00  0.00    -0.001 A 
ATOM      4  C3  UNL d   1      -5.600   1.318  -5.638  0.00  0.00     0.003 A 
ATOM      5  C4  UNL d   1      -5.998   0.032  -5.998  0.00  0.00    -0.005 A 
ATOM      6  C5  UNL d   1      -5.071  -1.008  -5.995  0.00  0.00     0.003 A 
ATOM      7  C6  UNL d   1      -3.746  -0.762  -5.632  0.00  0.00    -0.001 A 
ENDROOT
TORSDOF 0
ENDMDL
