MODEL 1
REMARK minimizedAffinity 1.66903007
REMARK minimizedRMSD -1
REMARK  1 active torsions:
REMARK  status: ('A' for Active; 'I' for Inactive)
REMARK    1  A    between atoms: C1_2  and  C2_3 
ROOT
ATOM      1  C2  UNL d   1       0.458  -1.501   1.592  0.00  0.00    -0.073 A 
ATOM      2  C3  UNL d   1      -0.583  -2.346   1.994  0.00  0.00    -0.002 A 
ATOM      3  C4  UNL d   1      -0.484  -3.725   1.805  0.00  0.00     0.004 A 
ATOM      4  C5  UNL d   1       0.657  -4.273   1.220  0.00  0.00    -0.004 A 
ATOM      5  C6  UNL d   1       1.713  -3.447   0.822  0.00  0.00    -0.075 A 
ATOM      6  C7  UNL d   1       2.946  -4.021   0.189  0.00  0.00     0.076 C 
ATOM      7  C8  UNL d   1       1.605  -2.063   1.013  0.00  0.00     0.001 A 
ENDROOT
BRANCH   1   8
ATOM      8  C1  UNL d   1       0.359  -0.012   1.801  0.00  0.00     0.053 C 
ATOM      9  C   UNL d   1       1.723   0.660   1.769  0.00  0.00     0.018 C 
ENDBRANCH   1   8
TORSDOF 1
ENDMDL
