MODEL 1
REMARK minimizedAffinity -1.47530568
REMARK minimizedRMSD -1
REMARK  1 active torsions:
REMARK  status: ('A' for Active; 'I' for Inactive)
REMARK    1  A    between atoms: C1_2  and  C2_3 
ROOT
ATOM      1  C2  UNL d   1       2.239  -3.249   0.933  0.00  0.00    -0.073 A 
ATOM      2  C3  UNL d   1       2.028  -2.236  -0.009  0.00  0.00    -0.002 A 
ATOM      3  C4  UNL d   1       0.836  -1.511  -0.010  0.00  0.00     0.004 A 
ATOM      4  C5  UNL d   1      -0.154  -1.786   0.934  0.00  0.00    -0.004 A 
ATOM      5  C6  UNL d   1       0.044  -2.787   1.891  0.00  0.00    -0.075 A 
ATOM      6  C7  UNL d   1      -1.011  -3.097   2.912  0.00  0.00     0.076 C 
ATOM      7  C8  UNL d   1       1.243  -3.512   1.884  0.00  0.00     0.001 A 
ENDROOT
BRANCH   1   8
ATOM      8  C1  UNL d   1       3.528  -4.029   0.941  0.00  0.00     0.053 C 
ATOM      9  C   UNL d   1       3.771  -4.743  -0.379  0.00  0.00     0.018 C 
ENDBRANCH   1   8
TORSDOF 1
ENDMDL
