MODEL 1
REMARK minimizedAffinity 3.62731576
REMARK minimizedRMSD -1
REMARK  1 active torsions:
REMARK  status: ('A' for Active; 'I' for Inactive)
REMARK    1  A    between atoms: C1_2  and  C2_3 
ROOT
ATOM      1  C2  UNL d   1       1.138  -2.719   0.821  0.00  0.00    -0.073 A 
ATOM      2  C3  UNL d   1       0.396  -3.882   1.059  0.00  0.00    -0.002 A 
ATOM      3  C4  UNL d   1      -0.773  -3.830   1.818  0.00  0.00     0.004 A 
ATOM      4  C5  UNL d   1      -1.217  -2.615   2.341  0.00  0.00    -0.004 A 
ATOM      5  C6  UNL d   1      -0.496  -1.440   2.105  0.00  0.00    -0.075 A 
ATOM      6  C7  UNL d   1      -0.958  -0.126   2.662  0.00  0.00     0.076 C 
ATOM      7  C8  UNL d   1       0.679  -1.501   1.343  0.00  0.00     0.001 A 
ENDROOT
BRANCH   1   8
ATOM      8  C1  UNL d   1       2.398  -2.770  -0.004  0.00  0.00     0.053 C 
ATOM      9  C   UNL d   1       2.893  -4.194  -0.202  0.00  0.00     0.018 C 
ENDBRANCH   1   8
TORSDOF 1
ENDMDL
