MODEL 1
REMARK minimizedAffinity 5.3442831
REMARK minimizedRMSD -1
REMARK  1 active torsions:
REMARK  status: ('A' for Active; 'I' for Inactive)
REMARK    1  A    between atoms: C1_2  and  C2_3 
ROOT
ATOM      1  C2  UNL d   1      -5.272  -0.806  -5.279  0.00  0.00    -0.073 A 
ATOM      2  C3  UNL d   1      -6.000  -1.888  -5.788  0.00  0.00    -0.002 A 
ATOM      3  C4  UNL d   1      -5.378  -3.119  -6.000  0.00  0.00     0.004 A 
ATOM      4  C5  UNL d   1      -4.026  -3.283  -5.699  0.00  0.00    -0.004 A 
ATOM      5  C6  UNL d   1      -3.284  -2.218  -5.179  0.00  0.00    -0.075 A 
ATOM      6  C7  UNL d   1      -1.828  -2.377  -4.853  0.00  0.00     0.076 C 
ATOM      7  C8  UNL d   1      -3.915  -0.984  -4.972  0.00  0.00     0.001 A 
ENDROOT
BRANCH   1   8
ATOM      8  C1  UNL d   1      -5.940   0.523  -5.043  0.00  0.00     0.053 C 
ATOM      9  C   UNL d   1      -5.337   1.262  -3.859  0.00  0.00     0.018 C 
ENDBRANCH   1   8
TORSDOF 1
ENDMDL
