MODEL 1
REMARK minimizedAffinity 5.8989048
REMARK minimizedRMSD -1
REMARK  1 active torsions:
REMARK  status: ('A' for Active; 'I' for Inactive)
REMARK    1  A    between atoms: C1_2  and  C2_3 
ROOT
ATOM      1  C2  UNL d   1      -3.693   4.291   5.335  0.00  0.00    -0.073 A 
ATOM      2  C3  UNL d   1      -3.039   3.916   4.156  0.00  0.00    -0.002 A 
ATOM      3  C4  UNL d   1      -3.337   2.699   3.541  0.00  0.00     0.004 A 
ATOM      4  C5  UNL d   1      -4.295   1.849   4.093  0.00  0.00    -0.004 A 
ATOM      5  C6  UNL d   1      -4.968   2.212   5.264  0.00  0.00    -0.075 A 
ATOM      6  C7  UNL d   1      -6.000   1.308   5.873  0.00  0.00     0.076 C 
ATOM      7  C8  UNL d   1      -4.661   3.434   5.878  0.00  0.00     0.001 A 
ENDROOT
BRANCH   1   8
ATOM      8  C1  UNL d   1      -3.379   5.606   5.999  0.00  0.00     0.053 C 
ATOM      9  C   UNL d   1      -1.889   5.906   5.996  0.00  0.00     0.018 C 
ENDBRANCH   1   8
TORSDOF 1
ENDMDL
