MODEL 1
REMARK minimizedAffinity -2.91560531
REMARK minimizedRMSD -1
REMARK  0 active torsions:
REMARK  status: ('A' for Active; 'I' for Inactive)
ROOT
ATOM      1  N1  IND d   1      -0.381  -0.962   0.736  0.00  0.00    -0.196 N 
ATOM      2  C2  IND d   1       0.172  -1.344  -0.454  0.00  0.00     0.054 A 
ATOM      3  C3  IND d   1       0.970  -0.366  -0.938  0.00  0.00    -0.031 A 
ATOM      4  C4  IND d   1       1.593   1.902   0.108  0.00  0.00     0.051 A 
ATOM      5  C5  IND d   1       1.309   2.713   1.171  0.00  0.00    -0.031 A 
ATOM      6  C6  IND d   1       0.431   2.331   2.165  0.00  0.00     0.015 A 
ATOM      7  C7  IND d   1      -0.189   1.114   2.139  0.00  0.00    -0.016 A 
ATOM      8  C8  IND d   1       0.092   0.291   1.057  0.00  0.00    -0.047 A 
ATOM      9  C9  IND d   1       0.949   0.691   0.024  0.00  0.00    -0.096 A 
ATOM     10  HN1 IND d   1      -0.931  -1.427   1.206  0.00  0.00     0.298 HD
ENDROOT
TORSDOF 0
ENDMDL
