MODEL 1
REMARK minimizedAffinity -3.63861537
REMARK minimizedRMSD -1
REMARK  0 active torsions:
REMARK  status: ('A' for Active; 'I' for Inactive)
ROOT
ATOM      1  N1  IND d   1      -0.189  -1.656  -0.804  0.00  0.00    -0.196 N 
ATOM      2  C2  IND d   1      -0.132  -0.307  -1.019  0.00  0.00     0.054 A 
ATOM      3  C3  IND d   1      -0.582   0.361   0.067  0.00  0.00    -0.031 A 
ATOM      4  C4  IND d   1      -1.364  -0.553   2.343  0.00  0.00     0.051 A 
ATOM      5  C5  IND d   1      -1.626  -1.721   3.002  0.00  0.00    -0.031 A 
ATOM      6  C6  IND d   1      -1.416  -2.952   2.415  0.00  0.00     0.015 A 
ATOM      7  C7  IND d   1      -0.923  -3.062   1.145  0.00  0.00    -0.016 A 
ATOM      8  C8  IND d   1      -0.662  -1.877   0.471  0.00  0.00    -0.047 A 
ATOM      9  C9  IND d   1      -0.913  -0.625   1.046  0.00  0.00    -0.096 A 
ATOM     10  HN1 IND d   1       0.033  -2.264  -1.370  0.00  0.00     0.298 HD
ENDROOT
TORSDOF 0
ENDMDL
