MODEL 1
REMARK minimizedAffinity -3.15755248
REMARK minimizedRMSD -1
REMARK  0 active torsions:
REMARK  status: ('A' for Active; 'I' for Inactive)
ROOT
ATOM      1  N1  IND d   1       2.182   1.824   0.528  0.00  0.00    -0.196 N 
ATOM      2  C2  IND d   1       1.351   2.588   1.299  0.00  0.00     0.054 A 
ATOM      3  C3  IND d   1       0.208   1.917   1.567  0.00  0.00    -0.031 A 
ATOM      4  C4  IND d   1      -0.467  -0.484   0.927  0.00  0.00     0.051 A 
ATOM      5  C5  IND d   1      -0.052  -1.561   0.195  0.00  0.00    -0.031 A 
ATOM      6  C6  IND d   1       1.155  -1.565  -0.475  0.00  0.00     0.015 A 
ATOM      7  C7  IND d   1       2.000  -0.493  -0.428  0.00  0.00    -0.016 A 
ATOM      8  C8  IND d   1       1.578   0.605   0.308  0.00  0.00    -0.047 A 
ATOM      9  C9  IND d   1       0.336   0.632   0.955  0.00  0.00    -0.096 A 
ATOM     10  HN1 IND d   1       2.952   2.064   0.230  0.00  0.00     0.298 HD
ENDROOT
TORSDOF 0
ENDMDL
