MODEL 1
REMARK minimizedAffinity 0.0696165785
REMARK minimizedRMSD -1
REMARK  0 active torsions:
REMARK  status: ('A' for Active; 'I' for Inactive)
ROOT
ATOM      1  N1  IND d   1      -1.474  -3.415   4.284  0.00  0.00    -0.196 N 
ATOM      2  C2  IND d   1      -2.655  -2.796   4.586  0.00  0.00     0.054 A 
ATOM      3  C3  IND d   1      -3.428  -2.694   3.481  0.00  0.00    -0.031 A 
ATOM      4  C4  IND d   1      -2.998  -3.568   1.098  0.00  0.00     0.051 A 
ATOM      5  C5  IND d   1      -2.043  -4.168   0.327  0.00  0.00    -0.031 A 
ATOM      6  C6  IND d   1      -0.825  -4.558   0.846  0.00  0.00     0.015 A 
ATOM      7  C7  IND d   1      -0.521  -4.372   2.165  0.00  0.00    -0.016 A 
ATOM      8  C8  IND d   1      -1.486  -3.757   2.950  0.00  0.00    -0.047 A 
ATOM      9  C9  IND d   1      -2.707  -3.320   2.419  0.00  0.00    -0.096 A 
ATOM     10  HN1 IND d   1      -0.832  -3.566   4.836  0.00  0.00     0.298 HD
ENDROOT
TORSDOF 0
ENDMDL
