MODEL 1
REMARK minimizedAffinity -4.37150145
REMARK minimizedRMSD -1
REMARK  0 active torsions:
REMARK  status: ('A' for Active; 'I' for Inactive)
ROOT
ATOM      1  N1  IND d   1       2.047  -0.508  -0.554  0.00  0.00    -0.196 N 
ATOM      2  C2  IND d   1       1.119  -1.511  -0.597  0.00  0.00     0.054 A 
ATOM      3  C3  IND d   1      -0.006  -1.140   0.055  0.00  0.00    -0.031 A 
ATOM      4  C4  IND d   1      -0.580   1.104   1.178  0.00  0.00     0.051 A 
ATOM      5  C5  IND d   1      -0.037   2.315   1.505  0.00  0.00    -0.031 A 
ATOM      6  C6  IND d   1       1.253   2.655   1.153  0.00  0.00     0.015 A 
ATOM      7  C7  IND d   1       2.048   1.796   0.448  0.00  0.00    -0.016 A 
ATOM      8  C8  IND d   1       1.503   0.563   0.120  0.00  0.00    -0.047 A 
ATOM      9  C9  IND d   1       0.209   0.197   0.511  0.00  0.00    -0.096 A 
ATOM     10  HN1 IND d   1       2.837  -0.541  -0.891  0.00  0.00     0.298 HD
ENDROOT
TORSDOF 0
ENDMDL
