MODEL 1
REMARK minimizedAffinity -3.24569249
REMARK minimizedRMSD -1
REMARK  0 active torsions:
REMARK  status: ('A' for Active; 'I' for Inactive)
ROOT
ATOM      1  N1  IND d   1       1.878   2.298   0.207  0.00  0.00    -0.196 N 
ATOM      2  C2  IND d   1       1.304   2.924   1.277  0.00  0.00     0.054 A 
ATOM      3  C3  IND d   1       0.301   2.169   1.781  0.00  0.00    -0.031 A 
ATOM      4  C4  IND d   1      -0.502  -0.170   1.068  0.00  0.00     0.051 A 
ATOM      5  C5  IND d   1      -0.308  -1.132   0.116  0.00  0.00    -0.031 A 
ATOM      6  C6  IND d   1       0.645  -0.998  -0.873  0.00  0.00     0.015 A 
ATOM      7  C7  IND d   1       1.452   0.103  -0.940  0.00  0.00    -0.016 A 
ATOM      8  C8  IND d   1       1.253   1.084   0.021  0.00  0.00    -0.047 A 
ATOM      9  C9  IND d   1       0.259   0.973   1.001  0.00  0.00    -0.096 A 
ATOM     10  HN1 IND d   1       2.522   2.610  -0.271  0.00  0.00     0.298 HD
ENDROOT
TORSDOF 0
ENDMDL
