MODEL 1
REMARK minimizedAffinity -4.50217199
REMARK minimizedRMSD -1
REMARK  0 active torsions:
REMARK  status: ('A' for Active; 'I' for Inactive)
ROOT
ATOM      1  N1  IND d   1       0.098  -1.577  -0.033  0.00  0.00    -0.196 N 
ATOM      2  C2  IND d   1      -0.791  -2.053   0.890  0.00  0.00     0.054 A 
ATOM      3  C3  IND d   1      -1.104  -1.087   1.783  0.00  0.00    -0.031 A 
ATOM      4  C4  IND d   1      -0.355   1.375   1.859  0.00  0.00     0.051 A 
ATOM      5  C5  IND d   1       0.483   2.265   1.248  0.00  0.00    -0.031 A 
ATOM      6  C6  IND d   1       1.248   1.914   0.154  0.00  0.00     0.015 A 
ATOM      7  C7  IND d   1       1.195   0.657  -0.378  0.00  0.00    -0.016 A 
ATOM      8  C8  IND d   1       0.351  -0.252   0.245  0.00  0.00    -0.047 A 
ATOM      9  C9  IND d   1      -0.395   0.087   1.381  0.00  0.00    -0.096 A 
ATOM     10  HN1 IND d   1       0.440  -2.029  -0.679  0.00  0.00     0.298 HD
ENDROOT
TORSDOF 0
ENDMDL
