MODEL 1
REMARK minimizedAffinity -1.18246651
REMARK minimizedRMSD -1
REMARK  0 active torsions:
REMARK  status: ('A' for Active; 'I' for Inactive)
ROOT
ATOM      1  N1  IND d   1       0.448  -4.938  -0.398  0.00  0.00    -0.196 N 
ATOM      2  C2  IND d   1      -0.323  -5.999  -0.784  0.00  0.00     0.054 A 
ATOM      3  C3  IND d   1      -1.412  -5.569  -1.460  0.00  0.00    -0.031 A 
ATOM      4  C4  IND d   1      -2.076  -3.176  -2.138  0.00  0.00     0.051 A 
ATOM      5  C5  IND d   1      -1.705  -1.870  -1.982  0.00  0.00    -0.031 A 
ATOM      6  C6  IND d   1      -0.574  -1.513  -1.278  0.00  0.00     0.015 A 
ATOM      7  C7  IND d   1       0.239  -2.453  -0.711  0.00  0.00    -0.016 A 
ATOM      8  C8  IND d   1      -0.138  -3.780  -0.862  0.00  0.00    -0.047 A 
ATOM      9  C9  IND d   1      -1.308  -4.146  -1.539  0.00  0.00    -0.096 A 
ATOM     10  HN1 IND d   1       1.175  -4.985   0.057  0.00  0.00     0.298 HD
ENDROOT
TORSDOF 0
ENDMDL
