MODEL 1
REMARK minimizedAffinity -2.94845128
REMARK minimizedRMSD -1
REMARK  0 active torsions:
REMARK  status: ('A' for Active; 'I' for Inactive)
ROOT
ATOM      1  N1  IND d   1      -0.298  -1.255   0.339  0.00  0.00    -0.196 N 
ATOM      2  C2  IND d   1       0.387  -1.828  -0.696  0.00  0.00     0.054 A 
ATOM      3  C3  IND d   1       1.239  -0.935  -1.248  0.00  0.00    -0.031 A 
ATOM      4  C4  IND d   1       1.745   1.490  -0.551  0.00  0.00     0.051 A 
ATOM      5  C5  IND d   1       1.342   2.469   0.315  0.00  0.00    -0.031 A 
ATOM      6  C6  IND d   1       0.355   2.250   1.254  0.00  0.00     0.015 A 
ATOM      7  C7  IND d   1      -0.262   1.037   1.370  0.00  0.00    -0.016 A 
ATOM      8  C8  IND d   1       0.139   0.043   0.488  0.00  0.00    -0.047 A 
ATOM      9  C9  IND d   1       1.111   0.272  -0.495  0.00  0.00    -0.096 A 
ATOM     10  HN1 IND d   1      -0.900  -1.640   0.817  0.00  0.00     0.298 HD
ENDROOT
TORSDOF 0
ENDMDL
