MODEL 1
REMARK minimizedAffinity -0.240206689
REMARK minimizedRMSD -1
REMARK  0 active torsions:
REMARK  status: ('A' for Active; 'I' for Inactive)
ROOT
ATOM      1  N1  IND d   1       2.733   0.230  -0.820  0.00  0.00    -0.196 N 
ATOM      2  C2  IND d   1       2.825   1.551  -0.478  0.00  0.00     0.054 A 
ATOM      3  C3  IND d   1       1.592   2.087  -0.337  0.00  0.00    -0.031 A 
ATOM      4  C4  IND d   1      -0.714   0.957  -0.519  0.00  0.00     0.051 A 
ATOM      5  C5  IND d   1      -1.310  -0.228  -0.847  0.00  0.00    -0.031 A 
ATOM      6  C6  IND d   1      -0.574  -1.344  -1.188  0.00  0.00     0.015 A 
ATOM      7  C7  IND d   1       0.792  -1.320  -1.202  0.00  0.00    -0.016 A 
ATOM      8  C8  IND d   1       1.401  -0.116  -0.875  0.00  0.00    -0.047 A 
ATOM      9  C9  IND d   1       0.658   1.032  -0.570  0.00  0.00    -0.096 A 
ATOM     10  HN1 IND d   1       3.395  -0.295  -0.975  0.00  0.00     0.298 HD
ENDROOT
TORSDOF 0
ENDMDL
