MODEL 1
REMARK minimizedAffinity -2.00036216
REMARK minimizedRMSD -1
REMARK  0 active torsions:
REMARK  status: ('A' for Active; 'I' for Inactive)
ROOT
ATOM      1  N1  IND d   1      -2.925  -2.765  -2.747  0.00  0.00    -0.196 N 
ATOM      2  C2  IND d   1      -2.523  -1.852  -3.682  0.00  0.00     0.054 A 
ATOM      3  C3  IND d   1      -1.500  -1.109  -3.204  0.00  0.00    -0.031 A 
ATOM      4  C4  IND d   1      -0.262  -1.285  -0.953  0.00  0.00     0.051 A 
ATOM      5  C5  IND d   1      -0.293  -1.943   0.244  0.00  0.00    -0.031 A 
ATOM      6  C6  IND d   1      -1.220  -2.930   0.510  0.00  0.00     0.015 A 
ATOM      7  C7  IND d   1      -2.147  -3.306  -0.420  0.00  0.00    -0.016 A 
ATOM      8  C8  IND d   1      -2.124  -2.635  -1.634  0.00  0.00    -0.047 A 
ATOM      9  C9  IND d   1      -1.213  -1.603  -1.895  0.00  0.00    -0.096 A 
ATOM     10  HN1 IND d   1      -3.571  -3.325  -2.838  0.00  0.00     0.298 HD
ENDROOT
TORSDOF 0
ENDMDL
