MODEL 1
REMARK minimizedAffinity -4.76261473
REMARK minimizedRMSD -1
REMARK  0 active torsions:
REMARK  status: ('A' for Active; 'I' for Inactive)
ROOT
ATOM      1  N1  IND d   1      -0.411  -1.126   0.345  0.00  0.00    -0.196 N 
ATOM      2  C2  IND d   1       0.372  -1.690  -0.624  0.00  0.00     0.054 A 
ATOM      3  C3  IND d   1       1.317  -0.815  -1.032  0.00  0.00    -0.031 A 
ATOM      4  C4  IND d   1       1.828   1.559  -0.177  0.00  0.00     0.051 A 
ATOM      5  C5  IND d   1       1.362   2.520   0.675  0.00  0.00    -0.031 A 
ATOM      6  C6  IND d   1       0.260   2.310   1.479  0.00  0.00     0.015 A 
ATOM      7  C7  IND d   1      -0.413   1.121   1.469  0.00  0.00    -0.016 A 
ATOM      8  C8  IND d   1       0.054   0.145   0.600  0.00  0.00    -0.047 A 
ATOM      9  C9  IND d   1       1.146   0.368  -0.249  0.00  0.00    -0.096 A 
ATOM     10  HN1 IND d   1      -1.081  -1.503   0.730  0.00  0.00     0.298 HD
ENDROOT
TORSDOF 0
ENDMDL
