MODEL 1
REMARK minimizedAffinity -0.514846265
REMARK minimizedRMSD -1
REMARK  0 active torsions:
REMARK  status: ('A' for Active; 'I' for Inactive)
ROOT
ATOM      1  N1  IND d   1      -1.146  -1.540  -1.939  0.00  0.00    -0.196 N 
ATOM      2  C2  IND d   1      -1.439  -0.881  -3.100  0.00  0.00     0.054 A 
ATOM      3  C3  IND d   1      -2.719  -1.119  -3.466  0.00  0.00    -0.031 A 
ATOM      4  C4  IND d   1      -4.541  -2.476  -2.255  0.00  0.00     0.051 A 
ATOM      5  C5  IND d   1      -4.738  -3.292  -1.176  0.00  0.00    -0.031 A 
ATOM      6  C6  IND d   1      -3.729  -3.569  -0.277  0.00  0.00     0.015 A 
ATOM      7  C7  IND d   1      -2.482  -3.029  -0.417  0.00  0.00    -0.016 A 
ATOM      8  C8  IND d   1      -2.276  -2.206  -1.515  0.00  0.00    -0.047 A 
ATOM      9  C9  IND d   1      -3.284  -1.955  -2.455  0.00  0.00    -0.096 A 
ATOM     10  HN1 IND d   1      -0.385  -1.539  -1.540  0.00  0.00     0.298 HD
ENDROOT
TORSDOF 0
ENDMDL
