MODEL 1
REMARK minimizedAffinity -3.6177702
REMARK minimizedRMSD -1
REMARK  3 active torsions:
REMARK  status: ('A' for Active; 'I' for Inactive)
REMARK    1  A    between atoms: C3'_2  and  C2'_3 
REMARK    2  A    between atoms: C2'_3  and  C1'_4 
REMARK    3  A    between atoms: C1'_4  and  C1_5 
ROOT
ATOM      1  C1  N4B d   1       0.818  -1.211  -0.570  0.00  0.00    -0.075 A 
ATOM      2  C2  N4B d   1       0.927  -2.031   0.575  0.00  0.00     0.002 A 
ATOM      3  C3  N4B d   1       0.507  -3.337   0.525  0.00  0.00     0.002 A 
ATOM      4  C4  N4B d   1      -0.040  -3.838  -0.647  0.00  0.00    -0.004 A 
ATOM      5  C5  N4B d   1      -0.118  -3.047  -1.755  0.00  0.00     0.002 A 
ATOM      6  C6  N4B d   1       0.304  -1.733  -1.721  0.00  0.00     0.002 A 
ENDROOT
BRANCH   1   7
ATOM      7  C1' N4B d   1       1.184   0.248  -0.539  0.00  0.00     0.057 C 
BRANCH   7   8
ATOM      8  C2' N4B d   1       0.091   1.024   0.189  0.00  0.00     0.009 C 
BRANCH   8   9
ATOM      9  C3' N4B d   1      -1.296   0.505  -0.151  0.00  0.00     0.004 C 
ATOM     10  C4' N4B d   1      -1.939  -0.224   0.992  0.00  0.00     0.003 C 
ENDBRANCH   8   9
ENDBRANCH   7   8
ENDBRANCH   1   7
TORSDOF 3
ENDMDL
