MODEL 1
REMARK minimizedAffinity -2.24775624
REMARK minimizedRMSD -1
REMARK  3 active torsions:
REMARK  status: ('A' for Active; 'I' for Inactive)
REMARK    1  A    between atoms: C3'_2  and  C2'_3 
REMARK    2  A    between atoms: C2'_3  and  C1'_4 
REMARK    3  A    between atoms: C1'_4  and  C1_5 
ROOT
ATOM      1  C1  N4B d   1       0.392   1.711  -0.387  0.00  0.00    -0.075 A 
ATOM      2  C2  N4B d   1      -0.293   2.788   0.217  0.00  0.00     0.002 A 
ATOM      3  C3  N4B d   1       0.410   3.868   0.694  0.00  0.00     0.002 A 
ATOM      4  C4  N4B d   1       1.793   3.883   0.595  0.00  0.00    -0.004 A 
ATOM      5  C5  N4B d   1       2.445   2.850  -0.012  0.00  0.00     0.002 A 
ATOM      6  C6  N4B d   1       1.751   1.761  -0.499  0.00  0.00     0.002 A 
ENDROOT
BRANCH   1   7
ATOM      7  C1' N4B d   1      -0.325   0.471  -0.846  0.00  0.00     0.057 C 
BRANCH   7   8
ATOM      8  C2' N4B d   1      -1.293   0.020   0.245  0.00  0.00     0.009 C 
BRANCH   8   9
ATOM      9  C3' N4B d   1      -0.677  -1.032   1.152  0.00  0.00     0.004 C 
ATOM     10  C4' N4B d   1      -1.094  -2.426   0.792  0.00  0.00     0.003 C 
ENDBRANCH   8   9
ENDBRANCH   7   8
ENDBRANCH   1   7
TORSDOF 3
ENDMDL
