MODEL 1
REMARK minimizedAffinity -1.48307025
REMARK minimizedRMSD -1
REMARK  3 active torsions:
REMARK  status: ('A' for Active; 'I' for Inactive)
REMARK    1  A    between atoms: C3'_2  and  C2'_3 
REMARK    2  A    between atoms: C2'_3  and  C1'_4 
REMARK    3  A    between atoms: C1'_4  and  C1_5 
ROOT
ATOM      1  C1  N4B d   1      -0.402   0.143  -0.024  0.00  0.00    -0.075 A 
ATOM      2  C2  N4B d   1      -0.206   0.014   1.368  0.00  0.00     0.002 A 
ATOM      3  C3  N4B d   1      -0.486  -1.176   1.994  0.00  0.00     0.002 A 
ATOM      4  C4  N4B d   1      -0.979  -2.241   1.254  0.00  0.00    -0.004 A 
ATOM      5  C5  N4B d   1      -1.141  -2.116  -0.095  0.00  0.00     0.002 A 
ATOM      6  C6  N4B d   1      -0.860  -0.927  -0.738  0.00  0.00     0.002 A 
ENDROOT
BRANCH   1   7
ATOM      7  C1' N4B d   1      -0.192   1.450  -0.738  0.00  0.00     0.057 C 
BRANCH   7   8
ATOM      8  C2' N4B d   1      -0.280   2.591   0.270  0.00  0.00     0.009 C 
BRANCH   8   9
ATOM      9  C3' N4B d   1       1.092   3.109   0.664  0.00  0.00     0.004 C 
ATOM     10  C4' N4B d   1       1.214   3.372   2.135  0.00  0.00     0.003 C 
ENDBRANCH   8   9
ENDBRANCH   7   8
ENDBRANCH   1   7
TORSDOF 3
ENDMDL
