MODEL 1
REMARK minimizedAffinity 1.80509698
REMARK minimizedRMSD -1
REMARK  3 active torsions:
REMARK  status: ('A' for Active; 'I' for Inactive)
REMARK    1  A    between atoms: C3'_2  and  C2'_3 
REMARK    2  A    between atoms: C2'_3  and  C1'_4 
REMARK    3  A    between atoms: C1'_4  and  C1_5 
ROOT
ATOM      1  C1  N4B d   1      -1.514  -0.203   1.372  0.00  0.00    -0.075 A 
ATOM      2  C2  N4B d   1      -1.575  -1.232   0.406  0.00  0.00     0.002 A 
ATOM      3  C3  N4B d   1      -0.888  -1.104  -0.776  0.00  0.00     0.002 A 
ATOM      4  C4  N4B d   1      -0.152   0.045  -1.022  0.00  0.00    -0.004 A 
ATOM      5  C5  N4B d   1      -0.079   1.023  -0.074  0.00  0.00     0.002 A 
ATOM      6  C6  N4B d   1      -0.761   0.907   1.121  0.00  0.00     0.002 A 
ENDROOT
BRANCH   1   7
ATOM      7  C1' N4B d   1      -2.317  -0.258   2.643  0.00  0.00     0.057 C 
BRANCH   7   8
ATOM      8  C2' N4B d   1      -3.446   0.766   2.567  0.00  0.00     0.009 C 
BRANCH   8   9
ATOM      9  C3' N4B d   1      -4.109   0.980   3.917  0.00  0.00     0.004 C 
ATOM     10  C4' N4B d   1      -5.214   1.993   3.867  0.00  0.00     0.003 C 
ENDBRANCH   8   9
ENDBRANCH   7   8
ENDBRANCH   1   7
TORSDOF 3
ENDMDL
