MODEL 1
REMARK minimizedAffinity -3.86756992
REMARK minimizedRMSD -1
REMARK  3 active torsions:
REMARK  status: ('A' for Active; 'I' for Inactive)
REMARK    1  A    between atoms: C3'_2  and  C2'_3 
REMARK    2  A    between atoms: C2'_3  and  C1'_4 
REMARK    3  A    between atoms: C1'_4  and  C1_5 
ROOT
ATOM      1  C1  N4B d   1       0.703   1.232   0.024  0.00  0.00    -0.075 A 
ATOM      2  C2  N4B d   1       0.778   2.377  -0.799  0.00  0.00     0.002 A 
ATOM      3  C3  N4B d   1       1.547   3.449  -0.416  0.00  0.00     0.002 A 
ATOM      4  C4  N4B d   1       2.232   3.405   0.789  0.00  0.00    -0.004 A 
ATOM      5  C5  N4B d   1       2.175   2.285   1.566  0.00  0.00     0.002 A 
ATOM      6  C6  N4B d   1       1.409   1.199   1.191  0.00  0.00     0.002 A 
ENDROOT
BRANCH   1   7
ATOM      7  C1' N4B d   1      -0.192   0.070  -0.311  0.00  0.00     0.057 C 
BRANCH   7   8
ATOM      8  C2' N4B d   1      -0.948  -0.358   0.943  0.00  0.00     0.009 C 
BRANCH   8   9
ATOM      9  C3' N4B d   1      -1.304  -1.834   0.916  0.00  0.00     0.004 C 
ATOM     10  C4' N4B d   1      -0.907  -2.504  -0.365  0.00  0.00     0.003 C 
ENDBRANCH   8   9
ENDBRANCH   7   8
ENDBRANCH   1   7
TORSDOF 3
ENDMDL
