MODEL 1
REMARK minimizedAffinity -4.35116005
REMARK minimizedRMSD -1
REMARK  3 active torsions:
REMARK  status: ('A' for Active; 'I' for Inactive)
REMARK    1  A    between atoms: C3'_2  and  C2'_3 
REMARK    2  A    between atoms: C2'_3  and  C1'_4 
REMARK    3  A    between atoms: C1'_4  and  C1_5 
ROOT
ATOM      1  C1  N4B d   1       0.820   1.899  -0.056  0.00  0.00    -0.075 A 
ATOM      2  C2  N4B d   1       0.288   2.974   0.689  0.00  0.00     0.002 A 
ATOM      3  C3  N4B d   1       1.069   4.068   0.969  0.00  0.00     0.002 A 
ATOM      4  C4  N4B d   1       2.384   4.102   0.532  0.00  0.00    -0.004 A 
ATOM      5  C5  N4B d   1       2.883   3.071  -0.209  0.00  0.00     0.002 A 
ATOM      6  C6  N4B d   1       2.109   1.966  -0.501  0.00  0.00     0.002 A 
ENDROOT
BRANCH   1   7
ATOM      7  C1' N4B d   1       0.032   0.644  -0.313  0.00  0.00     0.057 C 
BRANCH   7   8
ATOM      8  C2' N4B d   1       0.357  -0.382   0.768  0.00  0.00     0.009 C 
BRANCH   8   9
ATOM      9  C3' N4B d   1      -0.865  -1.190   1.171  0.00  0.00     0.004 C 
ATOM     10  C4' N4B d   1      -0.991  -2.473   0.404  0.00  0.00     0.003 C 
ENDBRANCH   8   9
ENDBRANCH   7   8
ENDBRANCH   1   7
TORSDOF 3
ENDMDL
