MODEL 1
REMARK minimizedAffinity 0.939773262
REMARK minimizedRMSD -1
REMARK  1 active torsions:
REMARK  status: ('A' for Active; 'I' for Inactive)
REMARK    1  A    between atoms: N_2  and  C1_3 
ROOT
ATOM      1  C1  UNL d   1      -2.297  -1.752  -2.587  0.00  0.00     0.143 A 
ATOM      2  C2  UNL d   1      -2.528  -2.664  -1.552  0.00  0.00    -0.057 A 
ATOM      3  C3  UNL d   1      -1.981  -2.468  -0.277  0.00  0.00     0.033 A 
ATOM      4  C4  UNL d   1      -1.167  -1.369  -0.024  0.00  0.00    -0.042 A 
ATOM      5  C5  UNL d   1      -0.903  -0.464  -1.045  0.00  0.00     0.033 A 
ATOM      6  C6  UNL d   1      -1.457  -0.661  -2.314  0.00  0.00    -0.057 A 
ENDROOT
BRANCH   1   7
ATOM      7  N   UNL d   1      -2.730  -1.942  -3.902  0.00  0.00    -0.732 N 
ATOM      8  C   UNL d   1      -2.799  -3.271  -4.471  0.00  0.00     0.284 C 
ATOM      9  H3  UNL d   1      -3.520  -1.347  -4.140  0.00  0.00     0.395 HD
ENDBRANCH   1   7
TORSDOF 1
ENDMDL
