MODEL 1
REMARK minimizedAffinity -4.03486109
REMARK minimizedRMSD -1
REMARK  1 active torsions:
REMARK  status: ('A' for Active; 'I' for Inactive)
REMARK    1  A    between atoms: N_2  and  C1_3 
ROOT
ATOM      1  C1  UNL d   1       0.707  -0.203  -2.233  0.00  0.00     0.143 A 
ATOM      2  C2  UNL d   1       2.061  -0.509  -2.408  0.00  0.00    -0.057 A 
ATOM      3  C3  UNL d   1       2.653  -0.483  -3.677  0.00  0.00     0.033 A 
ATOM      4  C4  UNL d   1       1.893  -0.177  -4.800  0.00  0.00    -0.042 A 
ATOM      5  C5  UNL d   1       0.539   0.107  -4.653  0.00  0.00     0.033 A 
ATOM      6  C6  UNL d   1      -0.045   0.085  -3.383  0.00  0.00    -0.057 A 
ENDROOT
BRANCH   1   7
ATOM      7  N   UNL d   1       0.037  -0.307  -1.012  0.00  0.00    -0.732 N 
ATOM      8  C   UNL d   1       0.309  -1.410  -0.115  0.00  0.00     0.284 C 
ATOM      9  H3  UNL d   1      -0.065   0.592  -0.547  0.00  0.00     0.395 HD
ENDBRANCH   1   7
TORSDOF 1
ENDMDL
