MODEL 1
REMARK minimizedAffinity -3.88625383
REMARK minimizedRMSD -1
REMARK  1 active torsions:
REMARK  status: ('A' for Active; 'I' for Inactive)
REMARK    1  A    between atoms: N_2  and  C1_3 
ROOT
ATOM      1  C1  UNL d   1      -2.310  -3.106  -2.249  0.00  0.00     0.143 A 
ATOM      2  C2  UNL d   1      -1.573  -3.511  -1.131  0.00  0.00    -0.057 A 
ATOM      3  C3  UNL d   1      -1.034  -2.576  -0.239  0.00  0.00     0.033 A 
ATOM      4  C4  UNL d   1      -1.199  -1.213  -0.466  0.00  0.00    -0.042 A 
ATOM      5  C5  UNL d   1      -1.906  -0.787  -1.585  0.00  0.00     0.033 A 
ATOM      6  C6  UNL d   1      -2.447  -1.726  -2.468  0.00  0.00    -0.057 A 
ENDROOT
BRANCH   1   7
ATOM      7  N   UNL d   1      -2.787  -3.983  -3.226  0.00  0.00    -0.732 N 
ATOM      8  C   UNL d   1      -3.044  -3.519  -4.572  0.00  0.00     0.284 C 
ATOM      9  H3  UNL d   1      -2.340  -4.896  -3.179  0.00  0.00     0.395 HD
ENDBRANCH   1   7
TORSDOF 1
ENDMDL
