MODEL 1
REMARK minimizedAffinity 2.69684625
REMARK minimizedRMSD -1
REMARK  1 active torsions:
REMARK  status: ('A' for Active; 'I' for Inactive)
REMARK    1  A    between atoms: N_2  and  C1_3 
ROOT
ATOM      1  C1  UNL d   1      -3.951  -3.143  -1.561  0.00  0.00     0.143 A 
ATOM      2  C2  UNL d   1      -3.834  -3.473  -2.915  0.00  0.00    -0.057 A 
ATOM      3  C3  UNL d   1      -2.743  -3.038  -3.677  0.00  0.00     0.033 A 
ATOM      4  C4  UNL d   1      -1.761  -2.238  -3.103  0.00  0.00    -0.042 A 
ATOM      5  C5  UNL d   1      -1.870  -1.876  -1.765  0.00  0.00     0.033 A 
ATOM      6  C6  UNL d   1      -2.958  -2.320  -1.008  0.00  0.00    -0.057 A 
ENDROOT
BRANCH   1   7
ATOM      7  N   UNL d   1      -5.061  -3.463  -0.776  0.00  0.00    -0.732 N 
ATOM      8  C   UNL d   1      -5.247  -4.808  -0.275  0.00  0.00     0.284 C 
ATOM      9  H3  UNL d   1      -5.283  -2.734  -0.101  0.00  0.00     0.395 HD
ENDBRANCH   1   7
TORSDOF 1
ENDMDL
