MODEL 1
REMARK minimizedAffinity -0.927562177
REMARK minimizedRMSD -1
REMARK  1 active torsions:
REMARK  status: ('A' for Active; 'I' for Inactive)
REMARK    1  A    between atoms: N_2  and  C1_3 
ROOT
ATOM      1  C1  UNL d   1      -3.327  -0.370   4.131  0.00  0.00     0.143 A 
ATOM      2  C2  UNL d   1      -4.250   0.139   5.050  0.00  0.00    -0.057 A 
ATOM      3  C3  UNL d   1      -4.878  -0.693   5.985  0.00  0.00     0.033 A 
ATOM      4  C4  UNL d   1      -4.614  -2.059   5.998  0.00  0.00    -0.042 A 
ATOM      5  C5  UNL d   1      -3.718  -2.591   5.077  0.00  0.00     0.033 A 
ATOM      6  C6  UNL d   1      -3.089  -1.754   4.151  0.00  0.00    -0.057 A 
ENDROOT
BRANCH   1   7
ATOM      7  N   UNL d   1      -2.743   0.388   3.113  0.00  0.00    -0.732 N 
ATOM      8  C   UNL d   1      -3.567   1.094   2.155  0.00  0.00     0.284 C 
ATOM      9  H3  UNL d   1      -1.936   0.917   3.436  0.00  0.00     0.395 HD
ENDBRANCH   1   7
TORSDOF 1
ENDMDL
