MODEL 1
REMARK minimizedAffinity 3.23415208
REMARK minimizedRMSD -1
REMARK  1 active torsions:
REMARK  status: ('A' for Active; 'I' for Inactive)
REMARK    1  A    between atoms: N_2  and  C1_3 
ROOT
ATOM      1  C1  UNL d   1      -2.884   0.302   3.350  0.00  0.00     0.143 A 
ATOM      2  C2  UNL d   1      -3.367   0.964   4.485  0.00  0.00    -0.057 A 
ATOM      3  C3  UNL d   1      -3.642   0.268   5.668  0.00  0.00     0.033 A 
ATOM      4  C4  UNL d   1      -3.467  -1.110   5.729  0.00  0.00    -0.042 A 
ATOM      5  C5  UNL d   1      -3.012  -1.792   4.606  0.00  0.00     0.033 A 
ATOM      6  C6  UNL d   1      -2.732  -1.091   3.429  0.00  0.00    -0.057 A 
ENDROOT
BRANCH   1   7
ATOM      7  N   UNL d   1      -2.686   0.922   2.114  0.00  0.00    -0.732 N 
ATOM      8  C   UNL d   1      -1.964   0.246   1.058  0.00  0.00     0.284 C 
ATOM      9  H3  UNL d   1      -3.509   1.429   1.797  0.00  0.00     0.395 HD
ENDBRANCH   1   7
TORSDOF 1
ENDMDL
