MODEL 1
REMARK minimizedAffinity 1.58723295
REMARK minimizedRMSD -1
REMARK  1 active torsions:
REMARK  status: ('A' for Active; 'I' for Inactive)
REMARK    1  A    between atoms: N_2  and  C1_3 
ROOT
ATOM      1  C1  UNL d   1      -1.943  -1.256  -1.451  0.00  0.00     0.143 A 
ATOM      2  C2  UNL d   1      -2.290  -0.941  -2.769  0.00  0.00    -0.057 A 
ATOM      3  C3  UNL d   1      -2.724  -1.928  -3.662  0.00  0.00     0.033 A 
ATOM      4  C4  UNL d   1      -2.791  -3.258  -3.259  0.00  0.00    -0.042 A 
ATOM      5  C5  UNL d   1      -2.428  -3.598  -1.961  0.00  0.00     0.033 A 
ATOM      6  C6  UNL d   1      -2.002  -2.606  -1.072  0.00  0.00    -0.057 A 
ENDROOT
BRANCH   1   7
ATOM      7  N   UNL d   1      -1.411  -0.335  -0.545  0.00  0.00    -0.732 N 
ATOM      8  C   UNL d   1      -2.216   0.178   0.543  0.00  0.00     0.284 C 
ATOM      9  H3  UNL d   1      -0.453  -0.556  -0.285  0.00  0.00     0.395 HD
ENDBRANCH   1   7
TORSDOF 1
ENDMDL
