MODEL 1
REMARK minimizedAffinity -1.39603496
REMARK minimizedRMSD -1
REMARK  1 active torsions:
REMARK  status: ('A' for Active; 'I' for Inactive)
REMARK    1  A    between atoms: N_2  and  C1_3 
ROOT
ATOM      1  C1  UNL d   1      -4.796   5.925   2.322  0.00  0.00     0.143 A 
ATOM      2  C2  UNL d   1      -5.994   5.979   3.042  0.00  0.00    -0.057 A 
ATOM      3  C3  UNL d   1      -6.000   6.000   4.442  0.00  0.00     0.033 A 
ATOM      4  C4  UNL d   1      -4.804   5.937   5.149  0.00  0.00    -0.042 A 
ATOM      5  C5  UNL d   1      -3.602   5.858   4.455  0.00  0.00     0.033 A 
ATOM      6  C6  UNL d   1      -3.603   5.844   3.057  0.00  0.00    -0.057 A 
ENDROOT
BRANCH   1   7
ATOM      7  N   UNL d   1      -4.729   5.802   0.932  0.00  0.00    -0.732 N 
ATOM      8  C   UNL d   1      -5.911   5.989   0.118  0.00  0.00     0.284 C 
ATOM      9  H3  UNL d   1      -3.887   6.221   0.545  0.00  0.00     0.395 HD
ENDBRANCH   1   7
TORSDOF 1
ENDMDL
