MODEL 1
REMARK minimizedAffinity 0.990743995
REMARK minimizedRMSD -1
REMARK  1 active torsions:
REMARK  status: ('A' for Active; 'I' for Inactive)
REMARK    1  A    between atoms: N_2  and  C1_3 
ROOT
ATOM      1  C1  UNL d   1      -2.129   0.425   1.021  0.00  0.00     0.143 A 
ATOM      2  C2  UNL d   1      -1.306   1.096   0.110  0.00  0.00    -0.057 A 
ATOM      3  C3  UNL d   1      -0.765   0.438  -1.001  0.00  0.00     0.033 A 
ATOM      4  C4  UNL d   1      -1.015  -0.915  -1.205  0.00  0.00    -0.042 A 
ATOM      5  C5  UNL d   1      -1.809  -1.608  -0.299  0.00  0.00     0.033 A 
ATOM      6  C6  UNL d   1      -2.352  -0.944   0.805  0.00  0.00    -0.057 A 
ENDROOT
BRANCH   1   7
ATOM      7  N   UNL d   1      -2.617   0.999   2.197  0.00  0.00    -0.732 N 
ATOM      8  C   UNL d   1      -2.495   0.306   3.462  0.00  0.00     0.284 C 
ATOM      9  H3  UNL d   1      -2.426   1.997   2.251  0.00  0.00     0.395 HD
ENDBRANCH   1   7
TORSDOF 1
ENDMDL
