MODEL 1
REMARK minimizedAffinity 1.74178958
REMARK minimizedRMSD -1
REMARK  1 active torsions:
REMARK  status: ('A' for Active; 'I' for Inactive)
REMARK    1  A    between atoms: N_2  and  C1_3 
ROOT
ATOM      1  C1  UNL d   1       0.630   2.261   4.927  0.00  0.00     0.143 A 
ATOM      2  C2  UNL d   1       0.406   1.246   3.991  0.00  0.00    -0.057 A 
ATOM      3  C3  UNL d   1       1.387   0.287   3.710  0.00  0.00     0.033 A 
ATOM      4  C4  UNL d   1       2.625   0.345   4.342  0.00  0.00    -0.042 A 
ATOM      5  C5  UNL d   1       2.879   1.360   5.258  0.00  0.00     0.033 A 
ATOM      6  C6  UNL d   1       1.892   2.310   5.538  0.00  0.00    -0.057 A 
ENDROOT
BRANCH   1   7
ATOM      7  N   UNL d   1      -0.269   3.301   5.177  0.00  0.00    -0.732 N 
ATOM      8  C   UNL d   1      -1.638   3.018   5.551  0.00  0.00     0.284 C 
ATOM      9  H3  UNL d   1       0.155   4.064   5.699  0.00  0.00     0.395 HD
ENDBRANCH   1   7
TORSDOF 1
ENDMDL
