MODEL 1
REMARK minimizedAffinity 4.61621809
REMARK minimizedRMSD -1
REMARK  1 active torsions:
REMARK  status: ('A' for Active; 'I' for Inactive)
REMARK    1  A    between atoms: N_2  and  C1_3 
ROOT
ATOM      1  C1  UNL d   1      -4.968   5.055   2.126  0.00  0.00     0.143 A 
ATOM      2  C2  UNL d   1      -4.331   4.113   1.311  0.00  0.00    -0.057 A 
ATOM      3  C3  UNL d   1      -4.496   4.125  -0.079  0.00  0.00     0.033 A 
ATOM      4  C4  UNL d   1      -5.327   5.066  -0.678  0.00  0.00    -0.042 A 
ATOM      5  C5  UNL d   1      -5.990   5.997   0.114  0.00  0.00     0.033 A 
ATOM      6  C6  UNL d   1      -5.815   5.983   1.501  0.00  0.00    -0.057 A 
ENDROOT
BRANCH   1   7
ATOM      7  N   UNL d   1      -4.922   5.034   3.522  0.00  0.00    -0.732 N 
ATOM      8  C   UNL d   1      -5.792   5.889   4.301  0.00  0.00     0.284 C 
ATOM      9  H3  UNL d   1      -4.823   4.092   3.893  0.00  0.00     0.395 HD
ENDBRANCH   1   7
TORSDOF 1
ENDMDL
