MODEL 1
REMARK minimizedAffinity 3.65510201
REMARK minimizedRMSD -1
REMARK  1 active torsions:
REMARK  status: ('A' for Active; 'I' for Inactive)
REMARK    1  A    between atoms: N_2  and  C1_3 
ROOT
ATOM      1  C1  UNL d   1       2.637   2.754   2.862  0.00  0.00     0.143 A 
ATOM      2  C2  UNL d   1       1.415   2.129   2.588  0.00  0.00    -0.057 A 
ATOM      3  C3  UNL d   1       0.727   1.416   3.577  0.00  0.00     0.033 A 
ATOM      4  C4  UNL d   1       1.264   1.291   4.854  0.00  0.00    -0.042 A 
ATOM      5  C5  UNL d   1       2.489   1.882   5.142  0.00  0.00     0.033 A 
ATOM      6  C6  UNL d   1       3.168   2.599   4.152  0.00  0.00    -0.057 A 
ENDROOT
BRANCH   1   7
ATOM      7  N   UNL d   1       3.417   3.394   1.896  0.00  0.00    -0.732 N 
ATOM      8  C   UNL d   1       3.134   3.220   0.487  0.00  0.00     0.284 C 
ATOM      9  H3  UNL d   1       3.654   4.348   2.158  0.00  0.00     0.395 HD
ENDBRANCH   1   7
TORSDOF 1
ENDMDL
