MODEL 1
REMARK minimizedAffinity -3.5552876
REMARK minimizedRMSD -1
REMARK  3 active torsions:
REMARK  status: ('A' for Active; 'I' for Inactive)
REMARK    1  A    between atoms: C3'_2  and  C2'_3 
REMARK    2  A    between atoms: C2'_3  and  C1'_4 
REMARK    3  A    between atoms: C1'_4  and  C1_5 
ROOT
ATOM      1  C1  N4B d   1      -0.416   0.049  -0.566  0.00  0.00    -0.075 A 
ATOM      2  C2  N4B d   1       0.773   0.026   0.195  0.00  0.00     0.002 A 
ATOM      3  C3  N4B d   1       0.721   0.197   1.556  0.00  0.00     0.002 A 
ATOM      4  C4  N4B d   1      -0.502   0.411   2.174  0.00  0.00    -0.004 A 
ATOM      5  C5  N4B d   1      -1.649   0.407   1.435  0.00  0.00     0.002 A 
ATOM      6  C6  N4B d   1      -1.612   0.232   0.067  0.00  0.00     0.002 A 
ENDROOT
BRANCH   1   7
ATOM      7  C1' N4B d   1      -0.401  -0.048  -2.067  0.00  0.00     0.057 C 
BRANCH   7   8
ATOM      8  C2' N4B d   1       0.926   0.494  -2.591  0.00  0.00     0.009 C 
BRANCH   8   9
ATOM      9  C3' N4B d   1       1.031   0.376  -4.101  0.00  0.00     0.004 C 
ATOM     10  C4' N4B d   1      -0.203   0.851  -4.809  0.00  0.00     0.003 C 
ENDBRANCH   8   9
ENDBRANCH   7   8
ENDBRANCH   1   7
TORSDOF 3
ENDMDL
