MODEL 1
REMARK minimizedAffinity -0.908607304
REMARK minimizedRMSD -1
REMARK  3 active torsions:
REMARK  status: ('A' for Active; 'I' for Inactive)
REMARK    1  A    between atoms: C3'_2  and  C2'_3 
REMARK    2  A    between atoms: C2'_3  and  C1'_4 
REMARK    3  A    between atoms: C1'_4  and  C1_5 
ROOT
ATOM      1  C1  N4B d   1      -0.412  -0.195  -0.167  0.00  0.00    -0.075 A 
ATOM      2  C2  N4B d   1      -1.501   0.625  -0.540  0.00  0.00     0.002 A 
ATOM      3  C3  N4B d   1      -2.338   1.133   0.423  0.00  0.00     0.002 A 
ATOM      4  C4  N4B d   1      -2.119   0.821   1.757  0.00  0.00    -0.004 A 
ATOM      5  C5  N4B d   1      -1.051   0.050   2.110  0.00  0.00     0.002 A 
ATOM      6  C6  N4B d   1      -0.199  -0.465   1.153  0.00  0.00     0.002 A 
ENDROOT
BRANCH   1   7
ATOM      7  C1' N4B d   1       0.480  -0.843  -1.190  0.00  0.00     0.057 C 
BRANCH   7   8
ATOM      8  C2' N4B d   1       0.640   0.096  -2.383  0.00  0.00     0.009 C 
BRANCH   8   9
ATOM      9  C3' N4B d   1       0.236  -0.569  -3.687  0.00  0.00     0.004 C 
ATOM     10  C4' N4B d   1      -0.479   0.365  -4.618  0.00  0.00     0.003 C 
ENDBRANCH   8   9
ENDBRANCH   7   8
ENDBRANCH   1   7
TORSDOF 3
ENDMDL
