MODEL 1
REMARK minimizedAffinity -0.48426488
REMARK minimizedRMSD -1
REMARK  3 active torsions:
REMARK  status: ('A' for Active; 'I' for Inactive)
REMARK    1  A    between atoms: C3'_2  and  C2'_3 
REMARK    2  A    between atoms: C2'_3  and  C1'_4 
REMARK    3  A    between atoms: C1'_4  and  C1_5 
ROOT
ATOM      1  C1  N4B d   1       0.685  -0.220  -1.808  0.00  0.00    -0.075 A 
ATOM      2  C2  N4B d   1      -0.244  -0.620  -2.794  0.00  0.00     0.002 A 
ATOM      3  C3  N4B d   1       0.003  -0.354  -4.118  0.00  0.00     0.002 A 
ATOM      4  C4  N4B d   1       1.157   0.325  -4.478  0.00  0.00    -0.004 A 
ATOM      5  C5  N4B d   1       2.061   0.687  -3.522  0.00  0.00     0.002 A 
ATOM      6  C6  N4B d   1       1.829   0.422  -2.188  0.00  0.00     0.002 A 
ENDROOT
BRANCH   1   7
ATOM      7  C1' N4B d   1       0.418  -0.412  -0.340  0.00  0.00     0.057 C 
BRANCH   7   8
ATOM      8  C2' N4B d   1      -1.039  -0.819  -0.145  0.00  0.00     0.009 C 
BRANCH   8   9
ATOM      9  C3' N4B d   1      -1.945   0.386   0.044  0.00  0.00     0.004 C 
ATOM     10  C4' N4B d   1      -2.366   0.578   1.470  0.00  0.00     0.003 C 
ENDBRANCH   8   9
ENDBRANCH   7   8
ENDBRANCH   1   7
TORSDOF 3
ENDMDL
