MODEL 1
REMARK minimizedAffinity 12.3158951
REMARK minimizedRMSD -1
REMARK  1 active torsions:
REMARK  status: ('A' for Active; 'I' for Inactive)
REMARK    1  A    between atoms: N_2  and  C1_3 
ROOT
ATOM      1  C1  UNL d   1       0.486  -3.850   5.128  0.00  0.00     0.143 A 
ATOM      2  C2  UNL d   1       0.104  -3.370   3.870  0.00  0.00    -0.057 A 
ATOM      3  C3  UNL d   1       0.972  -2.589   3.097  0.00  0.00     0.033 A 
ATOM      4  C4  UNL d   1       2.231  -2.250   3.582  0.00  0.00    -0.042 A 
ATOM      5  C5  UNL d   1       2.622  -2.695   4.840  0.00  0.00     0.033 A 
ATOM      6  C6  UNL d   1       1.753  -3.480   5.605  0.00  0.00    -0.057 A 
ENDROOT
BRANCH   1   7
ATOM      7  N   UNL d   1      -0.368  -4.547   5.986  0.00  0.00    -0.732 N 
ATOM      8  C   UNL d   1      -0.380  -5.995   5.997  0.00  0.00     0.284 C 
ATOM      9  H3  UNL d   1      -0.421  -4.124   6.909  0.00  0.00     0.395 HD
ENDBRANCH   1   7
TORSDOF 1
ENDMDL
