MODEL 1
REMARK minimizedAffinity 9.11879253
REMARK minimizedRMSD -1
REMARK  1 active torsions:
REMARK  status: ('A' for Active; 'I' for Inactive)
REMARK    1  A    between atoms: N_2  and  C1_3 
ROOT
ATOM      1  C1  UNL d   1       4.375  -3.423   4.723  0.00  0.00     0.143 A 
ATOM      2  C2  UNL d   1       3.880  -3.044   3.471  0.00  0.00    -0.057 A 
ATOM      3  C3  UNL d   1       2.533  -2.706   3.295  0.00  0.00     0.033 A 
ATOM      4  C4  UNL d   1       1.648  -2.769   4.366  0.00  0.00    -0.042 A 
ATOM      5  C5  UNL d   1       2.113  -3.167   5.615  0.00  0.00     0.033 A 
ATOM      6  C6  UNL d   1       3.461  -3.497   5.786  0.00  0.00    -0.057 A 
ENDROOT
BRANCH   1   7
ATOM      7  N   UNL d   1       5.682  -3.866   4.941  0.00  0.00    -0.732 N 
ATOM      8  C   UNL d   1       5.997  -5.278   4.913  0.00  0.00     0.284 C 
ATOM      9  H3  UNL d   1       6.374  -3.277   4.483  0.00  0.00     0.395 HD
ENDBRANCH   1   7
TORSDOF 1
ENDMDL
