MODEL 1
REMARK minimizedAffinity 9.81621647
REMARK minimizedRMSD -1
REMARK  1 active torsions:
REMARK  status: ('A' for Active; 'I' for Inactive)
REMARK    1  A    between atoms: N_2  and  C1_3 
ROOT
ATOM      1  C1  UNL d   1      -0.699  -1.936  -4.460  0.00  0.00     0.143 A 
ATOM      2  C2  UNL d   1      -1.286  -2.395  -3.276  0.00  0.00    -0.057 A 
ATOM      3  C3  UNL d   1      -1.891  -3.656  -3.208  0.00  0.00     0.033 A 
ATOM      4  C4  UNL d   1      -1.946  -4.470  -4.334  0.00  0.00    -0.042 A 
ATOM      5  C5  UNL d   1      -1.391  -4.024  -5.528  0.00  0.00     0.033 A 
ATOM      6  C6  UNL d   1      -0.782  -2.767  -5.589  0.00  0.00    -0.057 A 
ENDROOT
BRANCH   1   7
ATOM      7  N   UNL d   1      -0.170  -0.653  -4.619  0.00  0.00    -0.732 N 
ATOM      8  C   UNL d   1       1.065  -0.279  -3.964  0.00  0.00     0.284 C 
ATOM      9  H3  UNL d   1      -0.252  -0.314  -5.575  0.00  0.00     0.395 HD
ENDBRANCH   1   7
TORSDOF 1
ENDMDL
