MODEL 1
REMARK minimizedAffinity 9.52462673
REMARK minimizedRMSD -1
REMARK  1 active torsions:
REMARK  status: ('A' for Active; 'I' for Inactive)
REMARK    1  A    between atoms: N_2  and  C1_3 
ROOT
ATOM      1  C1  UNL d   1      -0.362  -2.574  -4.544  0.00  0.00     0.143 A 
ATOM      2  C2  UNL d   1      -0.277  -3.325  -5.722  0.00  0.00    -0.057 A 
ATOM      3  C3  UNL d   1      -1.184  -4.356  -5.992  0.00  0.00     0.033 A 
ATOM      4  C4  UNL d   1      -2.178  -4.676  -5.072  0.00  0.00    -0.042 A 
ATOM      5  C5  UNL d   1      -2.265  -3.960  -3.884  0.00  0.00     0.033 A 
ATOM      6  C6  UNL d   1      -1.360  -2.927  -3.622  0.00  0.00    -0.057 A 
ENDROOT
BRANCH   1   7
ATOM      7  N   UNL d   1       0.570  -1.602  -4.172  0.00  0.00    -0.732 N 
ATOM      8  C   UNL d   1       0.180  -0.213  -4.056  0.00  0.00     0.284 C 
ATOM      9  H3  UNL d   1       1.192  -1.922  -3.434  0.00  0.00     0.395 HD
ENDBRANCH   1   7
TORSDOF 1
ENDMDL
