MODEL 1
REMARK minimizedAffinity 25.0144691
REMARK minimizedRMSD -1
REMARK  0 active torsions:
REMARK  status: ('A' for Active; 'I' for Inactive)
ROOT
ATOM      1  C   UNL d   1       2.504   1.952   2.103  0.00  0.00     0.124 A 
ATOM      2  C1  UNL d   1       1.540   2.067   3.095  0.00  0.00     0.062 A 
ATOM      3  C2  UNL d   1       0.199   2.219   2.754  0.00  0.00     0.162 A 
ATOM      4  C3  UNL d   1      -0.186   2.255   1.414  0.00  0.00    -0.034 A 
ATOM      5  C4  UNL d   1       0.789   2.140   0.422  0.00  0.00     0.162 A 
ATOM      6  C5  UNL d   1       2.128   1.989   0.768  0.00  0.00     0.062 A 
ATOM      7  F   UNL d   1       3.057   1.878  -0.192  0.00  0.00    -0.097 F 
ATOM      8  F1  UNL d   1       0.453   2.171  -0.876  0.00  0.00    -0.096 F 
ATOM      9  I   UNL d   1      -2.190   2.482   0.900  0.00  0.00    -0.060 I 
ATOM     10  F2  UNL d   1      -0.711   2.328   3.734  0.00  0.00    -0.096 F 
ATOM     11  F3  UNL d   1       1.901   2.033   4.386  0.00  0.00    -0.097 F 
ATOM     12  F4  UNL d   1       3.794   1.807   2.434  0.00  0.00    -0.092 F 
ENDROOT
TORSDOF 0
ENDMDL
