MODEL 1
REMARK minimizedAffinity 16.217453
REMARK minimizedRMSD -1
REMARK  0 active torsions:
REMARK  status: ('A' for Active; 'I' for Inactive)
ROOT
ATOM      1  C   UNL d   1      -4.853   3.945  -5.544  0.00  0.00     0.124 A 
ATOM      2  C1  UNL d   1      -3.678   4.684  -5.540  0.00  0.00     0.062 A 
ATOM      3  C2  UNL d   1      -2.497   4.119  -5.066  0.00  0.00     0.162 A 
ATOM      4  C3  UNL d   1      -2.485   2.807  -4.593  0.00  0.00    -0.034 A 
ATOM      5  C4  UNL d   1      -3.671   2.070  -4.600  0.00  0.00     0.162 A 
ATOM      6  C5  UNL d   1      -4.848   2.639  -5.074  0.00  0.00     0.062 A 
ATOM      7  F   UNL d   1      -5.982   1.924  -5.078  0.00  0.00    -0.097 F 
ATOM      8  F1  UNL d   1      -3.695   0.806  -4.152  0.00  0.00    -0.096 F 
ATOM      9  I   UNL d   1      -0.722   1.959  -3.883  0.00  0.00    -0.060 I 
ATOM     10  F2  UNL d   1      -1.377   4.857  -5.073  0.00  0.00    -0.096 F 
ATOM     11  F3  UNL d   1      -3.680   5.946  -5.992  0.00  0.00    -0.097 F 
ATOM     12  F4  UNL d   1      -5.987   4.491  -6.000  0.00  0.00    -0.092 F 
ENDROOT
TORSDOF 0
ENDMDL
