MODEL 1
REMARK minimizedAffinity 28.517067
REMARK minimizedRMSD -1
REMARK  0 active torsions:
REMARK  status: ('A' for Active; 'I' for Inactive)
ROOT
ATOM      1  C   UNL d   1       1.251   1.938   0.017  0.00  0.00     0.124 A 
ATOM      2  C1  UNL d   1       0.863   1.794   1.342  0.00  0.00     0.062 A 
ATOM      3  C2  UNL d   1       1.816   1.797   2.355  0.00  0.00     0.162 A 
ATOM      4  C3  UNL d   1       3.169   1.945   2.049  0.00  0.00    -0.034 A 
ATOM      5  C4  UNL d   1       3.552   2.088   0.714  0.00  0.00     0.162 A 
ATOM      6  C5  UNL d   1       2.595   2.085  -0.296  0.00  0.00     0.062 A 
ATOM      7  F   UNL d   1       2.973   2.224  -1.575  0.00  0.00    -0.097 F 
ATOM      8  F1  UNL d   1       4.844   2.233   0.384  0.00  0.00    -0.096 F 
ATOM      9  I   UNL d   1       4.598   1.950   3.561  0.00  0.00    -0.060 I 
ATOM     10  F2  UNL d   1       1.412   1.656   3.627  0.00  0.00    -0.096 F 
ATOM     11  F3  UNL d   1      -0.435   1.651   1.646  0.00  0.00    -0.097 F 
ATOM     12  F4  UNL d   1       0.331   1.933  -0.956  0.00  0.00    -0.092 F 
ENDROOT
TORSDOF 0
ENDMDL
