MODEL 1
REMARK minimizedAffinity 19.6131058
REMARK minimizedRMSD -1
REMARK  0 active torsions:
REMARK  status: ('A' for Active; 'I' for Inactive)
ROOT
ATOM      1  C   UNL d   1       4.235   1.041  -1.048  0.00  0.00     0.124 A 
ATOM      2  C1  UNL d   1       3.571   2.258  -0.984  0.00  0.00     0.062 A 
ATOM      3  C2  UNL d   1       2.416   2.386  -0.218  0.00  0.00     0.162 A 
ATOM      4  C3  UNL d   1       1.918   1.293   0.492  0.00  0.00    -0.034 A 
ATOM      5  C4  UNL d   1       2.591   0.072   0.422  0.00  0.00     0.162 A 
ATOM      6  C5  UNL d   1       3.745  -0.051  -0.345  0.00  0.00     0.062 A 
ATOM      7  F   UNL d   1       4.385  -1.227  -0.406  0.00  0.00    -0.097 F 
ATOM      8  F1  UNL d   1       2.140  -0.999   1.092  0.00  0.00    -0.096 F 
ATOM      9  I   UNL d   1       0.192   1.480   1.640  0.00  0.00    -0.060 I 
ATOM     10  F2  UNL d   1       1.795   3.574  -0.174  0.00  0.00    -0.096 F 
ATOM     11  F3  UNL d   1       4.042   3.314  -1.663  0.00  0.00    -0.097 F 
ATOM     12  F4  UNL d   1       5.345   0.920  -1.788  0.00  0.00    -0.092 F 
ENDROOT
TORSDOF 0
ENDMDL
