MODEL 1
REMARK minimizedAffinity 23.6914368
REMARK minimizedRMSD -1
REMARK  0 active torsions:
REMARK  status: ('A' for Active; 'I' for Inactive)
ROOT
ATOM      1  C   UNL d   1       3.955   4.254   5.048  0.00  0.00     0.124 A 
ATOM      2  C1  UNL d   1       4.924   4.104   4.066  0.00  0.00     0.062 A 
ATOM      3  C2  UNL d   1       4.785   3.123   3.088  0.00  0.00     0.162 A 
ATOM      4  C3  UNL d   1       3.669   2.286   3.086  0.00  0.00    -0.034 A 
ATOM      5  C4  UNL d   1       2.699   2.442   4.077  0.00  0.00     0.162 A 
ATOM      6  C5  UNL d   1       2.843   3.423   5.052  0.00  0.00     0.062 A 
ATOM      7  F   UNL d   1       1.905   3.567   6.000  0.00  0.00    -0.097 F 
ATOM      8  F1  UNL d   1       1.614   1.653   4.104  0.00  0.00    -0.096 F 
ATOM      9  I   UNL d   1       3.456   0.819   1.625  0.00  0.00    -0.060 I 
ATOM     10  F2  UNL d   1       5.737   3.001   2.152  0.00  0.00    -0.096 F 
ATOM     11  F3  UNL d   1       6.000   4.905   4.060  0.00  0.00    -0.097 F 
ATOM     12  F4  UNL d   1       4.092   5.197   5.988  0.00  0.00    -0.092 F 
ENDROOT
TORSDOF 0
ENDMDL
