MODEL 1
REMARK minimizedAffinity 32.6946411
REMARK minimizedRMSD -1
REMARK  0 active torsions:
REMARK  status: ('A' for Active; 'I' for Inactive)
ROOT
ATOM      1  C   UNL d   1       2.237  -4.604  -2.650  0.00  0.00     0.124 A 
ATOM      2  C1  UNL d   1       2.102  -5.258  -3.867  0.00  0.00     0.062 A 
ATOM      3  C2  UNL d   1       3.109  -5.170  -4.825  0.00  0.00     0.162 A 
ATOM      4  C3  UNL d   1       4.260  -4.425  -4.569  0.00  0.00    -0.034 A 
ATOM      5  C4  UNL d   1       4.388  -3.769  -3.344  0.00  0.00     0.162 A 
ATOM      6  C5  UNL d   1       3.380  -3.860  -2.390  0.00  0.00     0.062 A 
ATOM      7  F   UNL d   1       3.512  -3.227  -1.215  0.00  0.00    -0.097 F 
ATOM      8  F1  UNL d   1       5.482  -3.044  -3.065  0.00  0.00    -0.096 F 
ATOM      9  I   UNL d   1       5.766  -4.290  -5.999  0.00  0.00    -0.060 I 
ATOM     10  F2  UNL d   1       2.951  -5.812  -5.992  0.00  0.00    -0.096 F 
ATOM     11  F3  UNL d   1       0.999  -5.977  -4.121  0.00  0.00    -0.097 F 
ATOM     12  F4  UNL d   1       1.267  -4.690  -1.731  0.00  0.00    -0.092 F 
ENDROOT
TORSDOF 0
ENDMDL
