MODEL 1
REMARK minimizedAffinity 35.5439072
REMARK minimizedRMSD -1
REMARK  0 active torsions:
REMARK  status: ('A' for Active; 'I' for Inactive)
ROOT
ATOM      1  C   UNL d   1       2.012   2.048   0.372  0.00  0.00     0.124 A 
ATOM      2  C1  UNL d   1       1.904   2.285   1.736  0.00  0.00     0.062 A 
ATOM      3  C2  UNL d   1       3.041   2.556   2.492  0.00  0.00     0.162 A 
ATOM      4  C3  UNL d   1       4.297   2.592   1.885  0.00  0.00    -0.034 A 
ATOM      5  C4  UNL d   1       4.398   2.352   0.514  0.00  0.00     0.162 A 
ATOM      6  C5  UNL d   1       3.258   2.082  -0.237  0.00  0.00     0.062 A 
ATOM      7  F   UNL d   1       3.365   1.853  -1.554  0.00  0.00    -0.097 F 
ATOM      8  F1  UNL d   1       5.590   2.379  -0.101  0.00  0.00    -0.096 F 
ATOM      9  I   UNL d   1       6.000   2.996   3.012  0.00  0.00    -0.060 I 
ATOM     10  F2  UNL d   1       2.907   2.781   3.807  0.00  0.00    -0.096 F 
ATOM     11  F3  UNL d   1       0.701   2.252   2.327  0.00  0.00    -0.097 F 
ATOM     12  F4  UNL d   1       0.917   1.787  -0.352  0.00  0.00    -0.092 F 
ENDROOT
TORSDOF 0
ENDMDL
