MODEL 1
REMARK minimizedAffinity 23.1860809
REMARK minimizedRMSD -1
REMARK  0 active torsions:
REMARK  status: ('A' for Active; 'I' for Inactive)
ROOT
ATOM      1  C   UNL d   1      -2.372  -0.202   3.819  0.00  0.00     0.124 A 
ATOM      2  C1  UNL d   1      -2.248   1.179   3.884  0.00  0.00     0.062 A 
ATOM      3  C2  UNL d   1      -1.265   1.829   3.143  0.00  0.00     0.162 A 
ATOM      4  C3  UNL d   1      -0.399   1.099   2.329  0.00  0.00    -0.034 A 
ATOM      5  C4  UNL d   1      -0.529  -0.289   2.270  0.00  0.00     0.162 A 
ATOM      6  C5  UNL d   1      -1.513  -0.934   3.012  0.00  0.00     0.062 A 
ATOM      7  F   UNL d   1      -1.631  -2.269   2.948  0.00  0.00    -0.097 F 
ATOM      8  F1  UNL d   1       0.287  -1.022   1.498  0.00  0.00    -0.096 F 
ATOM      9  I   UNL d   1       1.072   2.068   1.220  0.00  0.00    -0.060 I 
ATOM     10  F2  UNL d   1      -1.168   3.165   3.225  0.00  0.00    -0.096 F 
ATOM     11  F3  UNL d   1      -3.076   1.889   4.663  0.00  0.00    -0.097 F 
ATOM     12  F4  UNL d   1      -3.318  -0.825   4.533  0.00  0.00    -0.092 F 
ENDROOT
TORSDOF 0
ENDMDL
