MODEL 1
REMARK minimizedAffinity 28.8852997
REMARK minimizedRMSD -1
REMARK  0 active torsions:
REMARK  status: ('A' for Active; 'I' for Inactive)
ROOT
ATOM      1  C   UNL d   1       0.093   2.180   1.943  0.00  0.00     0.124 A 
ATOM      2  C1  UNL d   1       0.496   2.270   3.269  0.00  0.00     0.062 A 
ATOM      3  C2  UNL d   1       1.849   2.232   3.593  0.00  0.00     0.162 A 
ATOM      4  C3  UNL d   1       2.810   2.105   2.591  0.00  0.00    -0.034 A 
ATOM      5  C4  UNL d   1       2.397   2.014   1.260  0.00  0.00     0.162 A 
ATOM      6  C5  UNL d   1       1.044   2.052   0.941  0.00  0.00     0.062 A 
ATOM      7  F   UNL d   1       0.657   1.965  -0.340  0.00  0.00    -0.097 F 
ATOM      8  F1  UNL d   1       3.295   1.891   0.271  0.00  0.00    -0.096 F 
ATOM      9  I   UNL d   1       4.834   2.047   3.072  0.00  0.00    -0.060 I 
ATOM     10  F2  UNL d   1       2.209   2.321   4.883  0.00  0.00    -0.096 F 
ATOM     11  F3  UNL d   1      -0.421   2.393   4.239  0.00  0.00    -0.097 F 
ATOM     12  F4  UNL d   1      -1.209   2.216   1.634  0.00  0.00    -0.092 F 
ENDROOT
TORSDOF 0
ENDMDL
