MODEL 1
REMARK minimizedAffinity 21.9097767
REMARK minimizedRMSD -1
REMARK  0 active torsions:
REMARK  status: ('A' for Active; 'I' for Inactive)
ROOT
ATOM      1  C   UNL d   1       3.450   1.510   0.890  0.00  0.00     0.124 A 
ATOM      2  C1  UNL d   1       3.372   1.439   2.274  0.00  0.00     0.062 A 
ATOM      3  C2  UNL d   1       2.150   1.618   2.916  0.00  0.00     0.162 A 
ATOM      4  C3  UNL d   1       0.995   1.868   2.174  0.00  0.00    -0.034 A 
ATOM      5  C4  UNL d   1       1.082   1.938   0.783  0.00  0.00     0.162 A 
ATOM      6  C5  UNL d   1       2.306   1.759   0.146  0.00  0.00     0.062 A 
ATOM      7  F   UNL d   1       2.379   1.828  -1.191  0.00  0.00    -0.097 F 
ATOM      8  F1  UNL d   1      -0.009   2.177   0.039  0.00  0.00    -0.096 F 
ATOM      9  I   UNL d   1      -0.834   2.135   3.131  0.00  0.00    -0.060 I 
ATOM     10  F2  UNL d   1       2.104   1.544   4.254  0.00  0.00    -0.096 F 
ATOM     11  F3  UNL d   1       4.477   1.200   2.995  0.00  0.00    -0.097 F 
ATOM     12  F4  UNL d   1       4.627   1.339   0.275  0.00  0.00    -0.092 F 
ENDROOT
TORSDOF 0
ENDMDL
