MODEL 1
REMARK minimizedAffinity 28.6588593
REMARK minimizedRMSD -1
REMARK  0 active torsions:
REMARK  status: ('A' for Active; 'I' for Inactive)
ROOT
ATOM      1  C   UNL d   1      -1.515  -2.451  -0.488  0.00  0.00     0.124 A 
ATOM      2  C1  UNL d   1      -1.694  -3.744  -0.959  0.00  0.00     0.062 A 
ATOM      3  C2  UNL d   1      -2.080  -4.759  -0.089  0.00  0.00     0.162 A 
ATOM      4  C3  UNL d   1      -2.292  -4.485   1.262  0.00  0.00    -0.034 A 
ATOM      5  C4  UNL d   1      -2.110  -3.182   1.729  0.00  0.00     0.162 A 
ATOM      6  C5  UNL d   1      -1.723  -2.171   0.855  0.00  0.00     0.062 A 
ATOM      7  F   UNL d   1      -1.551  -0.922   1.312  0.00  0.00    -0.097 F 
ATOM      8  F1  UNL d   1      -2.305  -2.883   3.022  0.00  0.00    -0.096 F 
ATOM      9  I   UNL d   1      -2.870  -6.000   2.567  0.00  0.00    -0.060 I 
ATOM     10  F2  UNL d   1      -2.245  -5.999  -0.572  0.00  0.00    -0.096 F 
ATOM     11  F3  UNL d   1      -1.493  -4.017  -2.256  0.00  0.00    -0.097 F 
ATOM     12  F4  UNL d   1      -1.143  -1.476  -1.328  0.00  0.00    -0.092 F 
ENDROOT
TORSDOF 0
ENDMDL
