MODEL 1
REMARK minimizedAffinity 21.6512966
REMARK minimizedRMSD -1
REMARK  0 active torsions:
REMARK  status: ('A' for Active; 'I' for Inactive)
ROOT
ATOM      1  C   UNL d   1       3.897   2.394   1.746  0.00  0.00     0.124 A 
ATOM      2  C1  UNL d   1       2.603   1.959   1.494  0.00  0.00     0.062 A 
ATOM      3  C2  UNL d   1       2.160   1.803   0.184  0.00  0.00     0.162 A 
ATOM      4  C3  UNL d   1       3.012   2.081  -0.885  0.00  0.00    -0.034 A 
ATOM      5  C4  UNL d   1       4.311   2.519  -0.624  0.00  0.00     0.162 A 
ATOM      6  C5  UNL d   1       4.750   2.673   0.687  0.00  0.00     0.062 A 
ATOM      7  F   UNL d   1       6.000   3.094   0.928  0.00  0.00    -0.097 F 
ATOM      8  F1  UNL d   1       5.156   2.795  -1.629  0.00  0.00    -0.096 F 
ATOM      9  I   UNL d   1       2.352   1.849  -2.846  0.00  0.00    -0.060 I 
ATOM     10  F2  UNL d   1       0.905   1.381  -0.030  0.00  0.00    -0.096 F 
ATOM     11  F3  UNL d   1       1.778   1.689   2.515  0.00  0.00    -0.097 F 
ATOM     12  F4  UNL d   1       4.321   2.544   3.007  0.00  0.00    -0.092 F 
ENDROOT
TORSDOF 0
ENDMDL
