MODEL 1
REMARK minimizedAffinity 24.9205952
REMARK minimizedRMSD -1
REMARK  0 active torsions:
REMARK  status: ('A' for Active; 'I' for Inactive)
ROOT
ATOM      1  C   UNL d   1       2.762   1.931   0.605  0.00  0.00     0.124 A 
ATOM      2  C1  UNL d   1       1.477   2.078   0.102  0.00  0.00     0.062 A 
ATOM      3  C2  UNL d   1       0.401   2.245   0.970  0.00  0.00     0.162 A 
ATOM      4  C3  UNL d   1       0.606   2.265   2.349  0.00  0.00    -0.034 A 
ATOM      5  C4  UNL d   1       1.901   2.115   2.847  0.00  0.00     0.162 A 
ATOM      6  C5  UNL d   1       2.973   1.949   1.976  0.00  0.00     0.062 A 
ATOM      7  F   UNL d   1       4.214   1.807   2.464  0.00  0.00    -0.097 F 
ATOM      8  F1  UNL d   1       2.134   2.130   4.168  0.00  0.00    -0.096 F 
ATOM      9  I   UNL d   1      -1.000   2.513   3.649  0.00  0.00    -0.060 I 
ATOM     10  F2  UNL d   1      -0.830   2.385   0.456  0.00  0.00    -0.096 F 
ATOM     11  F3  UNL d   1       1.270   2.060  -1.222  0.00  0.00    -0.097 F 
ATOM     12  F4  UNL d   1       3.795   1.770  -0.232  0.00  0.00    -0.092 F 
ENDROOT
TORSDOF 0
ENDMDL
