MODEL 1
REMARK minimizedAffinity 4.89746714
REMARK minimizedRMSD -1
REMARK  0 active torsions:
REMARK  status: ('A' for Active; 'I' for Inactive)
ROOT
ATOM      1  C   UNL d   1       2.027   2.290   1.736  0.00  0.00     0.124 A 
ATOM      2  C1  UNL d   1       2.029   1.494   0.599  0.00  0.00     0.062 A 
ATOM      3  C2  UNL d   1       0.907   0.738   0.272  0.00  0.00     0.162 A 
ATOM      4  C3  UNL d   1      -0.227   0.775   1.083  0.00  0.00    -0.034 A 
ATOM      5  C4  UNL d   1      -0.221   1.577   2.226  0.00  0.00     0.162 A 
ATOM      6  C5  UNL d   1       0.903   2.331   2.548  0.00  0.00     0.062 A 
ATOM      7  F   UNL d   1       0.900   3.099   3.647  0.00  0.00    -0.097 F 
ATOM      8  F1  UNL d   1      -1.294   1.636   3.028  0.00  0.00    -0.096 F 
ATOM      9  I   UNL d   1      -1.907  -0.354   0.598  0.00  0.00    -0.060 I 
ATOM     10  F2  UNL d   1       0.936  -0.022  -0.833  0.00  0.00    -0.096 F 
ATOM     11  F3  UNL d   1       3.114   1.452  -0.187  0.00  0.00    -0.097 F 
ATOM     12  F4  UNL d   1       3.109   3.016   2.048  0.00  0.00    -0.092 F 
ENDROOT
TORSDOF 0
ENDMDL
