MODEL 1
REMARK minimizedAffinity 0.0115866829
REMARK minimizedRMSD -1
REMARK  0 active torsions:
REMARK  status: ('A' for Active; 'I' for Inactive)
ROOT
ATOM      1  C   UNL d   1      -2.623   2.267   3.295  0.00  0.00     0.078 C 
ATOM      2  C1  UNL d   1      -1.581   1.596   2.451  0.00  0.00    -0.077 A 
ATOM      3  C2  UNL d   1      -1.623   0.217   2.213  0.00  0.00    -0.001 A 
ATOM      4  C3  UNL d   1      -0.641  -0.396   1.433  0.00  0.00     0.003 A 
ATOM      5  C4  UNL d   1       0.392   0.363   0.886  0.00  0.00    -0.005 A 
ATOM      6  C5  UNL d   1       0.443   1.736   1.119  0.00  0.00     0.003 A 
ATOM      7  C6  UNL d   1      -0.538   2.350   1.898  0.00  0.00    -0.001 A 
ENDROOT
TORSDOF 0
ENDMDL
