MODEL 1
REMARK minimizedAffinity -3.93761897
REMARK minimizedRMSD -1
REMARK  0 active torsions:
REMARK  status: ('A' for Active; 'I' for Inactive)
ROOT
ATOM      1  C   UNL d   1      -3.489   1.650   3.331  0.00  0.00     0.078 C 
ATOM      2  C1  UNL d   1      -2.268   1.206   2.581  0.00  0.00    -0.077 A 
ATOM      3  C2  UNL d   1      -2.150  -0.106   2.107  0.00  0.00    -0.001 A 
ATOM      4  C3  UNL d   1      -1.004  -0.508   1.419  0.00  0.00     0.003 A 
ATOM      5  C4  UNL d   1       0.034   0.396   1.200  0.00  0.00    -0.005 A 
ATOM      6  C5  UNL d   1      -0.074   1.703   1.670  0.00  0.00     0.003 A 
ATOM      7  C6  UNL d   1      -1.219   2.107   2.358  0.00  0.00    -0.001 A 
ENDROOT
TORSDOF 0
ENDMDL
