MODEL 1
REMARK minimizedAffinity -0.679858983
REMARK minimizedRMSD -1
REMARK  0 active torsions:
REMARK  status: ('A' for Active; 'I' for Inactive)
ROOT
ATOM      1  C   UNL d   1      -3.929   2.022   4.139  0.00  0.00     0.078 C 
ATOM      2  C1  UNL d   1      -2.699   1.663   3.360  0.00  0.00    -0.077 A 
ATOM      3  C2  UNL d   1      -1.746   2.633   3.029  0.00  0.00    -0.001 A 
ATOM      4  C3  UNL d   1      -0.611   2.287   2.295  0.00  0.00     0.003 A 
ATOM      5  C4  UNL d   1      -0.419   0.969   1.884  0.00  0.00    -0.005 A 
ATOM      6  C5  UNL d   1      -1.363  -0.003   2.206  0.00  0.00     0.003 A 
ATOM      7  C6  UNL d   1      -2.499   0.342   2.940  0.00  0.00    -0.001 A 
ENDROOT
TORSDOF 0
ENDMDL
