MODEL 1
REMARK minimizedAffinity -6.02941465
REMARK minimizedRMSD -1
REMARK  0 active torsions:
REMARK  status: ('A' for Active; 'I' for Inactive)
ROOT
ATOM      1  C   UNL d   1      -3.580   1.978   3.108  0.00  0.00     0.078 C 
ATOM      2  C1  UNL d   1      -2.359   1.557   2.347  0.00  0.00    -0.077 A 
ATOM      3  C2  UNL d   1      -2.315   0.329   1.675  0.00  0.00    -0.001 A 
ATOM      4  C3  UNL d   1      -1.167  -0.053   0.979  0.00  0.00     0.003 A 
ATOM      5  C4  UNL d   1      -0.055   0.785   0.948  0.00  0.00    -0.005 A 
ATOM      6  C5  UNL d   1      -0.089   2.008   1.615  0.00  0.00     0.003 A 
ATOM      7  C6  UNL d   1      -1.235   2.393   2.312  0.00  0.00    -0.001 A 
ENDROOT
TORSDOF 0
ENDMDL
