MODEL 1
REMARK minimizedAffinity -5.42295933
REMARK minimizedRMSD -1
REMARK  0 active torsions:
REMARK  status: ('A' for Active; 'I' for Inactive)
ROOT
ATOM      1  C   UNL d   1       1.816   0.665   0.094  0.00  0.00     0.078 C 
ATOM      2  C1  UNL d   1       0.508   0.652   0.828  0.00  0.00    -0.077 A 
ATOM      3  C2  UNL d   1       0.123   1.731   1.634  0.00  0.00    -0.001 A 
ATOM      4  C3  UNL d   1      -1.092   1.701   2.319  0.00  0.00     0.003 A 
ATOM      5  C4  UNL d   1      -1.932   0.595   2.207  0.00  0.00    -0.005 A 
ATOM      6  C5  UNL d   1      -1.556  -0.484   1.410  0.00  0.00     0.003 A 
ATOM      7  C6  UNL d   1      -0.341  -0.457   0.724  0.00  0.00    -0.001 A 
ENDROOT
TORSDOF 0
ENDMDL
