MODEL 1
REMARK minimizedAffinity -4.1813302
REMARK minimizedRMSD -1
REMARK  0 active torsions:
REMARK  status: ('A' for Active; 'I' for Inactive)
ROOT
ATOM      1  C   UNL d   1      -3.268   1.836   2.169  0.00  0.00     0.078 C 
ATOM      2  C1  UNL d   1      -1.917   1.313   1.784  0.00  0.00    -0.077 A 
ATOM      3  C2  UNL d   1      -1.742  -0.024   1.403  0.00  0.00    -0.001 A 
ATOM      4  C3  UNL d   1      -0.476  -0.499   1.057  0.00  0.00     0.003 A 
ATOM      5  C4  UNL d   1       0.625   0.355   1.088  0.00  0.00    -0.005 A 
ATOM      6  C5  UNL d   1       0.461   1.685   1.467  0.00  0.00     0.003 A 
ATOM      7  C6  UNL d   1      -0.804   2.163   1.814  0.00  0.00    -0.001 A 
ENDROOT
TORSDOF 0
ENDMDL
