MODEL 1
REMARK minimizedAffinity 0.297299206
REMARK minimizedRMSD -1
REMARK  0 active torsions:
REMARK  status: ('A' for Active; 'I' for Inactive)
ROOT
ATOM      1  C   UNL d   1       0.437   0.026   1.168  0.00  0.00     0.078 C 
ATOM      2  C1  UNL d   1      -0.722   0.678   1.861  0.00  0.00    -0.077 A 
ATOM      3  C2  UNL d   1      -1.793  -0.082   2.346  0.00  0.00    -0.001 A 
ATOM      4  C3  UNL d   1      -2.870   0.539   2.980  0.00  0.00     0.003 A 
ATOM      5  C4  UNL d   1      -2.886   1.924   3.134  0.00  0.00    -0.005 A 
ATOM      6  C5  UNL d   1      -1.826   2.689   2.653  0.00  0.00     0.003 A 
ATOM      7  C6  UNL d   1      -0.748   2.069   2.018  0.00  0.00    -0.001 A 
ENDROOT
TORSDOF 0
ENDMDL
