MODEL 1
REMARK minimizedAffinity 2.49251199
REMARK minimizedRMSD -1
REMARK  0 active torsions:
REMARK  status: ('A' for Active; 'I' for Inactive)
ROOT
ATOM      1  C   UNL d   1       1.868   0.780  -0.373  0.00  0.00     0.078 C 
ATOM      2  C1  UNL d   1       0.756   0.395   0.557  0.00  0.00    -0.077 A 
ATOM      3  C2  UNL d   1      -0.377   1.204   0.700  0.00  0.00    -0.001 A 
ATOM      4  C3  UNL d   1      -1.400   0.838   1.576  0.00  0.00     0.003 A 
ATOM      5  C4  UNL d   1      -1.299  -0.337   2.318  0.00  0.00    -0.005 A 
ATOM      6  C5  UNL d   1      -0.174  -1.148   2.185  0.00  0.00     0.003 A 
ATOM      7  C6  UNL d   1       0.850  -0.783   1.308  0.00  0.00    -0.001 A 
ENDROOT
TORSDOF 0
ENDMDL
