MODEL 1
REMARK minimizedAffinity -5.46873569
REMARK minimizedRMSD -1
REMARK  0 active torsions:
REMARK  status: ('A' for Active; 'I' for Inactive)
ROOT
ATOM      1  C   UNL d   1      -3.516   1.559   3.443  0.00  0.00     0.078 C 
ATOM      2  C1  UNL d   1      -2.308   1.270   2.603  0.00  0.00    -0.077 A 
ATOM      3  C2  UNL d   1      -1.436   2.295   2.218  0.00  0.00    -0.001 A 
ATOM      4  C3  UNL d   1      -0.321   2.013   1.427  0.00  0.00     0.003 A 
ATOM      5  C4  UNL d   1      -0.068   0.707   1.014  0.00  0.00    -0.005 A 
ATOM      6  C5  UNL d   1      -0.932  -0.320   1.391  0.00  0.00     0.003 A 
ATOM      7  C6  UNL d   1      -2.047  -0.040   2.182  0.00  0.00    -0.001 A 
ENDROOT
TORSDOF 0
ENDMDL
