MODEL 1
REMARK minimizedAffinity -1.69107533
REMARK minimizedRMSD -1
REMARK  0 active torsions:
REMARK  status: ('A' for Active; 'I' for Inactive)
ROOT
ATOM      1  C   UNL d   1      -1.935   2.523   2.587  0.00  0.00     0.078 C 
ATOM      2  C1  UNL d   1      -1.163   1.405   1.952  0.00  0.00    -0.077 A 
ATOM      3  C2  UNL d   1       0.031   1.654   1.263  0.00  0.00    -0.001 A 
ATOM      4  C3  UNL d   1       0.734   0.605   0.669  0.00  0.00     0.003 A 
ATOM      5  C4  UNL d   1       0.252  -0.699   0.757  0.00  0.00    -0.005 A 
ATOM      6  C5  UNL d   1      -0.936  -0.956   1.438  0.00  0.00     0.003 A 
ATOM      7  C6  UNL d   1      -1.641   0.091   2.033  0.00  0.00    -0.001 A 
ENDROOT
TORSDOF 0
ENDMDL
