MODEL 1
REMARK minimizedAffinity -2.37881064
REMARK minimizedRMSD -1
REMARK  0 active torsions:
REMARK  status: ('A' for Active; 'I' for Inactive)
ROOT
ATOM      1  C   UNL d   1       2.187   0.774   0.553  0.00  0.00     0.078 C 
ATOM      2  C1  UNL d   1       0.845   0.745   1.219  0.00  0.00    -0.077 A 
ATOM      3  C2  UNL d   1       0.323   1.886   1.841  0.00  0.00    -0.001 A 
ATOM      4  C3  UNL d   1      -0.924   1.842   2.466  0.00  0.00     0.003 A 
ATOM      5  C4  UNL d   1      -1.660   0.658   2.477  0.00  0.00    -0.005 A 
ATOM      6  C5  UNL d   1      -1.148  -0.483   1.864  0.00  0.00     0.003 A 
ATOM      7  C6  UNL d   1       0.099  -0.441   1.238  0.00  0.00    -0.001 A 
ENDROOT
TORSDOF 0
ENDMDL
