MODEL 1
REMARK minimizedAffinity 0.879280806
REMARK minimizedRMSD -1
REMARK  0 active torsions:
REMARK  status: ('A' for Active; 'I' for Inactive)
ROOT
ATOM      1  C   UNL d   1       1.041   1.333   0.961  0.00  0.00     0.078 C 
ATOM      2  C1  UNL d   1      -0.340   1.446   1.532  0.00  0.00    -0.077 A 
ATOM      3  C2  UNL d   1      -1.045   0.308   1.946  0.00  0.00    -0.001 A 
ATOM      4  C3  UNL d   1      -2.334   0.427   2.467  0.00  0.00     0.003 A 
ATOM      5  C4  UNL d   1      -2.931   1.681   2.579  0.00  0.00    -0.005 A 
ATOM      6  C5  UNL d   1      -2.239   2.818   2.168  0.00  0.00     0.003 A 
ATOM      7  C6  UNL d   1      -0.949   2.702   1.647  0.00  0.00    -0.001 A 
ENDROOT
TORSDOF 0
ENDMDL
