MODEL 1
REMARK minimizedAffinity -1.09148109
REMARK minimizedRMSD -1
REMARK  0 active torsions:
REMARK  status: ('A' for Active; 'I' for Inactive)
ROOT
ATOM      1  C   UNL d   1       2.320   0.521   0.246  0.00  0.00     0.078 C 
ATOM      2  C1  UNL d   1       0.953   0.344   0.838  0.00  0.00    -0.077 A 
ATOM      3  C2  UNL d   1       0.101   1.439   1.025  0.00  0.00    -0.001 A 
ATOM      4  C3  UNL d   1      -1.164   1.261   1.586  0.00  0.00     0.003 A 
ATOM      5  C4  UNL d   1      -1.589  -0.011   1.966  0.00  0.00    -0.005 A 
ATOM      6  C5  UNL d   1      -0.747  -1.106   1.785  0.00  0.00     0.003 A 
ATOM      7  C6  UNL d   1       0.519  -0.930   1.224  0.00  0.00    -0.001 A 
ENDROOT
TORSDOF 0
ENDMDL
