MODEL 1
REMARK minimizedAffinity -4.45662928
REMARK minimizedRMSD -1
REMARK  0 active torsions:
REMARK  status: ('A' for Active; 'I' for Inactive)
ROOT
ATOM      1  C   UNL d   1       1.723   0.686   0.625  0.00  0.00     0.078 C 
ATOM      2  C1  UNL d   1       0.350   0.740   1.224  0.00  0.00    -0.077 A 
ATOM      3  C2  UNL d   1      -0.529  -0.345   1.112  0.00  0.00    -0.001 A 
ATOM      4  C3  UNL d   1      -1.808  -0.277   1.667  0.00  0.00     0.003 A 
ATOM      5  C4  UNL d   1      -2.220   0.873   2.336  0.00  0.00    -0.005 A 
ATOM      6  C5  UNL d   1      -1.354   1.958   2.451  0.00  0.00     0.003 A 
ATOM      7  C6  UNL d   1      -0.074   1.892   1.897  0.00  0.00    -0.001 A 
ENDROOT
TORSDOF 0
ENDMDL
