MODEL 1
REMARK minimizedAffinity -0.349235833
REMARK minimizedRMSD -1
REMARK  0 active torsions:
REMARK  status: ('A' for Active; 'I' for Inactive)
ROOT
ATOM      1  C   UNL d   1      -2.617   0.286   2.657  0.00  0.00     0.078 C 
ATOM      2  C1  UNL d   1      -1.480   1.049   2.047  0.00  0.00    -0.077 A 
ATOM      3  C2  UNL d   1      -0.183   0.948   2.565  0.00  0.00    -0.001 A 
ATOM      4  C3  UNL d   1       0.865   1.671   1.993  0.00  0.00     0.003 A 
ATOM      5  C4  UNL d   1       0.626   2.503   0.900  0.00  0.00    -0.005 A 
ATOM      6  C5  UNL d   1      -0.662   2.612   0.379  0.00  0.00     0.003 A 
ATOM      7  C6  UNL d   1      -1.710   1.889   0.950  0.00  0.00    -0.001 A 
ENDROOT
TORSDOF 0
ENDMDL
