MODEL 1
REMARK minimizedAffinity 9.47966194
REMARK minimizedRMSD -1
REMARK  1 active torsions:
REMARK  status: ('A' for Active; 'I' for Inactive)
REMARK    1  A    between atoms: C1_2  and  C2_3 
ROOT
ATOM      1  C2  UNL d   1       5.239   3.456   4.214  0.00  0.00    -0.076 A 
ATOM      2  C3  UNL d   1       6.000   2.950   5.282  0.00  0.00     0.004 A 
ATOM      3  C4  UNL d   1       5.988   1.591   5.590  0.00  0.00    -0.003 A 
ATOM      4  C5  UNL d   1       5.215   0.715   4.835  0.00  0.00     0.000 A 
ATOM      5  C6  UNL d   1       4.468   1.197   3.761  0.00  0.00     0.000 A 
ATOM      6  C7  UNL d   1       4.481   2.562   3.427  0.00  0.00    -0.073 A 
ATOM      7  C8  UNL d   1       3.652   3.028   2.262  0.00  0.00     0.078 C 
ENDROOT
BRANCH   1   8
ATOM      8  C1  UNL d   1       5.270   4.943   3.944  0.00  0.00     0.053 C 
ATOM      9  C   UNL d   1       6.000   5.718   5.030  0.00  0.00     0.018 C 
ENDBRANCH   1   8
TORSDOF 1
ENDMDL
