MODEL 1
REMARK minimizedAffinity 5.91668653
REMARK minimizedRMSD -1
REMARK  1 active torsions:
REMARK  status: ('A' for Active; 'I' for Inactive)
REMARK    1  A    between atoms: C1_2  and  C2_3 
ROOT
ATOM      1  C2  UNL d   1       4.352   0.311   3.530  0.00  0.00    -0.076 A 
ATOM      2  C3  UNL d   1       3.687   0.977   2.485  0.00  0.00     0.004 A 
ATOM      3  C4  UNL d   1       3.871   2.342   2.273  0.00  0.00    -0.003 A 
ATOM      4  C5  UNL d   1       4.724   3.064   3.101  0.00  0.00     0.000 A 
ATOM      5  C6  UNL d   1       5.405   2.416   4.131  0.00  0.00     0.000 A 
ATOM      6  C7  UNL d   1       5.243   1.037   4.348  0.00  0.00    -0.073 A 
ATOM      7  C8  UNL d   1       5.998   0.390   5.478  0.00  0.00     0.078 C 
ENDROOT
BRANCH   1   8
ATOM      8  C1  UNL d   1       4.092  -1.165   3.729  0.00  0.00     0.053 C 
ATOM      9  C   UNL d   1       2.622  -1.470   3.975  0.00  0.00     0.018 C 
ENDBRANCH   1   8
TORSDOF 1
ENDMDL
