MODEL 1
REMARK minimizedAffinity -3.51873183
REMARK minimizedRMSD -1
REMARK  1 active torsions:
REMARK  status: ('A' for Active; 'I' for Inactive)
REMARK    1  A    between atoms: C1_2  and  C2_3 
ROOT
ATOM      1  C2  UNL d   1      -3.016   0.374   0.709  0.00  0.00    -0.076 A 
ATOM      2  C3  UNL d   1      -3.416   1.051  -0.455  0.00  0.00     0.004 A 
ATOM      3  C4  UNL d   1      -3.263   2.432  -0.570  0.00  0.00    -0.003 A 
ATOM      4  C5  UNL d   1      -2.708   3.157   0.477  0.00  0.00     0.000 A 
ATOM      5  C6  UNL d   1      -2.289   2.499   1.633  0.00  0.00     0.000 A 
ATOM      6  C7  UNL d   1      -2.421   1.106   1.759  0.00  0.00    -0.073 A 
ATOM      7  C8  UNL d   1      -1.958   0.449   3.030  0.00  0.00     0.078 C 
ENDROOT
BRANCH   1   8
ATOM      8  C1  UNL d   1      -3.231  -1.121   0.788  0.00  0.00     0.053 C 
ATOM      9  C   UNL d   1      -2.084  -1.908   0.173  0.00  0.00     0.018 C 
ENDBRANCH   1   8
TORSDOF 1
ENDMDL
