MODEL 1
REMARK minimizedAffinity -3.40381455
REMARK minimizedRMSD -1
REMARK  1 active torsions:
REMARK  status: ('A' for Active; 'I' for Inactive)
REMARK    1  A    between atoms: C1_2  and  C2_3 
ROOT
ATOM      1  C2  UNL d   1      -2.412   1.724   1.247  0.00  0.00    -0.076 A 
ATOM      2  C3  UNL d   1      -2.975   1.157   2.404  0.00  0.00     0.004 A 
ATOM      3  C4  UNL d   1      -3.001  -0.225   2.585  0.00  0.00    -0.003 A 
ATOM      4  C5  UNL d   1      -2.465  -1.062   1.613  0.00  0.00     0.000 A 
ATOM      5  C6  UNL d   1      -1.887  -0.516   0.467  0.00  0.00     0.000 A 
ATOM      6  C7  UNL d   1      -1.838   0.876   0.276  0.00  0.00    -0.073 A 
ATOM      7  C8  UNL d   1      -1.208   1.410  -0.981  0.00  0.00     0.078 C 
ENDROOT
BRANCH   1   8
ATOM      8  C1  UNL d   1      -2.437   3.228   1.093  0.00  0.00     0.053 C 
ATOM      9  C   UNL d   1      -3.606   3.708   0.246  0.00  0.00     0.018 C 
ENDBRANCH   1   8
TORSDOF 1
ENDMDL
