MODEL 1
REMARK minimizedAffinity -0.71174711
REMARK minimizedRMSD -1
REMARK  1 active torsions:
REMARK  status: ('A' for Active; 'I' for Inactive)
REMARK    1  A    between atoms: C1_2  and  C2_3 
ROOT
ATOM      1  C2  UNL d   1      -3.004   1.642   1.218  0.00  0.00    -0.076 A 
ATOM      2  C3  UNL d   1      -2.490   2.773   1.874  0.00  0.00     0.004 A 
ATOM      3  C4  UNL d   1      -2.856   4.059   1.481  0.00  0.00    -0.003 A 
ATOM      4  C5  UNL d   1      -3.744   4.235   0.426  0.00  0.00     0.000 A 
ATOM      5  C6  UNL d   1      -4.278   3.123  -0.226  0.00  0.00     0.000 A 
ATOM      6  C7  UNL d   1      -3.931   1.820   0.168  0.00  0.00    -0.073 A 
ATOM      7  C8  UNL d   1      -4.532   0.657  -0.573  0.00  0.00     0.078 C 
ENDROOT
BRANCH   1   8
ATOM      8  C1  UNL d   1      -2.549   0.273   1.670  0.00  0.00     0.053 C 
ATOM      9  C   UNL d   1      -2.630   0.101   3.179  0.00  0.00     0.018 C 
ENDBRANCH   1   8
TORSDOF 1
ENDMDL
