MODEL 1
REMARK minimizedAffinity -0.560351551
REMARK minimizedRMSD -1
REMARK  1 active torsions:
REMARK  status: ('A' for Active; 'I' for Inactive)
REMARK    1  A    between atoms: C1_2  and  C2_3 
ROOT
ATOM      1  C2  UNL d   1      -2.476   0.662   1.155  0.00  0.00    -0.076 A 
ATOM      2  C3  UNL d   1      -3.062   1.263   2.282  0.00  0.00     0.004 A 
ATOM      3  C4  UNL d   1      -3.208   0.558   3.476  0.00  0.00    -0.003 A 
ATOM      4  C5  UNL d   1      -2.769  -0.758   3.563  0.00  0.00     0.000 A 
ATOM      5  C6  UNL d   1      -2.169  -1.365   2.459  0.00  0.00     0.000 A 
ATOM      6  C7  UNL d   1      -2.000  -0.663   1.253  0.00  0.00    -0.073 A 
ATOM      7  C8  UNL d   1      -1.352  -1.368   0.093  0.00  0.00     0.078 C 
ENDROOT
BRANCH   1   8
ATOM      8  C1  UNL d   1      -2.369   1.466  -0.121  0.00  0.00     0.053 C 
ATOM      9  C   UNL d   1      -3.211   2.732  -0.084  0.00  0.00     0.018 C 
ENDBRANCH   1   8
TORSDOF 1
ENDMDL
