MODEL 1
REMARK minimizedAffinity 15.1957197
REMARK minimizedRMSD -1
REMARK  1 active torsions:
REMARK  status: ('A' for Active; 'I' for Inactive)
REMARK    1  A    between atoms: C1_2  and  C2_3 
ROOT
ATOM      1  C2  UNL d   1      -3.729   0.464   1.174  0.00  0.00    -0.076 A 
ATOM      2  C3  UNL d   1      -5.062   0.155   1.494  0.00  0.00     0.004 A 
ATOM      3  C4  UNL d   1      -5.999  -0.103   0.495  0.00  0.00    -0.003 A 
ATOM      4  C5  UNL d   1      -5.618  -0.058  -0.841  0.00  0.00     0.000 A 
ATOM      5  C6  UNL d   1      -4.295   0.229  -1.177  0.00  0.00     0.000 A 
ATOM      6  C7  UNL d   1      -3.335   0.477  -0.181  0.00  0.00    -0.073 A 
ATOM      7  C8  UNL d   1      -1.924   0.787  -0.601  0.00  0.00     0.078 C 
ENDROOT
BRANCH   1   8
ATOM      8  C1  UNL d   1      -2.764   0.763   2.298  0.00  0.00     0.053 C 
ATOM      9  C   UNL d   1      -2.726  -0.343   3.342  0.00  0.00     0.018 C 
ENDBRANCH   1   8
TORSDOF 1
ENDMDL
