MODEL 1
REMARK minimizedAffinity 8.1338501
REMARK minimizedRMSD -1
REMARK  1 active torsions:
REMARK  status: ('A' for Active; 'I' for Inactive)
REMARK    1  A    between atoms: C1_2  and  C2_3 
ROOT
ATOM      1  C2  UNL d   1       4.814   2.160   2.656  0.00  0.00    -0.076 A 
ATOM      2  C3  UNL d   1       4.659   0.765   2.722  0.00  0.00     0.004 A 
ATOM      3  C4  UNL d   1       5.173   0.036   3.793  0.00  0.00    -0.003 A 
ATOM      4  C5  UNL d   1       5.850   0.691   4.816  0.00  0.00     0.000 A 
ATOM      5  C6  UNL d   1       5.998   2.077   4.776  0.00  0.00     0.000 A 
ATOM      6  C7  UNL d   1       5.472   2.828   3.711  0.00  0.00    -0.073 A 
ATOM      7  C8  UNL d   1       5.666   4.320   3.716  0.00  0.00     0.078 C 
ENDROOT
BRANCH   1   8
ATOM      8  C1  UNL d   1       4.259   2.895   1.457  0.00  0.00     0.053 C 
ATOM      9  C   UNL d   1       2.862   2.425   1.081  0.00  0.00     0.018 C 
ENDBRANCH   1   8
TORSDOF 1
ENDMDL
