MODEL 1
REMARK minimizedAffinity 1.17548418
REMARK minimizedRMSD -1
REMARK  1 active torsions:
REMARK  status: ('A' for Active; 'I' for Inactive)
REMARK    1  A    between atoms: C1_2  and  C2_3 
ROOT
ATOM      1  C2  UNL d   1       5.241   3.483   3.836  0.00  0.00    -0.076 A 
ATOM      2  C3  UNL d   1       6.000   2.997   4.915  0.00  0.00     0.004 A 
ATOM      3  C4  UNL d   1       5.998   1.641   5.239  0.00  0.00    -0.003 A 
ATOM      4  C5  UNL d   1       5.239   0.750   4.489  0.00  0.00     0.000 A 
ATOM      5  C6  UNL d   1       4.494   1.213   3.404  0.00  0.00     0.000 A 
ATOM      6  C7  UNL d   1       4.498   2.574   3.054  0.00  0.00    -0.073 A 
ATOM      7  C8  UNL d   1       3.672   3.019   1.878  0.00  0.00     0.078 C 
ENDROOT
BRANCH   1   8
ATOM      8  C1  UNL d   1       5.261   4.968   3.548  0.00  0.00     0.053 C 
ATOM      9  C   UNL d   1       5.941   5.766   4.650  0.00  0.00     0.018 C 
ENDBRANCH   1   8
TORSDOF 1
ENDMDL
