MODEL 1
REMARK minimizedAffinity 3.59677219
REMARK minimizedRMSD -1
REMARK  1 active torsions:
REMARK  status: ('A' for Active; 'I' for Inactive)
REMARK    1  A    between atoms: C1_2  and  C2_3 
ROOT
ATOM      1  C2  UNL d   1       4.508   0.709   3.277  0.00  0.00    -0.076 A 
ATOM      2  C3  UNL d   1       3.543   0.148   2.422  0.00  0.00     0.004 A 
ATOM      3  C4  UNL d   1       3.071  -1.148   2.625  0.00  0.00    -0.003 A 
ATOM      4  C5  UNL d   1       3.556  -1.904   3.687  0.00  0.00     0.000 A 
ATOM      5  C6  UNL d   1       4.500  -1.357   4.556  0.00  0.00     0.000 A 
ATOM      6  C7  UNL d   1       4.974  -0.046   4.375  0.00  0.00    -0.073 A 
ATOM      7  C8  UNL d   1       5.996   0.491   5.338  0.00  0.00     0.078 C 
ENDROOT
BRANCH   1   8
ATOM      8  C1  UNL d   1       5.002   2.109   2.992  0.00  0.00     0.053 C 
ATOM      9  C   UNL d   1       3.985   2.941   2.226  0.00  0.00     0.018 C 
ENDBRANCH   1   8
TORSDOF 1
ENDMDL
