MODEL 1
REMARK minimizedAffinity 15.7592058
REMARK minimizedRMSD -1
REMARK  1 active torsions:
REMARK  status: ('A' for Active; 'I' for Inactive)
REMARK    1  A    between atoms: C1_2  and  C2_3 
ROOT
ATOM      1  C2  UNL d   1       4.781   1.978   3.151  0.00  0.00    -0.076 A 
ATOM      2  C3  UNL d   1       4.429   0.726   2.618  0.00  0.00     0.004 A 
ATOM      3  C4  UNL d   1       4.864  -0.456   3.217  0.00  0.00    -0.003 A 
ATOM      4  C5  UNL d   1       5.656  -0.404   4.358  0.00  0.00     0.000 A 
ATOM      5  C6  UNL d   1       6.000   0.829   4.910  0.00  0.00     0.000 A 
ATOM      6  C7  UNL d   1       5.557   2.030   4.329  0.00  0.00    -0.073 A 
ATOM      7  C8  UNL d   1       5.963   3.332   4.963  0.00  0.00     0.078 C 
ENDROOT
BRANCH   1   8
ATOM      8  C1  UNL d   1       4.304   3.226   2.443  0.00  0.00     0.053 C 
ATOM      9  C   UNL d   1       3.042   2.987   1.629  0.00  0.00     0.018 C 
ENDBRANCH   1   8
TORSDOF 1
ENDMDL
