MODEL 1
REMARK minimizedAffinity -0.776301265
REMARK minimizedRMSD -1
REMARK  1 active torsions:
REMARK  status: ('A' for Active; 'I' for Inactive)
REMARK    1  A    between atoms: C1_2  and  C2_3 
ROOT
ATOM      1  C2  UNL d   1      -2.768  -1.088   1.733  0.00  0.00    -0.076 A 
ATOM      2  C3  UNL d   1      -1.590  -0.679   2.382  0.00  0.00     0.004 A 
ATOM      3  C4  UNL d   1      -1.631  -0.118   3.657  0.00  0.00    -0.003 A 
ATOM      4  C5  UNL d   1      -2.851   0.043   4.305  0.00  0.00     0.000 A 
ATOM      5  C6  UNL d   1      -4.028  -0.373   3.683  0.00  0.00     0.000 A 
ATOM      6  C7  UNL d   1      -4.002  -0.955   2.404  0.00  0.00    -0.073 A 
ATOM      7  C8  UNL d   1      -5.302  -1.380   1.778  0.00  0.00     0.078 C 
ENDROOT
BRANCH   1   8
ATOM      8  C1  UNL d   1      -2.664  -1.665   0.339  0.00  0.00     0.053 C 
ATOM      9  C   UNL d   1      -1.505  -2.639   0.197  0.00  0.00     0.018 C 
ENDBRANCH   1   8
TORSDOF 1
ENDMDL
