MODEL 1
REMARK minimizedAffinity 11.207881
REMARK minimizedRMSD -1
REMARK  0 active torsions:
REMARK  status: ('A' for Active; 'I' for Inactive)
ROOT
ATOM      1  C2' OXE d   1      -0.233   2.505  -3.368  0.00  0.00     0.078 C 
ATOM      2  C1' OXE d   1       2.407   2.747  -4.293  0.00  0.00     0.078 C 
ATOM      3  C1  OXE d   1       2.055   1.524  -3.482  0.00  0.00    -0.078 A 
ATOM      4  C2  OXE d   1       0.773   1.437  -2.994  0.00  0.00    -0.078 A 
ATOM      5  C3  OXE d   1       0.381   0.305  -2.286  0.00  0.00     0.003 A 
ATOM      6  C4  OXE d   1       1.320  -0.673  -1.937  0.00  0.00    -0.002 A 
ATOM      7  C5  OXE d   1       2.640  -0.584  -2.390  0.00  0.00    -0.002 A 
ATOM      8  C6  OXE d   1       3.012   0.485  -3.198  0.00  0.00     0.003 A 
ENDROOT
TORSDOF 0
ENDMDL
