MODEL 1
REMARK minimizedAffinity 7.76938152
REMARK minimizedRMSD -1
REMARK  0 active torsions:
REMARK  status: ('A' for Active; 'I' for Inactive)
ROOT
ATOM      1  C2' OXE d   1       3.009  -0.000  -2.304  0.00  0.00     0.078 C 
ATOM      2  C1' OXE d   1       4.596   2.121  -1.375  0.00  0.00     0.078 C 
ATOM      3  C1  OXE d   1       3.497   1.617  -0.473  0.00  0.00    -0.078 A 
ATOM      4  C2  OXE d   1       2.695   0.610  -0.955  0.00  0.00    -0.078 A 
ATOM      5  C3  OXE d   1       1.701   0.071  -0.142  0.00  0.00     0.003 A 
ATOM      6  C4  OXE d   1       1.412   0.648   1.100  0.00  0.00    -0.002 A 
ATOM      7  C5  OXE d   1       2.190   1.701   1.593  0.00  0.00    -0.002 A 
ATOM      8  C6  OXE d   1       3.261   2.167   0.839  0.00  0.00     0.003 A 
ENDROOT
TORSDOF 0
ENDMDL
