MODEL 1
REMARK minimizedAffinity 11.2977858
REMARK minimizedRMSD -1
REMARK  0 active torsions:
REMARK  status: ('A' for Active; 'I' for Inactive)
ROOT
ATOM      1  C2' OXE d   1       1.915   1.431   1.633  0.00  0.00     0.078 C 
ATOM      2  C1' OXE d   1       0.657  -1.018   1.090  0.00  0.00     0.078 C 
ATOM      3  C1  OXE d   1       1.363  -0.323  -0.047  0.00  0.00    -0.078 A 
ATOM      4  C2  OXE d   1       1.936   0.897   0.217  0.00  0.00    -0.078 A 
ATOM      5  C3  OXE d   1       2.648   1.555  -0.782  0.00  0.00     0.003 A 
ATOM      6  C4  OXE d   1       2.654   1.060  -2.092  0.00  0.00    -0.002 A 
ATOM      7  C5  OXE d   1       2.042  -0.163  -2.391  0.00  0.00    -0.002 A 
ATOM      8  C6  OXE d   1       1.431  -0.886  -1.373  0.00  0.00     0.003 A 
ENDROOT
TORSDOF 0
ENDMDL
