MODEL 1
REMARK minimizedAffinity 13.5850229
REMARK minimizedRMSD -1
REMARK  0 active torsions:
REMARK  status: ('A' for Active; 'I' for Inactive)
ROOT
ATOM      1  C2' OXE d   1       2.925   0.193  -2.209  0.00  0.00     0.078 C 
ATOM      2  C1' OXE d   1       0.864   1.932  -2.990  0.00  0.00     0.078 C 
ATOM      3  C1  OXE d   1       0.994   1.610  -1.522  0.00  0.00    -0.078 A 
ATOM      4  C2  OXE d   1       1.977   0.722  -1.155  0.00  0.00    -0.078 A 
ATOM      5  C3  OXE d   1       2.176   0.432   0.192  0.00  0.00     0.003 A 
ATOM      6  C4  OXE d   1       1.288   0.917   1.160  0.00  0.00    -0.002 A 
ATOM      7  C5  OXE d   1       0.256   1.791   0.802  0.00  0.00    -0.002 A 
ATOM      8  C6  OXE d   1       0.122   2.181  -0.526  0.00  0.00     0.003 A 
ENDROOT
TORSDOF 0
ENDMDL
