MODEL 1
REMARK minimizedAffinity 7.04525089
REMARK minimizedRMSD -1
REMARK  0 active torsions:
REMARK  status: ('A' for Active; 'I' for Inactive)
ROOT
ATOM      1  C2' OXE d   1       3.132   0.544  -1.858  0.00  0.00     0.078 C 
ATOM      2  C1' OXE d   1       5.032   2.420  -0.992  0.00  0.00     0.078 C 
ATOM      3  C1  OXE d   1       3.924   2.049  -0.038  0.00  0.00    -0.078 A 
ATOM      4  C2  OXE d   1       2.972   1.166  -0.487  0.00  0.00    -0.078 A 
ATOM      5  C3  OXE d   1       1.959   0.748   0.371  0.00  0.00     0.003 A 
ATOM      6  C4  OXE d   1       1.813   1.336   1.634  0.00  0.00    -0.002 A 
ATOM      7  C5  OXE d   1       2.748   2.268   2.096  0.00  0.00    -0.002 A 
ATOM      8  C6  OXE d   1       3.831   2.603   1.290  0.00  0.00     0.003 A 
ENDROOT
TORSDOF 0
ENDMDL
