MODEL 1
REMARK minimizedAffinity 4.71212339
REMARK minimizedRMSD -1
REMARK  0 active torsions:
REMARK  status: ('A' for Active; 'I' for Inactive)
ROOT
ATOM      1  C2' OXE d   1      -1.067   3.056   3.076  0.00  0.00     0.078 C 
ATOM      2  C1' OXE d   1      -1.924   1.497   0.904  0.00  0.00     0.078 C 
ATOM      3  C1  OXE d   1      -0.445   1.549   1.192  0.00  0.00    -0.078 A 
ATOM      4  C2  OXE d   1      -0.030   2.351   2.228  0.00  0.00    -0.078 A 
ATOM      5  C3  OXE d   1       1.318   2.392   2.571  0.00  0.00     0.003 A 
ATOM      6  C4  OXE d   1       2.272   1.745   1.776  0.00  0.00    -0.002 A 
ATOM      7  C5  OXE d   1       1.874   0.955   0.692  0.00  0.00    -0.002 A 
ATOM      8  C6  OXE d   1       0.520   0.812   0.414  0.00  0.00     0.003 A 
ENDROOT
TORSDOF 0
ENDMDL
