MODEL 1
REMARK minimizedAffinity 14.0326757
REMARK minimizedRMSD -1
REMARK  0 active torsions:
REMARK  status: ('A' for Active; 'I' for Inactive)
ROOT
ATOM      1  C2' OXE d   1       0.046   2.172  -2.078  0.00  0.00     0.078 C 
ATOM      2  C1' OXE d   1       1.317   1.134   0.200  0.00  0.00     0.078 C 
ATOM      3  C1  OXE d   1       1.823   0.691  -1.151  0.00  0.00    -0.078 A 
ATOM      4  C2  OXE d   1       1.164   1.168  -2.259  0.00  0.00    -0.078 A 
ATOM      5  C3  OXE d   1       1.624   0.835  -3.530  0.00  0.00     0.003 A 
ATOM      6  C4  OXE d   1       2.652  -0.102  -3.689  0.00  0.00    -0.002 A 
ATOM      7  C5  OXE d   1       3.310  -0.630  -2.573  0.00  0.00    -0.002 A 
ATOM      8  C6  OXE d   1       2.936  -0.212  -1.301  0.00  0.00     0.003 A 
ENDROOT
TORSDOF 0
ENDMDL
