MODEL 1
REMARK minimizedAffinity 1.48782873
REMARK minimizedRMSD -1
REMARK  0 active torsions:
REMARK  status: ('A' for Active; 'I' for Inactive)
ROOT
ATOM      1  C2' OXE d   1       0.913   2.895   3.940  0.00  0.00     0.078 C 
ATOM      2  C1' OXE d   1       3.528   3.487   3.109  0.00  0.00     0.078 C 
ATOM      3  C1  OXE d   1       2.700   2.579   2.234  0.00  0.00    -0.078 A 
ATOM      4  C2  OXE d   1       1.438   2.258   2.671  0.00  0.00    -0.078 A 
ATOM      5  C3  OXE d   1       0.613   1.468   1.876  0.00  0.00     0.003 A 
ATOM      6  C4  OXE d   1       1.110   0.875   0.709  0.00  0.00    -0.002 A 
ATOM      7  C5  OXE d   1       2.406   1.158   0.265  0.00  0.00    -0.002 A 
ATOM      8  C6  OXE d   1       3.198   2.040   0.992  0.00  0.00     0.003 A 
ENDROOT
TORSDOF 0
ENDMDL
