MODEL 1
REMARK minimizedAffinity 9.65657616
REMARK minimizedRMSD -1
REMARK  0 active torsions:
REMARK  status: ('A' for Active; 'I' for Inactive)
ROOT
ATOM      1  C2' OXE d   1       0.982   0.826   0.905  0.00  0.00     0.078 C 
ATOM      2  C1' OXE d   1       3.309   2.355   1.262  0.00  0.00     0.078 C 
ATOM      3  C1  OXE d   1       3.143   1.623  -0.046  0.00  0.00    -0.078 A 
ATOM      4  C2  OXE d   1       2.023   0.839  -0.193  0.00  0.00    -0.078 A 
ATOM      5  C3  OXE d   1       1.794   0.186  -1.401  0.00  0.00     0.003 A 
ATOM      6  C4  OXE d   1       2.766   0.196  -2.408  0.00  0.00    -0.002 A 
ATOM      7  C5  OXE d   1       3.932   0.955  -2.262  0.00  0.00    -0.002 A 
ATOM      8  C6  OXE d   1       4.115   1.707  -1.107  0.00  0.00     0.003 A 
ENDROOT
TORSDOF 0
ENDMDL
