MODEL 1
REMARK minimizedAffinity 14.8328896
REMARK minimizedRMSD -1
REMARK  0 active torsions:
REMARK  status: ('A' for Active; 'I' for Inactive)
ROOT
ATOM      1  C2' OXE d   1      -0.029   1.580   1.426  0.00  0.00     0.078 C 
ATOM      2  C1' OXE d   1       1.791   1.209  -0.678  0.00  0.00     0.078 C 
ATOM      3  C1  OXE d   1       2.298   1.865   0.583  0.00  0.00    -0.078 A 
ATOM      4  C2  OXE d   1       1.389   2.084   1.590  0.00  0.00    -0.078 A 
ATOM      5  C3  OXE d   1       1.815   2.636   2.795  0.00  0.00     0.003 A 
ATOM      6  C4  OXE d   1       3.126   3.108   2.934  0.00  0.00    -0.002 A 
ATOM      7  C5  OXE d   1       4.057   2.930   1.906  0.00  0.00    -0.002 A 
ATOM      8  C6  OXE d   1       3.671   2.273   0.742  0.00  0.00     0.003 A 
ENDROOT
TORSDOF 0
ENDMDL
