MODEL 1
REMARK minimizedAffinity 11.7152462
REMARK minimizedRMSD -1
REMARK  0 active torsions:
REMARK  status: ('A' for Active; 'I' for Inactive)
ROOT
ATOM      1  C2' OXE d   1       0.234   1.124   1.590  0.00  0.00     0.078 C 
ATOM      2  C1' OXE d   1       2.862   2.020   2.005  0.00  0.00     0.078 C 
ATOM      3  C1  OXE d   1       2.569   1.265   0.732  0.00  0.00    -0.078 A 
ATOM      4  C2  OXE d   1       1.291   0.790   0.560  0.00  0.00    -0.078 A 
ATOM      5  C3  OXE d   1       0.953   0.135  -0.621  0.00  0.00     0.003 A 
ATOM      6  C4  OXE d   1       1.939  -0.179  -1.565  0.00  0.00    -0.002 A 
ATOM      7  C5  OXE d   1       3.255   0.261  -1.390  0.00  0.00    -0.002 A 
ATOM      8  C6  OXE d   1       3.576   1.020  -0.270  0.00  0.00     0.003 A 
ENDROOT
TORSDOF 0
ENDMDL
