MODEL 1
REMARK minimizedAffinity 11.3576498
REMARK minimizedRMSD -1
REMARK  0 active torsions:
REMARK  status: ('A' for Active; 'I' for Inactive)
ROOT
ATOM      1  C2' OXE d   1       3.577  -0.671  -2.206  0.00  0.00     0.078 C 
ATOM      2  C1' OXE d   1       1.495   0.693  -3.504  0.00  0.00     0.078 C 
ATOM      3  C1  OXE d   1       1.559   0.774  -1.999  0.00  0.00    -0.078 A 
ATOM      4  C2  OXE d   1       2.554   0.065  -1.369  0.00  0.00    -0.078 A 
ATOM      5  C3  OXE d   1       2.691   0.150   0.013  0.00  0.00     0.003 A 
ATOM      6  C4  OXE d   1       1.734   0.825   0.780  0.00  0.00    -0.002 A 
ATOM      7  C5  OXE d   1       0.690   1.521   0.161  0.00  0.00    -0.002 A 
ATOM      8  C6  OXE d   1       0.613   1.541  -1.227  0.00  0.00     0.003 A 
ENDROOT
TORSDOF 0
ENDMDL
