MODEL 1
REMARK minimizedAffinity 9.37197113
REMARK minimizedRMSD -1
REMARK  0 active torsions:
REMARK  status: ('A' for Active; 'I' for Inactive)
ROOT
ATOM      1  C2' OXE d   1      -1.958   2.325   0.653  0.00  0.00     0.078 C 
ATOM      2  C1' OXE d   1      -1.800   2.521   3.449  0.00  0.00     0.078 C 
ATOM      3  C1  OXE d   1      -0.533   2.208   2.693  0.00  0.00    -0.078 A 
ATOM      4  C2  OXE d   1      -0.629   2.068   1.329  0.00  0.00    -0.078 A 
ATOM      5  C3  OXE d   1       0.519   1.833   0.578  0.00  0.00     0.003 A 
ATOM      6  C4  OXE d   1       1.743   1.585   1.212  0.00  0.00    -0.002 A 
ATOM      7  C5  OXE d   1       1.854   1.684   2.603  0.00  0.00    -0.002 A 
ATOM      8  C6  OXE d   1       0.737   2.035   3.353  0.00  0.00     0.003 A 
ENDROOT
TORSDOF 0
ENDMDL
