MODEL 1
REMARK minimizedAffinity 8.52583504
REMARK minimizedRMSD -1
REMARK  0 active torsions:
REMARK  status: ('A' for Active; 'I' for Inactive)
ROOT
ATOM      1  C2' OXE d   1       1.495   1.484   0.252  0.00  0.00     0.078 C 
ATOM      2  C1' OXE d   1      -0.917   2.738  -0.449  0.00  0.00     0.078 C 
ATOM      3  C1  OXE d   1      -0.653   2.488   1.015  0.00  0.00    -0.078 A 
ATOM      4  C2  OXE d   1       0.508   1.832   1.345  0.00  0.00    -0.078 A 
ATOM      5  C3  OXE d   1       0.826   1.626   2.685  0.00  0.00     0.003 A 
ATOM      6  C4  OXE d   1      -0.096   1.942   3.689  0.00  0.00    -0.002 A 
ATOM      7  C5  OXE d   1      -1.302   2.575   3.372  0.00  0.00    -0.002 A 
ATOM      8  C6  OXE d   1      -1.577   2.893   2.046  0.00  0.00     0.003 A 
ENDROOT
TORSDOF 0
ENDMDL
