MODEL 1
REMARK minimizedAffinity 4.80717516
REMARK minimizedRMSD -1
REMARK  0 active torsions:
REMARK  status: ('A' for Active; 'I' for Inactive)
ROOT
ATOM      1  C2' OXE d   1       3.315   0.056  -2.608  0.00  0.00     0.078 C 
ATOM      2  C1' OXE d   1       4.450   2.339  -1.433  0.00  0.00     0.078 C 
ATOM      3  C1  OXE d   1       3.496   1.520  -0.600  0.00  0.00    -0.078 A 
ATOM      4  C2  OXE d   1       2.909   0.431  -1.199  0.00  0.00    -0.078 A 
ATOM      5  C3  OXE d   1       2.064  -0.390  -0.458  0.00  0.00     0.003 A 
ATOM      6  C4  OXE d   1       1.686  -0.031   0.842  0.00  0.00    -0.002 A 
ATOM      7  C5  OXE d   1       2.242   1.096   1.456  0.00  0.00    -0.002 A 
ATOM      8  C6  OXE d   1       3.179   1.857   0.766  0.00  0.00     0.003 A 
ENDROOT
TORSDOF 0
ENDMDL
