MODEL 1
REMARK minimizedAffinity 11.0015411
REMARK minimizedRMSD -1
REMARK  0 active torsions:
REMARK  status: ('A' for Active; 'I' for Inactive)
ROOT
ATOM      1  C2' OXE d   1      -1.671   2.544   1.811  0.00  0.00     0.078 C 
ATOM      2  C1' OXE d   1      -1.747  -0.251   2.062  0.00  0.00     0.078 C 
ATOM      3  C1  OXE d   1      -0.476   0.375   1.545  0.00  0.00    -0.078 A 
ATOM      4  C2  OXE d   1      -0.464   1.739   1.382  0.00  0.00    -0.078 A 
ATOM      5  C3  OXE d   1       0.702   2.373   0.960  0.00  0.00     0.003 A 
ATOM      6  C4  OXE d   1       1.811   1.620   0.555  0.00  0.00    -0.002 A 
ATOM      7  C5  OXE d   1       1.805   0.226   0.676  0.00  0.00    -0.002 A 
ATOM      8  C6  OXE d   1       0.688  -0.407   1.208  0.00  0.00     0.003 A 
ENDROOT
TORSDOF 0
ENDMDL
