MODEL 1
REMARK minimizedAffinity 8.06660938
REMARK minimizedRMSD -1
REMARK  0 active torsions:
REMARK  status: ('A' for Active; 'I' for Inactive)
ROOT
ATOM      1  C2' OXE d   1       3.390  -0.631  -2.076  0.00  0.00     0.078 C 
ATOM      2  C1' OXE d   1       2.180   1.187  -0.312  0.00  0.00     0.078 C 
ATOM      3  C1  OXE d   1       1.746   1.213  -1.756  0.00  0.00    -0.078 A 
ATOM      4  C2  OXE d   1       2.377   0.352  -2.622  0.00  0.00    -0.078 A 
ATOM      5  C3  OXE d   1       1.976   0.297  -3.953  0.00  0.00     0.003 A 
ATOM      6  C4  OXE d   1       1.045   1.216  -4.452  0.00  0.00    -0.002 A 
ATOM      7  C5  OXE d   1       0.419   2.129  -3.596  0.00  0.00    -0.002 A 
ATOM      8  C6  OXE d   1       0.727   2.111  -2.240  0.00  0.00     0.003 A 
ENDROOT
TORSDOF 0
ENDMDL
