MODEL 1
REMARK minimizedAffinity -4.05311012
REMARK minimizedRMSD -1
REMARK  1 active torsions:
REMARK  status: ('A' for Active; 'I' for Inactive)
REMARK    1  A    between atoms: C3_4  and  O_7 
ROOT
ATOM      1  C   UNL d   1       3.070  -0.369  -1.725  0.00  0.00    -0.033 A 
ATOM      2  C1  UNL d   1       2.556   0.809  -1.180  0.00  0.00     0.039 A 
ATOM      3  C2  UNL d   1       1.691   0.755  -0.085  0.00  0.00    -0.080 A 
ATOM      4  C3  UNL d   1       1.349  -0.482   0.455  0.00  0.00     0.150 A 
ATOM      5  C4  UNL d   1       1.861  -1.660  -0.081  0.00  0.00    -0.007 A 
ATOM      6  C5  UNL d   1       2.724  -1.604  -1.174  0.00  0.00     0.039 A 
ENDROOT
BRANCH   4   7
ATOM      7  O   UNL d   1       0.505  -0.586   1.520  0.00  0.00    -0.526 OA
ATOM      8  H5  UNL d   1       0.208   0.306   1.765  0.00  0.00     0.418 HD
ENDBRANCH   4   7
TORSDOF 1
ENDMDL
