MODEL 1
REMARK minimizedAffinity -5.70518923
REMARK minimizedRMSD -1
REMARK  1 active torsions:
REMARK  status: ('A' for Active; 'I' for Inactive)
REMARK    1  A    between atoms: C3_4  and  O_7 
ROOT
ATOM      1  C   UNL d   1       0.811  -0.171   0.341  0.00  0.00    -0.033 A 
ATOM      2  C1  UNL d   1       1.087  -1.533   0.203  0.00  0.00     0.039 A 
ATOM      3  C2  UNL d   1       2.350  -1.951  -0.221  0.00  0.00    -0.080 A 
ATOM      4  C3  UNL d   1       3.326  -0.999  -0.501  0.00  0.00     0.150 A 
ATOM      5  C4  UNL d   1       3.059   0.359  -0.362  0.00  0.00    -0.007 A 
ATOM      6  C5  UNL d   1       1.797   0.775   0.060  0.00  0.00     0.039 A 
ENDROOT
BRANCH   4   7
ATOM      7  O   UNL d   1       4.572  -1.359  -0.922  0.00  0.00    -0.526 OA
ATOM      8  H5  UNL d   1       4.603  -2.327  -1.000  0.00  0.00     0.418 HD
ENDBRANCH   4   7
TORSDOF 1
ENDMDL
