MODEL 1
REMARK minimizedAffinity -4.29595041
REMARK minimizedRMSD -1
REMARK  1 active torsions:
REMARK  status: ('A' for Active; 'I' for Inactive)
REMARK    1  A    between atoms: C3_4  and  O_7 
ROOT
ATOM      1  C   UNL d   1       0.576  -0.267   0.459  0.00  0.00    -0.033 A 
ATOM      2  C1  UNL d   1       0.848  -1.633   0.354  0.00  0.00     0.039 A 
ATOM      3  C2  UNL d   1       2.083  -2.065  -0.131  0.00  0.00    -0.080 A 
ATOM      4  C3  UNL d   1       3.038  -1.124  -0.506  0.00  0.00     0.150 A 
ATOM      5  C4  UNL d   1       2.775   0.238  -0.401  0.00  0.00    -0.007 A 
ATOM      6  C5  UNL d   1       1.541   0.668   0.083  0.00  0.00     0.039 A 
ENDROOT
BRANCH   4   7
ATOM      7  O   UNL d   1       4.256  -1.498  -0.990  0.00  0.00    -0.526 OA
ATOM      8  H5  UNL d   1       4.285  -2.469  -1.034  0.00  0.00     0.418 HD
ENDBRANCH   4   7
TORSDOF 1
ENDMDL
