MODEL 1
REMARK minimizedAffinity -3.23918581
REMARK minimizedRMSD -1
REMARK  1 active torsions:
REMARK  status: ('A' for Active; 'I' for Inactive)
REMARK    1  A    between atoms: C3_4  and  O_7 
ROOT
ATOM      1  C   UNL d   1       1.041  -0.956   1.341  0.00  0.00    -0.033 A 
ATOM      2  C1  UNL d   1       2.193  -1.636   0.941  0.00  0.00     0.039 A 
ATOM      3  C2  UNL d   1       2.974  -1.137  -0.103  0.00  0.00    -0.080 A 
ATOM      4  C3  UNL d   1       2.594   0.042  -0.737  0.00  0.00     0.150 A 
ATOM      5  C4  UNL d   1       1.450   0.727  -0.342  0.00  0.00    -0.007 A 
ATOM      6  C5  UNL d   1       0.670   0.227   0.701  0.00  0.00     0.039 A 
ENDROOT
BRANCH   4   7
ATOM      7  O   UNL d   1       3.321   0.565  -1.765  0.00  0.00    -0.526 OA
ATOM      8  H5  UNL d   1       4.067  -0.030  -1.948  0.00  0.00     0.418 HD
ENDBRANCH   4   7
TORSDOF 1
ENDMDL
