MODEL 1
REMARK minimizedAffinity -1.91307759
REMARK minimizedRMSD -1
REMARK  1 active torsions:
REMARK  status: ('A' for Active; 'I' for Inactive)
REMARK    1  A    between atoms: C3_4  and  O_7 
ROOT
ATOM      1  C   UNL d   1       1.369  -0.172   0.305  0.00  0.00    -0.033 A 
ATOM      2  C1  UNL d   1       2.095   0.831  -0.341  0.00  0.00     0.039 A 
ATOM      3  C2  UNL d   1       3.212   0.501  -1.110  0.00  0.00    -0.080 A 
ATOM      4  C3  UNL d   1       3.591  -0.833  -1.227  0.00  0.00     0.150 A 
ATOM      5  C4  UNL d   1       2.870  -1.838  -0.589  0.00  0.00    -0.007 A 
ATOM      6  C5  UNL d   1       1.756  -1.506   0.180  0.00  0.00     0.039 A 
ENDROOT
BRANCH   4   7
ATOM      7  O   UNL d   1       4.677  -1.204  -1.964  0.00  0.00    -0.526 OA
ATOM      8  H5  UNL d   1       5.094  -0.402  -2.322  0.00  0.00     0.418 HD
ENDBRANCH   4   7
TORSDOF 1
ENDMDL
