MODEL 1
REMARK minimizedAffinity -3.49522519
REMARK minimizedRMSD -1
REMARK  1 active torsions:
REMARK  status: ('A' for Active; 'I' for Inactive)
REMARK    1  A    between atoms: C3_4  and  O_7 
ROOT
ATOM      1  C   UNL d   1       1.115   0.050   0.425  0.00  0.00    -0.033 A 
ATOM      2  C1  UNL d   1       1.689  -1.221   0.358  0.00  0.00     0.039 A 
ATOM      3  C2  UNL d   1       2.835  -1.431  -0.412  0.00  0.00    -0.080 A 
ATOM      4  C3  UNL d   1       3.396  -0.364  -1.108  0.00  0.00     0.150 A 
ATOM      5  C4  UNL d   1       2.831   0.906  -1.042  0.00  0.00    -0.007 A 
ATOM      6  C5  UNL d   1       1.686   1.113  -0.274  0.00  0.00     0.039 A 
ENDROOT
BRANCH   4   7
ATOM      7  O   UNL d   1       4.511  -0.521  -1.876  0.00  0.00    -0.526 OA
ATOM      8  H5  UNL d   1       4.774  -1.457  -1.849  0.00  0.00     0.418 HD
ENDBRANCH   4   7
TORSDOF 1
ENDMDL
