MODEL 1
REMARK minimizedAffinity 0.710203648
REMARK minimizedRMSD -1
REMARK  1 active torsions:
REMARK  status: ('A' for Active; 'I' for Inactive)
REMARK    1  A    between atoms: C3_4  and  O_7 
ROOT
ATOM      1  C   UNL d   1       0.533   0.133   1.133  0.00  0.00    -0.033 A 
ATOM      2  C1  UNL d   1       1.663   0.784   0.634  0.00  0.00     0.039 A 
ATOM      3  C2  UNL d   1       2.588   0.084  -0.143  0.00  0.00    -0.080 A 
ATOM      4  C3  UNL d   1       2.371  -1.264  -0.413  0.00  0.00     0.150 A 
ATOM      5  C4  UNL d   1       1.246  -1.918   0.078  0.00  0.00    -0.007 A 
ATOM      6  C5  UNL d   1       0.324  -1.217   0.854  0.00  0.00     0.039 A 
ENDROOT
BRANCH   4   7
ATOM      7  O   UNL d   1       3.249  -1.990  -1.163  0.00  0.00    -0.526 OA
ATOM      8  H5  UNL d   1       3.992  -1.415  -1.409  0.00  0.00     0.418 HD
ENDBRANCH   4   7
TORSDOF 1
ENDMDL
