MODEL 1
REMARK minimizedAffinity -2.14570856
REMARK minimizedRMSD -1
REMARK  1 active torsions:
REMARK  status: ('A' for Active; 'I' for Inactive)
REMARK    1  A    between atoms: C3_4  and  O_7 
ROOT
ATOM      1  C   UNL d   1       0.971  -0.391   0.815  0.00  0.00    -0.033 A 
ATOM      2  C1  UNL d   1       1.024   0.484  -0.272  0.00  0.00     0.039 A 
ATOM      3  C2  UNL d   1       2.040   0.360  -1.222  0.00  0.00    -0.080 A 
ATOM      4  C3  UNL d   1       2.994  -0.643  -1.074  0.00  0.00     0.150 A 
ATOM      5  C4  UNL d   1       2.945  -1.521   0.004  0.00  0.00    -0.007 A 
ATOM      6  C5  UNL d   1       1.931  -1.394   0.952  0.00  0.00     0.039 A 
ENDROOT
BRANCH   4   7
ATOM      7  O   UNL d   1       4.007  -0.801  -1.973  0.00  0.00    -0.526 OA
ATOM      8  H5  UNL d   1       3.931  -0.106  -2.648  0.00  0.00     0.418 HD
ENDBRANCH   4   7
TORSDOF 1
ENDMDL
