MODEL 1
REMARK minimizedAffinity -3.76253748
REMARK minimizedRMSD -1
REMARK  1 active torsions:
REMARK  status: ('A' for Active; 'I' for Inactive)
REMARK    1  A    between atoms: C3_4  and  O_7 
ROOT
ATOM      1  C   UNL d   1       1.075  -0.287   0.215  0.00  0.00    -0.033 A 
ATOM      2  C1  UNL d   1       1.631  -1.567   0.193  0.00  0.00     0.039 A 
ATOM      3  C2  UNL d   1       2.850  -1.790  -0.450  0.00  0.00    -0.080 A 
ATOM      4  C3  UNL d   1       3.503  -0.726  -1.065  0.00  0.00     0.150 A 
ATOM      5  C4  UNL d   1       2.956   0.553  -1.044  0.00  0.00    -0.007 A 
ATOM      6  C5  UNL d   1       1.739   0.774  -0.402  0.00  0.00     0.039 A 
ENDROOT
BRANCH   4   7
ATOM      7  O   UNL d   1       4.692  -0.895  -1.709  0.00  0.00    -0.526 OA
ATOM      8  H5  UNL d   1       4.934  -1.836  -1.667  0.00  0.00     0.418 HD
ENDBRANCH   4   7
TORSDOF 1
ENDMDL
