MODEL 1
REMARK minimizedAffinity -1.96821678
REMARK minimizedRMSD -1
REMARK  1 active torsions:
REMARK  status: ('A' for Active; 'I' for Inactive)
REMARK    1  A    between atoms: C3_4  and  O_7 
ROOT
ATOM      1  C   UNL d   1       2.006  -0.634  -0.227  0.00  0.00    -0.033 A 
ATOM      2  C1  UNL d   1       2.320   0.616  -0.764  0.00  0.00     0.039 A 
ATOM      3  C2  UNL d   1       3.337   0.734  -1.714  0.00  0.00    -0.080 A 
ATOM      4  C3  UNL d   1       4.030  -0.403  -2.118  0.00  0.00     0.150 A 
ATOM      5  C4  UNL d   1       3.719  -1.652  -1.590  0.00  0.00    -0.007 A 
ATOM      6  C5  UNL d   1       2.704  -1.768  -0.641  0.00  0.00     0.039 A 
ENDROOT
BRANCH   4   7
ATOM      7  O   UNL d   1       5.034  -0.337  -3.038  0.00  0.00    -0.526 OA
ATOM      8  H5  UNL d   1       5.156   0.593  -3.293  0.00  0.00     0.418 HD
ENDBRANCH   4   7
TORSDOF 1
ENDMDL
