MODEL 1
REMARK minimizedAffinity -4.70322847
REMARK minimizedRMSD -1
REMARK  1 active torsions:
REMARK  status: ('A' for Active; 'I' for Inactive)
REMARK    1  A    between atoms: C3_4  and  O_7 
ROOT
ATOM      1  C   UNL d   1       1.305  -0.329  -0.154  0.00  0.00    -0.033 A 
ATOM      2  C1  UNL d   1       1.942   0.843  -0.567  0.00  0.00     0.039 A 
ATOM      3  C2  UNL d   1       3.186   0.779  -1.197  0.00  0.00    -0.080 A 
ATOM      4  C3  UNL d   1       3.781  -0.461  -1.410  0.00  0.00     0.150 A 
ATOM      5  C4  UNL d   1       3.151  -1.633  -1.005  0.00  0.00    -0.007 A 
ATOM      6  C5  UNL d   1       1.909  -1.567  -0.374  0.00  0.00     0.039 A 
ENDROOT
BRANCH   4   7
ATOM      7  O   UNL d   1       4.996  -0.573  -2.017  0.00  0.00    -0.526 OA
ATOM      8  H5  UNL d   1       5.325   0.319  -2.216  0.00  0.00     0.418 HD
ENDBRANCH   4   7
TORSDOF 1
ENDMDL
