MODEL 1
REMARK minimizedAffinity -3.78684139
REMARK minimizedRMSD -1
REMARK  1 active torsions:
REMARK  status: ('A' for Active; 'I' for Inactive)
REMARK    1  A    between atoms: C3_4  and  O_7 
ROOT
ATOM      1  C   UNL d   1       1.307  -1.101   1.081  0.00  0.00    -0.033 A 
ATOM      2  C1  UNL d   1       0.873   0.171   0.703  0.00  0.00     0.039 A 
ATOM      3  C2  UNL d   1       1.388   0.773  -0.447  0.00  0.00    -0.080 A 
ATOM      4  C3  UNL d   1       2.334   0.093  -1.209  0.00  0.00     0.150 A 
ATOM      5  C4  UNL d   1       2.768  -1.176  -0.840  0.00  0.00    -0.007 A 
ATOM      6  C5  UNL d   1       2.254  -1.775   0.309  0.00  0.00     0.039 A 
ENDROOT
BRANCH   4   7
ATOM      7  O   UNL d   1       2.868   0.641  -2.337  0.00  0.00    -0.526 OA
ATOM      8  H5  UNL d   1       2.496   1.532  -2.452  0.00  0.00     0.418 HD
ENDBRANCH   4   7
TORSDOF 1
ENDMDL
