MODEL 1
REMARK minimizedAffinity -5.53864861
REMARK minimizedRMSD -1
REMARK  1 active torsions:
REMARK  status: ('A' for Active; 'I' for Inactive)
REMARK    1  A    between atoms: C3_4  and  O_7 
ROOT
ATOM      1  C   UNL d   1       0.969  -0.578   0.469  0.00  0.00    -0.033 A 
ATOM      2  C1  UNL d   1       1.666  -1.774   0.294  0.00  0.00     0.039 A 
ATOM      3  C2  UNL d   1       2.805  -1.809  -0.513  0.00  0.00    -0.080 A 
ATOM      4  C3  UNL d   1       3.236  -0.642  -1.138  0.00  0.00     0.150 A 
ATOM      5  C4  UNL d   1       2.548   0.555  -0.964  0.00  0.00    -0.007 A 
ATOM      6  C5  UNL d   1       1.410   0.587  -0.159  0.00  0.00     0.039 A 
ENDROOT
BRANCH   4   7
ATOM      7  O   UNL d   1       4.339  -0.627  -1.938  0.00  0.00    -0.526 OA
ATOM      8  H5  UNL d   1       4.695  -1.530  -1.988  0.00  0.00     0.418 HD
ENDBRANCH   4   7
TORSDOF 1
ENDMDL
