MODEL 1
REMARK minimizedAffinity -2.8296001
REMARK minimizedRMSD -1
REMARK  1 active torsions:
REMARK  status: ('A' for Active; 'I' for Inactive)
REMARK    1  A    between atoms: C3_4  and  O_7 
ROOT
ATOM      1  C   UNL d   1       1.278  -0.024   0.357  0.00  0.00    -0.033 A 
ATOM      2  C1  UNL d   1       2.037   1.051  -0.111  0.00  0.00     0.039 A 
ATOM      3  C2  UNL d   1       3.248   0.821  -0.767  0.00  0.00    -0.080 A 
ATOM      4  C3  UNL d   1       3.688  -0.488  -0.949  0.00  0.00     0.150 A 
ATOM      5  C4  UNL d   1       2.935  -1.563  -0.489  0.00  0.00    -0.007 A 
ATOM      6  C5  UNL d   1       1.727  -1.331   0.167  0.00  0.00     0.039 A 
ENDROOT
BRANCH   4   7
ATOM      7  O   UNL d   1       4.865  -0.762  -1.578  0.00  0.00    -0.526 OA
ATOM      8  H5  UNL d   1       5.291   0.079  -1.816  0.00  0.00     0.418 HD
ENDBRANCH   4   7
TORSDOF 1
ENDMDL
