MODEL 1
REMARK minimizedAffinity -4.12511635
REMARK minimizedRMSD -1
REMARK  1 active torsions:
REMARK  status: ('A' for Active; 'I' for Inactive)
REMARK    1  A    between atoms: C3_4  and  O_7 
ROOT
ATOM      1  C   UNL d   1       1.745   1.043  -1.179  0.00  0.00    -0.033 A 
ATOM      2  C1  UNL d   1       0.720   0.791  -0.265  0.00  0.00     0.039 A 
ATOM      3  C2  UNL d   1       0.654  -0.440   0.390  0.00  0.00    -0.080 A 
ATOM      4  C3  UNL d   1       1.618  -1.409   0.124  0.00  0.00     0.150 A 
ATOM      5  C4  UNL d   1       2.644  -1.163  -0.782  0.00  0.00    -0.007 A 
ATOM      6  C5  UNL d   1       2.708   0.067  -1.436  0.00  0.00     0.039 A 
ENDROOT
BRANCH   4   7
ATOM      7  O   UNL d   1       1.592  -2.627   0.735  0.00  0.00    -0.526 OA
ATOM      8  H5  UNL d   1       0.812  -2.665   1.313  0.00  0.00     0.418 HD
ENDBRANCH   4   7
TORSDOF 1
ENDMDL
