MODEL 1
REMARK minimizedAffinity -3.77991319
REMARK minimizedRMSD -1
REMARK  1 active torsions:
REMARK  status: ('A' for Active; 'I' for Inactive)
REMARK    1  A    between atoms: C3_4  and  O_7 
ROOT
ATOM      1  C   UNL d   1       1.324  -0.960   0.381  0.00  0.00    -0.033 A 
ATOM      2  C1  UNL d   1       2.160  -1.959  -0.123  0.00  0.00     0.039 A 
ATOM      3  C2  UNL d   1       3.088  -1.656  -1.121  0.00  0.00    -0.080 A 
ATOM      4  C3  UNL d   1       3.171  -0.353  -1.604  0.00  0.00     0.150 A 
ATOM      5  C4  UNL d   1       2.344   0.647  -1.104  0.00  0.00    -0.007 A 
ATOM      6  C5  UNL d   1       1.417   0.343  -0.108  0.00  0.00     0.039 A 
ENDROOT
BRANCH   4   7
ATOM      7  O   UNL d   1       4.058  -0.011  -2.581  0.00  0.00    -0.526 OA
ATOM      8  H5  UNL d   1       4.543  -0.809  -2.850  0.00  0.00     0.418 HD
ENDBRANCH   4   7
TORSDOF 1
ENDMDL
