MODEL 1
REMARK minimizedAffinity -2.52010179
REMARK minimizedRMSD -1
REMARK  0 active torsions:
REMARK  status: ('A' for Active; 'I' for Inactive)
ROOT
ATOM      1  C1  DEN d   1      -1.483   0.393   1.239  0.00  0.00     0.130 A 
ATOM      2  C2  DEN d   1      -2.404  -0.736   1.139  0.00  0.00    -0.031 A 
ATOM      3  C3  DEN d   1      -1.614  -1.943   0.823  0.00  0.00     0.027 A 
ATOM      4  C4  DEN d   1       0.933  -2.172   0.486  0.00  0.00     0.027 A 
ATOM      5  C5  DEN d   1       2.128  -1.488   0.461  0.00  0.00    -0.003 A 
ATOM      6  C6  DEN d   1       2.199  -0.134   0.657  0.00  0.00     0.001 A 
ATOM      7  C7  DEN d   1       1.058   0.572   0.933  0.00  0.00     0.017 A 
ATOM      8  C8  DEN d   1      -0.152  -0.110   0.954  0.00  0.00    -0.094 A 
ATOM      9  C9  DEN d   1      -0.201  -1.481   0.764  0.00  0.00    -0.072 A 
ENDROOT
TORSDOF 0
ENDMDL
