MODEL 1
REMARK minimizedAffinity 13.9749565
REMARK minimizedRMSD -1
REMARK  0 active torsions:
REMARK  status: ('A' for Active; 'I' for Inactive)
ROOT
ATOM      1  C1  DEN d   1       4.792   2.107  -3.093  0.00  0.00     0.130 A 
ATOM      2  C2  DEN d   1       3.468   1.506  -2.964  0.00  0.00    -0.031 A 
ATOM      3  C3  DEN d   1       2.671   2.348  -2.049  0.00  0.00     0.027 A 
ATOM      4  C4  DEN d   1       3.355   4.516  -0.831  0.00  0.00     0.027 A 
ATOM      5  C5  DEN d   1       4.382   5.409  -0.620  0.00  0.00    -0.003 A 
ATOM      6  C6  DEN d   1       5.618   5.248  -1.187  0.00  0.00     0.001 A 
ATOM      7  C7  DEN d   1       5.845   4.192  -2.030  0.00  0.00     0.017 A 
ATOM      8  C8  DEN d   1       4.817   3.283  -2.241  0.00  0.00    -0.094 A 
ATOM      9  C9  DEN d   1       3.570   3.470  -1.668  0.00  0.00    -0.072 A 
ENDROOT
TORSDOF 0
ENDMDL
