MODEL 1
REMARK minimizedAffinity 0.160118341
REMARK minimizedRMSD -1
REMARK  0 active torsions:
REMARK  status: ('A' for Active; 'I' for Inactive)
ROOT
ATOM      1  C1  DEN d   1      -0.594  -1.056   0.785  0.00  0.00     0.130 A 
ATOM      2  C2  DEN d   1       0.027   0.166   1.289  0.00  0.00    -0.031 A 
ATOM      3  C3  DEN d   1       1.488   0.042   1.111  0.00  0.00     0.027 A 
ATOM      4  C4  DEN d   1       2.840  -1.910   0.104  0.00  0.00     0.027 A 
ATOM      5  C5  DEN d   1       2.753  -3.168  -0.449  0.00  0.00    -0.003 A 
ATOM      6  C6  DEN d   1       1.557  -3.819  -0.598  0.00  0.00     0.001 A 
ATOM      7  C7  DEN d   1       0.395  -3.196  -0.229  0.00  0.00     0.017 A 
ATOM      8  C8  DEN d   1       0.475  -1.930   0.336  0.00  0.00    -0.094 A 
ATOM      9  C9  DEN d   1       1.693  -1.283   0.467  0.00  0.00    -0.072 A 
ENDROOT
TORSDOF 0
ENDMDL
