MODEL 1
REMARK minimizedAffinity 0.820467532
REMARK minimizedRMSD -1
REMARK  0 active torsions:
REMARK  status: ('A' for Active; 'I' for Inactive)
ROOT
ATOM      1  C1  DEN d   1      -2.020  -0.895   0.976  0.00  0.00     0.130 A 
ATOM      2  C2  DEN d   1      -2.132  -0.005   2.128  0.00  0.00    -0.031 A 
ATOM      3  C3  DEN d   1      -0.779   0.478   2.466  0.00  0.00     0.027 A 
ATOM      4  C4  DEN d   1       1.469  -0.057   1.318  0.00  0.00     0.027 A 
ATOM      5  C5  DEN d   1       2.070  -0.772   0.306  0.00  0.00    -0.003 A 
ATOM      6  C6  DEN d   1       1.361  -1.597  -0.526  0.00  0.00     0.001 A 
ATOM      7  C7  DEN d   1       0.001  -1.693  -0.389  0.00  0.00     0.017 A 
ATOM      8  C8  DEN d   1      -0.611  -0.982   0.634  0.00  0.00    -0.094 A 
ATOM      9  C9  DEN d   1       0.121  -0.143   1.457  0.00  0.00    -0.072 A 
ENDROOT
TORSDOF 0
ENDMDL
