MODEL 1
REMARK minimizedAffinity -0.65098983
REMARK minimizedRMSD -1
REMARK  0 active torsions:
REMARK  status: ('A' for Active; 'I' for Inactive)
ROOT
ATOM      1  C1  DEN d   1       5.792   2.183  -2.467  0.00  0.00     0.130 A 
ATOM      2  C2  DEN d   1       5.801   3.637  -2.336  0.00  0.00    -0.031 A 
ATOM      3  C3  DEN d   1       4.533   4.154  -2.888  0.00  0.00     0.027 A 
ATOM      4  C4  DEN d   1       2.564   2.849  -3.925  0.00  0.00     0.027 A 
ATOM      5  C5  DEN d   1       2.102   1.597  -4.264  0.00  0.00    -0.003 A 
ATOM      6  C6  DEN d   1       2.845   0.464  -4.062  0.00  0.00     0.001 A 
ATOM      7  C7  DEN d   1       4.074   0.557  -3.462  0.00  0.00     0.017 A 
ATOM      8  C8  DEN d   1       4.549   1.817  -3.124  0.00  0.00    -0.094 A 
ATOM      9  C9  DEN d   1       3.778   2.949  -3.326  0.00  0.00    -0.072 A 
ENDROOT
TORSDOF 0
ENDMDL
