MODEL 1
REMARK minimizedAffinity 8.31641579
REMARK minimizedRMSD -1
REMARK  0 active torsions:
REMARK  status: ('A' for Active; 'I' for Inactive)
ROOT
ATOM      1  C1  DEN d   1      -0.241  -3.377  -0.680  0.00  0.00     0.130 A 
ATOM      2  C2  DEN d   1      -1.625  -3.568  -0.257  0.00  0.00    -0.031 A 
ATOM      3  C3  DEN d   1      -1.928  -2.562   0.781  0.00  0.00     0.027 A 
ATOM      4  C4  DEN d   1      -0.398  -0.734   1.765  0.00  0.00     0.027 A 
ATOM      5  C5  DEN d   1       0.867  -0.189   1.728  0.00  0.00    -0.003 A 
ATOM      6  C6  DEN d   1       1.853  -0.686   0.917  0.00  0.00     0.001 A 
ATOM      7  C7  DEN d   1       1.577  -1.732   0.076  0.00  0.00     0.017 A 
ATOM      8  C8  DEN d   1       0.307  -2.291   0.113  0.00  0.00    -0.094 A 
ATOM      9  C9  DEN d   1      -0.680  -1.767   0.931  0.00  0.00    -0.072 A 
ENDROOT
TORSDOF 0
ENDMDL
