MODEL 1
REMARK minimizedAffinity 3.88914847
REMARK minimizedRMSD -1
REMARK  0 active torsions:
REMARK  status: ('A' for Active; 'I' for Inactive)
ROOT
ATOM      1  C1  DEN d   1       1.816  -3.424  -0.133  0.00  0.00     0.130 A 
ATOM      2  C2  DEN d   1       0.500  -3.875  -0.577  0.00  0.00    -0.031 A 
ATOM      3  C3  DEN d   1      -0.482  -2.830  -0.227  0.00  0.00     0.027 A 
ATOM      4  C4  DEN d   1      -0.096  -0.567   0.950  0.00  0.00     0.027 A 
ATOM      5  C5  DEN d   1       0.851   0.251   1.525  0.00  0.00    -0.003 A 
ATOM      6  C6  DEN d   1       2.169  -0.109   1.618  0.00  0.00     0.001 A 
ATOM      7  C7  DEN d   1       2.585  -1.302   1.087  0.00  0.00     0.017 A 
ATOM      8  C8  DEN d   1       1.636  -2.136   0.512  0.00  0.00    -0.094 A 
ATOM      9  C9  DEN d   1       0.310  -1.747   0.417  0.00  0.00    -0.072 A 
ENDROOT
TORSDOF 0
ENDMDL
