MODEL 1
REMARK minimizedAffinity -1.33613515
REMARK minimizedRMSD -1
REMARK  0 active torsions:
REMARK  status: ('A' for Active; 'I' for Inactive)
ROOT
ATOM      1  C1  DEN d   1      -2.051  -0.733   0.635  0.00  0.00     0.130 A 
ATOM      2  C2  DEN d   1      -1.997   0.503   1.411  0.00  0.00    -0.031 A 
ATOM      3  C3  DEN d   1      -0.579   0.806   1.690  0.00  0.00     0.027 A 
ATOM      4  C4  DEN d   1       1.528  -0.508   0.995  0.00  0.00     0.027 A 
ATOM      5  C5  DEN d   1       1.986  -1.628   0.336  0.00  0.00    -0.003 A 
ATOM      6  C6  DEN d   1       1.136  -2.538  -0.235  0.00  0.00     0.001 A 
ATOM      7  C7  DEN d   1      -0.216  -2.321  -0.198  0.00  0.00     0.017 A 
ATOM      8  C8  DEN d   1      -0.685  -1.198   0.471  0.00  0.00    -0.094 A 
ATOM      9  C9  DEN d   1       0.190  -0.284   1.031  0.00  0.00    -0.072 A 
ENDROOT
TORSDOF 0
ENDMDL
