MODEL 1
REMARK minimizedAffinity 1.92776358
REMARK minimizedRMSD -1
REMARK  0 active torsions:
REMARK  status: ('A' for Active; 'I' for Inactive)
ROOT
ATOM      1  C1  DEN d   1      -0.866  -2.285   0.223  0.00  0.00     0.130 A 
ATOM      2  C2  DEN d   1       0.461  -2.331   0.830  0.00  0.00    -0.031 A 
ATOM      3  C3  DEN d   1       0.619  -1.130   1.674  0.00  0.00     0.027 A 
ATOM      4  C4  DEN d   1      -1.055   0.785   2.101  0.00  0.00     0.027 A 
ATOM      5  C5  DEN d   1      -2.308   1.270   1.795  0.00  0.00    -0.003 A 
ATOM      6  C6  DEN d   1      -3.148   0.627   0.926  0.00  0.00     0.001 A 
ATOM      7  C7  DEN d   1      -2.763  -0.562   0.365  0.00  0.00     0.017 A 
ATOM      8  C8  DEN d   1      -1.498  -1.054   0.662  0.00  0.00    -0.094 A 
ATOM      9  C9  DEN d   1      -0.669  -0.395   1.553  0.00  0.00    -0.072 A 
ENDROOT
TORSDOF 0
ENDMDL
