MODEL 1
REMARK minimizedAffinity 0.0366220586
REMARK minimizedRMSD -1
REMARK  0 active torsions:
REMARK  status: ('A' for Active; 'I' for Inactive)
ROOT
ATOM      1  C1  DEN d   1      -1.666  -1.352   1.445  0.00  0.00     0.130 A 
ATOM      2  C2  DEN d   1      -1.664  -0.103   2.202  0.00  0.00    -0.031 A 
ATOM      3  C3  DEN d   1      -0.316   0.491   2.098  0.00  0.00     0.027 A 
ATOM      4  C4  DEN d   1       1.756  -0.395   0.843  0.00  0.00     0.027 A 
ATOM      5  C5  DEN d   1       2.243  -1.422   0.066  0.00  0.00    -0.003 A 
ATOM      6  C6  DEN d   1       1.478  -2.506  -0.275  0.00  0.00     0.001 A 
ATOM      7  C7  DEN d   1       0.169  -2.566   0.125  0.00  0.00     0.017 A 
ATOM      8  C8  DEN d   1      -0.327  -1.537   0.915  0.00  0.00    -0.094 A 
ATOM      9  C9  DEN d   1       0.459  -0.444   1.239  0.00  0.00    -0.072 A 
ENDROOT
TORSDOF 0
ENDMDL
