MODEL 1
REMARK minimizedAffinity 0.222773001
REMARK minimizedRMSD -1
REMARK  0 active torsions:
REMARK  status: ('A' for Active; 'I' for Inactive)
ROOT
ATOM      1  C1  DEN d   1      -0.800  -0.920   0.806  0.00  0.00     0.130 A 
ATOM      2  C2  DEN d   1      -0.279   0.383   1.211  0.00  0.00    -0.031 A 
ATOM      3  C3  DEN d   1       1.187   0.363   1.036  0.00  0.00     0.027 A 
ATOM      4  C4  DEN d   1       2.693  -1.547   0.177  0.00  0.00     0.027 A 
ATOM      5  C5  DEN d   1       2.708  -2.847  -0.277  0.00  0.00    -0.003 A 
ATOM      6  C6  DEN d   1       1.568  -3.601  -0.369  0.00  0.00     0.001 A 
ATOM      7  C7  DEN d   1       0.358  -3.046  -0.044  0.00  0.00     0.017 A 
ATOM      8  C8  DEN d   1       0.337  -1.737   0.421  0.00  0.00    -0.094 A 
ATOM      9  C9  DEN d   1       1.498  -0.988   0.496  0.00  0.00    -0.072 A 
ENDROOT
TORSDOF 0
ENDMDL
