MODEL 1
REMARK minimizedAffinity -0.719049633
REMARK minimizedRMSD -1
REMARK  0 active torsions:
REMARK  status: ('A' for Active; 'I' for Inactive)
ROOT
ATOM      1  C1  DEN d   1      -0.710  -2.242   0.262  0.00  0.00     0.130 A 
ATOM      2  C2  DEN d   1       0.595  -2.472   0.874  0.00  0.00    -0.031 A 
ATOM      3  C3  DEN d   1       0.842  -1.387   1.845  0.00  0.00     0.027 A 
ATOM      4  C4  DEN d   1      -0.665   0.614   2.459  0.00  0.00     0.027 A 
ATOM      5  C5  DEN d   1      -1.863   1.239   2.195  0.00  0.00    -0.003 A 
ATOM      6  C6  DEN d   1      -2.739   0.771   1.252  0.00  0.00     0.001 A 
ATOM      7  C7  DEN d   1      -2.450  -0.381   0.570  0.00  0.00     0.017 A 
ATOM      8  C8  DEN d   1      -1.240  -1.013   0.825  0.00  0.00    -0.094 A 
ATOM      9  C9  DEN d   1      -0.373  -0.531   1.791  0.00  0.00    -0.072 A 
ENDROOT
TORSDOF 0
ENDMDL
