MODEL 1
REMARK minimizedAffinity 4.95791769
REMARK minimizedRMSD -1
REMARK  0 active torsions:
REMARK  status: ('A' for Active; 'I' for Inactive)
ROOT
ATOM      1  C1  DEN d   1       2.102  -3.076  -0.417  0.00  0.00     0.130 A 
ATOM      2  C2  DEN d   1       1.006  -3.949  -0.828  0.00  0.00    -0.031 A 
ATOM      3  C3  DEN d   1      -0.261  -3.329  -0.390  0.00  0.00     0.027 A 
ATOM      4  C4  DEN d   1      -0.630  -1.112   0.875  0.00  0.00     0.027 A 
ATOM      5  C5  DEN d   1      -0.001  -0.029   1.450  0.00  0.00    -0.003 A 
ATOM      6  C6  DEN d   1       1.363   0.096   1.473  0.00  0.00     0.001 A 
ATOM      7  C7  DEN d   1       2.142  -0.856   0.870  0.00  0.00     0.017 A 
ATOM      8  C8  DEN d   1       1.516  -1.954   0.295  0.00  0.00    -0.094 A 
ATOM      9  C9  DEN d   1       0.135  -2.056   0.271  0.00  0.00    -0.072 A 
ENDROOT
TORSDOF 0
ENDMDL
