MODEL 1
REMARK minimizedAffinity -3.86156344
REMARK minimizedRMSD -1
REMARK  0 active torsions:
REMARK  status: ('A' for Active; 'I' for Inactive)
ROOT
ATOM      1  C   UNL d   1      -1.575   2.932   0.663  0.00  0.00     0.023 A 
ATOM      2  C1  UNL d   1      -1.428   1.732  -0.033  0.00  0.00     0.003 A 
ATOM      3  C2  UNL d   1      -0.455   0.810   0.359  0.00  0.00     0.048 A 
ATOM      4  C3  UNL d   1       0.366   1.094   1.450  0.00  0.00     0.023 A 
ATOM      5  C4  UNL d   1       0.222   2.293   2.150  0.00  0.00     0.048 A 
ATOM      6  C5  UNL d   1      -0.752   3.212   1.754  0.00  0.00     0.003 A 
ATOM      7  I   UNL d   1       1.815  -0.276   2.036  0.00  0.00    -0.146 I 
ENDROOT
TORSDOF 0
ENDMDL
