MODEL 1
REMARK minimizedAffinity -2.20596194
REMARK minimizedRMSD -1
REMARK  0 active torsions:
REMARK  status: ('A' for Active; 'I' for Inactive)
ROOT
ATOM      1  C   UNL d   1      -0.880   2.291   1.874  0.00  0.00     0.023 A 
ATOM      2  C1  UNL d   1      -1.663   2.010   0.754  0.00  0.00     0.003 A 
ATOM      3  C2  UNL d   1      -1.279   1.002  -0.132  0.00  0.00     0.048 A 
ATOM      4  C3  UNL d   1      -0.112   0.277   0.108  0.00  0.00     0.023 A 
ATOM      5  C4  UNL d   1       0.674   0.555   1.228  0.00  0.00     0.048 A 
ATOM      6  C5  UNL d   1       0.286   1.565   2.111  0.00  0.00     0.003 A 
ATOM      7  I   UNL d   1       0.462  -1.224  -1.209  0.00  0.00    -0.146 I 
ENDROOT
TORSDOF 0
ENDMDL
