MODEL 1
REMARK minimizedAffinity -2.02697158
REMARK minimizedRMSD -1
REMARK  0 active torsions:
REMARK  status: ('A' for Active; 'I' for Inactive)
ROOT
ATOM      1  C   UNL d   1      -0.629   1.699   1.780  0.00  0.00     0.023 A 
ATOM      2  C1  UNL d   1      -1.241   1.720   0.526  0.00  0.00     0.003 A 
ATOM      3  C2  UNL d   1      -1.050   0.661  -0.363  0.00  0.00     0.048 A 
ATOM      4  C3  UNL d   1      -0.247  -0.417   0.007  0.00  0.00     0.023 A 
ATOM      5  C4  UNL d   1       0.367  -0.443   1.261  0.00  0.00     0.048 A 
ATOM      6  C5  UNL d   1       0.174   0.619   2.146  0.00  0.00     0.003 A 
ATOM      7  I   UNL d   1       0.039  -1.995  -1.315  0.00  0.00    -0.146 I 
ENDROOT
TORSDOF 0
ENDMDL
