MODEL 1
REMARK minimizedAffinity -4.15795708
REMARK minimizedRMSD -1
REMARK  0 active torsions:
REMARK  status: ('A' for Active; 'I' for Inactive)
ROOT
ATOM      1  C   UNL d   1      -0.840   2.816   1.520  0.00  0.00     0.023 A 
ATOM      2  C1  UNL d   1      -0.385   1.687   2.201  0.00  0.00     0.003 A 
ATOM      3  C2  UNL d   1      -0.176   0.491   1.512  0.00  0.00     0.048 A 
ATOM      4  C3  UNL d   1      -0.424   0.431   0.141  0.00  0.00     0.023 A 
ATOM      5  C4  UNL d   1      -0.878   1.558  -0.545  0.00  0.00     0.048 A 
ATOM      6  C5  UNL d   1      -1.086   2.752   0.148  0.00  0.00     0.003 A 
ATOM      7  I   UNL d   1      -0.114  -1.349  -0.887  0.00  0.00    -0.146 I 
ENDROOT
TORSDOF 0
ENDMDL
