MODEL 1
REMARK minimizedAffinity -3.11337757
REMARK minimizedRMSD -1
REMARK  0 active torsions:
REMARK  status: ('A' for Active; 'I' for Inactive)
ROOT
ATOM      1  C   UNL d   1      -0.823   3.238  -0.627  0.00  0.00     0.023 A 
ATOM      2  C1  UNL d   1      -0.794   3.293   0.766  0.00  0.00     0.003 A 
ATOM      3  C2  UNL d   1      -0.485   2.149   1.505  0.00  0.00     0.048 A 
ATOM      4  C3  UNL d   1      -0.205   0.953   0.843  0.00  0.00     0.023 A 
ATOM      5  C4  UNL d   1      -0.232   0.894  -0.551  0.00  0.00     0.048 A 
ATOM      6  C5  UNL d   1      -0.543   2.041  -1.285  0.00  0.00     0.003 A 
ATOM      7  I   UNL d   1       0.255  -0.751   1.940  0.00  0.00    -0.146 I 
ENDROOT
TORSDOF 0
ENDMDL
