MODEL 1
REMARK minimizedAffinity -4.90996361
REMARK minimizedRMSD -1
REMARK  0 active torsions:
REMARK  status: ('A' for Active; 'I' for Inactive)
ROOT
ATOM      1  C   UNL d   1      -0.923   3.009   1.145  0.00  0.00     0.023 A 
ATOM      2  C1  UNL d   1      -0.730   3.041  -0.237  0.00  0.00     0.003 A 
ATOM      3  C2  UNL d   1      -0.306   1.893  -0.910  0.00  0.00     0.048 A 
ATOM      4  C3  UNL d   1      -0.078   0.717  -0.196  0.00  0.00     0.023 A 
ATOM      5  C4  UNL d   1      -0.271   0.681   1.186  0.00  0.00     0.048 A 
ATOM      6  C5  UNL d   1      -0.694   1.831   1.855  0.00  0.00     0.003 A 
ATOM      7  I   UNL d   1       0.552  -0.992  -1.196  0.00  0.00    -0.146 I 
ENDROOT
TORSDOF 0
ENDMDL
