MODEL 1
REMARK minimizedAffinity -3.61172962
REMARK minimizedRMSD -1
REMARK  0 active torsions:
REMARK  status: ('A' for Active; 'I' for Inactive)
ROOT
ATOM      1  C   UNL d   1      -1.267   3.269   0.323  0.00  0.00     0.023 A 
ATOM      2  C1  UNL d   1      -0.929   2.333   1.300  0.00  0.00     0.003 A 
ATOM      3  C2  UNL d   1      -0.482   1.063   0.927  0.00  0.00     0.048 A 
ATOM      4  C3  UNL d   1      -0.374   0.738  -0.424  0.00  0.00     0.023 A 
ATOM      5  C4  UNL d   1      -0.710   1.672  -1.406  0.00  0.00     0.048 A 
ATOM      6  C5  UNL d   1      -1.158   2.939  -1.028  0.00  0.00     0.003 A 
ATOM      7  I   UNL d   1       0.291  -1.151  -0.981  0.00  0.00    -0.146 I 
ENDROOT
TORSDOF 0
ENDMDL
