MODEL 1
REMARK minimizedAffinity -4.68364286
REMARK minimizedRMSD -1
REMARK  0 active torsions:
REMARK  status: ('A' for Active; 'I' for Inactive)
ROOT
ATOM      1  C   UNL d   1      -0.961   3.147   1.393  0.00  0.00     0.023 A 
ATOM      2  C1  UNL d   1      -0.324   2.122   2.094  0.00  0.00     0.003 A 
ATOM      3  C2  UNL d   1       0.034   0.943   1.438  0.00  0.00     0.048 A 
ATOM      4  C3  UNL d   1      -0.246   0.795   0.080  0.00  0.00     0.023 A 
ATOM      5  C4  UNL d   1      -0.881   1.817  -0.626  0.00  0.00     0.048 A 
ATOM      6  C5  UNL d   1      -1.239   2.994   0.034  0.00  0.00     0.003 A 
ATOM      7  I   UNL d   1       0.288  -0.960  -0.898  0.00  0.00    -0.146 I 
ENDROOT
TORSDOF 0
ENDMDL
