MODEL 1
REMARK minimizedAffinity -5.52613401
REMARK minimizedRMSD -1
REMARK  0 active torsions:
REMARK  status: ('A' for Active; 'I' for Inactive)
ROOT
ATOM      1  C   UNL d   1      -0.940   3.675   0.932  0.00  0.00     0.023 A 
ATOM      2  C1  UNL d   1      -0.632   3.559  -0.423  0.00  0.00     0.003 A 
ATOM      3  C2  UNL d   1      -0.112   2.363  -0.922  0.00  0.00     0.048 A 
ATOM      4  C3  UNL d   1       0.097   1.287  -0.061  0.00  0.00     0.023 A 
ATOM      5  C4  UNL d   1      -0.211   1.398   1.296  0.00  0.00     0.048 A 
ATOM      6  C5  UNL d   1      -0.730   2.596   1.791  0.00  0.00     0.003 A 
ATOM      7  I   UNL d   1       0.870  -0.495  -0.801  0.00  0.00    -0.146 I 
ENDROOT
TORSDOF 0
ENDMDL
