MODEL 1
REMARK minimizedAffinity -4.92007875
REMARK minimizedRMSD -1
REMARK  0 active torsions:
REMARK  status: ('A' for Active; 'I' for Inactive)
ROOT
ATOM      1  C   UNL d   1      -0.863   3.553   0.578  0.00  0.00     0.023 A 
ATOM      2  C1  UNL d   1      -0.774   2.573   1.568  0.00  0.00     0.003 A 
ATOM      3  C2  UNL d   1      -0.496   1.250   1.219  0.00  0.00     0.048 A 
ATOM      4  C3  UNL d   1      -0.307   0.913  -0.120  0.00  0.00     0.023 A 
ATOM      5  C4  UNL d   1      -0.394   1.890  -1.114  0.00  0.00     0.048 A 
ATOM      6  C5  UNL d   1      -0.673   3.211  -0.761  0.00  0.00     0.003 A 
ATOM      7  I   UNL d   1       0.108  -1.056  -0.641  0.00  0.00    -0.146 I 
ENDROOT
TORSDOF 0
ENDMDL
