MODEL 1
REMARK minimizedAffinity -5.2061758
REMARK minimizedRMSD -1
REMARK  0 active torsions:
REMARK  status: ('A' for Active; 'I' for Inactive)
ROOT
ATOM      1  C   UNL d   1       2.498  -1.368  -0.329  0.00  0.00     0.078 C 
ATOM      2  C1  UNL d   1       1.166  -0.875   0.152  0.00  0.00    -0.077 A 
ATOM      3  C2  UNL d   1       0.877  -0.799   1.520  0.00  0.00    -0.001 A 
ATOM      4  C3  UNL d   1      -0.370  -0.346   1.954  0.00  0.00     0.003 A 
ATOM      5  C4  UNL d   1      -1.338   0.032   1.026  0.00  0.00    -0.005 A 
ATOM      6  C5  UNL d   1      -1.060  -0.042  -0.337  0.00  0.00     0.003 A 
ATOM      7  C6  UNL d   1       0.186  -0.494  -0.773  0.00  0.00    -0.001 A 
ENDROOT
TORSDOF 0
ENDMDL
