MODEL 1
REMARK minimizedAffinity -5.97097349
REMARK minimizedRMSD -1
REMARK  0 active torsions:
REMARK  status: ('A' for Active; 'I' for Inactive)
ROOT
ATOM      1  C   UNL d   1      -0.355   0.036  -1.191  0.00  0.00     0.078 C 
ATOM      2  C1  UNL d   1       0.133  -0.295   0.188  0.00  0.00    -0.077 A 
ATOM      3  C2  UNL d   1      -0.760  -0.409   1.260  0.00  0.00    -0.001 A 
ATOM      4  C3  UNL d   1      -0.291  -0.709   2.540  0.00  0.00     0.003 A 
ATOM      5  C4  UNL d   1       1.072  -0.896   2.760  0.00  0.00    -0.005 A 
ATOM      6  C5  UNL d   1       1.969  -0.783   1.699  0.00  0.00     0.003 A 
ATOM      7  C6  UNL d   1       1.501  -0.483   0.418  0.00  0.00    -0.001 A 
ENDROOT
TORSDOF 0
ENDMDL
