MODEL 1
REMARK minimizedAffinity -4.58587456
REMARK minimizedRMSD -1
REMARK  0 active torsions:
REMARK  status: ('A' for Active; 'I' for Inactive)
ROOT
ATOM      1  C   UNL d   1      -0.998   0.000  -0.820  0.00  0.00     0.078 C 
ATOM      2  C1  UNL d   1      -0.079  -0.690   0.143  0.00  0.00    -0.077 A 
ATOM      3  C2  UNL d   1       1.175  -1.160  -0.267  0.00  0.00    -0.001 A 
ATOM      4  C3  UNL d   1       2.016  -1.809   0.638  0.00  0.00     0.003 A 
ATOM      5  C4  UNL d   1       1.612  -1.994   1.959  0.00  0.00    -0.005 A 
ATOM      6  C5  UNL d   1       0.366  -1.531   2.376  0.00  0.00     0.003 A 
ATOM      7  C6  UNL d   1      -0.476  -0.882   1.472  0.00  0.00    -0.001 A 
ENDROOT
TORSDOF 0
ENDMDL
