MODEL 1
REMARK minimizedAffinity -2.64371705
REMARK minimizedRMSD -1
REMARK  0 active torsions:
REMARK  status: ('A' for Active; 'I' for Inactive)
ROOT
ATOM      1  C   UNL d   1      -0.323  -0.533  -0.416  0.00  0.00     0.078 C 
ATOM      2  C1  UNL d   1      -0.378   0.748  -1.194  0.00  0.00    -0.077 A 
ATOM      3  C2  UNL d   1       0.784   1.483  -1.457  0.00  0.00    -0.001 A 
ATOM      4  C3  UNL d   1       0.716   2.679  -2.174  0.00  0.00     0.003 A 
ATOM      5  C4  UNL d   1      -0.513   3.150  -2.633  0.00  0.00    -0.005 A 
ATOM      6  C5  UNL d   1      -1.675   2.426  -2.374  0.00  0.00     0.003 A 
ATOM      7  C6  UNL d   1      -1.609   1.231  -1.657  0.00  0.00    -0.001 A 
ENDROOT
TORSDOF 0
ENDMDL
