MODEL 1
REMARK minimizedAffinity -2.72533488
REMARK minimizedRMSD -1
REMARK  0 active torsions:
REMARK  status: ('A' for Active; 'I' for Inactive)
ROOT
ATOM      1  C   UNL d   1      -1.100   0.707  -1.523  0.00  0.00     0.078 C 
ATOM      2  C1  UNL d   1      -0.574   0.121  -0.248  0.00  0.00    -0.077 A 
ATOM      3  C2  UNL d   1      -1.215   0.359   0.974  0.00  0.00    -0.001 A 
ATOM      4  C3  UNL d   1      -0.709  -0.186   2.155  0.00  0.00     0.003 A 
ATOM      5  C4  UNL d   1       0.442  -0.971   2.127  0.00  0.00    -0.005 A 
ATOM      6  C5  UNL d   1       1.088  -1.212   0.916  0.00  0.00     0.003 A 
ATOM      7  C6  UNL d   1       0.583  -0.668  -0.266  0.00  0.00    -0.001 A 
ENDROOT
TORSDOF 0
ENDMDL
