MODEL 1
REMARK minimizedAffinity -5.09322262
REMARK minimizedRMSD -1
REMARK  0 active torsions:
REMARK  status: ('A' for Active; 'I' for Inactive)
ROOT
ATOM      1  C   UNL d   1      -0.171  -0.461  -1.197  0.00  0.00     0.078 C 
ATOM      2  C1  UNL d   1       0.662  -0.486   0.049  0.00  0.00    -0.077 A 
ATOM      3  C2  UNL d   1       0.980  -1.694   0.681  0.00  0.00    -0.001 A 
ATOM      4  C3  UNL d   1       1.748  -1.701   1.846  0.00  0.00     0.003 A 
ATOM      5  C4  UNL d   1       2.205  -0.502   2.390  0.00  0.00    -0.005 A 
ATOM      6  C5  UNL d   1       1.893   0.706   1.769  0.00  0.00     0.003 A 
ATOM      7  C6  UNL d   1       1.124   0.714   0.604  0.00  0.00    -0.001 A 
ENDROOT
TORSDOF 0
ENDMDL
