MODEL 1
REMARK minimizedAffinity -1.43914807
REMARK minimizedRMSD -1
REMARK  0 active torsions:
REMARK  status: ('A' for Active; 'I' for Inactive)
ROOT
ATOM      1  C   UNL d   1       2.333  -1.883   0.025  0.00  0.00     0.078 C 
ATOM      2  C1  UNL d   1       1.039  -1.130   0.118  0.00  0.00    -0.077 A 
ATOM      3  C2  UNL d   1       0.288  -0.842  -1.029  0.00  0.00    -0.001 A 
ATOM      4  C3  UNL d   1      -0.909  -0.132  -0.929  0.00  0.00     0.003 A 
ATOM      5  C4  UNL d   1      -1.366   0.297   0.315  0.00  0.00    -0.005 A 
ATOM      6  C5  UNL d   1      -0.625   0.018   1.461  0.00  0.00     0.003 A 
ATOM      7  C6  UNL d   1       0.573  -0.692   1.364  0.00  0.00    -0.001 A 
ENDROOT
TORSDOF 0
ENDMDL
