MODEL 1
REMARK minimizedAffinity 11.7474842
REMARK minimizedRMSD -1
REMARK  0 active torsions:
REMARK  status: ('A' for Active; 'I' for Inactive)
ROOT
ATOM      1  O1  BZF d   1      -5.213  -2.244  -3.739  0.00  0.00    -0.204 OA
ATOM      2  C2  BZF d   1      -5.294  -1.504  -4.902  0.00  0.00     0.174 A 
ATOM      3  C3  BZF d   1      -5.468  -2.309  -5.970  0.00  0.00    -0.012 A 
ATOM      4  C3A BZF d   1      -5.590  -3.629  -5.431  0.00  0.00    -0.107 A 
ATOM      5  C4  BZF d   1      -5.794  -4.857  -5.992  0.00  0.00     0.055 A 
ATOM      6  C5  BZF d   1      -5.790  -5.956  -5.193  0.00  0.00    -0.016 A 
ATOM      7  C6  BZF d   1      -5.581  -5.865  -3.833  0.00  0.00     0.022 A 
ATOM      8  C7  BZF d   1      -5.379  -4.668  -3.230  0.00  0.00     0.029 A 
ATOM      9  C7A BZF d   1      -5.415  -3.552  -4.030  0.00  0.00     0.058 A 
ENDROOT
TORSDOF 0
ENDMDL
