MODEL 1
REMARK minimizedAffinity 2.12828732
REMARK minimizedRMSD -1
REMARK  0 active torsions:
REMARK  status: ('A' for Active; 'I' for Inactive)
ROOT
ATOM      1  O1  BZF d   1       2.769  -3.024   2.237  0.00  0.00    -0.204 OA
ATOM      2  C2  BZF d   1       2.101  -1.994   1.604  0.00  0.00     0.174 A 
ATOM      3  C3  BZF d   1       1.272  -1.364   2.462  0.00  0.00    -0.012 A 
ATOM      4  C3A BZF d   1       1.501  -1.984   3.731  0.00  0.00    -0.107 A 
ATOM      5  C4  BZF d   1       0.986  -1.784   4.980  0.00  0.00     0.055 A 
ATOM      6  C5  BZF d   1       1.367  -2.608   5.991  0.00  0.00    -0.016 A 
ATOM      7  C6  BZF d   1       2.255  -3.644   5.787  0.00  0.00     0.022 A 
ATOM      8  C7  BZF d   1       2.796  -3.879   4.567  0.00  0.00     0.029 A 
ATOM      9  C7A BZF d   1       2.438  -3.027   3.551  0.00  0.00     0.058 A 
ENDROOT
TORSDOF 0
ENDMDL
