MODEL 1
REMARK minimizedAffinity 10.703742
REMARK minimizedRMSD -1
REMARK  0 active torsions:
REMARK  status: ('A' for Active; 'I' for Inactive)
ROOT
ATOM      1  O1  BZF d   1      -3.762   2.550  -1.283  0.00  0.00    -0.204 OA
ATOM      2  C2  BZF d   1      -3.241   1.287  -1.487  0.00  0.00     0.174 A 
ATOM      3  C3  BZF d   1      -2.977   1.083  -2.794  0.00  0.00    -0.012 A 
ATOM      4  C3A BZF d   1      -3.270   2.327  -3.435  0.00  0.00    -0.107 A 
ATOM      5  C4  BZF d   1      -3.192   2.758  -4.729  0.00  0.00     0.055 A 
ATOM      6  C5  BZF d   1      -3.623   4.010  -5.036  0.00  0.00    -0.016 A 
ATOM      7  C6  BZF d   1      -4.142   4.855  -4.076  0.00  0.00     0.022 A 
ATOM      8  C7  BZF d   1      -4.234   4.474  -2.779  0.00  0.00     0.029 A 
ATOM      9  C7A BZF d   1      -3.769   3.221  -2.460  0.00  0.00     0.058 A 
ENDROOT
TORSDOF 0
ENDMDL
