MODEL 1
REMARK minimizedAffinity 12.4456549
REMARK minimizedRMSD -1
REMARK  0 active torsions:
REMARK  status: ('A' for Active; 'I' for Inactive)
ROOT
ATOM      1  O1  BZF d   1       0.866  -1.222   5.098  0.00  0.00    -0.204 OA
ATOM      2  C2  BZF d   1       1.174  -2.223   5.999  0.00  0.00     0.174 A 
ATOM      3  C3  BZF d   1       1.587  -3.335   5.357  0.00  0.00    -0.012 A 
ATOM      4  C3A BZF d   1       1.622  -2.978   3.972  0.00  0.00    -0.107 A 
ATOM      5  C4  BZF d   1       1.967  -3.654   2.836  0.00  0.00     0.055 A 
ATOM      6  C5  BZF d   1       1.820  -3.041   1.632  0.00  0.00    -0.016 A 
ATOM      7  C6  BZF d   1       1.326  -1.757   1.527  0.00  0.00     0.022 A 
ATOM      8  C7  BZF d   1       0.975  -1.045   2.625  0.00  0.00     0.029 A 
ATOM      9  C7A BZF d   1       1.154  -1.649   3.845  0.00  0.00     0.058 A 
ENDROOT
TORSDOF 0
ENDMDL
