MODEL 1
REMARK minimizedAffinity 8.23634148
REMARK minimizedRMSD -1
REMARK  0 active torsions:
REMARK  status: ('A' for Active; 'I' for Inactive)
ROOT
ATOM      1  O1  BZF d   1       1.026  -1.533   5.203  0.00  0.00    -0.204 OA
ATOM      2  C2  BZF d   1       1.314  -2.625   5.999  0.00  0.00     0.174 A 
ATOM      3  C3  BZF d   1       1.751  -3.659   5.252  0.00  0.00    -0.012 A 
ATOM      4  C3A BZF d   1       1.822  -3.154   3.915  0.00  0.00    -0.107 A 
ATOM      5  C4  BZF d   1       2.202  -3.703   2.724  0.00  0.00     0.055 A 
ATOM      6  C5  BZF d   1       2.085  -2.964   1.589  0.00  0.00    -0.016 A 
ATOM      7  C6  BZF d   1       1.588  -1.677   1.609  0.00  0.00     0.022 A 
ATOM      8  C7  BZF d   1       1.202  -1.089   2.768  0.00  0.00     0.029 A 
ATOM      9  C7A BZF d   1       1.351  -1.821   3.920  0.00  0.00     0.058 A 
ENDROOT
TORSDOF 0
ENDMDL
