MODEL 1
REMARK minimizedAffinity 11.6081505
REMARK minimizedRMSD -1
REMARK  0 active torsions:
REMARK  status: ('A' for Active; 'I' for Inactive)
ROOT
ATOM      1  O1  BZF d   1       0.815  -4.598  -2.952  0.00  0.00    -0.204 OA
ATOM      2  C2  BZF d   1       2.184  -4.761  -2.866  0.00  0.00     0.174 A 
ATOM      3  C3  BZF d   1       2.554  -5.041  -1.599  0.00  0.00    -0.012 A 
ATOM      4  C3A BZF d   1       1.330  -5.146  -0.865  0.00  0.00    -0.107 A 
ATOM      5  C4  BZF d   1       1.040  -5.423   0.440  0.00  0.00     0.055 A 
ATOM      6  C5  BZF d   1      -0.254  -5.375   0.853  0.00  0.00    -0.016 A 
ATOM      7  C6  BZF d   1      -1.280  -5.050  -0.009  0.00  0.00     0.022 A 
ATOM      8  C7  BZF d   1      -1.042  -4.772  -1.314  0.00  0.00     0.029 A 
ATOM      9  C7A BZF d   1       0.261  -4.852  -1.742  0.00  0.00     0.058 A 
ENDROOT
TORSDOF 0
ENDMDL
