MODEL 1
REMARK minimizedAffinity 9.53602791
REMARK minimizedRMSD -1
REMARK  0 active torsions:
REMARK  status: ('A' for Active; 'I' for Inactive)
ROOT
ATOM      1  O1  BZF d   1       0.849  -1.527   4.953  0.00  0.00    -0.204 OA
ATOM      2  C2  BZF d   1       1.359  -2.545   5.736  0.00  0.00     0.174 A 
ATOM      3  C3  BZF d   1       2.031  -3.439   4.981  0.00  0.00    -0.012 A 
ATOM      4  C3A BZF d   1       2.014  -2.899   3.656  0.00  0.00    -0.107 A 
ATOM      5  C4  BZF d   1       2.531  -3.321   2.464  0.00  0.00     0.055 A 
ATOM      6  C5  BZF d   1       2.274  -2.600   1.341  0.00  0.00    -0.016 A 
ATOM      7  C6  BZF d   1       1.501  -1.458   1.372  0.00  0.00     0.022 A 
ATOM      8  C7  BZF d   1       0.971  -0.998   2.531  0.00  0.00     0.029 A 
ATOM      9  C7A BZF d   1       1.256  -1.706   3.673  0.00  0.00     0.058 A 
ENDROOT
TORSDOF 0
ENDMDL
