MODEL 1
REMARK minimizedAffinity -2.40365267
REMARK minimizedRMSD -1
REMARK  0 active torsions:
REMARK  status: ('A' for Active; 'I' for Inactive)
ROOT
ATOM      1  C   UNL d   1      -1.057  -0.337   0.010  0.00  0.00     0.023 A 
ATOM      2  C1  UNL d   1      -0.336  -0.748  -1.111  0.00  0.00     0.003 A 
ATOM      3  C2  UNL d   1       1.019  -1.064  -0.994  0.00  0.00     0.048 A 
ATOM      4  C3  UNL d   1       1.647  -0.967   0.247  0.00  0.00     0.023 A 
ATOM      5  C4  UNL d   1       0.929  -0.556   1.372  0.00  0.00     0.048 A 
ATOM      6  C5  UNL d   1      -0.425  -0.241   1.250  0.00  0.00     0.003 A 
ATOM      7  I   UNL d   1       3.664  -1.436   0.424  0.00  0.00    -0.146 I 
ENDROOT
TORSDOF 0
ENDMDL
