MODEL 1
REMARK minimizedAffinity -2.81572914
REMARK minimizedRMSD -1
REMARK  0 active torsions:
REMARK  status: ('A' for Active; 'I' for Inactive)
ROOT
ATOM      1  C   UNL d   1       1.469   0.436  -0.571  0.00  0.00     0.023 A 
ATOM      2  C1  UNL d   1       0.278   0.533  -1.292  0.00  0.00     0.003 A 
ATOM      3  C2  UNL d   1      -0.942   0.280  -0.663  0.00  0.00     0.048 A 
ATOM      4  C3  UNL d   1      -0.966  -0.067   0.687  0.00  0.00     0.023 A 
ATOM      5  C4  UNL d   1       0.223  -0.165   1.413  0.00  0.00     0.048 A 
ATOM      6  C5  UNL d   1       1.441   0.088   0.779  0.00  0.00     0.003 A 
ATOM      7  I   UNL d   1      -2.782  -0.443   1.626  0.00  0.00    -0.146 I 
ENDROOT
TORSDOF 0
ENDMDL
