MODEL 1
REMARK minimizedAffinity 9.42864037
REMARK minimizedRMSD -1
REMARK  0 active torsions:
REMARK  status: ('A' for Active; 'I' for Inactive)
ROOT
ATOM      1  C   UNL d   1       0.409   0.019   0.698  0.00  0.00     0.023 A 
ATOM      2  C1  UNL d   1      -0.983  -0.066   0.654  0.00  0.00     0.003 A 
ATOM      3  C2  UNL d   1      -1.657  -0.944   1.506  0.00  0.00     0.048 A 
ATOM      4  C3  UNL d   1      -0.934  -1.734   2.398  0.00  0.00     0.023 A 
ATOM      5  C4  UNL d   1       0.459  -1.652   2.445  0.00  0.00     0.048 A 
ATOM      6  C5  UNL d   1       1.129  -0.774   1.592  0.00  0.00     0.003 A 
ATOM      7  I   UNL d   1      -1.935  -3.041   3.666  0.00  0.00    -0.146 I 
ENDROOT
TORSDOF 0
ENDMDL
