MODEL 1
REMARK minimizedAffinity -2.29108572
REMARK minimizedRMSD -1
REMARK  0 active torsions:
REMARK  status: ('A' for Active; 'I' for Inactive)
ROOT
ATOM      1  C   UNL d   1       1.722   6.000   5.500  0.00  0.00     0.023 A 
ATOM      2  C1  UNL d   1       1.494   5.896   4.128  0.00  0.00     0.003 A 
ATOM      3  C2  UNL d   1       2.571   5.792   3.246  0.00  0.00     0.048 A 
ATOM      4  C3  UNL d   1       3.874   5.792   3.742  0.00  0.00     0.023 A 
ATOM      5  C4  UNL d   1       4.108   5.895   5.114  0.00  0.00     0.048 A 
ATOM      6  C5  UNL d   1       3.028   6.000   5.993  0.00  0.00     0.003 A 
ATOM      7  I   UNL d   1       5.479   5.637   2.431  0.00  0.00    -0.146 I 
ENDROOT
TORSDOF 0
ENDMDL
