MODEL 1
REMARK minimizedAffinity 1.60030019
REMARK minimizedRMSD -1
REMARK  0 active torsions:
REMARK  status: ('A' for Active; 'I' for Inactive)
ROOT
ATOM      1  C   UNL d   1       1.461   6.000   5.981  0.00  0.00     0.023 A 
ATOM      2  C1  UNL d   1       0.759   5.984   4.775  0.00  0.00     0.003 A 
ATOM      3  C2  UNL d   1       1.420   5.670   3.585  0.00  0.00     0.048 A 
ATOM      4  C3  UNL d   1       2.782   5.373   3.609  0.00  0.00     0.023 A 
ATOM      5  C4  UNL d   1       3.488   5.387   4.813  0.00  0.00     0.048 A 
ATOM      6  C5  UNL d   1       2.823   5.702   6.000  0.00  0.00     0.003 A 
ATOM      7  I   UNL d   1       3.768   4.906   1.840  0.00  0.00    -0.146 I 
ENDROOT
TORSDOF 0
ENDMDL
