MODEL 1
REMARK minimizedAffinity 0.35578534
REMARK minimizedRMSD -1
REMARK  0 active torsions:
REMARK  status: ('A' for Active; 'I' for Inactive)
ROOT
ATOM      1  C   UNL d   1       2.248   5.460   5.988  0.00  0.00     0.023 A 
ATOM      2  C1  UNL d   1       3.561   5.845   5.719  0.00  0.00     0.003 A 
ATOM      3  C2  UNL d   1       3.988   6.000   4.399  0.00  0.00     0.048 A 
ATOM      4  C3  UNL d   1       3.096   5.769   3.352  0.00  0.00     0.023 A 
ATOM      5  C4  UNL d   1       1.781   5.384   3.616  0.00  0.00     0.048 A 
ATOM      6  C5  UNL d   1       1.359   5.229   4.938  0.00  0.00     0.003 A 
ATOM      7  I   UNL d   1       3.730   5.999   1.386  0.00  0.00    -0.146 I 
ENDROOT
TORSDOF 0
ENDMDL
