MODEL 1
REMARK minimizedAffinity -1.39282954
REMARK minimizedRMSD -1
REMARK  0 active torsions:
REMARK  status: ('A' for Active; 'I' for Inactive)
ROOT
ATOM      1  C   UNL d   1       1.463   5.993   5.501  0.00  0.00     0.023 A 
ATOM      2  C1  UNL d   1       1.211   5.988   4.129  0.00  0.00     0.003 A 
ATOM      3  C2  UNL d   1       2.274   5.990   3.223  0.00  0.00     0.048 A 
ATOM      4  C3  UNL d   1       3.586   5.996   3.695  0.00  0.00     0.023 A 
ATOM      5  C4  UNL d   1       3.843   6.000   5.067  0.00  0.00     0.048 A 
ATOM      6  C5  UNL d   1       2.777   5.999   5.969  0.00  0.00     0.003 A 
ATOM      7  I   UNL d   1       5.169   5.999   2.348  0.00  0.00    -0.146 I 
ENDROOT
TORSDOF 0
ENDMDL
