MODEL 1
REMARK minimizedAffinity 0.713264704
REMARK minimizedRMSD -1
REMARK  0 active torsions:
REMARK  status: ('A' for Active; 'I' for Inactive)
ROOT
ATOM      1  C   UNL d   1       1.353   5.984   5.862  0.00  0.00     0.023 A 
ATOM      2  C1  UNL d   1       2.741   5.972   5.999  0.00  0.00     0.003 A 
ATOM      3  C2  UNL d   1       3.556   5.973   4.865  0.00  0.00     0.048 A 
ATOM      4  C3  UNL d   1       2.976   5.987   3.597  0.00  0.00     0.023 A 
ATOM      5  C4  UNL d   1       1.588   5.999   3.455  0.00  0.00     0.048 A 
ATOM      6  C5  UNL d   1       0.777   5.997   4.591  0.00  0.00     0.003 A 
ATOM      7  I   UNL d   1       4.187   5.989   1.908  0.00  0.00    -0.146 I 
ENDROOT
TORSDOF 0
ENDMDL
