MODEL 1
REMARK minimizedAffinity 0.207632959
REMARK minimizedRMSD -1
REMARK  0 active torsions:
REMARK  status: ('A' for Active; 'I' for Inactive)
ROOT
ATOM      1  C   UNL d   1      -0.120  -0.632   0.865  0.00  0.00     0.023 A 
ATOM      2  C1  UNL d   1       0.087  -1.483   1.951  0.00  0.00     0.003 A 
ATOM      3  C2  UNL d   1       1.069  -2.473   1.886  0.00  0.00     0.048 A 
ATOM      4  C3  UNL d   1       1.842  -2.606   0.733  0.00  0.00     0.023 A 
ATOM      5  C4  UNL d   1       1.639  -1.757  -0.356  0.00  0.00     0.048 A 
ATOM      6  C5  UNL d   1       0.655  -0.769  -0.287  0.00  0.00     0.003 A 
ATOM      7  I   UNL d   1       3.305  -4.079   0.634  0.00  0.00    -0.146 I 
ENDROOT
TORSDOF 0
ENDMDL
