MODEL 1
REMARK minimizedAffinity -0.429955333
REMARK minimizedRMSD -1
REMARK  0 active torsions:
REMARK  status: ('A' for Active; 'I' for Inactive)
ROOT
ATOM      1  C   UNL d   1       1.733   5.970   5.882  0.00  0.00     0.023 A 
ATOM      2  C1  UNL d   1       3.125   5.988   5.963  0.00  0.00     0.003 A 
ATOM      3  C2  UNL d   1       3.894   5.996   4.797  0.00  0.00     0.048 A 
ATOM      4  C3  UNL d   1       3.264   5.987   3.554  0.00  0.00     0.023 A 
ATOM      5  C4  UNL d   1       1.871   5.971   3.467  0.00  0.00     0.048 A 
ATOM      6  C5  UNL d   1       1.106   5.962   4.635  0.00  0.00     0.003 A 
ATOM      7  I   UNL d   1       4.406   6.000   1.817  0.00  0.00    -0.146 I 
ENDROOT
TORSDOF 0
ENDMDL
