MODEL 1
REMARK minimizedAffinity 0.547889948
REMARK minimizedRMSD -1
REMARK  0 active torsions:
REMARK  status: ('A' for Active; 'I' for Inactive)
ROOT
ATOM      1  C   UNL d   1       2.250   1.512   0.712  0.00  0.00     0.020 A 
ATOM      2  C1  UNL d   1       2.034   0.169   0.406  0.00  0.00     0.020 A 
ATOM      3  C2  UNL d   1       2.089  -0.795   1.414  0.00  0.00     0.034 A 
ATOM      4  C3  UNL d   1       2.362  -0.418   2.734  0.00  0.00     0.017 A 
ATOM      5  C4  UNL d   1       2.579   0.930   3.041  0.00  0.00     0.017 A 
ATOM      6  C5  UNL d   1       2.522   1.891   2.027  0.00  0.00     0.034 A 
ATOM      7 Cl   UNL d   1       2.920   1.472   4.646  0.00  0.00    -0.070 Cl
ATOM      8 Cl1  UNL d   1       2.415  -1.663   3.931  0.00  0.00    -0.070 Cl
ENDROOT
TORSDOF 0
ENDMDL
