MODEL 1
REMARK minimizedAffinity 5.66003799
REMARK minimizedRMSD -1
REMARK  0 active torsions:
REMARK  status: ('A' for Active; 'I' for Inactive)
ROOT
ATOM      1  C   UNL d   1       2.966   0.893   3.397  0.00  0.00     0.020 A 
ATOM      2  C1  UNL d   1       2.512   2.211   3.435  0.00  0.00     0.020 A 
ATOM      3  C2  UNL d   1       1.938   2.784   2.298  0.00  0.00     0.034 A 
ATOM      4  C3  UNL d   1       1.817   2.040   1.119  0.00  0.00     0.017 A 
ATOM      5  C4  UNL d   1       2.274   0.718   1.082  0.00  0.00     0.017 A 
ATOM      6  C5  UNL d   1       2.847   0.148   2.223  0.00  0.00     0.034 A 
ATOM      7 Cl   UNL d   1       2.159  -0.263  -0.337  0.00  0.00    -0.070 Cl
ATOM      8 Cl1  UNL d   1       1.097   2.813  -0.249  0.00  0.00    -0.070 Cl
ENDROOT
TORSDOF 0
ENDMDL
