MODEL 1
REMARK minimizedAffinity 5.35536003
REMARK minimizedRMSD -1
REMARK  0 active torsions:
REMARK  status: ('A' for Active; 'I' for Inactive)
ROOT
ATOM      1  C   UNL d   1      -5.951  -2.142  -5.808  0.00  0.00     0.020 A 
ATOM      2  C1  UNL d   1      -5.586  -1.480  -4.636  0.00  0.00     0.020 A 
ATOM      3  C2  UNL d   1      -5.251  -2.213  -3.496  0.00  0.00     0.034 A 
ATOM      4  C3  UNL d   1      -5.281  -3.612  -3.524  0.00  0.00     0.017 A 
ATOM      5  C4  UNL d   1      -5.648  -4.275  -4.700  0.00  0.00     0.017 A 
ATOM      6  C5  UNL d   1      -5.982  -3.537  -5.840  0.00  0.00     0.034 A 
ATOM      7 Cl   UNL d   1      -5.709  -5.999  -4.812  0.00  0.00    -0.070 Cl
ATOM      8 Cl1  UNL d   1      -4.855  -4.454  -2.077  0.00  0.00    -0.070 Cl
ENDROOT
TORSDOF 0
ENDMDL
