MODEL 1
REMARK minimizedAffinity 10.0558281
REMARK minimizedRMSD -1
REMARK  0 active torsions:
REMARK  status: ('A' for Active; 'I' for Inactive)
ROOT
ATOM      1  C   UNL d   1       2.372  -1.942   5.031  0.00  0.00     0.020 A 
ATOM      2  C1  UNL d   1       3.075  -3.140   5.153  0.00  0.00     0.020 A 
ATOM      3  C2  UNL d   1       3.006  -4.096   4.139  0.00  0.00     0.034 A 
ATOM      4  C3  UNL d   1       2.233  -3.857   2.997  0.00  0.00     0.017 A 
ATOM      5  C4  UNL d   1       1.528  -2.654   2.875  0.00  0.00     0.017 A 
ATOM      6  C5  UNL d   1       1.600  -1.699   3.894  0.00  0.00     0.034 A 
ATOM      7 Cl   UNL d   1       0.553  -2.287   1.495  0.00  0.00    -0.070 Cl
ATOM      8 Cl1  UNL d   1       2.193  -5.084   1.781  0.00  0.00    -0.070 Cl
ENDROOT
TORSDOF 0
ENDMDL
