MODEL 1
REMARK minimizedAffinity 11.7422333
REMARK minimizedRMSD -1
REMARK  0 active torsions:
REMARK  status: ('A' for Active; 'I' for Inactive)
ROOT
ATOM      1  C   UNL d   1       0.818  -3.756  -1.606  0.00  0.00     0.020 A 
ATOM      2  C1  UNL d   1      -0.332  -3.239  -2.201  0.00  0.00     0.020 A 
ATOM      3  C2  UNL d   1      -1.096  -2.282  -1.529  0.00  0.00     0.034 A 
ATOM      4  C3  UNL d   1      -0.709  -1.838  -0.259  0.00  0.00     0.017 A 
ATOM      5  C4  UNL d   1       0.446  -2.357   0.337  0.00  0.00     0.017 A 
ATOM      6  C5  UNL d   1       1.207  -3.316  -0.340  0.00  0.00     0.034 A 
ATOM      7 Cl   UNL d   1       0.986  -1.859   1.901  0.00  0.00    -0.070 Cl
ATOM      8 Cl1  UNL d   1      -1.700  -0.653   0.513  0.00  0.00    -0.070 Cl
ENDROOT
TORSDOF 0
ENDMDL
