MODEL 1
REMARK minimizedAffinity 6.37770414
REMARK minimizedRMSD -1
REMARK  0 active torsions:
REMARK  status: ('A' for Active; 'I' for Inactive)
ROOT
ATOM      1  C   UNL d   1       1.157   2.773   0.076  0.00  0.00     0.020 A 
ATOM      2  C1  UNL d   1       2.161   1.806   0.051  0.00  0.00     0.020 A 
ATOM      3  C2  UNL d   1       1.839   0.460   0.236  0.00  0.00     0.034 A 
ATOM      4  C3  UNL d   1       0.510   0.077   0.447  0.00  0.00     0.017 A 
ATOM      5  C4  UNL d   1      -0.498   1.048   0.473  0.00  0.00     0.017 A 
ATOM      6  C5  UNL d   1      -0.170   2.395   0.287  0.00  0.00     0.034 A 
ATOM      7 Cl   UNL d   1      -2.161   0.652   0.728  0.00  0.00    -0.070 Cl
ATOM      8 Cl1  UNL d   1       0.184  -1.605   0.668  0.00  0.00    -0.070 Cl
ENDROOT
TORSDOF 0
ENDMDL
