MODEL 1
REMARK minimizedAffinity 4.3737607
REMARK minimizedRMSD -1
REMARK  0 active torsions:
REMARK  status: ('A' for Active; 'I' for Inactive)
ROOT
ATOM      1  C   UNL d   1      -1.054  -0.544   0.426  0.00  0.00     0.020 A 
ATOM      2  C1  UNL d   1      -0.018  -1.346   0.902  0.00  0.00     0.020 A 
ATOM      3  C2  UNL d   1       1.240  -0.789   1.144  0.00  0.00     0.034 A 
ATOM      4  C3  UNL d   1       1.465   0.572   0.910  0.00  0.00     0.017 A 
ATOM      5  C4  UNL d   1       0.423   1.376   0.432  0.00  0.00     0.017 A 
ATOM      6  C5  UNL d   1      -0.834   0.814   0.192  0.00  0.00     0.034 A 
ATOM      7 Cl   UNL d   1       0.624   3.064   0.120  0.00  0.00    -0.070 Cl
ATOM      8 Cl1  UNL d   1       3.045   1.193   1.232  0.00  0.00    -0.070 Cl
ENDROOT
TORSDOF 0
ENDMDL
