MODEL 1
REMARK minimizedAffinity 2.47368836
REMARK minimizedRMSD -1
REMARK  0 active torsions:
REMARK  status: ('A' for Active; 'I' for Inactive)
ROOT
ATOM      1  C   UNL d   1       2.050  -1.214   3.351  0.00  0.00     0.020 A 
ATOM      2  C1  UNL d   1       2.730  -0.020   3.116  0.00  0.00     0.020 A 
ATOM      3  C2  UNL d   1       2.356   0.797   2.047  0.00  0.00     0.034 A 
ATOM      4  C3  UNL d   1       1.300   0.422   1.209  0.00  0.00     0.017 A 
ATOM      5  C4  UNL d   1       0.617  -0.777   1.447  0.00  0.00     0.017 A 
ATOM      6  C5  UNL d   1       0.996  -1.591   2.519  0.00  0.00     0.034 A 
ATOM      7 Cl   UNL d   1      -0.697  -1.308   0.457  0.00  0.00    -0.070 Cl
ATOM      8 Cl1  UNL d   1       0.891   1.481  -0.094  0.00  0.00    -0.070 Cl
ENDROOT
TORSDOF 0
ENDMDL
