MODEL 1
REMARK minimizedAffinity 0.000387080945
REMARK minimizedRMSD -1
REMARK  0 active torsions:
REMARK  status: ('A' for Active; 'I' for Inactive)
ROOT
ATOM      1  C   UNL d   1       5.815   0.031  -5.999  0.00  0.00     0.020 A 
ATOM      2  C1  UNL d   1       4.534   0.583  -5.991  0.00  0.00     0.020 A 
ATOM      3  C2  UNL d   1       3.415  -0.252  -5.983  0.00  0.00     0.034 A 
ATOM      4  C3  UNL d   1       3.574  -1.642  -5.983  0.00  0.00     0.017 A 
ATOM      5  C4  UNL d   1       4.859  -2.195  -5.992  0.00  0.00     0.017 A 
ATOM      6  C5  UNL d   1       5.977  -1.355  -6.000  0.00  0.00     0.034 A 
ATOM      7 Cl   UNL d   1       5.135  -3.901  -5.993  0.00  0.00    -0.070 Cl
ATOM      8 Cl1  UNL d   1       2.145  -2.614  -5.972  0.00  0.00    -0.070 Cl
ENDROOT
TORSDOF 0
ENDMDL
