MODEL 1
REMARK minimizedAffinity 16.9382401
REMARK minimizedRMSD -1
REMARK  0 active torsions:
REMARK  status: ('A' for Active; 'I' for Inactive)
ROOT
ATOM      1  C   UNL d   1       0.484  -2.368   1.910  0.00  0.00     0.124 A 
ATOM      2  C1  UNL d   1       1.834  -2.046   1.870  0.00  0.00     0.062 A 
ATOM      3  C2  UNL d   1       2.747  -2.927   1.296  0.00  0.00     0.162 A 
ATOM      4  C3  UNL d   1       2.313  -4.138   0.757  0.00  0.00    -0.034 A 
ATOM      5  C4  UNL d   1       0.954  -4.455   0.802  0.00  0.00     0.162 A 
ATOM      6  C5  UNL d   1       0.046  -3.572   1.376  0.00  0.00     0.062 A 
ATOM      7  F   UNL d   1      -1.258  -3.884   1.414  0.00  0.00    -0.097 F 
ATOM      8  F1  UNL d   1       0.503  -5.611   0.292  0.00  0.00    -0.096 F 
ATOM      9  I   UNL d   1       3.674  -5.457  -0.102  0.00  0.00    -0.060 I 
ATOM     10  F2  UNL d   1       4.045  -2.590   1.271  0.00  0.00    -0.096 F 
ATOM     11  F3  UNL d   1       2.260  -0.885   2.385  0.00  0.00    -0.097 F 
ATOM     12  F4  UNL d   1      -0.392  -1.519   2.463  0.00  0.00    -0.092 F 
ENDROOT
TORSDOF 0
ENDMDL
