MODEL 1
REMARK minimizedAffinity 10.8201628
REMARK minimizedRMSD -1
REMARK  0 active torsions:
REMARK  status: ('A' for Active; 'I' for Inactive)
ROOT
ATOM      1  C   UNL d   1       0.096  -2.557   2.002  0.00  0.00     0.124 A 
ATOM      2  C1  UNL d   1       1.088  -1.889   1.297  0.00  0.00     0.062 A 
ATOM      3  C2  UNL d   1       2.200  -2.581   0.827  0.00  0.00     0.162 A 
ATOM      4  C3  UNL d   1       2.327  -3.950   1.060  0.00  0.00    -0.034 A 
ATOM      5  C4  UNL d   1       1.327  -4.616   1.770  0.00  0.00     0.162 A 
ATOM      6  C5  UNL d   1       0.217  -3.920   2.238  0.00  0.00     0.062 A 
ATOM      7  F   UNL d   1      -0.740  -4.567   2.919  0.00  0.00    -0.097 F 
ATOM      8  F1  UNL d   1       1.417  -5.932   2.012  0.00  0.00    -0.096 F 
ATOM      9  I   UNL d   1       3.989  -4.989   0.359  0.00  0.00    -0.060 I 
ATOM     10  F2  UNL d   1       3.143  -1.910   0.148  0.00  0.00    -0.096 F 
ATOM     11  F3  UNL d   1       0.974  -0.573   1.068  0.00  0.00    -0.097 F 
ATOM     12  F4  UNL d   1      -0.972  -1.889   2.454  0.00  0.00    -0.092 F 
ENDROOT
TORSDOF 0
ENDMDL
