MODEL 1
REMARK minimizedAffinity 11.5914907
REMARK minimizedRMSD -1
REMARK  0 active torsions:
REMARK  status: ('A' for Active; 'I' for Inactive)
ROOT
ATOM      1  C   UNL d   1       1.159  -1.595   2.320  0.00  0.00     0.124 A 
ATOM      2  C1  UNL d   1      -0.103  -1.066   2.551  0.00  0.00     0.062 A 
ATOM      3  C2  UNL d   1      -0.970  -0.831   1.488  0.00  0.00     0.162 A 
ATOM      4  C3  UNL d   1      -0.577  -1.126   0.182  0.00  0.00    -0.034 A 
ATOM      5  C4  UNL d   1       0.694  -1.657  -0.043  0.00  0.00     0.162 A 
ATOM      6  C5  UNL d   1       1.556  -1.890   1.024  0.00  0.00     0.062 A 
ATOM      7  F   UNL d   1       2.775  -2.402   0.798  0.00  0.00    -0.097 F 
ATOM      8  F1  UNL d   1       1.103  -1.953  -1.286  0.00  0.00    -0.096 F 
ATOM      9  I   UNL d   1      -1.870  -0.776  -1.411  0.00  0.00    -0.060 I 
ATOM     10  F2  UNL d   1      -2.183  -0.319   1.741  0.00  0.00    -0.096 F 
ATOM     11  F3  UNL d   1      -0.489  -0.779   3.803  0.00  0.00    -0.097 F 
ATOM     12  F4  UNL d   1       1.990  -1.819   3.345  0.00  0.00    -0.092 F 
ENDROOT
TORSDOF 0
ENDMDL
