MODEL 1
REMARK minimizedAffinity 12.315835
REMARK minimizedRMSD -1
REMARK  0 active torsions:
REMARK  status: ('A' for Active; 'I' for Inactive)
ROOT
ATOM      1  C   UNL d   1      -3.959   0.934   3.437  0.00  0.00     0.124 A 
ATOM      2  C1  UNL d   1      -4.988   1.851   3.274  0.00  0.00     0.062 A 
ATOM      3  C2  UNL d   1      -4.992   3.035   4.005  0.00  0.00     0.162 A 
ATOM      4  C3  UNL d   1      -3.963   3.310   4.905  0.00  0.00    -0.034 A 
ATOM      5  C4  UNL d   1      -2.932   2.383   5.064  0.00  0.00     0.162 A 
ATOM      6  C5  UNL d   1      -2.932   1.200   4.331  0.00  0.00     0.062 A 
ATOM      7  F   UNL d   1      -1.937   0.316   4.490  0.00  0.00    -0.097 F 
ATOM      8  F1  UNL d   1      -1.927   2.616   5.921  0.00  0.00    -0.096 F 
ATOM      9  I   UNL d   1      -3.966   5.080   6.000  0.00  0.00    -0.060 I 
ATOM     10  F2  UNL d   1      -5.999   3.903   3.827  0.00  0.00    -0.096 F 
ATOM     11  F3  UNL d   1      -5.982   1.595   2.411  0.00  0.00    -0.097 F 
ATOM     12  F4  UNL d   1      -3.958  -0.206   2.733  0.00  0.00    -0.092 F 
ENDROOT
TORSDOF 0
ENDMDL
