MODEL 1
REMARK minimizedAffinity 6.76861
REMARK minimizedRMSD -1
REMARK  0 active torsions:
REMARK  status: ('A' for Active; 'I' for Inactive)
ROOT
ATOM      1  C   UNL d   1       2.344  -2.948   0.388  0.00  0.00     0.124 A 
ATOM      2  C1  UNL d   1       3.624  -3.400   0.679  0.00  0.00     0.062 A 
ATOM      3  C2  UNL d   1       4.204  -3.113   1.911  0.00  0.00     0.162 A 
ATOM      4  C3  UNL d   1       3.504  -2.372   2.863  0.00  0.00    -0.034 A 
ATOM      5  C4  UNL d   1       2.218  -1.921   2.563  0.00  0.00     0.162 A 
ATOM      6  C5  UNL d   1       1.642  -2.209   1.330  0.00  0.00     0.062 A 
ATOM      7  F   UNL d   1       0.406  -1.772   1.051  0.00  0.00    -0.097 F 
ATOM      8  F1  UNL d   1       1.517  -1.205   3.455  0.00  0.00    -0.096 F 
ATOM      9  I   UNL d   1       4.368  -1.942   4.707  0.00  0.00    -0.060 I 
ATOM     10  F2  UNL d   1       5.442  -3.562   2.165  0.00  0.00    -0.096 F 
ATOM     11  F3  UNL d   1       4.304  -4.113  -0.230  0.00  0.00    -0.097 F 
ATOM     12  F4  UNL d   1       1.789  -3.224  -0.799  0.00  0.00    -0.092 F 
ENDROOT
TORSDOF 0
ENDMDL
