MODEL 1
REMARK minimizedAffinity 17.9861336
REMARK minimizedRMSD -1
REMARK  0 active torsions:
REMARK  status: ('A' for Active; 'I' for Inactive)
ROOT
ATOM      1  C   UNL d   1       1.164   4.356   4.015  0.00  0.00     0.124 A 
ATOM      2  C1  UNL d   1       1.773   5.096   5.020  0.00  0.00     0.062 A 
ATOM      3  C2  UNL d   1       3.152   5.280   5.016  0.00  0.00     0.162 A 
ATOM      4  C3  UNL d   1       3.934   4.723   4.004  0.00  0.00    -0.034 A 
ATOM      5  C4  UNL d   1       3.315   3.979   2.998  0.00  0.00     0.162 A 
ATOM      6  C5  UNL d   1       1.936   3.799   3.005  0.00  0.00     0.062 A 
ATOM      7  F   UNL d   1       1.350   3.084   2.034  0.00  0.00    -0.097 F 
ATOM      8  F1  UNL d   1       4.037   3.430   2.009  0.00  0.00    -0.096 F 
ATOM      9  I   UNL d   1       5.997   4.995   3.996  0.00  0.00    -0.060 I 
ATOM     10  F2  UNL d   1       3.713   5.999   6.000  0.00  0.00    -0.096 F 
ATOM     11  F3  UNL d   1       1.029   5.635   5.997  0.00  0.00    -0.097 F 
ATOM     12  F4  UNL d   1      -0.163   4.181   4.021  0.00  0.00    -0.092 F 
ENDROOT
TORSDOF 0
ENDMDL
