MODEL 1
REMARK minimizedAffinity -3.75087953
REMARK minimizedRMSD -1
REMARK  0 active torsions:
REMARK  status: ('A' for Active; 'I' for Inactive)
ROOT
ATOM      1  C4' PXY d   1      -0.642  -0.499   0.517  0.00  0.00     0.077 C 
ATOM      2  C1' PXY d   1       1.480   0.514  -4.764  0.00  0.00     0.077 C 
ATOM      3  C1  PXY d   1       0.927   0.236  -3.380  0.00  0.00    -0.082 A 
ATOM      4  C2  PXY d   1      -0.023   1.013  -2.887  0.00  0.00     0.003 A 
ATOM      5  C3  PXY d   1      -0.512   0.796  -1.624  0.00  0.00     0.003 A 
ATOM      6  C4  PXY d   1      -0.060  -0.261  -0.879  0.00  0.00    -0.082 A 
ATOM      7  C5  PXY d   1       0.902  -1.065  -1.379  0.00  0.00     0.003 A 
ATOM      8  C6  PXY d   1       1.414  -0.802  -2.647  0.00  0.00     0.003 A 
ENDROOT
TORSDOF 0
ENDMDL
