MODEL 1
REMARK minimizedAffinity -3.6127367
REMARK minimizedRMSD -1
REMARK  0 active torsions:
REMARK  status: ('A' for Active; 'I' for Inactive)
ROOT
ATOM      1  C4' PXY d   1       0.418  -0.390  -1.968  0.00  0.00     0.077 C 
ATOM      2  C1' PXY d   1      -1.144   1.289   3.339  0.00  0.00     0.077 C 
ATOM      3  C1  PXY d   1      -0.746   0.842   1.946  0.00  0.00    -0.082 A 
ATOM      4  C2  PXY d   1       0.535   0.786   1.618  0.00  0.00     0.003 A 
ATOM      5  C3  PXY d   1       0.911   0.415   0.353  0.00  0.00     0.003 A 
ATOM      6  C4  PXY d   1      -0.030   0.047  -0.570  0.00  0.00    -0.082 A 
ATOM      7  C5  PXY d   1      -1.339   0.091  -0.240  0.00  0.00     0.003 A 
ATOM      8  C6  PXY d   1      -1.702   0.510   1.036  0.00  0.00     0.003 A 
ENDROOT
TORSDOF 0
ENDMDL
