MODEL 1
REMARK minimizedAffinity -4.46602011
REMARK minimizedRMSD -1
REMARK  0 active torsions:
REMARK  status: ('A' for Active; 'I' for Inactive)
ROOT
ATOM      1  C4' PXY d   1      -1.159   1.049   2.890  0.00  0.00     0.077 C 
ATOM      2  C1' PXY d   1       0.758  -1.279  -2.042  0.00  0.00     0.077 C 
ATOM      3  C1  PXY d   1       0.244  -0.666  -0.754  0.00  0.00    -0.082 A 
ATOM      4  C2  PXY d   1       1.101  -0.157   0.116  0.00  0.00     0.003 A 
ATOM      5  C3  PXY d   1       0.656   0.372   1.300  0.00  0.00     0.003 A 
ATOM      6  C4  PXY d   1      -0.685   0.429   1.572  0.00  0.00    -0.082 A 
ATOM      7  C5  PXY d   1      -1.566  -0.079   0.685  0.00  0.00     0.003 A 
ATOM      8  C6  PXY d   1      -1.091  -0.648  -0.493  0.00  0.00     0.003 A 
ENDROOT
TORSDOF 0
ENDMDL
