MODEL 1
REMARK minimizedAffinity -1.81712699
REMARK minimizedRMSD -1
REMARK  0 active torsions:
REMARK  status: ('A' for Active; 'I' for Inactive)
ROOT
ATOM      1  C4' PXY d   1      -0.615  -0.442  -1.693  0.00  0.00     0.077 C 
ATOM      2  C1' PXY d   1      -0.603   1.727   3.666  0.00  0.00     0.077 C 
ATOM      3  C1  PXY d   1      -0.619   1.155   2.262  0.00  0.00    -0.082 A 
ATOM      4  C2  PXY d   1       0.513   0.755   1.706  0.00  0.00     0.003 A 
ATOM      5  C3  PXY d   1       0.522   0.264   0.425  0.00  0.00     0.003 A 
ATOM      6  C4  PXY d   1      -0.648   0.133  -0.274  0.00  0.00    -0.082 A 
ATOM      7  C5  PXY d   1      -1.809   0.530   0.290  0.00  0.00     0.003 A 
ATOM      8  C6  PXY d   1      -1.790   1.063   1.576  0.00  0.00     0.003 A 
ENDROOT
TORSDOF 0
ENDMDL
