MODEL 1
REMARK minimizedAffinity -2.74094915
REMARK minimizedRMSD -1
REMARK  0 active torsions:
REMARK  status: ('A' for Active; 'I' for Inactive)
ROOT
ATOM      1  C4' PXY d   1      -0.722   0.655   3.456  0.00  0.00     0.077 C 
ATOM      2  C1' PXY d   1       0.273  -0.430  -2.134  0.00  0.00     0.077 C 
ATOM      3  C1  PXY d   1       0.002  -0.138  -0.672  0.00  0.00    -0.082 A 
ATOM      4  C2  PXY d   1       0.969  -0.299   0.218  0.00  0.00     0.003 A 
ATOM      5  C3  PXY d   1       0.732  -0.070   1.549  0.00  0.00     0.003 A 
ATOM      6  C4  PXY d   1      -0.491   0.380   1.967  0.00  0.00    -0.082 A 
ATOM      7  C5  PXY d   1      -1.480   0.558   1.065  0.00  0.00     0.003 A 
ATOM      8  C6  PXY d   1      -1.231   0.280  -0.276  0.00  0.00     0.003 A 
ENDROOT
TORSDOF 0
ENDMDL
