MODEL 1
REMARK minimizedAffinity -3.42549324
REMARK minimizedRMSD -1
REMARK  0 active torsions:
REMARK  status: ('A' for Active; 'I' for Inactive)
ROOT
ATOM      1  C4' PXY d   1      -3.038   0.716   0.048  0.00  0.00     0.077 C 
ATOM      2  C1' PXY d   1       2.306   0.198   2.191  0.00  0.00     0.077 C 
ATOM      3  C1  PXY d   1       0.899   0.334   1.642  0.00  0.00    -0.082 A 
ATOM      4  C2  PXY d   1       0.626  -0.114   0.427  0.00  0.00     0.003 A 
ATOM      5  C3  PXY d   1      -0.633   0.030  -0.098  0.00  0.00     0.003 A 
ATOM      6  C4  PXY d   1      -1.635   0.591   0.648  0.00  0.00    -0.082 A 
ATOM      7  C5  PXY d   1      -1.366   1.042   1.891  0.00  0.00     0.003 A 
ATOM      8  C6  PXY d   1      -0.072   0.923   2.391  0.00  0.00     0.003 A 
ENDROOT
TORSDOF 0
ENDMDL
