MODEL 1
REMARK minimizedAffinity -4.64898491
REMARK minimizedRMSD -1
REMARK  0 active torsions:
REMARK  status: ('A' for Active; 'I' for Inactive)
ROOT
ATOM      1  C4' PXY d   1       0.386  -1.062  -1.668  0.00  0.00     0.077 C 
ATOM      2  C1' PXY d   1      -0.928   1.301   3.441  0.00  0.00     0.077 C 
ATOM      3  C1  PXY d   1      -0.594   0.674   2.102  0.00  0.00    -0.082 A 
ATOM      4  C2  PXY d   1       0.665   0.622   1.700  0.00  0.00     0.003 A 
ATOM      5  C3  PXY d   1       0.981   0.088   0.477  0.00  0.00     0.003 A 
ATOM      6  C4  PXY d   1       0.004  -0.447  -0.319  0.00  0.00    -0.082 A 
ATOM      7  C5  PXY d   1      -1.282  -0.407   0.089  0.00  0.00     0.003 A 
ATOM      8  C6  PXY d   1      -1.587   0.177   1.315  0.00  0.00     0.003 A 
ENDROOT
TORSDOF 0
ENDMDL
