MODEL 1
REMARK minimizedAffinity -4.45905209
REMARK minimizedRMSD -1
REMARK  0 active torsions:
REMARK  status: ('A' for Active; 'I' for Inactive)
ROOT
ATOM      1  C4' PXY d   1       0.700  -0.900  -1.706  0.00  0.00     0.077 C 
ATOM      2  C1' PXY d   1      -1.011   1.379   3.323  0.00  0.00     0.077 C 
ATOM      3  C1  PXY d   1      -0.551   0.786   2.007  0.00  0.00    -0.082 A 
ATOM      4  C2  PXY d   1      -1.433   0.557   1.048  0.00  0.00     0.003 A 
ATOM      5  C3  PXY d   1      -1.038  -0.008  -0.138  0.00  0.00     0.003 A 
ATOM      6  C4  PXY d   1       0.282  -0.294  -0.363  0.00  0.00    -0.082 A 
ATOM      7  C5  PXY d   1       1.190  -0.054   0.606  0.00  0.00     0.003 A 
ATOM      8  C6  PXY d   1       0.762   0.483   1.817  0.00  0.00     0.003 A 
ENDROOT
TORSDOF 0
ENDMDL
