MODEL 1
REMARK minimizedAffinity -4.03886318
REMARK minimizedRMSD -1
REMARK  0 active torsions:
REMARK  status: ('A' for Active; 'I' for Inactive)
ROOT
ATOM      1  C4' PXY d   1       0.363  -0.752  -2.095  0.00  0.00     0.077 C 
ATOM      2  C1' PXY d   1      -0.450   1.481   3.175  0.00  0.00     0.077 C 
ATOM      3  C1  PXY d   1      -0.224   0.897   1.794  0.00  0.00    -0.082 A 
ATOM      4  C2  PXY d   1      -1.203   0.923   0.904  0.00  0.00     0.003 A 
ATOM      5  C3  PXY d   1      -1.026   0.371  -0.338  0.00  0.00     0.003 A 
ATOM      6  C4  PXY d   1       0.183  -0.166  -0.692  0.00  0.00    -0.082 A 
ATOM      7  C5  PXY d   1       1.190  -0.186   0.207  0.00  0.00     0.003 A 
ATOM      8  C6  PXY d   1       0.977   0.342   1.477  0.00  0.00     0.003 A 
ENDROOT
TORSDOF 0
ENDMDL
