MODEL 1
REMARK minimizedAffinity -5.50305939
REMARK minimizedRMSD -1
REMARK  0 active torsions:
REMARK  status: ('A' for Active; 'I' for Inactive)
ROOT
ATOM      1  C4' PXY d   1      -0.058  -0.756  -1.444  0.00  0.00     0.077 C 
ATOM      2  C1' PXY d   1       0.601   0.754   4.096  0.00  0.00     0.077 C 
ATOM      3  C1  PXY d   1       0.415   0.359   2.645  0.00  0.00    -0.082 A 
ATOM      4  C2  PXY d   1       1.365  -0.323   2.026  0.00  0.00     0.003 A 
ATOM      5  C3  PXY d   1       1.227  -0.661   0.704  0.00  0.00     0.003 A 
ATOM      6  C4  PXY d   1       0.082  -0.344   0.024  0.00  0.00    -0.082 A 
ATOM      7  C5  PXY d   1      -0.896   0.343   0.651  0.00  0.00     0.003 A 
ATOM      8  C6  PXY d   1      -0.719   0.712   1.981  0.00  0.00     0.003 A 
ENDROOT
TORSDOF 0
ENDMDL
