MODEL 1
REMARK minimizedAffinity -5.04640722
REMARK minimizedRMSD -1
REMARK  0 active torsions:
REMARK  status: ('A' for Active; 'I' for Inactive)
ROOT
ATOM      1  C4' PXY d   1       0.516  -0.549  -1.627  0.00  0.00     0.077 C 
ATOM      2  C1' PXY d   1      -0.662   1.233   3.744  0.00  0.00     0.077 C 
ATOM      3  C1  PXY d   1      -0.341   0.771   2.337  0.00  0.00    -0.082 A 
ATOM      4  C2  PXY d   1      -1.326   0.543   1.483  0.00  0.00     0.003 A 
ATOM      5  C3  PXY d   1      -1.055   0.094   0.216  0.00  0.00     0.003 A 
ATOM      6  C4  PXY d   1       0.239  -0.072  -0.198  0.00  0.00    -0.082 A 
ATOM      7  C5  PXY d   1       1.250   0.169   0.664  0.00  0.00     0.003 A 
ATOM      8  C6  PXY d   1       0.952   0.584   1.958  0.00  0.00     0.003 A 
ENDROOT
TORSDOF 0
ENDMDL
