MODEL 1
REMARK minimizedAffinity -3.89058471
REMARK minimizedRMSD -1
REMARK  0 active torsions:
REMARK  status: ('A' for Active; 'I' for Inactive)
ROOT
ATOM      1  C4' PXY d   1       0.263  -0.550  -3.008  0.00  0.00     0.077 C 
ATOM      2  C1' PXY d   1      -1.038   0.853   2.447  0.00  0.00     0.077 C 
ATOM      3  C1  PXY d   1      -0.685   0.483   1.020  0.00  0.00    -0.082 A 
ATOM      4  C2  PXY d   1      -1.387   0.989   0.019  0.00  0.00     0.003 A 
ATOM      5  C3  PXY d   1      -1.102   0.639  -1.275  0.00  0.00     0.003 A 
ATOM      6  C4  PXY d   1      -0.052  -0.196  -1.552  0.00  0.00    -0.082 A 
ATOM      7  C5  PXY d   1       0.676  -0.708  -0.537  0.00  0.00     0.003 A 
ATOM      8  C6  PXY d   1       0.344  -0.373   0.772  0.00  0.00     0.003 A 
ENDROOT
TORSDOF 0
ENDMDL
