MODEL 1
REMARK minimizedAffinity -0.188639671
REMARK minimizedRMSD -1
REMARK  0 active torsions:
REMARK  status: ('A' for Active; 'I' for Inactive)
ROOT
ATOM      1  C4' PXY d   1       0.712  -0.082  -2.575  0.00  0.00     0.077 C 
ATOM      2  C1' PXY d   1      -1.778   0.236   2.632  0.00  0.00     0.077 C 
ATOM      3  C1  PXY d   1      -1.113   0.153   1.272  0.00  0.00    -0.082 A 
ATOM      4  C2  PXY d   1      -1.769   0.561   0.198  0.00  0.00     0.003 A 
ATOM      5  C3  PXY d   1      -1.195   0.464  -1.043  0.00  0.00     0.003 A 
ATOM      6  C4  PXY d   1       0.084  -0.008  -1.181  0.00  0.00    -0.082 A 
ATOM      7  C5  PXY d   1       0.763  -0.416  -0.088  0.00  0.00     0.003 A 
ATOM      8  C6  PXY d   1       0.147  -0.348   1.158  0.00  0.00     0.003 A 
ENDROOT
TORSDOF 0
ENDMDL
