MODEL 1
REMARK minimizedAffinity 4.85413933
REMARK minimizedRMSD -1
REMARK  0 active torsions:
REMARK  status: ('A' for Active; 'I' for Inactive)
ROOT
ATOM      1  C   UNL d   1       1.266  -4.290   0.009  0.00  0.00     0.020 A 
ATOM      2  C1  UNL d   1       0.037  -4.301  -0.649  0.00  0.00     0.020 A 
ATOM      3  C2  UNL d   1      -0.410  -3.157  -1.313  0.00  0.00     0.034 A 
ATOM      4  C3  UNL d   1       0.373  -1.997  -1.321  0.00  0.00     0.017 A 
ATOM      5  C4  UNL d   1       1.607  -1.986  -0.660  0.00  0.00     0.017 A 
ATOM      6  C5  UNL d   1       2.049  -3.135   0.003  0.00  0.00     0.034 A 
ATOM      7 Cl   UNL d   1       2.628  -0.592  -0.626  0.00  0.00    -0.070 Cl
ATOM      8 Cl1  UNL d   1      -0.242  -0.619  -2.163  0.00  0.00    -0.070 Cl
ENDROOT
TORSDOF 0
ENDMDL
