MODEL 1
REMARK minimizedAffinity 6.55281448
REMARK minimizedRMSD -1
REMARK  0 active torsions:
REMARK  status: ('A' for Active; 'I' for Inactive)
ROOT
ATOM      1  C   UNL d   1       0.158   2.953  -0.117  0.00  0.00     0.020 A 
ATOM      2  C1  UNL d   1       1.132   2.186   0.520  0.00  0.00     0.020 A 
ATOM      3  C2  UNL d   1       0.924   1.738   1.826  0.00  0.00     0.034 A 
ATOM      4  C3  UNL d   1      -0.261   2.057   2.500  0.00  0.00     0.017 A 
ATOM      5  C4  UNL d   1      -1.238   2.827   1.859  0.00  0.00     0.017 A 
ATOM      6  C5  UNL d   1      -1.025   3.273   0.551  0.00  0.00     0.034 A 
ATOM      7 Cl   UNL d   1      -2.725   3.261   2.625  0.00  0.00    -0.070 Cl
ATOM      8 Cl1  UNL d   1      -0.451   1.469   4.113  0.00  0.00    -0.070 Cl
ENDROOT
TORSDOF 0
ENDMDL
