MODEL 1
REMARK minimizedAffinity 3.93731833
REMARK minimizedRMSD -1
REMARK  0 active torsions:
REMARK  status: ('A' for Active; 'I' for Inactive)
ROOT
ATOM      1  C   UNL d   1       1.362   1.589   0.392  0.00  0.00     0.020 A 
ATOM      2  C1  UNL d   1       0.290   2.073  -0.356  0.00  0.00     0.020 A 
ATOM      3  C2  UNL d   1      -0.965   2.223   0.239  0.00  0.00     0.034 A 
ATOM      4  C3  UNL d   1      -1.150   1.889   1.585  0.00  0.00     0.017 A 
ATOM      5  C4  UNL d   1      -0.072   1.403   2.335  0.00  0.00     0.017 A 
ATOM      6  C5  UNL d   1       1.181   1.255   1.734  0.00  0.00     0.034 A 
ATOM      7 Cl   UNL d   1      -0.223   0.970   4.001  0.00  0.00    -0.070 Cl
ATOM      8 Cl1  UNL d   1      -2.728   2.101   2.256  0.00  0.00    -0.070 Cl
ENDROOT
TORSDOF 0
ENDMDL
