MODEL 1
REMARK minimizedAffinity 5.61392212
REMARK minimizedRMSD -1
REMARK  0 active torsions:
REMARK  status: ('A' for Active; 'I' for Inactive)
ROOT
ATOM      1  C   UNL d   1       1.130   2.853   0.810  0.00  0.00     0.020 A 
ATOM      2  C1  UNL d   1       0.145   3.695   0.295  0.00  0.00     0.020 A 
ATOM      3  C2  UNL d   1      -1.164   3.612   0.773  0.00  0.00     0.034 A 
ATOM      4  C3  UNL d   1      -1.492   2.686   1.770  0.00  0.00     0.017 A 
ATOM      5  C4  UNL d   1      -0.503   1.842   2.287  0.00  0.00     0.017 A 
ATOM      6  C5  UNL d   1       0.806   1.929   1.804  0.00  0.00     0.034 A 
ATOM      7 Cl   UNL d   1      -0.832   0.674   3.518  0.00  0.00    -0.070 Cl
ATOM      8 Cl1  UNL d   1      -3.131   2.640   2.315  0.00  0.00    -0.070 Cl
ENDROOT
TORSDOF 0
ENDMDL
