MODEL 1
REMARK minimizedAffinity 6.97983408
REMARK minimizedRMSD -1
REMARK  0 active torsions:
REMARK  status: ('A' for Active; 'I' for Inactive)
ROOT
ATOM      1  C   UNL d   1       2.629  -1.897  -0.118  0.00  0.00     0.020 A 
ATOM      2  C1  UNL d   1       1.274  -2.062  -0.405  0.00  0.00     0.020 A 
ATOM      3  C2  UNL d   1       0.434  -0.948  -0.469  0.00  0.00     0.034 A 
ATOM      4  C3  UNL d   1       0.947   0.335  -0.246  0.00  0.00     0.017 A 
ATOM      5  C4  UNL d   1       2.307   0.499   0.042  0.00  0.00     0.017 A 
ATOM      6  C5  UNL d   1       3.144  -0.619   0.105  0.00  0.00     0.034 A 
ATOM      7 Cl   UNL d   1       3.013   2.050   0.329  0.00  0.00    -0.070 Cl
ATOM      8 Cl1  UNL d   1      -0.150   1.667  -0.341  0.00  0.00    -0.070 Cl
ENDROOT
TORSDOF 0
ENDMDL
