MODEL 1
REMARK minimizedAffinity 4.4746685
REMARK minimizedRMSD -1
REMARK  0 active torsions:
REMARK  status: ('A' for Active; 'I' for Inactive)
ROOT
ATOM      1  C   UNL d   1       2.929  -1.890   0.335  0.00  0.00     0.020 A 
ATOM      2  C1  UNL d   1       2.918  -0.550  -0.050  0.00  0.00     0.020 A 
ATOM      3  C2  UNL d   1       1.794  -0.015  -0.683  0.00  0.00     0.034 A 
ATOM      4  C3  UNL d   1       0.677  -0.820  -0.933  0.00  0.00     0.017 A 
ATOM      5  C4  UNL d   1       0.689  -2.165  -0.546  0.00  0.00     0.017 A 
ATOM      6  C5  UNL d   1       1.817  -2.696   0.087  0.00  0.00     0.034 A 
ATOM      7 Cl   UNL d   1      -0.652  -3.220  -0.821  0.00  0.00    -0.070 Cl
ATOM      8 Cl1  UNL d   1      -0.678  -0.091  -1.719  0.00  0.00    -0.070 Cl
ENDROOT
TORSDOF 0
ENDMDL
