MODEL 1
REMARK minimizedAffinity 10.0852976
REMARK minimizedRMSD -1
REMARK  0 active torsions:
REMARK  status: ('A' for Active; 'I' for Inactive)
ROOT
ATOM      1  C   UNL d   1       0.955   1.879   3.038  0.00  0.00     0.020 A 
ATOM      2  C1  UNL d   1      -0.243   1.873   3.750  0.00  0.00     0.020 A 
ATOM      3  C2  UNL d   1      -1.461   1.905   3.068  0.00  0.00     0.034 A 
ATOM      4  C3  UNL d   1      -1.484   1.943   1.669  0.00  0.00     0.017 A 
ATOM      5  C4  UNL d   1      -0.281   1.949   0.955  0.00  0.00     0.017 A 
ATOM      6  C5  UNL d   1       0.936   1.917   1.643  0.00  0.00     0.034 A 
ATOM      7 Cl   UNL d   1      -0.228   1.995  -0.772  0.00  0.00    -0.070 Cl
ATOM      8 Cl1  UNL d   1      -3.027   1.982   0.891  0.00  0.00    -0.070 Cl
ENDROOT
TORSDOF 0
ENDMDL
