MODEL 1
REMARK minimizedAffinity 6.15237999
REMARK minimizedRMSD -1
REMARK  0 active torsions:
REMARK  status: ('A' for Active; 'I' for Inactive)
ROOT
ATOM      1  C   UNL d   1      -0.365   1.776  -0.477  0.00  0.00     0.020 A 
ATOM      2  C1  UNL d   1       0.637   1.964   0.474  0.00  0.00     0.020 A 
ATOM      3  C2  UNL d   1       0.310   2.427   1.751  0.00  0.00     0.034 A 
ATOM      4  C3  UNL d   1      -1.022   2.703   2.080  0.00  0.00     0.017 A 
ATOM      5  C4  UNL d   1      -2.027   2.513   1.125  0.00  0.00     0.017 A 
ATOM      6  C5  UNL d   1      -1.695   2.050  -0.152  0.00  0.00     0.034 A 
ATOM      7 Cl   UNL d   1      -3.693   2.832   1.457  0.00  0.00    -0.070 Cl
ATOM      8 Cl1  UNL d   1      -1.353   3.272   3.677  0.00  0.00    -0.070 Cl
ENDROOT
TORSDOF 0
ENDMDL
