MODEL 1
REMARK minimizedAffinity -5.60164261
REMARK minimizedRMSD -1
REMARK  0 active torsions:
REMARK  status: ('A' for Active; 'I' for Inactive)
ROOT
ATOM      1  C4' PXY d   1       0.015  -1.727  -0.500  0.00  0.00     0.077 C 
ATOM      2  C1' PXY d   1       1.383   3.770   0.648  0.00  0.00     0.077 C 
ATOM      3  C1  PXY d   1       1.037   2.325   0.346  0.00  0.00    -0.082 A 
ATOM      4  C2  PXY d   1      -0.144   2.031  -0.172  0.00  0.00     0.003 A 
ATOM      5  C3  PXY d   1      -0.486   0.726  -0.422  0.00  0.00     0.003 A 
ATOM      6  C4  PXY d   1       0.411  -0.282  -0.188  0.00  0.00    -0.082 A 
ATOM      7  C5  PXY d   1       1.622   0.012   0.332  0.00  0.00     0.003 A 
ATOM      8  C6  PXY d   1       1.934   1.338   0.616  0.00  0.00     0.003 A 
ENDROOT
TORSDOF 0
ENDMDL
