MODEL 1
REMARK minimizedAffinity -4.59820986
REMARK minimizedRMSD -1
REMARK  0 active torsions:
REMARK  status: ('A' for Active; 'I' for Inactive)
ROOT
ATOM      1  C4' PXY d   1       3.126   1.923  -0.048  0.00  0.00     0.077 C 
ATOM      2  C1' PXY d   1      -2.519   0.803   0.497  0.00  0.00     0.077 C 
ATOM      3  C1  PXY d   1      -1.042   1.109   0.349  0.00  0.00    -0.082 A 
ATOM      4  C2  PXY d   1      -0.181   0.116   0.195  0.00  0.00     0.003 A 
ATOM      5  C3  PXY d   1       1.162   0.372   0.093  0.00  0.00     0.003 A 
ATOM      6  C4  PXY d   1       1.624   1.662   0.095  0.00  0.00    -0.082 A 
ATOM      7  C5  PXY d   1       0.751   2.681   0.241  0.00  0.00     0.003 A 
ATOM      8  C6  PXY d   1      -0.605   2.397   0.385  0.00  0.00     0.003 A 
ENDROOT
TORSDOF 0
ENDMDL
