MODEL 1
REMARK minimizedAffinity -5.62872648
REMARK minimizedRMSD -1
REMARK  0 active torsions:
REMARK  status: ('A' for Active; 'I' for Inactive)
ROOT
ATOM      1  C4' PXY d   1      -2.122   0.471   0.397  0.00  0.00     0.077 C 
ATOM      2  C1' PXY d   1       3.213   2.696   0.382  0.00  0.00     0.077 C 
ATOM      3  C1  PXY d   1       1.809   2.124   0.391  0.00  0.00    -0.082 A 
ATOM      4  C2  PXY d   1       1.638   0.812   0.420  0.00  0.00     0.003 A 
ATOM      5  C3  PXY d   1       0.375   0.277   0.396  0.00  0.00     0.003 A 
ATOM      6  C4  PXY d   1      -0.723   1.094   0.397  0.00  0.00    -0.082 A 
ATOM      7  C5  PXY d   1      -0.557   2.433   0.379  0.00  0.00     0.003 A 
ATOM      8  C6  PXY d   1       0.733   2.956   0.362  0.00  0.00     0.003 A 
ENDROOT
TORSDOF 0
ENDMDL
