MODEL 1
REMARK minimizedAffinity -2.73928785
REMARK minimizedRMSD -1
REMARK  0 active torsions:
REMARK  status: ('A' for Active; 'I' for Inactive)
ROOT
ATOM      1  C4' PXY d   1       0.070   3.216   0.719  0.00  0.00     0.077 C 
ATOM      2  C1' PXY d   1      -0.293  -2.499  -0.069  0.00  0.00     0.077 C 
ATOM      3  C1  PXY d   1      -0.211  -0.999   0.135  0.00  0.00    -0.082 A 
ATOM      4  C2  PXY d   1       0.939  -0.375  -0.060  0.00  0.00     0.003 A 
ATOM      5  C3  PXY d   1       1.039   0.977   0.152  0.00  0.00     0.003 A 
ATOM      6  C4  PXY d   1      -0.062   1.704   0.515  0.00  0.00    -0.082 A 
ATOM      7  C5  PXY d   1      -1.242   1.076   0.705  0.00  0.00     0.003 A 
ATOM      8  C6  PXY d   1      -1.312  -0.302   0.526  0.00  0.00     0.003 A 
ENDROOT
TORSDOF 0
ENDMDL
