MODEL 1
REMARK minimizedAffinity -5.41452026
REMARK minimizedRMSD -1
REMARK  0 active torsions:
REMARK  status: ('A' for Active; 'I' for Inactive)
ROOT
ATOM      1  C4' PXY d   1      -1.094  -0.660   0.171  0.00  0.00     0.077 C 
ATOM      2  C1' PXY d   1       4.007   1.994   0.770  0.00  0.00     0.077 C 
ATOM      3  C1  PXY d   1       2.663   1.310   0.613  0.00  0.00    -0.082 A 
ATOM      4  C2  PXY d   1       2.532   0.039   0.957  0.00  0.00     0.003 A 
ATOM      5  C3  PXY d   1       1.333  -0.605   0.793  0.00  0.00     0.003 A 
ATOM      6  C4  PXY d   1       0.242   0.075   0.320  0.00  0.00    -0.082 A 
ATOM      7  C5  PXY d   1       0.364   1.374  -0.023  0.00  0.00     0.003 A 
ATOM      8  C6  PXY d   1       1.601   1.998   0.113  0.00  0.00     0.003 A 
ENDROOT
TORSDOF 0
ENDMDL
