MODEL 1
REMARK minimizedAffinity -5.99540377
REMARK minimizedRMSD -1
REMARK  0 active torsions:
REMARK  status: ('A' for Active; 'I' for Inactive)
ROOT
ATOM      1  C4' PXY d   1       0.751  -2.114  -0.070  0.00  0.00     0.077 C 
ATOM      2  C1' PXY d   1       0.749   3.657   0.272  0.00  0.00     0.077 C 
ATOM      3  C1  PXY d   1       0.762   2.144   0.177  0.00  0.00    -0.082 A 
ATOM      4  C2  PXY d   1      -0.383   1.481   0.148  0.00  0.00     0.003 A 
ATOM      5  C3  PXY d   1      -0.390   0.111   0.094  0.00  0.00     0.003 A 
ATOM      6  C4  PXY d   1       0.787  -0.585   0.016  0.00  0.00    -0.082 A 
ATOM      7  C5  PXY d   1       1.958   0.084   0.034  0.00  0.00     0.003 A 
ATOM      8  C6  PXY d   1       1.944   1.473   0.130  0.00  0.00     0.003 A 
ENDROOT
TORSDOF 0
ENDMDL
