MODEL 1
REMARK minimizedAffinity -3.60825801
REMARK minimizedRMSD -1
REMARK  0 active torsions:
REMARK  status: ('A' for Active; 'I' for Inactive)
ROOT
ATOM      1  C4' PXY d   1       0.619  -1.353  -0.361  0.00  0.00     0.077 C 
ATOM      2  C1' PXY d   1       1.178   4.281   0.804  0.00  0.00     0.077 C 
ATOM      3  C1  PXY d   1       1.044   2.803   0.494  0.00  0.00    -0.082 A 
ATOM      4  C2  PXY d   1      -0.156   2.285   0.284  0.00  0.00     0.003 A 
ATOM      5  C3  PXY d   1      -0.298   0.945   0.034  0.00  0.00     0.003 A 
ATOM      6  C4  PXY d   1       0.803   0.136  -0.054  0.00  0.00    -0.082 A 
ATOM      7  C5  PXY d   1       2.031   0.659   0.148  0.00  0.00     0.003 A 
ATOM      8  C6  PXY d   1       2.151   2.014   0.441  0.00  0.00     0.003 A 
ENDROOT
TORSDOF 0
ENDMDL
