MODEL 1
REMARK minimizedAffinity -3.2007339
REMARK minimizedRMSD -1
REMARK  0 active torsions:
REMARK  status: ('A' for Active; 'I' for Inactive)
ROOT
ATOM      1  C4' PXY d   1      -0.701  -1.544  -0.394  0.00  0.00     0.077 C 
ATOM      2  C1' PXY d   1       1.032   3.900   0.486  0.00  0.00     0.077 C 
ATOM      3  C1  PXY d   1       0.571   2.473   0.266  0.00  0.00    -0.082 A 
ATOM      4  C2  PXY d   1       1.258   1.680  -0.540  0.00  0.00     0.003 A 
ATOM      5  C3  PXY d   1       0.838   0.396  -0.774  0.00  0.00     0.003 A 
ATOM      6  C4  PXY d   1      -0.267  -0.098  -0.135  0.00  0.00    -0.082 A 
ATOM      7  C5  PXY d   1      -0.968   0.701   0.697  0.00  0.00     0.003 A 
ATOM      8  C6  PXY d   1      -0.548   2.014   0.890  0.00  0.00     0.003 A 
ENDROOT
TORSDOF 0
ENDMDL
