MODEL 1
REMARK minimizedAffinity -4.83063269
REMARK minimizedRMSD -1
REMARK  0 active torsions:
REMARK  status: ('A' for Active; 'I' for Inactive)
ROOT
ATOM      1  C4' PXY d   1       0.333   3.806   0.344  0.00  0.00     0.077 C 
ATOM      2  C1' PXY d   1       0.061  -1.955  -0.052  0.00  0.00     0.077 C 
ATOM      3  C1  PXY d   1       0.145  -0.445   0.052  0.00  0.00    -0.082 A 
ATOM      4  C2  PXY d   1      -0.867   0.233   0.569  0.00  0.00     0.003 A 
ATOM      5  C3  PXY d   1      -0.821   1.601   0.641  0.00  0.00     0.003 A 
ATOM      6  C4  PXY d   1       0.295   2.279   0.228  0.00  0.00    -0.082 A 
ATOM      7  C5  PXY d   1       1.337   1.594  -0.290  0.00  0.00     0.003 A 
ATOM      8  C6  PXY d   1       1.253   0.209  -0.392  0.00  0.00     0.003 A 
ENDROOT
TORSDOF 0
ENDMDL
