MODEL 1
REMARK minimizedAffinity -4.80451488
REMARK minimizedRMSD -1
REMARK  0 active torsions:
REMARK  status: ('A' for Active; 'I' for Inactive)
ROOT
ATOM      1  C4' PXY d   1       0.086  -2.005   0.418  0.00  0.00     0.077 C 
ATOM      2  C1' PXY d   1       0.264   3.760   0.021  0.00  0.00     0.077 C 
ATOM      3  C1  PXY d   1       0.229   2.247   0.120  0.00  0.00    -0.082 A 
ATOM      4  C2  PXY d   1      -0.934   1.625   0.220  0.00  0.00     0.003 A 
ATOM      5  C3  PXY d   1      -0.982   0.260   0.342  0.00  0.00     0.003 A 
ATOM      6  C4  PXY d   1       0.169  -0.480   0.307  0.00  0.00    -0.082 A 
ATOM      7  C5  PXY d   1       1.359   0.147   0.194  0.00  0.00     0.003 A 
ATOM      8  C6  PXY d   1       1.389   1.536   0.113  0.00  0.00     0.003 A 
ENDROOT
TORSDOF 0
ENDMDL
