MODEL 1
REMARK minimizedAffinity -2.1139133
REMARK minimizedRMSD -1
REMARK  0 active torsions:
REMARK  status: ('A' for Active; 'I' for Inactive)
ROOT
ATOM      1  C4' PXY d   1      -0.272  -2.428  -0.508  0.00  0.00     0.077 C 
ATOM      2  C1' PXY d   1      -0.010   3.185   0.849  0.00  0.00     0.077 C 
ATOM      3  C1  PXY d   1      -0.067   1.714   0.487  0.00  0.00    -0.082 A 
ATOM      4  C2  PXY d   1      -1.235   1.093   0.456  0.00  0.00     0.003 A 
ATOM      5  C3  PXY d   1      -1.302  -0.244   0.162  0.00  0.00     0.003 A 
ATOM      6  C4  PXY d   1      -0.167  -0.941  -0.156  0.00  0.00    -0.082 A 
ATOM      7  C5  PXY d   1       1.027  -0.312  -0.138  0.00  0.00     0.003 A 
ATOM      8  C6  PXY d   1       1.078   1.036   0.203  0.00  0.00     0.003 A 
ENDROOT
TORSDOF 0
ENDMDL
