MODEL 1
REMARK minimizedAffinity -5.39751053
REMARK minimizedRMSD -1
REMARK  0 active torsions:
REMARK  status: ('A' for Active; 'I' for Inactive)
ROOT
ATOM      1  C4' PXY d   1      -2.535   1.090   0.243  0.00  0.00     0.077 C 
ATOM      2  C1' PXY d   1       2.937   2.946   0.412  0.00  0.00     0.077 C 
ATOM      3  C1  PXY d   1       1.498   2.470   0.374  0.00  0.00    -0.082 A 
ATOM      4  C2  PXY d   1       1.240   1.176   0.278  0.00  0.00     0.003 A 
ATOM      5  C3  PXY d   1      -0.056   0.731   0.210  0.00  0.00     0.003 A 
ATOM      6  C4  PXY d   1      -1.098   1.615   0.295  0.00  0.00    -0.082 A 
ATOM      7  C5  PXY d   1      -0.842   2.936   0.404  0.00  0.00     0.003 A 
ATOM      8  C6  PXY d   1       0.480   3.371   0.430  0.00  0.00     0.003 A 
ENDROOT
TORSDOF 0
ENDMDL
