MODEL 1
REMARK minimizedAffinity -2.56226563
REMARK minimizedRMSD -1
REMARK  0 active torsions:
REMARK  status: ('A' for Active; 'I' for Inactive)
ROOT
ATOM      1  C4' PXY d   1      -1.954   0.957   0.966  0.00  0.00     0.077 C 
ATOM      2  C1' PXY d   1       3.379   2.530  -0.613  0.00  0.00     0.077 C 
ATOM      3  C1  PXY d   1       1.980   2.128  -0.192  0.00  0.00    -0.082 A 
ATOM      4  C2  PXY d   1       1.627   0.853  -0.226  0.00  0.00     0.003 A 
ATOM      5  C3  PXY d   1       0.355   0.476   0.122  0.00  0.00     0.003 A 
ATOM      6  C4  PXY d   1      -0.549   1.407   0.559  0.00  0.00    -0.082 A 
ATOM      7  C5  PXY d   1      -0.193   2.709   0.606  0.00  0.00     0.003 A 
ATOM      8  C6  PXY d   1       1.090   3.076   0.210  0.00  0.00     0.003 A 
ENDROOT
TORSDOF 0
ENDMDL
