MODEL 1
REMARK minimizedAffinity -4.32169819
REMARK minimizedRMSD -1
REMARK  0 active torsions:
REMARK  status: ('A' for Active; 'I' for Inactive)
ROOT
ATOM      1  C4' PXY d   1      -0.037  -3.001  -1.892  0.00  0.00     0.077 C 
ATOM      2  C1' PXY d   1      -1.373   2.140   0.389  0.00  0.00     0.077 C 
ATOM      3  C1  PXY d   1      -1.012   0.791  -0.202  0.00  0.00    -0.082 A 
ATOM      4  C2  PXY d   1      -1.463   0.460  -1.401  0.00  0.00     0.003 A 
ATOM      5  C3  PXY d   1      -1.173  -0.768  -1.936  0.00  0.00     0.003 A 
ATOM      6  C4  PXY d   1      -0.369  -1.646  -1.260  0.00  0.00    -0.082 A 
ATOM      7  C5  PXY d   1       0.104  -1.311  -0.041  0.00  0.00     0.003 A 
ATOM      8  C6  PXY d   1      -0.236  -0.076   0.503  0.00  0.00     0.003 A 
ENDROOT
TORSDOF 0
ENDMDL
