MODEL 1
REMARK minimizedAffinity -5.6068964
REMARK minimizedRMSD -1
REMARK  0 active torsions:
REMARK  status: ('A' for Active; 'I' for Inactive)
ROOT
ATOM      1  C4' PXY d   1       3.296   1.436   0.519  0.00  0.00     0.077 C 
ATOM      2  C1' PXY d   1      -2.444   0.941   0.045  0.00  0.00     0.077 C 
ATOM      3  C1  PXY d   1      -0.940   1.083   0.166  0.00  0.00    -0.082 A 
ATOM      4  C2  PXY d   1      -0.172   0.009   0.082  0.00  0.00     0.003 A 
ATOM      5  C3  PXY d   1       1.188   0.115   0.221  0.00  0.00     0.003 A 
ATOM      6  C4  PXY d   1       1.773   1.341   0.393  0.00  0.00    -0.082 A 
ATOM      7  C5  PXY d   1       0.998   2.443   0.469  0.00  0.00     0.003 A 
ATOM      8  C6  PXY d   1      -0.384   2.309   0.367  0.00  0.00     0.003 A 
ENDROOT
TORSDOF 0
ENDMDL
