MODEL 1
REMARK minimizedAffinity -4.34059
REMARK minimizedRMSD -1
REMARK  0 active torsions:
REMARK  status: ('A' for Active; 'I' for Inactive)
ROOT
ATOM      1  C4' PXY d   1      -0.030   3.257  -0.023  0.00  0.00     0.077 C 
ATOM      2  C1' PXY d   1      -0.182  -2.489   0.594  0.00  0.00     0.077 C 
ATOM      3  C1  PXY d   1      -0.155  -0.982   0.432  0.00  0.00    -0.082 A 
ATOM      4  C2  PXY d   1       0.899  -0.402  -0.118  0.00  0.00     0.003 A 
ATOM      5  C3  PXY d   1       0.953   0.963  -0.243  0.00  0.00     0.003 A 
ATOM      6  C4  PXY d   1      -0.105   1.737   0.152  0.00  0.00    -0.082 A 
ATOM      7  C5  PXY d   1      -1.188   1.152   0.705  0.00  0.00     0.003 A 
ATOM      8  C6  PXY d   1      -1.207  -0.231   0.860  0.00  0.00     0.003 A 
ENDROOT
TORSDOF 0
ENDMDL
