MODEL 1
REMARK minimizedAffinity -4.70111132
REMARK minimizedRMSD -1
REMARK  0 active torsions:
REMARK  status: ('A' for Active; 'I' for Inactive)
ROOT
ATOM      1  C4' PXY d   1      -0.310  -1.580   0.061  0.00  0.00     0.077 C 
ATOM      2  C1' PXY d   1       0.693   4.113   0.032  0.00  0.00     0.077 C 
ATOM      3  C1  PXY d   1       0.419   2.622   0.047  0.00  0.00    -0.082 A 
ATOM      4  C2  PXY d   1       1.419   1.771  -0.120  0.00  0.00     0.003 A 
ATOM      5  C3  PXY d   1       1.185   0.421  -0.141  0.00  0.00     0.003 A 
ATOM      6  C4  PXY d   1      -0.079  -0.067   0.063  0.00  0.00    -0.082 A 
ATOM      7  C5  PXY d   1      -1.103   0.794   0.244  0.00  0.00     0.003 A 
ATOM      8  C6  PXY d   1      -0.850   2.163   0.222  0.00  0.00     0.003 A 
ENDROOT
TORSDOF 0
ENDMDL
