MODEL 1
REMARK minimizedAffinity -4.49939823
REMARK minimizedRMSD -1
REMARK  0 active torsions:
REMARK  status: ('A' for Active; 'I' for Inactive)
ROOT
ATOM      1  C4' PXY d   1      -0.015  -1.543   0.349  0.00  0.00     0.077 C 
ATOM      2  C1' PXY d   1       0.839   4.172   0.218  0.00  0.00     0.077 C 
ATOM      3  C1  PXY d   1       0.603   2.675   0.258  0.00  0.00    -0.082 A 
ATOM      4  C2  PXY d   1       1.637   1.851   0.280  0.00  0.00     0.003 A 
ATOM      5  C3  PXY d   1       1.442   0.493   0.283  0.00  0.00     0.003 A 
ATOM      6  C4  PXY d   1       0.175  -0.024   0.319  0.00  0.00    -0.082 A 
ATOM      7  C5  PXY d   1      -0.885   0.811   0.307  0.00  0.00     0.003 A 
ATOM      8  C6  PXY d   1      -0.666   2.185   0.262  0.00  0.00     0.003 A 
ENDROOT
TORSDOF 0
ENDMDL
