MODEL 1
REMARK minimizedAffinity -1.88647044
REMARK minimizedRMSD -1
REMARK  0 active torsions:
REMARK  status: ('A' for Active; 'I' for Inactive)
ROOT
ATOM      1  C4' PXY d   1       0.466   3.532   0.101  0.00  0.00     0.077 C 
ATOM      2  C1' PXY d   1      -0.618  -2.142  -0.101  0.00  0.00     0.077 C 
ATOM      3  C1  PXY d   1      -0.346  -0.652  -0.050  0.00  0.00    -0.082 A 
ATOM      4  C2  PXY d   1       0.850  -0.193  -0.381  0.00  0.00     0.003 A 
ATOM      5  C3  PXY d   1       1.122   1.149  -0.309  0.00  0.00     0.003 A 
ATOM      6  C4  PXY d   1       0.144   2.036   0.054  0.00  0.00    -0.082 A 
ATOM      7  C5  PXY d   1      -1.082   1.577   0.384  0.00  0.00     0.003 A 
ATOM      8  C6  PXY d   1      -1.326   0.207   0.344  0.00  0.00     0.003 A 
ENDROOT
TORSDOF 0
ENDMDL
