MODEL 1
REMARK minimizedAffinity -4.05957985
REMARK minimizedRMSD -1
REMARK  0 active torsions:
REMARK  status: ('A' for Active; 'I' for Inactive)
ROOT
ATOM      1  C4' PXY d   1       0.025   3.292  -0.005  0.00  0.00     0.077 C 
ATOM      2  C1' PXY d   1      -0.260  -2.459  -0.513  0.00  0.00     0.077 C 
ATOM      3  C1  PXY d   1      -0.198  -0.950  -0.377  0.00  0.00    -0.082 A 
ATOM      4  C2  PXY d   1       0.782  -0.280  -0.963  0.00  0.00     0.003 A 
ATOM      5  C3  PXY d   1       0.871   1.081  -0.824  0.00  0.00     0.003 A 
ATOM      6  C4  PXY d   1      -0.083   1.770  -0.123  0.00  0.00    -0.082 A 
ATOM      7  C5  PXY d   1      -1.091   1.095   0.469  0.00  0.00     0.003 A 
ATOM      8  C6  PXY d   1      -1.141  -0.291   0.350  0.00  0.00     0.003 A 
ENDROOT
TORSDOF 0
ENDMDL
