MODEL 1
REMARK minimizedAffinity 4.12818432
REMARK minimizedRMSD -1
REMARK  2 active torsions:
REMARK  status: ('A' for Active; 'I' for Inactive)
REMARK    1  A    between atoms: C2'_3  and  C1'_4 
REMARK    2  A    between atoms: C1'_4  and  C1_5 
ROOT
ATOM      1  C1  I4B d   1      -0.566  -1.172   3.412  0.00  0.00    -0.075 A 
ATOM      2  C2  I4B d   1      -1.385  -2.274   3.431  0.00  0.00     0.003 A 
ATOM      3  C3  I4B d   1      -1.076  -3.405   2.637  0.00  0.00     0.002 A 
ATOM      4  C4  I4B d   1       0.027  -3.373   1.808  0.00  0.00    -0.004 A 
ATOM      5  C5  I4B d   1       0.868  -2.264   1.807  0.00  0.00     0.002 A 
ATOM      6  C6  I4B d   1       0.577  -1.161   2.624  0.00  0.00     0.003 A 
ENDROOT
BRANCH   1   7
ATOM      7  C1' I4B d   1      -0.941   0.018   4.237  0.00  0.00     0.060 C 
BRANCH   7   8
ATOM      8  C2' I4B d   1      -0.856  -0.381   5.697  0.00  0.00    -0.013 C 
ATOM      9  C4' I4B d   1      -1.772  -1.537   6.000  0.00  0.00     0.013 C 
ATOM     10  C3' I4B d   1       0.571  -0.726   6.000  0.00  0.00     0.013 C 
ENDBRANCH   7   8
ENDBRANCH   1   7
TORSDOF 2
ENDMDL
