MODEL 1
REMARK minimizedAffinity 10.300642
REMARK minimizedRMSD -1
REMARK  2 active torsions:
REMARK  status: ('A' for Active; 'I' for Inactive)
REMARK    1  A    between atoms: C2'_3  and  C1'_4 
REMARK    2  A    between atoms: C1'_4  and  C1_5 
ROOT
ATOM      1  C1  I4B d   1       2.909  -1.417   0.853  0.00  0.00    -0.075 A 
ATOM      2  C2  I4B d   1       2.590  -2.745   0.715  0.00  0.00     0.003 A 
ATOM      3  C3  I4B d   1       1.454  -3.277   1.373  0.00  0.00     0.002 A 
ATOM      4  C4  I4B d   1       0.700  -2.463   2.192  0.00  0.00    -0.004 A 
ATOM      5  C5  I4B d   1       1.011  -1.112   2.312  0.00  0.00     0.002 A 
ATOM      6  C6  I4B d   1       2.115  -0.582   1.629  0.00  0.00     0.003 A 
ENDROOT
BRANCH   1   7
ATOM      7  C1' I4B d   1       4.134  -0.896   0.171  0.00  0.00     0.060 C 
BRANCH   7   8
ATOM      8  C2' I4B d   1       3.717   0.254  -0.723  0.00  0.00    -0.013 C 
ATOM      9  C4' I4B d   1       3.787   1.568   0.010  0.00  0.00     0.013 C 
ATOM     10  C3' I4B d   1       4.615   0.255  -1.924  0.00  0.00     0.013 C 
ENDBRANCH   7   8
ENDBRANCH   1   7
TORSDOF 2
ENDMDL
