MODEL 1
REMARK minimizedAffinity 11.4602013
REMARK minimizedRMSD -1
REMARK  2 active torsions:
REMARK  status: ('A' for Active; 'I' for Inactive)
REMARK    1  A    between atoms: C2'_3  and  C1'_4 
REMARK    2  A    between atoms: C1'_4  and  C1_5 
ROOT
ATOM      1  C1  I4B d   1      -1.126  -2.339   2.488  0.00  0.00    -0.075 A 
ATOM      2  C2  I4B d   1      -1.128  -1.329   3.418  0.00  0.00     0.003 A 
ATOM      3  C3  I4B d   1      -0.080  -0.377   3.437  0.00  0.00     0.002 A 
ATOM      4  C4  I4B d   1       0.968  -0.500   2.548  0.00  0.00    -0.004 A 
ATOM      5  C5  I4B d   1       0.956  -1.512   1.591  0.00  0.00     0.002 A 
ATOM      6  C6  I4B d   1      -0.103  -2.430   1.553  0.00  0.00     0.003 A 
ENDROOT
BRANCH   1   7
ATOM      7  C1' I4B d   1      -2.231  -3.347   2.517  0.00  0.00     0.060 C 
BRANCH   7   8
ATOM      8  C2' I4B d   1      -3.284  -2.915   1.517  0.00  0.00    -0.013 C 
ATOM      9  C4' I4B d   1      -3.547  -3.995   0.502  0.00  0.00     0.013 C 
ATOM     10  C3' I4B d   1      -4.530  -2.570   2.277  0.00  0.00     0.013 C 
ENDBRANCH   7   8
ENDBRANCH   1   7
TORSDOF 2
ENDMDL
