MODEL 1
REMARK minimizedAffinity 12.3826303
REMARK minimizedRMSD -1
REMARK  2 active torsions:
REMARK  status: ('A' for Active; 'I' for Inactive)
REMARK    1  A    between atoms: C2'_3  and  C1'_4 
REMARK    2  A    between atoms: C1'_4  and  C1_5 
ROOT
ATOM      1  C1  I4B d   1      -2.695   2.815  -2.267  0.00  0.00    -0.075 A 
ATOM      2  C2  I4B d   1      -3.624   1.823  -2.459  0.00  0.00     0.003 A 
ATOM      3  C3  I4B d   1      -4.945   1.981  -1.976  0.00  0.00     0.002 A 
ATOM      4  C4  I4B d   1      -5.279   3.117  -1.267  0.00  0.00    -0.004 A 
ATOM      5  C5  I4B d   1      -4.342   4.132  -1.093  0.00  0.00     0.002 A 
ATOM      6  C6  I4B d   1      -3.045   3.986  -1.607  0.00  0.00     0.003 A 
ENDROOT
BRANCH   1   7
ATOM      7  C1' I4B d   1      -1.299   2.601  -2.761  0.00  0.00     0.060 C 
BRANCH   7   8
ATOM      8  C2' I4B d   1      -0.346   2.962  -1.640  0.00  0.00    -0.013 C 
ATOM      9  C4' I4B d   1      -0.417   1.958  -0.520  0.00  0.00     0.013 C 
ATOM     10  C3' I4B d   1       1.037   3.037  -2.214  0.00  0.00     0.013 C 
ENDBRANCH   7   8
ENDBRANCH   1   7
TORSDOF 2
ENDMDL
