MODEL 1
REMARK minimizedAffinity 13.067811
REMARK minimizedRMSD -1
REMARK  2 active torsions:
REMARK  status: ('A' for Active; 'I' for Inactive)
REMARK    1  A    between atoms: C2'_3  and  C1'_4 
REMARK    2  A    between atoms: C1'_4  and  C1_5 
ROOT
ATOM      1  C1  I4B d   1       3.521  -3.795  -5.569  0.00  0.00    -0.075 A 
ATOM      2  C2  I4B d   1       3.488  -5.106  -5.975  0.00  0.00     0.003 A 
ATOM      3  C3  I4B d   1       2.425  -5.950  -5.572  0.00  0.00     0.002 A 
ATOM      4  C4  I4B d   1       1.450  -5.460  -4.728  0.00  0.00    -0.004 A 
ATOM      5  C5  I4B d   1       1.472  -4.124  -4.336  0.00  0.00     0.002 A 
ATOM      6  C6  I4B d   1       2.508  -3.283  -4.769  0.00  0.00     0.003 A 
ENDROOT
BRANCH   1   7
ATOM      7  C1' I4B d   1       4.676  -2.941  -5.986  0.00  0.00     0.060 C 
BRANCH   7   8
ATOM      8  C2' I4B d   1       5.926  -3.497  -5.337  0.00  0.00    -0.013 C 
ATOM      9  C4' I4B d   1       5.920  -3.260  -3.849  0.00  0.00     0.013 C 
ATOM     10  C3' I4B d   1       6.000  -4.961  -5.652  0.00  0.00     0.013 C 
ENDBRANCH   7   8
ENDBRANCH   1   7
TORSDOF 2
ENDMDL
