MODEL 1
REMARK minimizedAffinity 13.2321615
REMARK minimizedRMSD -1
REMARK  2 active torsions:
REMARK  status: ('A' for Active; 'I' for Inactive)
REMARK    1  A    between atoms: C2'_3  and  C1'_4 
REMARK    2  A    between atoms: C1'_4  and  C1_5 
ROOT
ATOM      1  C1  I4B d   1      -0.379  -2.284   3.936  0.00  0.00    -0.075 A 
ATOM      2  C2  I4B d   1      -1.626  -2.788   4.206  0.00  0.00     0.003 A 
ATOM      3  C3  I4B d   1      -2.415  -2.221   5.237  0.00  0.00     0.002 A 
ATOM      4  C4  I4B d   1      -1.900  -1.193   6.000  0.00  0.00    -0.004 A 
ATOM      5  C5  I4B d   1      -0.644  -0.669   5.709  0.00  0.00     0.002 A 
ATOM      6  C6  I4B d   1       0.117  -1.210   4.662  0.00  0.00     0.003 A 
ENDROOT
BRANCH   1   7
ATOM      7  C1' I4B d   1       0.441  -2.928   2.862  0.00  0.00     0.060 C 
BRANCH   7   8
ATOM      8  C2' I4B d   1       0.338  -2.068   1.619  0.00  0.00    -0.013 C 
ATOM      9  C4' I4B d   1       0.845  -0.674   1.876  0.00  0.00     0.013 C 
ATOM     10  C3' I4B d   1       1.122  -2.736   0.528  0.00  0.00     0.013 C 
ENDBRANCH   7   8
ENDBRANCH   1   7
TORSDOF 2
ENDMDL
