MODEL 1
REMARK minimizedAffinity 6.48814249
REMARK minimizedRMSD -1
REMARK  2 active torsions:
REMARK  status: ('A' for Active; 'I' for Inactive)
REMARK    1  A    between atoms: C2'_3  and  C1'_4 
REMARK    2  A    between atoms: C1'_4  and  C1_5 
ROOT
ATOM      1  C1  I4B d   1      -0.139   3.145  -2.773  0.00  0.00    -0.075 A 
ATOM      2  C2  I4B d   1      -0.554   2.047  -2.062  0.00  0.00     0.003 A 
ATOM      3  C3  I4B d   1      -0.083   1.831  -0.744  0.00  0.00     0.002 A 
ATOM      4  C4  I4B d   1       0.834   2.706  -0.198  0.00  0.00    -0.004 A 
ATOM      5  C5  I4B d   1       1.235   3.831  -0.912  0.00  0.00     0.002 A 
ATOM      6  C6  I4B d   1       0.737   4.060  -2.202  0.00  0.00     0.003 A 
ENDROOT
BRANCH   1   7
ATOM      7  C1' I4B d   1      -0.631   3.325  -4.174  0.00  0.00     0.060 C 
BRANCH   7   8
ATOM      8  C2' I4B d   1      -1.875   4.188  -4.125  0.00  0.00    -0.013 C 
ATOM      9  C4' I4B d   1      -1.522   5.653  -4.118  0.00  0.00     0.013 C 
ATOM     10  C3' I4B d   1      -2.725   3.843  -5.311  0.00  0.00     0.013 C 
ENDBRANCH   7   8
ENDBRANCH   1   7
TORSDOF 2
ENDMDL
