MODEL 1
REMARK minimizedAffinity 14.333003
REMARK minimizedRMSD -1
REMARK  2 active torsions:
REMARK  status: ('A' for Active; 'I' for Inactive)
REMARK    1  A    between atoms: C2'_3  and  C1'_4 
REMARK    2  A    between atoms: C1'_4  and  C1_5 
ROOT
ATOM      1  C1  I4B d   1      -1.449  -2.397   2.642  0.00  0.00    -0.075 A 
ATOM      2  C2  I4B d   1      -1.445  -1.504   3.685  0.00  0.00     0.003 A 
ATOM      3  C3  I4B d   1      -0.365  -0.603   3.847  0.00  0.00     0.002 A 
ATOM      4  C4  I4B d   1       0.706  -0.662   2.979  0.00  0.00    -0.004 A 
ATOM      5  C5  I4B d   1       0.689  -1.552   1.909  0.00  0.00     0.002 A 
ATOM      6  C6  I4B d   1      -0.400  -2.416   1.731  0.00  0.00     0.003 A 
ENDROOT
BRANCH   1   7
ATOM      7  C1' I4B d   1      -2.590  -3.357   2.519  0.00  0.00     0.060 C 
BRANCH   7   8
ATOM      8  C2' I4B d   1      -3.534  -2.827   1.458  0.00  0.00    -0.013 C 
ATOM      9  C4' I4B d   1      -3.704  -3.817   0.337  0.00  0.00     0.013 C 
ATOM     10  C3' I4B d   1      -4.846  -2.523   2.117  0.00  0.00     0.013 C 
ENDBRANCH   7   8
ENDBRANCH   1   7
TORSDOF 2
ENDMDL
