MODEL 1
REMARK minimizedAffinity 10.7064981
REMARK minimizedRMSD -1
REMARK  2 active torsions:
REMARK  status: ('A' for Active; 'I' for Inactive)
REMARK    1  A    between atoms: C2'_3  and  C1'_4 
REMARK    2  A    between atoms: C1'_4  and  C1_5 
ROOT
ATOM      1  C1  I4B d   1       3.595  -0.107  -0.354  0.00  0.00    -0.075 A 
ATOM      2  C2  I4B d   1       4.140  -1.313   0.013  0.00  0.00     0.003 A 
ATOM      3  C3  I4B d   1       5.280  -1.814  -0.661  0.00  0.00     0.002 A 
ATOM      4  C4  I4B d   1       5.809  -1.107  -1.721  0.00  0.00    -0.004 A 
ATOM      5  C5  I4B d   1       5.269   0.126  -2.077  0.00  0.00     0.002 A 
ATOM      6  C6  I4B d   1       4.162   0.635  -1.381  0.00  0.00     0.003 A 
ENDROOT
BRANCH   1   7
ATOM      7  C1' I4B d   1       2.371   0.377   0.357  0.00  0.00     0.060 C 
BRANCH   7   8
ATOM      8  C2' I4B d   1       1.944  -0.698   1.336  0.00  0.00    -0.013 C 
ATOM      9  C4' I4B d   1       1.492  -0.098   2.641  0.00  0.00     0.013 C 
ATOM     10  C3' I4B d   1       0.847  -1.497   0.698  0.00  0.00     0.013 C 
ENDBRANCH   7   8
ENDBRANCH   1   7
TORSDOF 2
ENDMDL
