MODEL 1
REMARK minimizedAffinity 7.3403039
REMARK minimizedRMSD -1
REMARK  2 active torsions:
REMARK  status: ('A' for Active; 'I' for Inactive)
REMARK    1  A    between atoms: C2'_3  and  C1'_4 
REMARK    2  A    between atoms: C1'_4  and  C1_5 
ROOT
ATOM      1  C1  I4B d   1      -0.778   2.937  -2.481  0.00  0.00    -0.075 A 
ATOM      2  C2  I4B d   1       0.458   2.709  -3.033  0.00  0.00     0.003 A 
ATOM      3  C3  I4B d   1       1.576   2.465  -2.199  0.00  0.00     0.002 A 
ATOM      4  C4  I4B d   1       1.424   2.508  -0.828  0.00  0.00    -0.004 A 
ATOM      5  C5  I4B d   1       0.166   2.717  -0.271  0.00  0.00     0.002 A 
ATOM      6  C6  I4B d   1      -0.945   2.920  -1.102  0.00  0.00     0.003 A 
ENDROOT
BRANCH   1   7
ATOM      7  C1' I4B d   1      -1.931   3.224  -3.390  0.00  0.00     0.060 C 
BRANCH   7   8
ATOM      8  C2' I4B d   1      -1.540   4.378  -4.291  0.00  0.00    -0.013 C 
ATOM      9  C4' I4B d   1      -2.342   4.370  -5.566  0.00  0.00     0.013 C 
ATOM     10  C3' I4B d   1      -1.749   5.652  -3.528  0.00  0.00     0.013 C 
ENDBRANCH   7   8
ENDBRANCH   1   7
TORSDOF 2
ENDMDL
