MODEL 1
REMARK minimizedAffinity 11.2879372
REMARK minimizedRMSD -1
REMARK  2 active torsions:
REMARK  status: ('A' for Active; 'I' for Inactive)
REMARK    1  A    between atoms: C2'_3  and  C1'_4 
REMARK    2  A    between atoms: C1'_4  and  C1_5 
ROOT
ATOM      1  C1  I4B d   1      -2.728   2.865  -1.555  0.00  0.00    -0.075 A 
ATOM      2  C2  I4B d   1      -1.963   3.679  -2.352  0.00  0.00     0.003 A 
ATOM      3  C3  I4B d   1      -0.555   3.527  -2.384  0.00  0.00     0.002 A 
ATOM      4  C4  I4B d   1       0.045   2.588  -1.570  0.00  0.00    -0.004 A 
ATOM      5  C5  I4B d   1      -0.735   1.748  -0.780  0.00  0.00     0.002 A 
ATOM      6  C6  I4B d   1      -2.131   1.879  -0.781  0.00  0.00     0.003 A 
ENDROOT
BRANCH   1   7
ATOM      7  C1' I4B d   1      -4.209   3.075  -1.522  0.00  0.00     0.060 C 
BRANCH   7   8
ATOM      8  C2' I4B d   1      -4.824   1.936  -0.736  0.00  0.00    -0.013 C 
ATOM      9  C4' I4B d   1      -5.237   2.383   0.642  0.00  0.00     0.013 C 
ATOM     10  C3' I4B d   1      -5.999   1.419  -1.512  0.00  0.00     0.013 C 
ENDBRANCH   7   8
ENDBRANCH   1   7
TORSDOF 2
ENDMDL
