MODEL 1
REMARK minimizedAffinity 7.99476671
REMARK minimizedRMSD -1
REMARK  2 active torsions:
REMARK  status: ('A' for Active; 'I' for Inactive)
REMARK    1  A    between atoms: C2'_3  and  C1'_4 
REMARK    2  A    between atoms: C1'_4  and  C1_5 
ROOT
ATOM      1  C1  I4B d   1      -1.059  -1.894   3.680  0.00  0.00    -0.075 A 
ATOM      2  C2  I4B d   1      -1.887  -2.192   4.734  0.00  0.00     0.003 A 
ATOM      3  C3  I4B d   1      -1.864  -1.396   5.905  0.00  0.00     0.002 A 
ATOM      4  C4  I4B d   1      -0.969  -0.350   5.999  0.00  0.00    -0.004 A 
ATOM      5  C5  I4B d   1      -0.147  -0.036   4.920  0.00  0.00     0.002 A 
ATOM      6  C6  I4B d   1      -0.201  -0.805   3.749  0.00  0.00     0.003 A 
ENDROOT
BRANCH   1   7
ATOM      7  C1' I4B d   1      -1.086  -2.776   2.472  0.00  0.00     0.060 C 
BRANCH   7   8
ATOM      8  C2' I4B d   1       0.342  -3.162   2.144  0.00  0.00    -0.013 C 
ATOM      9  C4' I4B d   1       0.671  -4.533   2.673  0.00  0.00     0.013 C 
ATOM     10  C3' I4B d   1       0.508  -3.101   0.655  0.00  0.00     0.013 C 
ENDBRANCH   7   8
ENDBRANCH   1   7
TORSDOF 2
ENDMDL
