MODEL 1
REMARK minimizedAffinity 15.7136059
REMARK minimizedRMSD -1
REMARK  2 active torsions:
REMARK  status: ('A' for Active; 'I' for Inactive)
REMARK    1  A    between atoms: C2'_3  and  C1'_4 
REMARK    2  A    between atoms: C1'_4  and  C1_5 
ROOT
ATOM      1  C1  I4B d   1       2.455  -4.222  -5.356  0.00  0.00    -0.075 A 
ATOM      2  C2  I4B d   1       1.957  -3.778  -4.156  0.00  0.00     0.003 A 
ATOM      3  C3  I4B d   1       0.876  -4.453  -3.539  0.00  0.00     0.002 A 
ATOM      4  C4  I4B d   1       0.295  -5.530  -4.177  0.00  0.00    -0.004 A 
ATOM      5  C5  I4B d   1       0.816  -5.993  -5.381  0.00  0.00     0.002 A 
ATOM      6  C6  I4B d   1       1.910  -5.343  -5.969  0.00  0.00     0.003 A 
ENDROOT
BRANCH   1   7
ATOM      7  C1' I4B d   1       3.576  -3.466  -5.996  0.00  0.00     0.060 C 
BRANCH   7   8
ATOM      8  C2' I4B d   1       4.880  -4.041  -5.483  0.00  0.00    -0.013 C 
ATOM      9  C4' I4B d   1       5.097  -5.441  -5.994  0.00  0.00     0.013 C 
ATOM     10  C3' I4B d   1       5.990  -3.129  -5.914  0.00  0.00     0.013 C 
ENDBRANCH   7   8
ENDBRANCH   1   7
TORSDOF 2
ENDMDL
