MODEL 1
REMARK minimizedAffinity 22.1319141
REMARK minimizedRMSD -1
REMARK  2 active torsions:
REMARK  status: ('A' for Active; 'I' for Inactive)
REMARK    1  A    between atoms: C2'_3  and  C1'_4 
REMARK    2  A    between atoms: C1'_4  and  C1_5 
ROOT
ATOM      1  C1  I4B d   1       1.597   0.885   0.601  0.00  0.00    -0.075 A 
ATOM      2  C2  I4B d   1       0.336   0.368   0.763  0.00  0.00     0.003 A 
ATOM      3  C3  I4B d   1       0.163  -0.979   1.161  0.00  0.00     0.002 A 
ATOM      4  C4  I4B d   1       1.271  -1.783   1.337  0.00  0.00    -0.004 A 
ATOM      5  C5  I4B d   1       2.549  -1.252   1.195  0.00  0.00     0.002 A 
ATOM      6  C6  I4B d   1       2.714   0.094   0.837  0.00  0.00     0.003 A 
ENDROOT
BRANCH   1   7
ATOM      7  C1' I4B d   1       1.743   2.303   0.148  0.00  0.00     0.060 C 
BRANCH   7   8
ATOM      8  C2' I4B d   1       0.373   2.806  -0.259  0.00  0.00    -0.013 C 
ATOM      9  C4' I4B d   1       0.111   4.182   0.293  0.00  0.00     0.013 C 
ATOM     10  C3' I4B d   1       0.304   2.801  -1.757  0.00  0.00     0.013 C 
ENDBRANCH   7   8
ENDBRANCH   1   7
TORSDOF 2
ENDMDL
