MODEL 1
REMARK minimizedAffinity 7.18541718
REMARK minimizedRMSD -1
REMARK  0 active torsions:
REMARK  status: ('A' for Active; 'I' for Inactive)
ROOT
ATOM      1  C1  DEN d   1       1.905  -2.571   1.352  0.00  0.00     0.130 A 
ATOM      2  C2  DEN d   1       1.856  -1.233   0.767  0.00  0.00    -0.031 A 
ATOM      3  C3  DEN d   1       3.229  -0.854   0.379  0.00  0.00     0.027 A 
ATOM      4  C4  DEN d   1       5.414  -2.202   0.620  0.00  0.00     0.027 A 
ATOM      5  C5  DEN d   1       5.960  -3.385   1.069  0.00  0.00    -0.003 A 
ATOM      6  C6  DEN d   1       5.204  -4.357   1.668  0.00  0.00     0.001 A 
ATOM      7  C7  DEN d   1       3.851  -4.182   1.796  0.00  0.00     0.017 A 
ATOM      8  C8  DEN d   1       3.295  -2.990   1.353  0.00  0.00    -0.094 A 
ATOM      9  C9  DEN d   1       4.074  -2.024   0.738  0.00  0.00    -0.072 A 
ENDROOT
TORSDOF 0
ENDMDL
