MODEL 1
REMARK minimizedAffinity 11.5526018
REMARK minimizedRMSD -1
REMARK  0 active torsions:
REMARK  status: ('A' for Active; 'I' for Inactive)
ROOT
ATOM      1  C1  DEN d   1      -3.894   2.499  -6.000  0.00  0.00     0.130 A 
ATOM      2  C2  DEN d   1      -5.170   2.572  -5.295  0.00  0.00    -0.031 A 
ATOM      3  C3  DEN d   1      -5.174   3.806  -4.484  0.00  0.00     0.027 A 
ATOM      4  C4  DEN d   1      -3.337   5.603  -4.255  0.00  0.00     0.027 A 
ATOM      5  C5  DEN d   1      -2.070   5.970  -4.652  0.00  0.00    -0.003 A 
ATOM      6  C6  DEN d   1      -1.315   5.195  -5.492  0.00  0.00     0.001 A 
ATOM      7  C7  DEN d   1      -1.838   4.035  -5.999  0.00  0.00     0.017 A 
ATOM      8  C8  DEN d   1      -3.112   3.655  -5.598  0.00  0.00    -0.094 A 
ATOM      9  C9  DEN d   1      -3.864   4.458  -4.758  0.00  0.00    -0.072 A 
ENDROOT
TORSDOF 0
ENDMDL
