MODEL 1
REMARK minimizedAffinity 12.2621002
REMARK minimizedRMSD -1
REMARK  0 active torsions:
REMARK  status: ('A' for Active; 'I' for Inactive)
ROOT
ATOM      1  C1  DEN d   1       2.505   4.283   3.517  0.00  0.00     0.130 A 
ATOM      2  C2  DEN d   1       1.721   4.034   4.723  0.00  0.00    -0.031 A 
ATOM      3  C3  DEN d   1       2.537   4.430   5.888  0.00  0.00     0.027 A 
ATOM      4  C4  DEN d   1       4.925   5.404   5.940  0.00  0.00     0.027 A 
ATOM      5  C5  DEN d   1       6.000   5.783   5.167  0.00  0.00    -0.003 A 
ATOM      6  C6  DEN d   1       5.998   5.658   3.803  0.00  0.00     0.001 A 
ATOM      7  C7  DEN d   1       4.882   5.184   3.166  0.00  0.00     0.017 A 
ATOM      8  C8  DEN d   1       3.797   4.792   3.940  0.00  0.00    -0.094 A 
ATOM      9  C9  DEN d   1       3.814   4.937   5.317  0.00  0.00    -0.072 A 
ENDROOT
TORSDOF 0
ENDMDL
