MODEL 1
REMARK minimizedAffinity 14.2378254
REMARK minimizedRMSD -1
REMARK  0 active torsions:
REMARK  status: ('A' for Active; 'I' for Inactive)
ROOT
ATOM      1  C1  DEN d   1      -3.861  -1.805  -3.803  0.00  0.00     0.130 A 
ATOM      2  C2  DEN d   1      -5.152  -1.128  -3.884  0.00  0.00    -0.031 A 
ATOM      3  C3  DEN d   1      -5.033   0.168  -3.187  0.00  0.00     0.027 A 
ATOM      4  C4  DEN d   1      -2.983   1.191  -2.002  0.00  0.00     0.027 A 
ATOM      5  C5  DEN d   1      -1.664   0.984  -1.662  0.00  0.00    -0.003 A 
ATOM      6  C6  DEN d   1      -1.001  -0.172  -1.979  0.00  0.00     0.001 A 
ATOM      7  C7  DEN d   1      -1.641  -1.147  -2.697  0.00  0.00     0.017 A 
ATOM      8  C8  DEN d   1      -2.973  -0.949  -3.037  0.00  0.00    -0.094 A 
ATOM      9  C9  DEN d   1      -3.622   0.231  -2.718  0.00  0.00    -0.072 A 
ENDROOT
TORSDOF 0
ENDMDL
