MODEL 1
REMARK minimizedAffinity 3.29853463
REMARK minimizedRMSD -1
REMARK  0 active torsions:
REMARK  status: ('A' for Active; 'I' for Inactive)
ROOT
ATOM      1  C1  DEN d   1       2.316   5.908   6.000  0.00  0.00     0.130 A 
ATOM      2  C2  DEN d   1       1.346   5.548   4.969  0.00  0.00    -0.031 A 
ATOM      3  C3  DEN d   1       2.093   5.164   3.754  0.00  0.00     0.027 A 
ATOM      4  C4  DEN d   1       4.642   5.088   3.373  0.00  0.00     0.027 A 
ATOM      5  C5  DEN d   1       5.871   5.316   3.951  0.00  0.00    -0.003 A 
ATOM      6  C6  DEN d   1       6.000   5.785   5.232  0.00  0.00     0.001 A 
ATOM      7  C7  DEN d   1       4.880   6.000   5.991  0.00  0.00     0.017 A 
ATOM      8  C8  DEN d   1       3.637   5.779   5.412  0.00  0.00    -0.094 A 
ATOM      9  C9  DEN d   1       3.529   5.293   4.121  0.00  0.00    -0.072 A 
ENDROOT
TORSDOF 0
ENDMDL
