MODEL 1
REMARK minimizedAffinity 5.2786727
REMARK minimizedRMSD -1
REMARK  0 active torsions:
REMARK  status: ('A' for Active; 'I' for Inactive)
ROOT
ATOM      1  C1  DEN d   1       2.452   5.164   5.860  0.00  0.00     0.130 A 
ATOM      2  C2  DEN d   1       1.585   4.452   4.925  0.00  0.00    -0.031 A 
ATOM      3  C3  DEN d   1       2.363   4.177   3.701  0.00  0.00     0.027 A 
ATOM      4  C4  DEN d   1       4.814   4.778   3.166  0.00  0.00     0.027 A 
ATOM      5  C5  DEN d   1       5.949   5.393   3.646  0.00  0.00    -0.003 A 
ATOM      6  C6  DEN d   1       5.987   6.000   4.873  0.00  0.00     0.001 A 
ATOM      7  C7  DEN d   1       4.882   5.966   5.682  0.00  0.00     0.017 A 
ATOM      8  C8  DEN d   1       3.732   5.353   5.203  0.00  0.00    -0.094 A 
ATOM      9  C9  DEN d   1       3.717   4.735   3.964  0.00  0.00    -0.072 A 
ENDROOT
TORSDOF 0
ENDMDL
