MODEL 1
REMARK minimizedAffinity 10.9000673
REMARK minimizedRMSD -1
REMARK  0 active torsions:
REMARK  status: ('A' for Active; 'I' for Inactive)
ROOT
ATOM      1  C1  DEN d   1       2.314  -5.241   0.026  0.00  0.00     0.130 A 
ATOM      2  C2  DEN d   1       1.675  -4.117   0.705  0.00  0.00    -0.031 A 
ATOM      3  C3  DEN d   1       2.627  -2.989   0.715  0.00  0.00     0.027 A 
ATOM      4  C4  DEN d   1       5.014  -2.871  -0.255  0.00  0.00     0.027 A 
ATOM      5  C5  DEN d   1       5.994  -3.580  -0.914  0.00  0.00    -0.003 A 
ATOM      6  C6  DEN d   1       5.830  -4.892  -1.273  0.00  0.00     0.001 A 
ATOM      7  C7  DEN d   1       4.642  -5.523  -1.014  0.00  0.00     0.017 A 
ATOM      8  C8  DEN d   1       3.652  -4.817  -0.344  0.00  0.00    -0.094 A 
ATOM      9  C9  DEN d   1       3.833  -3.488  -0.000  0.00  0.00    -0.072 A 
ENDROOT
TORSDOF 0
ENDMDL
