MODEL 1
REMARK minimizedAffinity -2.28441286
REMARK minimizedRMSD -1
REMARK  0 active torsions:
REMARK  status: ('A' for Active; 'I' for Inactive)
ROOT
ATOM      1  C1  DEN d   1       5.239   4.589   4.096  0.00  0.00     0.130 A 
ATOM      2  C2  DEN d   1       5.998   5.316   5.110  0.00  0.00    -0.031 A 
ATOM      3  C3  DEN d   1       5.035   6.000   5.997  0.00  0.00     0.027 A 
ATOM      4  C4  DEN d   1       2.458   6.000   5.902  0.00  0.00     0.027 A 
ATOM      5  C5  DEN d   1       1.360   5.535   5.211  0.00  0.00    -0.003 A 
ATOM      6  C6  DEN d   1       1.478   4.757   4.090  0.00  0.00     0.001 A 
ATOM      7  C7  DEN d   1       2.721   4.382   3.652  0.00  0.00     0.017 A 
ATOM      8  C8  DEN d   1       3.832   4.853   4.338  0.00  0.00    -0.094 A 
ATOM      9  C9  DEN d   1       3.692   5.628   5.477  0.00  0.00    -0.072 A 
ENDROOT
TORSDOF 0
ENDMDL
