MODEL 1
REMARK minimizedAffinity 4.74445105
REMARK minimizedRMSD -1
REMARK  0 active torsions:
REMARK  status: ('A' for Active; 'I' for Inactive)
ROOT
ATOM      1  C1  DEN d   1       1.517   3.823   2.920  0.00  0.00     0.130 A 
ATOM      2  C2  DEN d   1       0.139   3.728   3.394  0.00  0.00    -0.031 A 
ATOM      3  C3  DEN d   1       0.052   4.432   4.689  0.00  0.00     0.027 A 
ATOM      4  C4  DEN d   1       1.905   5.660   5.996  0.00  0.00     0.027 A 
ATOM      5  C5  DEN d   1       3.240   6.000   5.999  0.00  0.00    -0.003 A 
ATOM      6  C6  DEN d   1       4.094   5.612   5.001  0.00  0.00     0.001 A 
ATOM      7  C7  DEN d   1       3.613   4.900   3.935  0.00  0.00     0.017 A 
ATOM      8  C8  DEN d   1       2.270   4.547   3.928  0.00  0.00    -0.094 A 
ATOM      9  C9  DEN d   1       1.420   4.959   4.940  0.00  0.00    -0.072 A 
ENDROOT
TORSDOF 0
ENDMDL
