MODEL 1
REMARK minimizedAffinity 9.47625446
REMARK minimizedRMSD -1
REMARK  0 active torsions:
REMARK  status: ('A' for Active; 'I' for Inactive)
ROOT
ATOM      1  C   UNL d   1       1.334  -2.323  -1.895  0.00  0.00    -0.002 A 
ATOM      2  C1  UNL d   1       0.689  -3.311  -1.163  0.00  0.00     0.010 A 
ATOM      3  C2  UNL d   1       0.910  -3.435   0.210  0.00  0.00     0.041 A 
ATOM      4  C3  UNL d   1       1.796  -2.541   0.842  0.00  0.00    -0.075 A 
ATOM      5  S   UNL d   1       2.218  -2.503   2.513  0.00  0.00     0.015 SA
ATOM      6  C4  UNL d   1       3.264  -1.175   2.295  0.00  0.00     0.022 A 
ATOM      7  C5  UNL d   1       3.301  -0.757   0.986  0.00  0.00     0.026 A 
ATOM      8  C6  UNL d   1       2.456  -1.537   0.127  0.00  0.00    -0.082 A 
ATOM      9  C7  UNL d   1       2.212  -1.438  -1.264  0.00  0.00     0.045 A 
ENDROOT
TORSDOF 0
ENDMDL
