MODEL 1
REMARK minimizedAffinity 23.3473167
REMARK minimizedRMSD -1
REMARK  0 active torsions:
REMARK  status: ('A' for Active; 'I' for Inactive)
ROOT
ATOM      1  C   UNL d   1      -1.042   2.026   1.891  0.00  0.00    -0.002 A 
ATOM      2  C1  UNL d   1      -0.869   2.691   0.685  0.00  0.00     0.010 A 
ATOM      3  C2  UNL d   1       0.194   2.365  -0.160  0.00  0.00     0.041 A 
ATOM      4  C3  UNL d   1       1.087   1.347   0.230  0.00  0.00    -0.075 A 
ATOM      5  S   UNL d   1       2.460   0.778  -0.644  0.00  0.00     0.015 SA
ATOM      6  C4  UNL d   1       2.848  -0.362   0.562  0.00  0.00     0.022 A 
ATOM      7  C5  UNL d   1       1.963  -0.322   1.613  0.00  0.00     0.026 A 
ATOM      8  C6  UNL d   1       0.933   0.663   1.439  0.00  0.00    -0.082 A 
ATOM      9  C7  UNL d   1      -0.154   1.018   2.274  0.00  0.00     0.045 A 
ENDROOT
TORSDOF 0
ENDMDL
