MODEL 1
REMARK minimizedAffinity 5.88120699
REMARK minimizedRMSD -1
REMARK  0 active torsions:
REMARK  status: ('A' for Active; 'I' for Inactive)
ROOT
ATOM      1  C   UNL d   1      -5.642   1.130  -0.383  0.00  0.00    -0.002 A 
ATOM      2  C1  UNL d   1      -6.000   2.219  -1.165  0.00  0.00     0.010 A 
ATOM      3  C2  UNL d   1      -5.200   2.617  -2.238  0.00  0.00     0.041 A 
ATOM      4  C3  UNL d   1      -4.024   1.893  -2.517  0.00  0.00    -0.075 A 
ATOM      5  S   UNL d   1      -2.892   2.196  -3.781  0.00  0.00     0.015 SA
ATOM      6  C4  UNL d   1      -1.906   0.886  -3.313  0.00  0.00     0.022 A 
ATOM      7  C5  UNL d   1      -2.414   0.223  -2.221  0.00  0.00     0.026 A 
ATOM      8  C6  UNL d   1      -3.643   0.791  -1.745  0.00  0.00    -0.082 A 
ATOM      9  C7  UNL d   1      -4.475   0.414  -0.663  0.00  0.00     0.045 A 
ENDROOT
TORSDOF 0
ENDMDL
