MODEL 1
REMARK minimizedAffinity 1.7668469
REMARK minimizedRMSD -1
REMARK  0 active torsions:
REMARK  status: ('A' for Active; 'I' for Inactive)
ROOT
ATOM      1  C   UNL d   1       2.783  -1.857   0.441  0.00  0.00    -0.002 A 
ATOM      2  C1  UNL d   1       1.721  -2.219  -0.375  0.00  0.00     0.010 A 
ATOM      3  C2  UNL d   1       0.837  -1.254  -0.860  0.00  0.00     0.041 A 
ATOM      4  C3  UNL d   1       1.041   0.095  -0.509  0.00  0.00    -0.075 A 
ATOM      5  S   UNL d   1       0.086   1.450  -0.986  0.00  0.00     0.015 SA
ATOM      6  C4  UNL d   1       1.066   2.541  -0.118  0.00  0.00     0.022 A 
ATOM      7  C5  UNL d   1       2.101   1.905   0.526  0.00  0.00     0.026 A 
ATOM      8  C6  UNL d   1       2.104   0.485   0.311  0.00  0.00    -0.082 A 
ATOM      9  C7  UNL d   1       2.982  -0.518   0.787  0.00  0.00     0.045 A 
ENDROOT
TORSDOF 0
ENDMDL
