MODEL 1
REMARK minimizedAffinity 10.7448273
REMARK minimizedRMSD -1
REMARK  0 active torsions:
REMARK  status: ('A' for Active; 'I' for Inactive)
ROOT
ATOM      1  C   UNL d   1       2.843  -2.277  -0.078  0.00  0.00    -0.002 A 
ATOM      2  C1  UNL d   1       1.479  -2.518  -0.165  0.00  0.00     0.010 A 
ATOM      3  C2  UNL d   1       0.567  -1.462  -0.117  0.00  0.00     0.041 A 
ATOM      4  C3  UNL d   1       1.054  -0.147   0.019  0.00  0.00    -0.075 A 
ATOM      5  S   UNL d   1       0.123   1.302   0.100  0.00  0.00     0.015 SA
ATOM      6  C4  UNL d   1       1.514   2.275   0.250  0.00  0.00     0.022 A 
ATOM      7  C5  UNL d   1       2.669   1.529   0.242  0.00  0.00     0.026 A 
ATOM      8  C6  UNL d   1       2.423   0.121   0.108  0.00  0.00    -0.082 A 
ATOM      9  C7  UNL d   1       3.322  -0.971   0.057  0.00  0.00     0.045 A 
ENDROOT
TORSDOF 0
ENDMDL
