MODEL 1
REMARK minimizedAffinity 8.42449856
REMARK minimizedRMSD -1
REMARK  0 active torsions:
REMARK  status: ('A' for Active; 'I' for Inactive)
ROOT
ATOM      1  C   UNL d   1       5.330   0.105   1.270  0.00  0.00    -0.002 A 
ATOM      2  C1  UNL d   1       4.541   0.875   0.427  0.00  0.00     0.010 A 
ATOM      3  C2  UNL d   1       3.325   0.385  -0.053  0.00  0.00     0.041 A 
ATOM      4  C3  UNL d   1       2.909  -0.904   0.335  0.00  0.00    -0.075 A 
ATOM      5  S   UNL d   1       1.458  -1.712  -0.127  0.00  0.00     0.015 SA
ATOM      6  C4  UNL d   1       1.850  -3.097   0.785  0.00  0.00     0.022 A 
ATOM      7  C5  UNL d   1       3.055  -2.965   1.432  0.00  0.00     0.026 A 
ATOM      8  C6  UNL d   1       3.686  -1.699   1.184  0.00  0.00    -0.082 A 
ATOM      9  C7  UNL d   1       4.914  -1.173   1.652  0.00  0.00     0.045 A 
ENDROOT
TORSDOF 0
ENDMDL
