MODEL 1
REMARK minimizedAffinity 8.59835339
REMARK minimizedRMSD -1
REMARK  0 active torsions:
REMARK  status: ('A' for Active; 'I' for Inactive)
ROOT
ATOM      1  C   UNL d   1       3.305  -0.591   1.634  0.00  0.00    -0.002 A 
ATOM      2  C1  UNL d   1       2.686  -1.711   1.098  0.00  0.00     0.010 A 
ATOM      3  C2  UNL d   1       2.837  -2.029  -0.253  0.00  0.00     0.041 A 
ATOM      4  C3  UNL d   1       3.631  -1.194  -1.064  0.00  0.00    -0.075 A 
ATOM      5  S   UNL d   1       3.959  -1.387  -2.746  0.00  0.00     0.015 SA
ATOM      6  C4  UNL d   1       4.930   0.012  -2.793  0.00  0.00     0.022 A 
ATOM      7  C5  UNL d   1       5.013   0.624  -1.565  0.00  0.00     0.026 A 
ATOM      8  C6  UNL d   1       4.266  -0.061  -0.548  0.00  0.00    -0.082 A 
ATOM      9  C7  UNL d   1       4.092   0.234   0.826  0.00  0.00     0.045 A 
ENDROOT
TORSDOF 0
ENDMDL
