MODEL 1
REMARK minimizedAffinity 17.7667027
REMARK minimizedRMSD -1
REMARK  0 active torsions:
REMARK  status: ('A' for Active; 'I' for Inactive)
ROOT
ATOM      1  C   UNL d   1       3.106  -1.674   0.157  0.00  0.00    -0.002 A 
ATOM      2  C1  UNL d   1       2.618  -0.385  -0.004  0.00  0.00     0.010 A 
ATOM      3  C2  UNL d   1       1.863   0.219   1.004  0.00  0.00     0.041 A 
ATOM      4  C3  UNL d   1       1.606  -0.500   2.187  0.00  0.00    -0.075 A 
ATOM      5  S   UNL d   1       0.706   0.038   3.556  0.00  0.00     0.015 SA
ATOM      6  C4  UNL d   1       0.949  -1.431   4.386  0.00  0.00     0.022 A 
ATOM      7  C5  UNL d   1       1.696  -2.321   3.652  0.00  0.00     0.026 A 
ATOM      8  C6  UNL d   1       2.087  -1.799   2.372  0.00  0.00    -0.082 A 
ATOM      9  C7  UNL d   1       2.848  -2.385   1.332  0.00  0.00     0.045 A 
ENDROOT
TORSDOF 0
ENDMDL
