MODEL 1
REMARK minimizedAffinity 2.42692375
REMARK minimizedRMSD -1
REMARK  0 active torsions:
REMARK  status: ('A' for Active; 'I' for Inactive)
ROOT
ATOM      1  C   UNL d   1       4.581   1.208  -2.238  0.00  0.00    -0.002 A 
ATOM      2  C1  UNL d   1       3.761   2.014  -1.462  0.00  0.00     0.010 A 
ATOM      3  C2  UNL d   1       2.722   1.458  -0.712  0.00  0.00     0.041 A 
ATOM      4  C3  UNL d   1       2.521   0.064  -0.754  0.00  0.00    -0.075 A 
ATOM      5  S   UNL d   1       1.313  -0.838   0.082  0.00  0.00     0.015 SA
ATOM      6  C4  UNL d   1       1.858  -2.315  -0.571  0.00  0.00     0.022 A 
ATOM      7  C5  UNL d   1       2.934  -2.142  -1.409  0.00  0.00     0.026 A 
ATOM      8  C6  UNL d   1       3.334  -0.768  -1.528  0.00  0.00    -0.082 A 
ATOM      9  C7  UNL d   1       4.378  -0.174  -2.278  0.00  0.00     0.045 A 
ENDROOT
TORSDOF 0
ENDMDL
