MODEL 1
REMARK minimizedAffinity 17.6402206
REMARK minimizedRMSD -1
REMARK  1 active torsions:
REMARK  status: ('A' for Active; 'I' for Inactive)
REMARK    1  A    between atoms: C1_2  and  C2_3 
ROOT
ATOM      1  C2  UNL d   1       2.482  -1.156  -1.057  0.00  0.00    -0.076 A 
ATOM      2  C3  UNL d   1       2.783  -0.062  -1.887  0.00  0.00     0.004 A 
ATOM      3  C4  UNL d   1       3.094   1.184  -1.347  0.00  0.00    -0.003 A 
ATOM      4  C5  UNL d   1       3.110   1.357   0.033  0.00  0.00     0.000 A 
ATOM      5  C6  UNL d   1       2.832   0.278   0.872  0.00  0.00     0.000 A 
ATOM      6  C7  UNL d   1       2.532  -0.989   0.343  0.00  0.00    -0.073 A 
ATOM      7  C8  UNL d   1       2.234  -2.116   1.294  0.00  0.00     0.078 C 
ENDROOT
BRANCH   1   8
ATOM      8  C1  UNL d   1       2.126  -2.477  -1.701  0.00  0.00     0.053 C 
ATOM      9  C   UNL d   1       2.281  -2.449  -3.213  0.00  0.00     0.018 C 
ENDBRANCH   1   8
TORSDOF 1
ENDMDL
