MODEL 1
REMARK minimizedAffinity 13.4318705
REMARK minimizedRMSD -1
REMARK  1 active torsions:
REMARK  status: ('A' for Active; 'I' for Inactive)
REMARK    1  A    between atoms: C1_2  and  C2_3 
ROOT
ATOM      1  C2  UNL d   1       4.913   1.421   1.505  0.00  0.00    -0.076 A 
ATOM      2  C3  UNL d   1       4.618   2.680   2.057  0.00  0.00     0.004 A 
ATOM      3  C4  UNL d   1       4.999   3.000   3.360  0.00  0.00    -0.003 A 
ATOM      4  C5  UNL d   1       5.682   2.066   4.131  0.00  0.00     0.000 A 
ATOM      5  C6  UNL d   1       6.000   0.819   3.593  0.00  0.00     0.000 A 
ATOM      6  C7  UNL d   1       5.637   0.487   2.276  0.00  0.00    -0.073 A 
ATOM      7  C8  UNL d   1       6.000  -0.875   1.750  0.00  0.00     0.078 C 
ENDROOT
BRANCH   1   8
ATOM      8  C1  UNL d   1       4.451   1.121   0.097  0.00  0.00     0.053 C 
ATOM      9  C   UNL d   1       2.993   0.691   0.042  0.00  0.00     0.018 C 
ENDBRANCH   1   8
TORSDOF 1
ENDMDL
