MODEL 1
REMARK minimizedAffinity 7.08745098
REMARK minimizedRMSD -1
REMARK  1 active torsions:
REMARK  status: ('A' for Active; 'I' for Inactive)
REMARK    1  A    between atoms: C1_2  and  C2_3 
ROOT
ATOM      1  C2  UNL d   1       3.663  -0.414   0.799  0.00  0.00    -0.076 A 
ATOM      2  C3  UNL d   1       2.903  -1.257  -0.029  0.00  0.00     0.004 A 
ATOM      3  C4  UNL d   1       2.101  -0.735  -1.043  0.00  0.00    -0.003 A 
ATOM      4  C5  UNL d   1       2.047   0.640  -1.245  0.00  0.00     0.000 A 
ATOM      5  C6  UNL d   1       2.809   1.490  -0.444  0.00  0.00     0.000 A 
ATOM      6  C7  UNL d   1       3.635   0.979   0.572  0.00  0.00    -0.073 A 
ATOM      7  C8  UNL d   1       4.429   1.943   1.410  0.00  0.00     0.078 C 
ENDROOT
BRANCH   1   8
ATOM      8  C1  UNL d   1       4.493  -1.035   1.900  0.00  0.00     0.053 C 
ATOM      9  C   UNL d   1       5.987  -0.913   1.643  0.00  0.00     0.018 C 
ENDBRANCH   1   8
TORSDOF 1
ENDMDL
