MODEL 1
REMARK minimizedAffinity 11.5686455
REMARK minimizedRMSD -1
REMARK  1 active torsions:
REMARK  status: ('A' for Active; 'I' for Inactive)
REMARK    1  A    between atoms: C1_2  and  C2_3 
ROOT
ATOM      1  C2  UNL d   1       4.266   0.741  -0.025  0.00  0.00    -0.076 A 
ATOM      2  C3  UNL d   1       3.288   0.183   0.816  0.00  0.00     0.004 A 
ATOM      3  C4  UNL d   1       1.941   0.192   0.455  0.00  0.00    -0.003 A 
ATOM      4  C5  UNL d   1       1.552   0.757  -0.754  0.00  0.00     0.000 A 
ATOM      5  C6  UNL d   1       2.511   1.299  -1.609  0.00  0.00     0.000 A 
ATOM      6  C7  UNL d   1       3.874   1.284  -1.267  0.00  0.00    -0.073 A 
ATOM      7  C8  UNL d   1       4.865   1.888  -2.224  0.00  0.00     0.078 C 
ENDROOT
BRANCH   1   8
ATOM      8  C1  UNL d   1       5.707   0.727   0.432  0.00  0.00     0.053 C 
ATOM      9  C   UNL d   1       6.000  -0.405   1.404  0.00  0.00     0.018 C 
ENDBRANCH   1   8
TORSDOF 1
ENDMDL
