MODEL 1
REMARK minimizedAffinity 6.80270338
REMARK minimizedRMSD -1
REMARK  1 active torsions:
REMARK  status: ('A' for Active; 'I' for Inactive)
REMARK    1  A    between atoms: C1_2  and  C2_3 
ROOT
ATOM      1  C2  UNL d   1       3.439   1.110  -0.773  0.00  0.00    -0.076 A 
ATOM      2  C3  UNL d   1       4.432   1.202   0.218  0.00  0.00     0.004 A 
ATOM      3  C4  UNL d   1       4.495   0.277   1.258  0.00  0.00    -0.003 A 
ATOM      4  C5  UNL d   1       3.567  -0.756   1.324  0.00  0.00     0.000 A 
ATOM      5  C6  UNL d   1       2.586  -0.874   0.340  0.00  0.00     0.000 A 
ATOM      6  C7  UNL d   1       2.519   0.041  -0.725  0.00  0.00    -0.073 A 
ATOM      7  C8  UNL d   1       1.436  -0.129  -1.755  0.00  0.00     0.078 C 
ENDROOT
BRANCH   1   8
ATOM      8  C1  UNL d   1       3.403   2.158  -1.862  0.00  0.00     0.053 C 
ATOM      9  C   UNL d   1       4.792   2.635  -2.258  0.00  0.00     0.018 C 
ENDBRANCH   1   8
TORSDOF 1
ENDMDL
