MODEL 1
REMARK minimizedAffinity 8.31601143
REMARK minimizedRMSD -1
REMARK  1 active torsions:
REMARK  status: ('A' for Active; 'I' for Inactive)
REMARK    1  A    between atoms: C1_2  and  C2_3 
ROOT
ATOM      1  C2  UNL d   1       4.063   0.784   0.210  0.00  0.00    -0.076 A 
ATOM      2  C3  UNL d   1       3.962  -0.213   1.196  0.00  0.00     0.004 A 
ATOM      3  C4  UNL d   1       3.261  -1.393   0.954  0.00  0.00    -0.003 A 
ATOM      4  C5  UNL d   1       2.651  -1.596  -0.279  0.00  0.00     0.000 A 
ATOM      5  C6  UNL d   1       2.757  -0.626  -1.275  0.00  0.00     0.000 A 
ATOM      6  C7  UNL d   1       3.473   0.562  -1.053  0.00  0.00    -0.073 A 
ATOM      7  C8  UNL d   1       3.550   1.577  -2.160  0.00  0.00     0.078 C 
ENDROOT
BRANCH   1   8
ATOM      8  C1  UNL d   1       4.813   2.055   0.540  0.00  0.00     0.053 C 
ATOM      9  C   UNL d   1       4.264   2.752   1.775  0.00  0.00     0.018 C 
ENDBRANCH   1   8
TORSDOF 1
ENDMDL
