MODEL 1
REMARK minimizedAffinity 14.4738388
REMARK minimizedRMSD -1
REMARK  1 active torsions:
REMARK  status: ('A' for Active; 'I' for Inactive)
REMARK    1  A    between atoms: C1_2  and  C2_3 
ROOT
ATOM      1  C2  UNL d   1      -4.364   0.128  -2.613  0.00  0.00    -0.076 A 
ATOM      2  C3  UNL d   1      -5.323   0.489  -1.650  0.00  0.00     0.004 A 
ATOM      3  C4  UNL d   1      -4.946   0.806  -0.346  0.00  0.00    -0.003 A 
ATOM      4  C5  UNL d   1      -3.604   0.770   0.016  0.00  0.00     0.000 A 
ATOM      5  C6  UNL d   1      -2.638   0.432  -0.931  0.00  0.00     0.000 A 
ATOM      6  C7  UNL d   1      -2.999   0.124  -2.254  0.00  0.00    -0.073 A 
ATOM      7  C8  UNL d   1      -1.916  -0.239  -3.232  0.00  0.00     0.078 C 
ENDROOT
BRANCH   1   8
ATOM      8  C1  UNL d   1      -4.835  -0.232  -4.004  0.00  0.00     0.053 C 
ATOM      9  C   UNL d   1      -5.991   0.637  -4.471  0.00  0.00     0.018 C 
ENDBRANCH   1   8
TORSDOF 1
ENDMDL
