MODEL 1
REMARK minimizedAffinity 0.687116623
REMARK minimizedRMSD -1
REMARK  1 active torsions:
REMARK  status: ('A' for Active; 'I' for Inactive)
REMARK    1  A    between atoms: C1_2  and  C2_3 
ROOT
ATOM      1  C2  UNL d   1       3.003   0.778  -0.735  0.00  0.00    -0.076 A 
ATOM      2  C3  UNL d   1       2.611  -0.312  -1.532  0.00  0.00     0.004 A 
ATOM      3  C4  UNL d   1       2.283  -1.539  -0.959  0.00  0.00    -0.003 A 
ATOM      4  C5  UNL d   1       2.342  -1.697   0.421  0.00  0.00     0.000 A 
ATOM      5  C6  UNL d   1       2.712  -0.622   1.229  0.00  0.00     0.000 A 
ATOM      6  C7  UNL d   1       3.030   0.626   0.668  0.00  0.00    -0.073 A 
ATOM      7  C8  UNL d   1       3.428   1.749   1.586  0.00  0.00     0.078 C 
ENDROOT
BRANCH   1   8
ATOM      8  C1  UNL d   1       3.374   2.077  -1.414  0.00  0.00     0.053 C 
ATOM      9  C   UNL d   1       4.843   2.133  -1.802  0.00  0.00     0.018 C 
ENDBRANCH   1   8
TORSDOF 1
ENDMDL
