MODEL 1
REMARK minimizedAffinity 12.3637037
REMARK minimizedRMSD -1
REMARK  1 active torsions:
REMARK  status: ('A' for Active; 'I' for Inactive)
REMARK    1  A    between atoms: C1_2  and  C2_3 
ROOT
ATOM      1  C2  UNL d   1      -4.911   1.989  -1.161  0.00  0.00    -0.076 A 
ATOM      2  C3  UNL d   1      -4.601   3.240  -0.600  0.00  0.00     0.004 A 
ATOM      3  C4  UNL d   1      -4.955   4.424  -1.246  0.00  0.00    -0.003 A 
ATOM      4  C5  UNL d   1      -5.625   4.375  -2.463  0.00  0.00     0.000 A 
ATOM      5  C6  UNL d   1      -5.956   3.143  -3.026  0.00  0.00     0.000 A 
ATOM      6  C7  UNL d   1      -5.621   1.940  -2.380  0.00  0.00    -0.073 A 
ATOM      7  C8  UNL d   1      -5.997   0.640  -3.035  0.00  0.00     0.078 C 
ENDROOT
BRANCH   1   8
ATOM      8  C1  UNL d   1      -4.478   0.739  -0.428  0.00  0.00     0.053 C 
ATOM      9  C   UNL d   1      -3.379  -0.015  -1.161  0.00  0.00     0.018 C 
ENDBRANCH   1   8
TORSDOF 1
ENDMDL
