MODEL 1
REMARK minimizedAffinity 1.99863815
REMARK minimizedRMSD -1
REMARK  1 active torsions:
REMARK  status: ('A' for Active; 'I' for Inactive)
REMARK    1  A    between atoms: C1_2  and  C2_3 
ROOT
ATOM      1  C2  UNL d   1       2.471   2.587   4.688  0.00  0.00    -0.076 A 
ATOM      2  C3  UNL d   1       3.032   2.945   5.926  0.00  0.00     0.004 A 
ATOM      3  C4  UNL d   1       4.242   3.635   5.993  0.00  0.00    -0.003 A 
ATOM      4  C5  UNL d   1       4.909   3.978   4.823  0.00  0.00     0.000 A 
ATOM      5  C6  UNL d   1       4.359   3.646   3.585  0.00  0.00     0.000 A 
ATOM      6  C7  UNL d   1       3.132   2.965   3.500  0.00  0.00    -0.073 A 
ATOM      7  C8  UNL d   1       2.587   2.626   2.140  0.00  0.00     0.078 C 
ENDROOT
BRANCH   1   8
ATOM      8  C1  UNL d   1       1.171   1.815   4.679  0.00  0.00     0.053 C 
ATOM      9  C   UNL d   1       1.381   0.321   4.490  0.00  0.00     0.018 C 
ENDBRANCH   1   8
TORSDOF 1
ENDMDL
