MODEL 1
REMARK minimizedAffinity -3.31207895
REMARK minimizedRMSD -1
REMARK  3 active torsions:
REMARK  status: ('A' for Active; 'I' for Inactive)
REMARK    1  A    between atoms: C3'_2  and  C2'_3 
REMARK    2  A    between atoms: C2'_3  and  C1'_4 
REMARK    3  A    between atoms: C1'_4  and  C1_5 
ROOT
ATOM      1  C1  N4B d   1       0.255   0.008  -0.387  0.00  0.00    -0.075 A 
ATOM      2  C2  N4B d   1       1.467   0.646  -0.732  0.00  0.00     0.002 A 
ATOM      3  C3  N4B d   1       2.667   0.076  -0.383  0.00  0.00     0.002 A 
ATOM      4  C4  N4B d   1       2.680  -1.117   0.324  0.00  0.00    -0.004 A 
ATOM      5  C5  N4B d   1       1.506  -1.740   0.631  0.00  0.00     0.002 A 
ATOM      6  C6  N4B d   1       0.292  -1.181   0.283  0.00  0.00     0.002 A 
ENDROOT
BRANCH   1   7
ATOM      7  C1' N4B d   1      -1.082   0.636  -0.671  0.00  0.00     0.057 C 
BRANCH   7   8
ATOM      8  C2' N4B d   1      -0.871   1.934  -1.444  0.00  0.00     0.009 C 
BRANCH   8   9
ATOM      9  C3' N4B d   1      -1.612   1.932  -2.770  0.00  0.00     0.004 C 
ATOM     10  C4' N4B d   1      -2.853   1.091  -2.741  0.00  0.00     0.003 C 
ENDBRANCH   8   9
ENDBRANCH   7   8
ENDBRANCH   1   7
TORSDOF 3
ENDMDL
