MODEL 1
REMARK minimizedAffinity -3.9355092
REMARK minimizedRMSD -1
REMARK  3 active torsions:
REMARK  status: ('A' for Active; 'I' for Inactive)
REMARK    1  A    between atoms: C3'_2  and  C2'_3 
REMARK    2  A    between atoms: C2'_3  and  C1'_4 
REMARK    3  A    between atoms: C1'_4  and  C1_5 
ROOT
ATOM      1  C1  N4B d   1      -1.173   1.677  -1.292  0.00  0.00    -0.075 A 
ATOM      2  C2  N4B d   1      -0.585   2.158  -2.482  0.00  0.00     0.002 A 
ATOM      3  C3  N4B d   1      -1.293   2.128  -3.659  0.00  0.00     0.002 A 
ATOM      4  C4  N4B d   1      -2.579   1.607  -3.672  0.00  0.00    -0.004 A 
ATOM      5  C5  N4B d   1      -3.149   1.169  -2.513  0.00  0.00     0.002 A 
ATOM      6  C6  N4B d   1      -2.450   1.196  -1.323  0.00  0.00     0.002 A 
ENDROOT
BRANCH   1   7
ATOM      7  C1' N4B d   1      -0.407   1.610   0.001  0.00  0.00     0.057 C 
BRANCH   7   8
ATOM      8  C2' N4B d   1       0.818   0.721  -0.188  0.00  0.00     0.009 C 
BRANCH   8   9
ATOM      9  C3' N4B d   1       0.532  -0.726   0.174  0.00  0.00     0.004 C 
ATOM     10  C4' N4B d   1       1.609  -1.338   1.019  0.00  0.00     0.003 C 
ENDBRANCH   8   9
ENDBRANCH   7   8
ENDBRANCH   1   7
TORSDOF 3
ENDMDL
