MODEL 1
REMARK minimizedAffinity -2.98020029
REMARK minimizedRMSD -1
REMARK  3 active torsions:
REMARK  status: ('A' for Active; 'I' for Inactive)
REMARK    1  A    between atoms: C3'_2  and  C2'_3 
REMARK    2  A    between atoms: C2'_3  and  C1'_4 
REMARK    3  A    between atoms: C1'_4  and  C1_5 
ROOT
ATOM      1  C1  N4B d   1      -0.876   0.946  -0.956  0.00  0.00    -0.075 A 
ATOM      2  C2  N4B d   1      -0.504   1.863  -1.964  0.00  0.00     0.002 A 
ATOM      3  C3  N4B d   1      -1.320   2.056  -3.052  0.00  0.00     0.002 A 
ATOM      4  C4  N4B d   1      -2.497   1.332  -3.163  0.00  0.00    -0.004 A 
ATOM      5  C5  N4B d   1      -2.862   0.467  -2.173  0.00  0.00     0.002 A 
ATOM      6  C6  N4B d   1      -2.054   0.266  -1.072  0.00  0.00     0.002 A 
ENDROOT
BRANCH   1   7
ATOM      7  C1' N4B d   1       0.025   0.638   0.209  0.00  0.00     0.057 C 
BRANCH   7   8
ATOM      8  C2' N4B d   1       1.469   0.572  -0.278  0.00  0.00     0.009 C 
BRANCH   8   9
ATOM      9  C3' N4B d   1       2.007  -0.848  -0.272  0.00  0.00     0.004 C 
ATOM     10  C4' N4B d   1       2.349  -1.334   1.105  0.00  0.00     0.003 C 
ENDBRANCH   8   9
ENDBRANCH   7   8
ENDBRANCH   1   7
TORSDOF 3
ENDMDL
