MODEL 1
REMARK minimizedAffinity -4.0493207
REMARK minimizedRMSD -1
REMARK  3 active torsions:
REMARK  status: ('A' for Active; 'I' for Inactive)
REMARK    1  A    between atoms: C3'_2  and  C2'_3 
REMARK    2  A    between atoms: C2'_3  and  C1'_4 
REMARK    3  A    between atoms: C1'_4  and  C1_5 
ROOT
ATOM      1  C1  N4B d   1       0.283   0.195   0.101  0.00  0.00    -0.075 A 
ATOM      2  C2  N4B d   1       1.552   0.678  -0.290  0.00  0.00     0.002 A 
ATOM      3  C3  N4B d   1       2.691   0.071   0.178  0.00  0.00     0.002 A 
ATOM      4  C4  N4B d   1       2.588  -1.003   1.049  0.00  0.00    -0.004 A 
ATOM      5  C5  N4B d   1       1.359  -1.478   1.402  0.00  0.00     0.002 A 
ATOM      6  C6  N4B d   1       0.205  -0.881   0.936  0.00  0.00     0.002 A 
ENDROOT
BRANCH   1   7
ATOM      7  C1' N4B d   1      -0.990   0.879  -0.317  0.00  0.00     0.057 C 
BRANCH   7   8
ATOM      8  C2' N4B d   1      -1.605   0.120  -1.488  0.00  0.00     0.009 C 
BRANCH   8   9
ATOM      9  C3' N4B d   1      -2.147   1.059  -2.553  0.00  0.00     0.004 C 
ATOM     10  C4' N4B d   1      -3.572   0.766  -2.914  0.00  0.00     0.003 C 
ENDBRANCH   8   9
ENDBRANCH   7   8
ENDBRANCH   1   7
TORSDOF 3
ENDMDL
