MODEL 1
REMARK minimizedAffinity -2.62590384
REMARK minimizedRMSD -1
REMARK  3 active torsions:
REMARK  status: ('A' for Active; 'I' for Inactive)
REMARK    1  A    between atoms: C3'_2  and  C2'_3 
REMARK    2  A    between atoms: C2'_3  and  C1'_4 
REMARK    3  A    between atoms: C1'_4  and  C1_5 
ROOT
ATOM      1  C1  N4B d   1       0.349   0.003   0.268  0.00  0.00    -0.075 A 
ATOM      2  C2  N4B d   1       1.674   0.413   0.003  0.00  0.00     0.002 A 
ATOM      3  C3  N4B d   1       2.729  -0.318   0.493  0.00  0.00     0.002 A 
ATOM      4  C4  N4B d   1       2.484  -1.445   1.263  0.00  0.00    -0.004 A 
ATOM      5  C5  N4B d   1       1.201  -1.848   1.492  0.00  0.00     0.002 A 
ATOM      6  C6  N4B d   1       0.131  -1.126   1.002  0.00  0.00     0.002 A 
ENDROOT
BRANCH   1   7
ATOM      7  C1' N4B d   1      -0.837   0.817  -0.174  0.00  0.00     0.057 C 
BRANCH   7   8
ATOM      8  C2' N4B d   1      -0.819   0.943  -1.695  0.00  0.00     0.009 C 
BRANCH   8   9
ATOM      9  C3' N4B d   1      -2.209   1.174  -2.262  0.00  0.00     0.004 C 
ATOM     10  C4' N4B d   1      -2.220   1.245  -3.760  0.00  0.00     0.003 C 
ENDBRANCH   8   9
ENDBRANCH   7   8
ENDBRANCH   1   7
TORSDOF 3
ENDMDL
