MODEL 1
REMARK minimizedAffinity -5.79894209
REMARK minimizedRMSD -1
REMARK  3 active torsions:
REMARK  status: ('A' for Active; 'I' for Inactive)
REMARK    1  A    between atoms: C3'_2  and  C2'_3 
REMARK    2  A    between atoms: C2'_3  and  C1'_4 
REMARK    3  A    between atoms: C1'_4  and  C1_5 
ROOT
ATOM      1  C1  N4B d   1      -0.744   0.770  -0.827  0.00  0.00    -0.075 A 
ATOM      2  C2  N4B d   1      -0.824   2.180  -0.819  0.00  0.00     0.002 A 
ATOM      3  C3  N4B d   1      -1.612   2.828  -1.739  0.00  0.00     0.002 A 
ATOM      4  C4  N4B d   1      -2.312   2.091  -2.683  0.00  0.00    -0.004 A 
ATOM      5  C5  N4B d   1      -2.249   0.728  -2.667  0.00  0.00     0.002 A 
ATOM      6  C6  N4B d   1      -1.465   0.064  -1.747  0.00  0.00     0.002 A 
ENDROOT
BRANCH   1   7
ATOM      7  C1' N4B d   1       0.171   0.021   0.103  0.00  0.00     0.057 C 
BRANCH   7   8
ATOM      8  C2' N4B d   1       1.298  -0.613  -0.706  0.00  0.00     0.009 C 
BRANCH   8   9
ATOM      9  C3' N4B d   1       2.132  -1.567   0.132  0.00  0.00     0.004 C 
ATOM     10  C4' N4B d   1       1.756  -1.546   1.583  0.00  0.00     0.003 C 
ENDBRANCH   8   9
ENDBRANCH   7   8
ENDBRANCH   1   7
TORSDOF 3
ENDMDL
