MODEL 1
REMARK minimizedAffinity -4.88797855
REMARK minimizedRMSD -1
REMARK  3 active torsions:
REMARK  status: ('A' for Active; 'I' for Inactive)
REMARK    1  A    between atoms: C3'_2  and  C2'_3 
REMARK    2  A    between atoms: C2'_3  and  C1'_4 
REMARK    3  A    between atoms: C1'_4  and  C1_5 
ROOT
ATOM      1  C1  N4B d   1       0.147   0.105  -0.051  0.00  0.00    -0.075 A 
ATOM      2  C2  N4B d   1       0.083  -0.994   0.833  0.00  0.00     0.002 A 
ATOM      3  C3  N4B d   1       1.217  -1.717   1.113  0.00  0.00     0.002 A 
ATOM      4  C4  N4B d   1       2.417  -1.372   0.508  0.00  0.00    -0.004 A 
ATOM      5  C5  N4B d   1       2.475  -0.293  -0.325  0.00  0.00     0.002 A 
ATOM      6  C6  N4B d   1       1.344   0.445  -0.612  0.00  0.00     0.002 A 
ENDROOT
BRANCH   1   7
ATOM      7  C1' N4B d   1      -1.083   0.872  -0.454  0.00  0.00     0.057 C 
BRANCH   7   8
ATOM      8  C2' N4B d   1      -0.782   1.672  -1.719  0.00  0.00     0.009 C 
BRANCH   8   9
ATOM      9  C3' N4B d   1      -1.892   1.545  -2.748  0.00  0.00     0.004 C 
ATOM     10  C4' N4B d   1      -2.859   0.445  -2.428  0.00  0.00     0.003 C 
ENDBRANCH   8   9
ENDBRANCH   7   8
ENDBRANCH   1   7
TORSDOF 3
ENDMDL
