MODEL 1
REMARK minimizedAffinity -4.46158266
REMARK minimizedRMSD -1
REMARK  3 active torsions:
REMARK  status: ('A' for Active; 'I' for Inactive)
REMARK    1  A    between atoms: C3'_2  and  C2'_3 
REMARK    2  A    between atoms: C2'_3  and  C1'_4 
REMARK    3  A    between atoms: C1'_4  and  C1_5 
ROOT
ATOM      1  C1  N4B d   1       0.661   0.138   0.185  0.00  0.00    -0.075 A 
ATOM      2  C2  N4B d   1       1.811   0.800  -0.297  0.00  0.00     0.002 A 
ATOM      3  C3  N4B d   1       3.054   0.251  -0.098  0.00  0.00     0.002 A 
ATOM      4  C4  N4B d   1       3.172  -0.946   0.593  0.00  0.00    -0.004 A 
ATOM      5  C5  N4B d   1       2.054  -1.592   1.034  0.00  0.00     0.002 A 
ATOM      6  C6  N4B d   1       0.798  -1.053   0.837  0.00  0.00     0.002 A 
ENDROOT
BRANCH   1   7
ATOM      7  C1' N4B d   1      -0.712   0.743   0.067  0.00  0.00     0.057 C 
BRANCH   7   8
ATOM      8  C2' N4B d   1      -0.928   1.218  -1.367  0.00  0.00     0.009 C 
BRANCH   8   9
ATOM      9  C3' N4B d   1      -2.335   0.921  -1.857  0.00  0.00     0.004 C 
ATOM     10  C4' N4B d   1      -2.647   1.590  -3.163  0.00  0.00     0.003 C 
ENDBRANCH   8   9
ENDBRANCH   7   8
ENDBRANCH   1   7
TORSDOF 3
ENDMDL
