MODEL 1
REMARK minimizedAffinity -4.04555178
REMARK minimizedRMSD -1
REMARK  3 active torsions:
REMARK  status: ('A' for Active; 'I' for Inactive)
REMARK    1  A    between atoms: C3'_2  and  C2'_3 
REMARK    2  A    between atoms: C2'_3  and  C1'_4 
REMARK    3  A    between atoms: C1'_4  and  C1_5 
ROOT
ATOM      1  C1  N4B d   1      -1.261   0.629  -0.711  0.00  0.00    -0.075 A 
ATOM      2  C2  N4B d   1      -1.005   1.472  -1.815  0.00  0.00     0.002 A 
ATOM      3  C3  N4B d   1      -1.901   1.534  -2.854  0.00  0.00     0.002 A 
ATOM      4  C4  N4B d   1      -3.046   0.752  -2.820  0.00  0.00    -0.004 A 
ATOM      5  C5  N4B d   1      -3.298  -0.040  -1.739  0.00  0.00     0.002 A 
ATOM      6  C6  N4B d   1      -2.408  -0.109  -0.686  0.00  0.00     0.002 A 
ENDROOT
BRANCH   1   7
ATOM      7  C1' N4B d   1      -0.270   0.463   0.408  0.00  0.00     0.057 C 
BRANCH   7   8
ATOM      8  C2' N4B d   1       1.082   0.063  -0.176  0.00  0.00     0.009 C 
BRANCH   8   9
ATOM      9  C3' N4B d   1       1.898  -0.769   0.798  0.00  0.00     0.004 C 
ATOM     10  C4' N4B d   1       2.945  -1.600   0.118  0.00  0.00     0.003 C 
ENDBRANCH   8   9
ENDBRANCH   7   8
ENDBRANCH   1   7
TORSDOF 3
ENDMDL
