MODEL 1
REMARK minimizedAffinity -2.66661978
REMARK minimizedRMSD -1
REMARK  3 active torsions:
REMARK  status: ('A' for Active; 'I' for Inactive)
REMARK    1  A    between atoms: C3'_2  and  C2'_3 
REMARK    2  A    between atoms: C2'_3  and  C1'_4 
REMARK    3  A    between atoms: C1'_4  and  C1_5 
ROOT
ATOM      1  C1  N4B d   1      -1.464   0.774  -0.108  0.00  0.00    -0.075 A 
ATOM      2  C2  N4B d   1      -2.546   0.463  -0.960  0.00  0.00     0.002 A 
ATOM      3  C3  N4B d   1      -3.678  -0.121  -0.447  0.00  0.00     0.002 A 
ATOM      4  C4  N4B d   1      -3.744  -0.419   0.906  0.00  0.00    -0.004 A 
ATOM      5  C5  N4B d   1      -2.705  -0.091   1.727  0.00  0.00     0.002 A 
ATOM      6  C6  N4B d   1      -1.562   0.499   1.226  0.00  0.00     0.002 A 
ENDROOT
BRANCH   1   7
ATOM      7  C1' N4B d   1      -0.172   1.334  -0.637  0.00  0.00     0.057 C 
BRANCH   7   8
ATOM      8  C2' N4B d   1       0.991   0.745   0.156  0.00  0.00     0.009 C 
BRANCH   8   9
ATOM      9  C3' N4B d   1       1.926  -0.065  -0.724  0.00  0.00     0.004 C 
ATOM     10  C4' N4B d   1       2.735  -1.062   0.051  0.00  0.00     0.003 C 
ENDBRANCH   8   9
ENDBRANCH   7   8
ENDBRANCH   1   7
TORSDOF 3
ENDMDL
