MODEL 1
REMARK minimizedAffinity 12.808466
REMARK minimizedRMSD -1
REMARK  3 active torsions:
REMARK  status: ('A' for Active; 'I' for Inactive)
REMARK    1  A    between atoms: C3'_2  and  C2'_3 
REMARK    2  A    between atoms: C2'_3  and  C1'_4 
REMARK    3  A    between atoms: C1'_4  and  C1_5 
ROOT
ATOM      1  C1  N4B d   1      -0.654  -2.084  -5.353  0.00  0.00    -0.075 A 
ATOM      2  C2  N4B d   1      -0.752  -0.774  -5.871  0.00  0.00     0.002 A 
ATOM      3  C3  N4B d   1      -0.131   0.267  -5.225  0.00  0.00     0.002 A 
ATOM      4  C4  N4B d   1       0.573   0.026  -4.055  0.00  0.00    -0.004 A 
ATOM      5  C5  N4B d   1       0.684  -1.246  -3.576  0.00  0.00     0.002 A 
ATOM      6  C6  N4B d   1       0.069  -2.303  -4.216  0.00  0.00     0.002 A 
ENDROOT
BRANCH   1   7
ATOM      7  C1' N4B d   1      -1.387  -3.241  -5.976  0.00  0.00     0.057 C 
BRANCH   7   8
ATOM      8  C2' N4B d   1      -2.881  -2.934  -5.998  0.00  0.00     0.009 C 
BRANCH   8   9
ATOM      9  C3' N4B d   1      -3.722  -4.200  -5.996  0.00  0.00     0.004 C 
ATOM     10  C4' N4B d   1      -5.133  -3.959  -5.550  0.00  0.00     0.003 C 
ENDBRANCH   8   9
ENDBRANCH   7   8
ENDBRANCH   1   7
TORSDOF 3
ENDMDL
