MODEL 1
REMARK minimizedAffinity 4.63978052
REMARK minimizedRMSD -1
REMARK  3 active torsions:
REMARK  status: ('A' for Active; 'I' for Inactive)
REMARK    1  A    between atoms: C3'_2  and  C2'_3 
REMARK    2  A    between atoms: C2'_3  and  C1'_4 
REMARK    3  A    between atoms: C1'_4  and  C1_5 
ROOT
ATOM      1  C1  N4B d   1      -5.394  -2.493  -3.735  0.00  0.00    -0.075 A 
ATOM      2  C2  N4B d   1      -4.828  -1.199  -3.731  0.00  0.00     0.002 A 
ATOM      3  C3  N4B d   1      -4.217  -0.714  -4.861  0.00  0.00     0.002 A 
ATOM      4  C4  N4B d   1      -4.143  -1.508  -5.996  0.00  0.00    -0.004 A 
ATOM      5  C5  N4B d   1      -4.714  -2.747  -5.999  0.00  0.00     0.002 A 
ATOM      6  C6  N4B d   1      -5.335  -3.246  -4.872  0.00  0.00     0.002 A 
ENDROOT
BRANCH   1   7
ATOM      7  C1' N4B d   1      -5.997  -3.100  -2.498  0.00  0.00     0.057 C 
BRANCH   7   8
ATOM      8  C2' N4B d   1      -5.999  -2.061  -1.380  0.00  0.00     0.009 C 
BRANCH   8   9
ATOM      9  C3' N4B d   1      -5.403  -2.608  -0.095  0.00  0.00     0.004 C 
ATOM     10  C4' N4B d   1      -4.441  -3.734  -0.333  0.00  0.00     0.003 C 
ENDBRANCH   8   9
ENDBRANCH   7   8
ENDBRANCH   1   7
TORSDOF 3
ENDMDL
