MODEL 1
REMARK minimizedAffinity 14.149826
REMARK minimizedRMSD -1
REMARK  3 active torsions:
REMARK  status: ('A' for Active; 'I' for Inactive)
REMARK    1  A    between atoms: C3'_2  and  C2'_3 
REMARK    2  A    between atoms: C2'_3  and  C1'_4 
REMARK    3  A    between atoms: C1'_4  and  C1_5 
ROOT
ATOM      1  C1  N4B d   1      -5.685  -3.282  -2.438  0.00  0.00    -0.075 A 
ATOM      2  C2  N4B d   1      -5.654  -4.094  -3.593  0.00  0.00     0.002 A 
ATOM      3  C3  N4B d   1      -5.799  -3.526  -4.835  0.00  0.00     0.002 A 
ATOM      4  C4  N4B d   1      -5.995  -2.157  -4.945  0.00  0.00    -0.004 A 
ATOM      5  C5  N4B d   1      -5.999  -1.377  -3.826  0.00  0.00     0.002 A 
ATOM      6  C6  N4B d   1      -5.850  -1.934  -2.572  0.00  0.00     0.002 A 
ENDROOT
BRANCH   1   7
ATOM      7  C1' N4B d   1      -5.617  -3.868  -1.054  0.00  0.00     0.057 C 
BRANCH   7   8
ATOM      8  C2' N4B d   1      -4.587  -3.096  -0.234  0.00  0.00     0.009 C 
BRANCH   8   9
ATOM      9  C3' N4B d   1      -5.199  -2.481   1.013  0.00  0.00     0.004 C 
ATOM     10  C4' N4B d   1      -5.174  -0.982   0.992  0.00  0.00     0.003 C 
ENDBRANCH   8   9
ENDBRANCH   7   8
ENDBRANCH   1   7
TORSDOF 3
ENDMDL
