MODEL 1
REMARK minimizedAffinity 12.4311752
REMARK minimizedRMSD -1
REMARK  3 active torsions:
REMARK  status: ('A' for Active; 'I' for Inactive)
REMARK    1  A    between atoms: C3'_2  and  C2'_3 
REMARK    2  A    between atoms: C2'_3  and  C1'_4 
REMARK    3  A    between atoms: C1'_4  and  C1_5 
ROOT
ATOM      1  C1  N4B d   1      -5.237  -2.358   0.922  0.00  0.00    -0.075 A 
ATOM      2  C2  N4B d   1      -4.440  -3.344   0.299  0.00  0.00     0.002 A 
ATOM      3  C3  N4B d   1      -4.447  -3.468  -1.069  0.00  0.00     0.002 A 
ATOM      4  C4  N4B d   1      -5.253  -2.634  -1.830  0.00  0.00    -0.004 A 
ATOM      5  C5  N4B d   1      -6.000  -1.668  -1.222  0.00  0.00     0.002 A 
ATOM      6  C6  N4B d   1      -6.000  -1.529   0.151  0.00  0.00     0.002 A 
ENDROOT
BRANCH   1   7
ATOM      7  C1' N4B d   1      -5.328  -2.240   2.419  0.00  0.00     0.057 C 
BRANCH   7   8
ATOM      8  C2' N4B d   1      -5.744  -3.587   3.003  0.00  0.00     0.009 C 
BRANCH   8   9
ATOM      9  C3' N4B d   1      -5.188  -3.797   4.400  0.00  0.00     0.004 C 
ATOM     10  C4' N4B d   1      -4.398  -2.621   4.894  0.00  0.00     0.003 C 
ENDBRANCH   8   9
ENDBRANCH   7   8
ENDBRANCH   1   7
TORSDOF 3
ENDMDL
