MODEL 1
REMARK minimizedAffinity 6.7118001
REMARK minimizedRMSD -1
REMARK  3 active torsions:
REMARK  status: ('A' for Active; 'I' for Inactive)
REMARK    1  A    between atoms: C3'_2  and  C2'_3 
REMARK    2  A    between atoms: C2'_3  and  C1'_4 
REMARK    3  A    between atoms: C1'_4  and  C1_5 
ROOT
ATOM      1  C1  N4B d   1      -1.913  -0.415  -0.646  0.00  0.00    -0.075 A 
ATOM      2  C2  N4B d   1      -1.630  -1.693  -0.116  0.00  0.00     0.002 A 
ATOM      3  C3  N4B d   1      -2.418  -2.766  -0.453  0.00  0.00     0.002 A 
ATOM      4  C4  N4B d   1      -3.501  -2.582  -1.300  0.00  0.00    -0.004 A 
ATOM      5  C5  N4B d   1      -3.752  -1.349  -1.828  0.00  0.00     0.002 A 
ATOM      6  C6  N4B d   1      -2.965  -0.263  -1.501  0.00  0.00     0.002 A 
ENDROOT
BRANCH   1   7
ATOM      7  C1' N4B d   1      -1.131   0.805  -0.239  0.00  0.00     0.057 C 
BRANCH   7   8
ATOM      8  C2' N4B d   1      -1.716   1.365   1.055  0.00  0.00     0.009 C 
BRANCH   8   9
ATOM      9  C3' N4B d   1      -1.164   0.658   2.281  0.00  0.00     0.004 C 
ATOM     10  C4' N4B d   1      -2.068  -0.430   2.779  0.00  0.00     0.003 C 
ENDBRANCH   8   9
ENDBRANCH   7   8
ENDBRANCH   1   7
TORSDOF 3
ENDMDL
