MODEL 1
REMARK minimizedAffinity 20.8832264
REMARK minimizedRMSD -1
REMARK  3 active torsions:
REMARK  status: ('A' for Active; 'I' for Inactive)
REMARK    1  A    between atoms: C3'_2  and  C2'_3 
REMARK    2  A    between atoms: C2'_3  and  C1'_4 
REMARK    3  A    between atoms: C1'_4  and  C1_5 
ROOT
ATOM      1  C1  N4B d   1       3.296   3.046  -5.559  0.00  0.00    -0.075 A 
ATOM      2  C2  N4B d   1       4.396   3.448  -4.769  0.00  0.00     0.002 A 
ATOM      3  C3  N4B d   1       4.568   4.774  -4.456  0.00  0.00     0.002 A 
ATOM      4  C4  N4B d   1       3.668   5.714  -4.935  0.00  0.00    -0.004 A 
ATOM      5  C5  N4B d   1       2.594   5.315  -5.676  0.00  0.00     0.002 A 
ATOM      6  C6  N4B d   1       2.407   3.985  -5.995  0.00  0.00     0.002 A 
ENDROOT
BRANCH   1   7
ATOM      7  C1' N4B d   1       3.114   1.619  -6.000  0.00  0.00     0.057 C 
BRANCH   7   8
ATOM      8  C2' N4B d   1       1.937   1.009  -5.244  0.00  0.00     0.009 C 
BRANCH   8   9
ATOM      9  C3' N4B d   1       2.226  -0.414  -4.797  0.00  0.00     0.004 C 
ATOM     10  C4' N4B d   1       3.466  -0.979  -5.423  0.00  0.00     0.003 C 
ENDBRANCH   8   9
ENDBRANCH   7   8
ENDBRANCH   1   7
TORSDOF 3
ENDMDL
