MODEL 1
REMARK minimizedAffinity 12.5942049
REMARK minimizedRMSD -1
REMARK  3 active torsions:
REMARK  status: ('A' for Active; 'I' for Inactive)
REMARK    1  A    between atoms: C3'_2  and  C2'_3 
REMARK    2  A    between atoms: C2'_3  and  C1'_4 
REMARK    3  A    between atoms: C1'_4  and  C1_5 
ROOT
ATOM      1  C1  N4B d   1      -0.399  -0.992  -5.204  0.00  0.00    -0.075 A 
ATOM      2  C2  N4B d   1      -1.143  -2.139  -5.557  0.00  0.00     0.002 A 
ATOM      3  C3  N4B d   1      -2.451  -2.014  -5.956  0.00  0.00     0.002 A 
ATOM      4  C4  N4B d   1      -3.040  -0.758  -5.991  0.00  0.00    -0.004 A 
ATOM      5  C5  N4B d   1      -2.307   0.348  -5.674  0.00  0.00     0.002 A 
ATOM      6  C6  N4B d   1      -0.990   0.237  -5.275  0.00  0.00     0.002 A 
ENDROOT
BRANCH   1   7
ATOM      7  C1' N4B d   1       1.008  -1.087  -4.680  0.00  0.00     0.057 C 
BRANCH   7   8
ATOM      8  C2' N4B d   1       1.149  -0.185  -3.457  0.00  0.00     0.009 C 
BRANCH   8   9
ATOM      9  C3' N4B d   1       2.550   0.388  -3.333  0.00  0.00     0.004 C 
ATOM     10  C4' N4B d   1       3.406   0.095  -4.530  0.00  0.00     0.003 C 
ENDBRANCH   8   9
ENDBRANCH   7   8
ENDBRANCH   1   7
TORSDOF 3
ENDMDL
