MODEL 1
REMARK minimizedAffinity 13.1803493
REMARK minimizedRMSD -1
REMARK  3 active torsions:
REMARK  status: ('A' for Active; 'I' for Inactive)
REMARK    1  A    between atoms: C3'_2  and  C2'_3 
REMARK    2  A    between atoms: C2'_3  and  C1'_4 
REMARK    3  A    between atoms: C1'_4  and  C1_5 
ROOT
ATOM      1  C1  N4B d   1      -5.823  -3.501  -1.776  0.00  0.00    -0.075 A 
ATOM      2  C2  N4B d   1      -5.629  -4.011  -0.473  0.00  0.00     0.002 A 
ATOM      3  C3  N4B d   1      -5.603  -3.156   0.602  0.00  0.00     0.002 A 
ATOM      4  C4  N4B d   1      -5.750  -1.792   0.398  0.00  0.00    -0.004 A 
ATOM      5  C5  N4B d   1      -5.962  -1.311  -0.861  0.00  0.00     0.002 A 
ATOM      6  C6  N4B d   1      -5.995  -2.158  -1.950  0.00  0.00     0.002 A 
ENDROOT
BRANCH   1   7
ATOM      7  C1' N4B d   1      -5.773  -4.386  -2.991  0.00  0.00     0.057 C 
BRANCH   7   8
ATOM      8  C2' N4B d   1      -5.927  -3.528  -4.243  0.00  0.00     0.009 C 
BRANCH   8   9
ATOM      9  C3' N4B d   1      -5.684  -4.326  -5.512  0.00  0.00     0.004 C 
ATOM     10  C4' N4B d   1      -4.258  -4.262  -5.974  0.00  0.00     0.003 C 
ENDBRANCH   8   9
ENDBRANCH   7   8
ENDBRANCH   1   7
TORSDOF 3
ENDMDL
