MODEL 1
REMARK minimizedAffinity 4.7140274
REMARK minimizedRMSD -1
REMARK  3 active torsions:
REMARK  status: ('A' for Active; 'I' for Inactive)
REMARK    1  A    between atoms: C3'_2  and  C2'_3 
REMARK    2  A    between atoms: C2'_3  and  C1'_4 
REMARK    3  A    between atoms: C1'_4  and  C1_5 
ROOT
ATOM      1  C1  N4B d   1      -5.357  -2.503  -4.247  0.00  0.00    -0.075 A 
ATOM      2  C2  N4B d   1      -4.254  -2.258  -5.094  0.00  0.00     0.002 A 
ATOM      3  C3  N4B d   1      -3.830  -3.229  -5.968  0.00  0.00     0.002 A 
ATOM      4  C4  N4B d   1      -4.480  -4.454  -6.000  0.00  0.00    -0.004 A 
ATOM      5  C5  N4B d   1      -5.560  -4.674  -5.197  0.00  0.00     0.002 A 
ATOM      6  C6  N4B d   1      -5.999  -3.705  -4.316  0.00  0.00     0.002 A 
ENDROOT
BRANCH   1   7
ATOM      7  C1' N4B d   1      -5.803  -1.504  -3.215  0.00  0.00     0.057 C 
BRANCH   7   8
ATOM      8  C2' N4B d   1      -5.957  -2.208  -1.870  0.00  0.00     0.009 C 
BRANCH   8   9
ATOM      9  C3' N4B d   1      -5.153  -1.527  -0.776  0.00  0.00     0.004 C 
ATOM     10  C4' N4B d   1      -5.928  -1.361   0.497  0.00  0.00     0.003 C 
ENDBRANCH   8   9
ENDBRANCH   7   8
ENDBRANCH   1   7
TORSDOF 3
ENDMDL
