MODEL 1
REMARK minimizedAffinity 4.39914131
REMARK minimizedRMSD -1
REMARK  3 active torsions:
REMARK  status: ('A' for Active; 'I' for Inactive)
REMARK    1  A    between atoms: C3'_2  and  C2'_3 
REMARK    2  A    between atoms: C2'_3  and  C1'_4 
REMARK    3  A    between atoms: C1'_4  and  C1_5 
ROOT
ATOM      1  C1  N4B d   1       1.916   0.709  -3.628  0.00  0.00    -0.075 A 
ATOM      2  C2  N4B d   1       1.676  -0.671  -3.450  0.00  0.00     0.002 A 
ATOM      3  C3  N4B d   1       2.485  -1.594  -4.066  0.00  0.00     0.002 A 
ATOM      4  C4  N4B d   1       3.524  -1.162  -4.877  0.00  0.00    -0.004 A 
ATOM      5  C5  N4B d   1       3.765   0.173  -5.023  0.00  0.00     0.002 A 
ATOM      6  C6  N4B d   1       2.962   1.112  -4.406  0.00  0.00     0.002 A 
ENDROOT
BRANCH   1   7
ATOM      7  C1' N4B d   1       1.006   1.755  -3.043  0.00  0.00     0.057 C 
BRANCH   7   8
ATOM      8  C2' N4B d   1      -0.431   1.244  -3.078  0.00  0.00     0.009 C 
BRANCH   8   9
ATOM      9  C3' N4B d   1      -0.904   0.974  -4.496  0.00  0.00     0.004 C 
ATOM     10  C4' N4B d   1      -1.635  -0.329  -4.625  0.00  0.00     0.003 C 
ENDBRANCH   8   9
ENDBRANCH   7   8
ENDBRANCH   1   7
TORSDOF 3
ENDMDL
