MODEL 1
REMARK minimizedAffinity 9.50132656
REMARK minimizedRMSD -1
REMARK  3 active torsions:
REMARK  status: ('A' for Active; 'I' for Inactive)
REMARK    1  A    between atoms: C3'_2  and  C2'_3 
REMARK    2  A    between atoms: C2'_3  and  C1'_4 
REMARK    3  A    between atoms: C1'_4  and  C1_5 
ROOT
ATOM      1  C1  N4B d   1       4.530   1.292  -4.906  0.00  0.00    -0.075 A 
ATOM      2  C2  N4B d   1       4.539   2.311  -5.884  0.00  0.00     0.002 A 
ATOM      3  C3  N4B d   1       5.275   3.452  -5.681  0.00  0.00     0.002 A 
ATOM      4  C4  N4B d   1       5.993   3.604  -4.504  0.00  0.00    -0.004 A 
ATOM      5  C5  N4B d   1       6.000   2.604  -3.575  0.00  0.00     0.002 A 
ATOM      6  C6  N4B d   1       5.267   1.450  -3.769  0.00  0.00     0.002 A 
ENDROOT
BRANCH   1   7
ATOM      7  C1' N4B d   1       3.672   0.064  -5.046  0.00  0.00     0.057 C 
BRANCH   7   8
ATOM      8  C2' N4B d   1       3.687  -0.709  -3.731  0.00  0.00     0.009 C 
BRANCH   8   9
ATOM      9  C3' N4B d   1       2.302  -0.807  -3.113  0.00  0.00     0.004 C 
ATOM     10  C4' N4B d   1       1.204  -0.658  -4.124  0.00  0.00     0.003 C 
ENDBRANCH   8   9
ENDBRANCH   7   8
ENDBRANCH   1   7
TORSDOF 3
ENDMDL
