MODEL 1
REMARK minimizedAffinity -2.54680037
REMARK minimizedRMSD -1
REMARK  0 active torsions:
REMARK  status: ('A' for Active; 'I' for Inactive)
ROOT
ATOM      1  O1  BZF d   1      -2.268   3.050  -5.958  0.00  0.00    -0.204 OA
ATOM      2  C2  BZF d   1      -3.028   4.203  -5.954  0.00  0.00     0.174 A 
ATOM      3  C3  BZF d   1      -2.240   5.296  -5.914  0.00  0.00    -0.012 A 
ATOM      4  C3A BZF d   1      -0.901   4.797  -5.983  0.00  0.00    -0.107 A 
ATOM      5  C4  BZF d   1       0.326   5.398  -6.000  0.00  0.00     0.055 A 
ATOM      6  C5  BZF d   1       1.441   4.622  -6.000  0.00  0.00    -0.016 A 
ATOM      7  C6  BZF d   1       1.368   3.245  -5.978  0.00  0.00     0.022 A 
ATOM      8  C7  BZF d   1       0.174   2.603  -5.966  0.00  0.00     0.029 A 
ATOM      9  C7A BZF d   1      -0.956   3.384  -6.000  0.00  0.00     0.058 A 
ENDROOT
TORSDOF 0
ENDMDL
