MODEL 1
REMARK minimizedAffinity -1.52617097
REMARK minimizedRMSD -1
REMARK  0 active torsions:
REMARK  status: ('A' for Active; 'I' for Inactive)
ROOT
ATOM      1  O1  BZF d   1      -2.284   4.887  -5.931  0.00  0.00    -0.204 OA
ATOM      2  C2  BZF d   1      -3.020   3.718  -5.929  0.00  0.00     0.174 A 
ATOM      3  C3  BZF d   1      -2.210   2.642  -6.000  0.00  0.00    -0.012 A 
ATOM      4  C3A BZF d   1      -0.880   3.169  -5.957  0.00  0.00    -0.107 A 
ATOM      5  C4  BZF d   1       0.358   2.594  -5.976  0.00  0.00     0.055 A 
ATOM      6  C5  BZF d   1       1.457   3.394  -5.994  0.00  0.00    -0.016 A 
ATOM      7  C6  BZF d   1       1.354   4.769  -6.000  0.00  0.00     0.022 A 
ATOM      8  C7  BZF d   1       0.147   5.385  -5.976  0.00  0.00     0.029 A 
ATOM      9  C7A BZF d   1      -0.965   4.580  -5.924  0.00  0.00     0.058 A 
ENDROOT
TORSDOF 0
ENDMDL
