MODEL 1
REMARK minimizedAffinity -3.2837708
REMARK minimizedRMSD -1
REMARK  0 active torsions:
REMARK  status: ('A' for Active; 'I' for Inactive)
ROOT
ATOM      1  O1  BZF d   1       1.058   5.262  -5.975  0.00  0.00    -0.204 OA
ATOM      2  C2  BZF d   1       1.928   4.189  -5.997  0.00  0.00     0.174 A 
ATOM      3  C3  BZF d   1       1.251   3.023  -5.956  0.00  0.00    -0.012 A 
ATOM      4  C3A BZF d   1      -0.132   3.390  -5.997  0.00  0.00    -0.107 A 
ATOM      5  C4  BZF d   1      -1.294   2.672  -6.000  0.00  0.00     0.055 A 
ATOM      6  C5  BZF d   1      -2.480   3.335  -5.972  0.00  0.00    -0.016 A 
ATOM      7  C6  BZF d   1      -2.541   4.712  -5.935  0.00  0.00     0.022 A 
ATOM      8  C7  BZF d   1      -1.415   5.467  -5.936  0.00  0.00     0.029 A 
ATOM      9  C7A BZF d   1      -0.216   4.801  -5.998  0.00  0.00     0.058 A 
ENDROOT
TORSDOF 0
ENDMDL
