MODEL 1
REMARK minimizedAffinity -2.0256598
REMARK minimizedRMSD -1
REMARK  0 active torsions:
REMARK  status: ('A' for Active; 'I' for Inactive)
ROOT
ATOM      1  O1  BZF d   1      -1.895   5.224  -5.959  0.00  0.00    -0.204 OA
ATOM      2  C2  BZF d   1      -2.845   4.221  -5.946  0.00  0.00     0.174 A 
ATOM      3  C3  BZF d   1      -2.259   3.007  -5.995  0.00  0.00    -0.012 A 
ATOM      4  C3A BZF d   1      -0.853   3.266  -5.950  0.00  0.00    -0.107 A 
ATOM      5  C4  BZF d   1       0.250   2.461  -5.951  0.00  0.00     0.055 A 
ATOM      6  C5  BZF d   1       1.484   3.030  -5.973  0.00  0.00    -0.016 A 
ATOM      7  C6  BZF d   1       1.651   4.399  -5.999  0.00  0.00     0.022 A 
ATOM      8  C7  BZF d   1       0.587   5.239  -5.993  0.00  0.00     0.029 A 
ATOM      9  C7A BZF d   1      -0.661   4.667  -5.938  0.00  0.00     0.058 A 
ENDROOT
TORSDOF 0
ENDMDL
