MODEL 1
REMARK minimizedAffinity -2.82759166
REMARK minimizedRMSD -1
REMARK  0 active torsions:
REMARK  status: ('A' for Active; 'I' for Inactive)
ROOT
ATOM      1  O1  BZF d   1       0.085   5.610  -5.948  0.00  0.00    -0.204 OA
ATOM      2  C2  BZF d   1       0.924   4.513  -5.945  0.00  0.00     0.174 A 
ATOM      3  C3  BZF d   1       0.215   3.367  -5.908  0.00  0.00    -0.012 A 
ATOM      4  C3A BZF d   1      -1.156   3.771  -5.979  0.00  0.00    -0.107 A 
ATOM      5  C4  BZF d   1      -2.337   3.085  -5.999  0.00  0.00     0.055 A 
ATOM      6  C5  BZF d   1      -3.505   3.781  -5.999  0.00  0.00    -0.016 A 
ATOM      7  C6  BZF d   1      -3.528   5.160  -5.974  0.00  0.00     0.022 A 
ATOM      8  C7  BZF d   1      -2.382   5.884  -5.959  0.00  0.00     0.029 A 
ATOM      9  C7A BZF d   1      -1.201   5.184  -5.993  0.00  0.00     0.058 A 
ENDROOT
TORSDOF 0
ENDMDL
