MODEL 1
REMARK minimizedAffinity -0.428947389
REMARK minimizedRMSD -1
REMARK  0 active torsions:
REMARK  status: ('A' for Active; 'I' for Inactive)
ROOT
ATOM      1  O1  BZF d   1       2.837   3.563  -5.968  0.00  0.00    -0.204 OA
ATOM      2  C2  BZF d   1       3.636   4.690  -5.954  0.00  0.00     0.174 A 
ATOM      3  C3  BZF d   1       2.885   5.810  -5.999  0.00  0.00    -0.012 A 
ATOM      4  C3A BZF d   1       1.529   5.356  -5.951  0.00  0.00    -0.107 A 
ATOM      5  C4  BZF d   1       0.324   5.998  -5.949  0.00  0.00     0.055 A 
ATOM      6  C5  BZF d   1      -0.817   5.260  -5.969  0.00  0.00    -0.016 A 
ATOM      7  C6  BZF d   1      -0.790   3.881  -5.998  0.00  0.00     0.022 A 
ATOM      8  C7  BZF d   1       0.382   3.200  -5.996  0.00  0.00     0.029 A 
ATOM      9  C7A BZF d   1       1.536   3.942  -5.942  0.00  0.00     0.058 A 
ENDROOT
TORSDOF 0
ENDMDL
