MODEL 1
REMARK minimizedAffinity 1.58217072
REMARK minimizedRMSD -1
REMARK  0 active torsions:
REMARK  status: ('A' for Active; 'I' for Inactive)
ROOT
ATOM      1  O1  BZF d   1      -0.931   3.769  -5.935  0.00  0.00    -0.204 OA
ATOM      2  C2  BZF d   1      -1.561   4.999  -5.934  0.00  0.00     0.174 A 
ATOM      3  C3  BZF d   1      -0.657   5.999  -5.901  0.00  0.00    -0.012 A 
ATOM      4  C3A BZF d   1       0.619   5.356  -5.973  0.00  0.00    -0.107 A 
ATOM      5  C4  BZF d   1       1.904   5.819  -5.997  0.00  0.00     0.055 A 
ATOM      6  C5  BZF d   1       2.928   4.926  -5.997  0.00  0.00    -0.016 A 
ATOM      7  C6  BZF d   1       2.704   3.565  -5.968  0.00  0.00     0.022 A 
ATOM      8  C7  BZF d   1       1.447   3.058  -5.949  0.00  0.00     0.029 A 
ATOM      9  C7A BZF d   1       0.410   3.958  -5.983  0.00  0.00     0.058 A 
ENDROOT
TORSDOF 0
ENDMDL
