MODEL 1
REMARK minimizedAffinity -3.31397414
REMARK minimizedRMSD -1
REMARK  0 active torsions:
REMARK  status: ('A' for Active; 'I' for Inactive)
ROOT
ATOM      1  O1  BZF d   1      -0.059   5.255  -5.962  0.00  0.00    -0.204 OA
ATOM      2  C2  BZF d   1       0.687   4.093  -5.973  0.00  0.00     0.174 A 
ATOM      3  C3  BZF d   1      -0.115   3.009  -5.934  0.00  0.00    -0.012 A 
ATOM      4  C3A BZF d   1      -1.448   3.525  -5.989  0.00  0.00    -0.107 A 
ATOM      5  C4  BZF d   1      -2.682   2.940  -6.000  0.00  0.00     0.055 A 
ATOM      6  C5  BZF d   1      -3.788   3.730  -5.984  0.00  0.00    -0.016 A 
ATOM      7  C6  BZF d   1      -3.697   5.106  -5.953  0.00  0.00     0.022 A 
ATOM      8  C7  BZF d   1      -2.495   5.732  -5.947  0.00  0.00     0.029 A 
ATOM      9  C7A BZF d   1      -1.376   4.937  -5.995  0.00  0.00     0.058 A 
ENDROOT
TORSDOF 0
ENDMDL
