MODEL 1
REMARK minimizedAffinity -1.78532016
REMARK minimizedRMSD -1
REMARK  0 active torsions:
REMARK  status: ('A' for Active; 'I' for Inactive)
ROOT
ATOM      1  O1  BZF d   1      -2.322   3.235  -5.974  0.00  0.00    -0.204 OA
ATOM      2  C2  BZF d   1      -1.870   1.930  -5.991  0.00  0.00     0.174 A 
ATOM      3  C3  BZF d   1      -0.522   1.889  -5.994  0.00  0.00    -0.012 A 
ATOM      4  C3A BZF d   1      -0.105   3.254  -5.885  0.00  0.00    -0.107 A 
ATOM      5  C4  BZF d   1       1.118   3.859  -5.822  0.00  0.00     0.055 A 
ATOM      6  C5  BZF d   1       1.182   5.216  -5.794  0.00  0.00    -0.016 A 
ATOM      7  C6  BZF d   1       0.045   5.998  -5.833  0.00  0.00     0.022 A 
ATOM      8  C7  BZF d   1      -1.190   5.442  -5.890  0.00  0.00     0.029 A 
ATOM      9  C7A BZF d   1      -1.259   4.071  -5.886  0.00  0.00     0.058 A 
ENDROOT
TORSDOF 0
ENDMDL
