MODEL 1
REMARK minimizedAffinity 0.610666513
REMARK minimizedRMSD -1
REMARK  0 active torsions:
REMARK  status: ('A' for Active; 'I' for Inactive)
ROOT
ATOM      1  O1  BZF d   1      -2.069   3.060  -5.961  0.00  0.00    -0.204 OA
ATOM      2  C2  BZF d   1      -2.943   4.129  -5.983  0.00  0.00     0.174 A 
ATOM      3  C3  BZF d   1      -2.271   5.297  -5.938  0.00  0.00    -0.012 A 
ATOM      4  C3A BZF d   1      -0.887   4.937  -5.977  0.00  0.00    -0.107 A 
ATOM      5  C4  BZF d   1       0.271   5.660  -5.976  0.00  0.00     0.055 A 
ATOM      6  C5  BZF d   1       1.460   5.003  -5.947  0.00  0.00    -0.016 A 
ATOM      7  C6  BZF d   1       1.527   3.625  -5.914  0.00  0.00     0.022 A 
ATOM      8  C7  BZF d   1       0.405   2.865  -5.919  0.00  0.00     0.029 A 
ATOM      9  C7A BZF d   1      -0.797   3.526  -5.981  0.00  0.00     0.058 A 
ENDROOT
TORSDOF 0
ENDMDL
