MODEL 1
REMARK minimizedAffinity -1.84169543
REMARK minimizedRMSD -1
REMARK  0 active torsions:
REMARK  status: ('A' for Active; 'I' for Inactive)
ROOT
ATOM      1  O1  BZF d   1       0.697   5.174  -5.974  0.00  0.00    -0.204 OA
ATOM      2  C2  BZF d   1       1.623   4.150  -5.991  0.00  0.00     0.174 A 
ATOM      3  C3  BZF d   1       1.010   2.949  -5.948  0.00  0.00    -0.012 A 
ATOM      4  C3A BZF d   1      -0.390   3.240  -5.995  0.00  0.00    -0.107 A 
ATOM      5  C4  BZF d   1      -1.512   2.461  -5.999  0.00  0.00     0.055 A 
ATOM      6  C5  BZF d   1      -2.732   3.059  -5.976  0.00  0.00    -0.016 A 
ATOM      7  C6  BZF d   1      -2.867   4.431  -5.944  0.00  0.00     0.022 A 
ATOM      8  C7  BZF d   1      -1.784   5.246  -5.944  0.00  0.00     0.029 A 
ATOM      9  C7A BZF d   1      -0.550   4.645  -6.000  0.00  0.00     0.058 A 
ENDROOT
TORSDOF 0
ENDMDL
