MODEL 1
REMARK minimizedAffinity -1.15916753
REMARK minimizedRMSD -1
REMARK  0 active torsions:
REMARK  status: ('A' for Active; 'I' for Inactive)
ROOT
ATOM      1  O1  BZF d   1       0.436   5.256  -5.969  0.00  0.00    -0.204 OA
ATOM      2  C2  BZF d   1       1.174   4.087  -5.977  0.00  0.00     0.174 A 
ATOM      3  C3  BZF d   1       0.364   3.010  -5.933  0.00  0.00    -0.012 A 
ATOM      4  C3A BZF d   1      -0.966   3.536  -5.989  0.00  0.00    -0.107 A 
ATOM      5  C4  BZF d   1      -2.204   2.960  -5.996  0.00  0.00     0.055 A 
ATOM      6  C5  BZF d   1      -3.304   3.758  -5.982  0.00  0.00    -0.016 A 
ATOM      7  C6  BZF d   1      -3.202   5.134  -5.955  0.00  0.00     0.022 A 
ATOM      8  C7  BZF d   1      -1.996   5.751  -5.952  0.00  0.00     0.029 A 
ATOM      9  C7A BZF d   1      -0.883   4.948  -6.000  0.00  0.00     0.058 A 
ENDROOT
TORSDOF 0
ENDMDL
