MODEL 1
REMARK minimizedAffinity -2.48574376
REMARK minimizedRMSD -1
REMARK  0 active torsions:
REMARK  status: ('A' for Active; 'I' for Inactive)
ROOT
ATOM      1  O1  BZF d   1      -0.519   5.275  -5.999  0.00  0.00    -0.204 OA
ATOM      2  C2  BZF d   1       0.105   4.042  -6.000  0.00  0.00     0.174 A 
ATOM      3  C3  BZF d   1      -0.802   3.047  -5.921  0.00  0.00    -0.012 A 
ATOM      4  C3A BZF d   1      -2.077   3.696  -5.961  0.00  0.00    -0.107 A 
ATOM      5  C4  BZF d   1      -3.363   3.240  -5.935  0.00  0.00     0.055 A 
ATOM      6  C5  BZF d   1      -4.383   4.139  -5.915  0.00  0.00    -0.016 A 
ATOM      7  C6  BZF d   1      -4.151   5.499  -5.916  0.00  0.00     0.022 A 
ATOM      8  C7  BZF d   1      -2.892   5.999  -5.947  0.00  0.00     0.029 A 
ATOM      9  C7A BZF d   1      -1.861   5.093  -6.000  0.00  0.00     0.058 A 
ENDROOT
TORSDOF 0
ENDMDL
