MODEL 1
REMARK minimizedAffinity -2.26743412
REMARK minimizedRMSD -1
REMARK  0 active torsions:
REMARK  status: ('A' for Active; 'I' for Inactive)
ROOT
ATOM      1  O1  BZF d   1       0.814   5.208  -5.957  0.00  0.00    -0.204 OA
ATOM      2  C2  BZF d   1       1.698   4.146  -5.955  0.00  0.00     0.174 A 
ATOM      3  C3  BZF d   1       1.036   2.972  -5.914  0.00  0.00    -0.012 A 
ATOM      4  C3A BZF d   1      -0.351   3.320  -5.983  0.00  0.00    -0.107 A 
ATOM      5  C4  BZF d   1      -1.503   2.587  -5.999  0.00  0.00     0.055 A 
ATOM      6  C5  BZF d   1      -2.698   3.234  -5.998  0.00  0.00    -0.016 A 
ATOM      7  C6  BZF d   1      -2.777   4.611  -5.976  0.00  0.00     0.022 A 
ATOM      8  C7  BZF d   1      -1.662   5.381  -5.965  0.00  0.00     0.029 A 
ATOM      9  C7A BZF d   1      -0.453   4.730  -5.999  0.00  0.00     0.058 A 
ENDROOT
TORSDOF 0
ENDMDL
