MODEL 1
REMARK minimizedAffinity -3.73379207
REMARK minimizedRMSD -1
REMARK  0 active torsions:
REMARK  status: ('A' for Active; 'I' for Inactive)
ROOT
ATOM      1  O1  BZF d   1      -0.536   5.259  -5.967  0.00  0.00    -0.204 OA
ATOM      2  C2  BZF d   1      -1.392   4.175  -5.950  0.00  0.00     0.174 A 
ATOM      3  C3  BZF d   1      -0.700   3.018  -5.994  0.00  0.00    -0.012 A 
ATOM      4  C3A BZF d   1       0.677   3.401  -5.948  0.00  0.00    -0.107 A 
ATOM      5  C4  BZF d   1       1.848   2.698  -5.945  0.00  0.00     0.055 A 
ATOM      6  C5  BZF d   1       3.026   3.376  -5.968  0.00  0.00    -0.016 A 
ATOM      7  C6  BZF d   1       3.070   4.754  -6.000  0.00  0.00     0.022 A 
ATOM      8  C7  BZF d   1       1.935   5.495  -5.999  0.00  0.00     0.029 A 
ATOM      9  C7A BZF d   1       0.744   4.814  -5.942  0.00  0.00     0.058 A 
ENDROOT
TORSDOF 0
ENDMDL
