MODEL 1
REMARK minimizedAffinity -2.52435875
REMARK minimizedRMSD -1
REMARK  0 active torsions:
REMARK  status: ('A' for Active; 'I' for Inactive)
ROOT
ATOM      1  O1  BZF d   1       0.270   2.050  -5.961  0.00  0.00    -0.204 OA
ATOM      2  C2  BZF d   1       1.540   2.593  -5.949  0.00  0.00     0.174 A 
ATOM      3  C3  BZF d   1       1.484   3.940  -6.000  0.00  0.00    -0.012 A 
ATOM      4  C3A BZF d   1       0.091   4.261  -5.953  0.00  0.00    -0.107 A 
ATOM      5  C4  BZF d   1      -0.602   5.438  -5.955  0.00  0.00     0.055 A 
ATOM      6  C5  BZF d   1      -1.960   5.405  -5.975  0.00  0.00    -0.016 A 
ATOM      7  C6  BZF d   1      -2.657   4.215  -5.999  0.00  0.00     0.022 A 
ATOM      8  C7  BZF d   1      -2.014   3.022  -5.993  0.00  0.00     0.029 A 
ATOM      9  C7A BZF d   1      -0.642   3.052  -5.939  0.00  0.00     0.058 A 
ENDROOT
TORSDOF 0
ENDMDL
