MODEL 1
REMARK minimizedAffinity -3.88037252
REMARK minimizedRMSD -1
REMARK  0 active torsions:
REMARK  status: ('A' for Active; 'I' for Inactive)
ROOT
ATOM      1  O1  BZF d   1      -2.533   3.027  -5.968  0.00  0.00    -0.204 OA
ATOM      2  C2  BZF d   1      -3.355   4.138  -5.975  0.00  0.00     0.174 A 
ATOM      3  C3  BZF d   1      -2.626   5.272  -5.931  0.00  0.00    -0.012 A 
ATOM      4  C3A BZF d   1      -1.262   4.845  -5.988  0.00  0.00    -0.107 A 
ATOM      5  C4  BZF d   1      -0.069   5.511  -5.996  0.00  0.00     0.055 A 
ATOM      6  C5  BZF d   1       1.086   4.796  -5.983  0.00  0.00    -0.016 A 
ATOM      7  C6  BZF d   1       1.086   3.416  -5.957  0.00  0.00     0.022 A 
ATOM      8  C7  BZF d   1      -0.072   2.712  -5.954  0.00  0.00     0.029 A 
ATOM      9  C7A BZF d   1      -1.241   3.431  -6.000  0.00  0.00     0.058 A 
ENDROOT
TORSDOF 0
ENDMDL
