MODEL 1
REMARK minimizedAffinity 5.04096079
REMARK minimizedRMSD -1
REMARK  0 active torsions:
REMARK  status: ('A' for Active; 'I' for Inactive)
ROOT
ATOM      1  O1  BZF d   1       3.063   3.144  -5.942  0.00  0.00    -0.204 OA
ATOM      2  C2  BZF d   1       3.394   4.485  -5.936  0.00  0.00     0.174 A 
ATOM      3  C3  BZF d   1       2.287   5.252  -6.000  0.00  0.00    -0.012 A 
ATOM      4  C3A BZF d   1       1.190   4.333  -5.955  0.00  0.00    -0.107 A 
ATOM      5  C4  BZF d   1      -0.166   4.489  -5.968  0.00  0.00     0.055 A 
ATOM      6  C5  BZF d   1      -0.958   3.385  -5.988  0.00  0.00    -0.016 A 
ATOM      7  C6  BZF d   1      -0.427   2.112  -6.000  0.00  0.00     0.022 A 
ATOM      8  C7  BZF d   1       0.912   1.907  -5.983  0.00  0.00     0.029 A 
ATOM      9  C7A BZF d   1       1.714   3.020  -5.930  0.00  0.00     0.058 A 
ENDROOT
TORSDOF 0
ENDMDL
