MODEL 1
REMARK minimizedAffinity 5.0329771
REMARK minimizedRMSD -1
REMARK  0 active torsions:
REMARK  status: ('A' for Active; 'I' for Inactive)
ROOT
ATOM      1  O1  BZF d   1       5.133   3.569  -5.430  0.00  0.00    -0.204 OA
ATOM      2  C2  BZF d   1       5.950   4.681  -5.508  0.00  0.00     0.174 A 
ATOM      3  C3  BZF d   1       5.228   5.787  -5.781  0.00  0.00    -0.012 A 
ATOM      4  C3A BZF d   1       3.865   5.354  -5.787  0.00  0.00    -0.107 A 
ATOM      5  C4  BZF d   1       2.676   5.997  -5.983  0.00  0.00     0.055 A 
ATOM      6  C5  BZF d   1       1.527   5.272  -5.998  0.00  0.00    -0.016 A 
ATOM      7  C6  BZF d   1       1.530   3.904  -5.825  0.00  0.00     0.022 A 
ATOM      8  C7  BZF d   1       2.683   3.222  -5.622  0.00  0.00     0.029 A 
ATOM      9  C7A BZF d   1       3.843   3.956  -5.574  0.00  0.00     0.058 A 
ENDROOT
TORSDOF 0
ENDMDL
