MODEL 1
REMARK minimizedAffinity -2.88989639
REMARK minimizedRMSD -1
REMARK  2 active torsions:
REMARK  status: ('A' for Active; 'I' for Inactive)
REMARK    1  A    between atoms: C2'_3  and  C1'_4 
REMARK    2  A    between atoms: C1'_4  and  C1_5 
ROOT
ATOM      1  C1  I4B d   1       0.412  -1.622  -1.103  0.00  0.00    -0.075 A 
ATOM      2  C2  I4B d   1      -0.628  -1.599  -1.999  0.00  0.00     0.003 A 
ATOM      3  C3  I4B d   1      -1.105  -2.805  -2.568  0.00  0.00     0.002 A 
ATOM      4  C4  I4B d   1      -0.486  -3.997  -2.253  0.00  0.00    -0.004 A 
ATOM      5  C5  I4B d   1       0.553  -4.021  -1.327  0.00  0.00     0.002 A 
ATOM      6  C6  I4B d   1       0.997  -2.827  -0.739  0.00  0.00     0.003 A 
ENDROOT
BRANCH   1   7
ATOM      7  C1' I4B d   1       0.913  -0.327  -0.548  0.00  0.00     0.060 C 
BRANCH   7   8
ATOM      8  C2' I4B d   1       0.163  -0.049   0.739  0.00  0.00    -0.013 C 
ATOM      9  C4' I4B d   1       0.756  -0.815   1.892  0.00  0.00     0.013 C 
ATOM     10  C3' I4B d   1       0.205   1.428   0.991  0.00  0.00     0.013 C 
ENDBRANCH   7   8
ENDBRANCH   1   7
TORSDOF 2
ENDMDL
