MODEL 1
REMARK minimizedAffinity -2.19052553
REMARK minimizedRMSD -1
REMARK  2 active torsions:
REMARK  status: ('A' for Active; 'I' for Inactive)
REMARK    1  A    between atoms: C2'_3  and  C1'_4 
REMARK    2  A    between atoms: C1'_4  and  C1_5 
ROOT
ATOM      1  C1  I4B d   1       0.245  -0.273  -0.147  0.00  0.00    -0.075 A 
ATOM      2  C2  I4B d   1       0.411  -0.569   1.183  0.00  0.00     0.003 A 
ATOM      3  C3  I4B d   1       0.340   0.458   2.156  0.00  0.00     0.002 A 
ATOM      4  C4  I4B d   1       0.154   1.765   1.753  0.00  0.00    -0.004 A 
ATOM      5  C5  I4B d   1      -0.037   2.060   0.406  0.00  0.00     0.002 A 
ATOM      6  C6  I4B d   1      -0.003   1.033  -0.549  0.00  0.00     0.003 A 
ENDROOT
BRANCH   1   7
ATOM      7  C1' I4B d   1       0.358  -1.376  -1.150  0.00  0.00     0.060 C 
BRANCH   7   8
ATOM      8  C2' I4B d   1      -0.256  -2.622  -0.545  0.00  0.00    -0.013 C 
ATOM      9  C4' I4B d   1      -1.519  -3.013  -1.266  0.00  0.00     0.013 C 
ATOM     10  C3' I4B d   1       0.765  -3.719  -0.608  0.00  0.00     0.013 C 
ENDBRANCH   7   8
ENDBRANCH   1   7
TORSDOF 2
ENDMDL
