MODEL 1
REMARK minimizedAffinity -2.46581173
REMARK minimizedRMSD -1
REMARK  2 active torsions:
REMARK  status: ('A' for Active; 'I' for Inactive)
REMARK    1  A    between atoms: C2'_3  and  C1'_4 
REMARK    2  A    between atoms: C1'_4  and  C1_5 
ROOT
ATOM      1  C1  I4B d   1       0.723  -1.280  -0.192  0.00  0.00    -0.075 A 
ATOM      2  C2  I4B d   1       1.294  -2.528  -0.183  0.00  0.00     0.003 A 
ATOM      3  C3  I4B d   1       0.702  -3.588  -0.912  0.00  0.00     0.002 A 
ATOM      4  C4  I4B d   1      -0.480  -3.369  -1.590  0.00  0.00    -0.004 A 
ATOM      5  C5  I4B d   1      -1.044  -2.097  -1.617  0.00  0.00     0.002 A 
ATOM      6  C6  I4B d   1      -0.433  -1.042  -0.923  0.00  0.00     0.003 A 
ENDROOT
BRANCH   1   7
ATOM      7  C1' I4B d   1       1.357  -0.192   0.616  0.00  0.00     0.060 C 
BRANCH   7   8
ATOM      8  C2' I4B d   1       0.276   0.453   1.459  0.00  0.00    -0.013 C 
ATOM      9  C4' I4B d   1      -0.111  -0.428   2.618  0.00  0.00     0.013 C 
ATOM     10  C3' I4B d   1       0.790   1.779   1.936  0.00  0.00     0.013 C 
ENDBRANCH   7   8
ENDBRANCH   1   7
TORSDOF 2
ENDMDL
