MODEL 1
REMARK minimizedAffinity -2.70764399
REMARK minimizedRMSD -1
REMARK  2 active torsions:
REMARK  status: ('A' for Active; 'I' for Inactive)
REMARK    1  A    between atoms: C2'_3  and  C1'_4 
REMARK    2  A    between atoms: C1'_4  and  C1_5 
ROOT
ATOM      1  C1  I4B d   1       0.302  -0.331  -0.203  0.00  0.00    -0.075 A 
ATOM      2  C2  I4B d   1      -0.035  -0.755   1.059  0.00  0.00     0.003 A 
ATOM      3  C3  I4B d   1      -0.177   0.182   2.111  0.00  0.00     0.002 A 
ATOM      4  C4  I4B d   1       0.074   1.517   1.871  0.00  0.00    -0.004 A 
ATOM      5  C5  I4B d   1       0.393   1.948   0.586  0.00  0.00     0.002 A 
ATOM      6  C6  I4B d   1       0.496   1.020  -0.460  0.00  0.00     0.003 A 
ENDROOT
BRANCH   1   7
ATOM      7  C1' I4B d   1       0.476  -1.351  -1.283  0.00  0.00     0.060 C 
BRANCH   7   8
ATOM      8  C2' I4B d   1      -0.403  -2.539  -0.950  0.00  0.00    -0.013 C 
ATOM      9  C4' I4B d   1      -1.350  -2.850  -2.079  0.00  0.00     0.013 C 
ATOM     10  C3' I4B d   1       0.489  -3.707  -0.654  0.00  0.00     0.013 C 
ENDBRANCH   7   8
ENDBRANCH   1   7
TORSDOF 2
ENDMDL
