MODEL 1
REMARK minimizedAffinity -0.116298184
REMARK minimizedRMSD -1
REMARK  2 active torsions:
REMARK  status: ('A' for Active; 'I' for Inactive)
REMARK    1  A    between atoms: C2'_3  and  C1'_4 
REMARK    2  A    between atoms: C1'_4  and  C1_5 
ROOT
ATOM      1  C1  I4B d   1       0.443  -0.233   0.168  0.00  0.00    -0.075 A 
ATOM      2  C2  I4B d   1       0.171  -0.616   1.457  0.00  0.00     0.003 A 
ATOM      3  C3  I4B d   1      -0.376   0.312   2.376  0.00  0.00     0.002 A 
ATOM      4  C4  I4B d   1      -0.586   1.617   1.980  0.00  0.00    -0.004 A 
ATOM      5  C5  I4B d   1      -0.330   1.998   0.666  0.00  0.00     0.002 A 
ATOM      6  C6  I4B d   1       0.176   1.065  -0.250  0.00  0.00     0.003 A 
ENDROOT
BRANCH   1   7
ATOM      7  C1' I4B d   1       1.051  -1.230  -0.767  0.00  0.00     0.060 C 
BRANCH   7   8
ATOM      8  C2' I4B d   1       0.294  -2.533  -0.617  0.00  0.00    -0.013 C 
ATOM      9  C4' I4B d   1      -0.777  -2.666  -1.668  0.00  0.00     0.013 C 
ATOM     10  C3' I4B d   1       1.283  -3.657  -0.707  0.00  0.00     0.013 C 
ENDBRANCH   7   8
ENDBRANCH   1   7
TORSDOF 2
ENDMDL
