MODEL 1
REMARK minimizedAffinity 1.67307055
REMARK minimizedRMSD -1
REMARK  2 active torsions:
REMARK  status: ('A' for Active; 'I' for Inactive)
REMARK    1  A    between atoms: C2'_3  and  C1'_4 
REMARK    2  A    between atoms: C1'_4  and  C1_5 
ROOT
ATOM      1  C1  I4B d   1       0.131  -2.396  -0.820  0.00  0.00    -0.075 A 
ATOM      2  C2  I4B d   1      -0.891  -2.128  -1.697  0.00  0.00     0.003 A 
ATOM      3  C3  I4B d   1      -1.726  -3.174  -2.158  0.00  0.00     0.002 A 
ATOM      4  C4  I4B d   1      -1.476  -4.471  -1.759  0.00  0.00    -0.004 A 
ATOM      5  C5  I4B d   1      -0.454  -4.737  -0.852  0.00  0.00     0.002 A 
ATOM      6  C6  I4B d   1       0.347  -3.691  -0.369  0.00  0.00     0.003 A 
ENDROOT
BRANCH   1   7
ATOM      7  C1' I4B d   1       1.015  -1.273  -0.378  0.00  0.00     0.060 C 
BRANCH   7   8
ATOM      8  C2' I4B d   1       0.129  -0.104   0.005  0.00  0.00    -0.013 C 
ATOM      9  C4' I4B d   1       0.504   0.443   1.357  0.00  0.00     0.013 C 
ATOM     10  C3' I4B d   1       0.260   0.945  -1.059  0.00  0.00     0.013 C 
ENDBRANCH   7   8
ENDBRANCH   1   7
TORSDOF 2
ENDMDL
