MODEL 1
REMARK minimizedAffinity 11.0968218
REMARK minimizedRMSD -1
REMARK  2 active torsions:
REMARK  status: ('A' for Active; 'I' for Inactive)
REMARK    1  A    between atoms: C2'_3  and  C1'_4 
REMARK    2  A    between atoms: C1'_4  and  C1_5 
ROOT
ATOM      1  C1  I4B d   1       0.647   2.839   1.314  0.00  0.00    -0.075 A 
ATOM      2  C2  I4B d   1       0.418   1.852   0.387  0.00  0.00     0.003 A 
ATOM      3  C3  I4B d   1       0.219   0.514   0.805  0.00  0.00     0.002 A 
ATOM      4  C4  I4B d   1       0.307   0.200   2.146  0.00  0.00    -0.004 A 
ATOM      5  C5  I4B d   1       0.516   1.205   3.086  0.00  0.00     0.002 A 
ATOM      6  C6  I4B d   1       0.674   2.535   2.669  0.00  0.00     0.003 A 
ENDROOT
BRANCH   1   7
ATOM      7  C1' I4B d   1       0.885   4.236   0.836  0.00  0.00     0.060 C 
BRANCH   7   8
ATOM      8  C2' I4B d   1      -0.390   4.730   0.184  0.00  0.00    -0.013 C 
ATOM      9  C4' I4B d   1      -0.877   6.000   0.831  0.00  0.00     0.013 C 
ATOM     10  C3' I4B d   1      -0.113   4.938  -1.275  0.00  0.00     0.013 C 
ENDBRANCH   7   8
ENDBRANCH   1   7
TORSDOF 2
ENDMDL
