MODEL 1
REMARK minimizedAffinity -5.34619045
REMARK minimizedRMSD -1
REMARK  3 active torsions:
REMARK  status: ('A' for Active; 'I' for Inactive)
REMARK    1  A    between atoms: C3'_2  and  C2'_3 
REMARK    2  A    between atoms: C2'_3  and  C1'_4 
REMARK    3  A    between atoms: C1'_4  and  C1_5 
ROOT
ATOM      1  C1  N4B d   1      -1.491   2.317  -2.320  0.00  0.00    -0.075 A 
ATOM      2  C2  N4B d   1      -0.245   2.871  -2.687  0.00  0.00     0.002 A 
ATOM      3  C3  N4B d   1      -0.067   3.383  -3.949  0.00  0.00     0.002 A 
ATOM      4  C4  N4B d   1      -1.109   3.334  -4.863  0.00  0.00    -0.004 A 
ATOM      5  C5  N4B d   1      -2.317   2.820  -4.491  0.00  0.00     0.002 A 
ATOM      6  C6  N4B d   1      -2.512   2.306  -3.225  0.00  0.00     0.002 A 
ENDROOT
BRANCH   1   7
ATOM      7  C1' N4B d   1      -1.706   1.668  -0.980  0.00  0.00     0.057 C 
BRANCH   7   8
ATOM      8  C2' N4B d   1      -0.361   1.511  -0.277  0.00  0.00     0.009 C 
BRANCH   8   9
ATOM      9  C3' N4B d   1      -0.059   0.060   0.054  0.00  0.00     0.004 C 
ATOM     10  C4' N4B d   1       1.405  -0.259  -0.019  0.00  0.00     0.003 C 
ENDBRANCH   8   9
ENDBRANCH   7   8
ENDBRANCH   1   7
TORSDOF 3
ENDMDL
