MODEL 1
REMARK minimizedAffinity -5.33084822
REMARK minimizedRMSD -1
REMARK  3 active torsions:
REMARK  status: ('A' for Active; 'I' for Inactive)
REMARK    1  A    between atoms: C3'_2  and  C2'_3 
REMARK    2  A    between atoms: C2'_3  and  C1'_4 
REMARK    3  A    between atoms: C1'_4  and  C1_5 
ROOT
ATOM      1  C1  N4B d   1       0.567  -0.427   0.066  0.00  0.00    -0.075 A 
ATOM      2  C2  N4B d   1       1.765  -1.172  -0.000  0.00  0.00     0.002 A 
ATOM      3  C3  N4B d   1       1.969  -2.222   0.861  0.00  0.00     0.002 A 
ATOM      4  C4  N4B d   1       1.002  -2.532   1.806  0.00  0.00    -0.004 A 
ATOM      5  C5  N4B d   1      -0.163  -1.823   1.846  0.00  0.00     0.002 A 
ATOM      6  C6  N4B d   1      -0.383  -0.768   0.984  0.00  0.00     0.002 A 
ENDROOT
BRANCH   1   7
ATOM      7  C1' N4B d   1       0.336   0.783  -0.797  0.00  0.00     0.057 C 
BRANCH   7   8
ATOM      8  C2' N4B d   1      -1.157   1.092  -0.837  0.00  0.00     0.009 C 
BRANCH   8   9
ATOM      9  C3' N4B d   1      -1.493   2.139  -1.885  0.00  0.00     0.004 C 
ATOM     10  C4' N4B d   1      -2.185   1.560  -3.083  0.00  0.00     0.003 C 
ENDBRANCH   8   9
ENDBRANCH   7   8
ENDBRANCH   1   7
TORSDOF 3
ENDMDL
