MODEL 1
REMARK minimizedAffinity -6.01670122
REMARK minimizedRMSD -1
REMARK  3 active torsions:
REMARK  status: ('A' for Active; 'I' for Inactive)
REMARK    1  A    between atoms: C3'_2  and  C2'_3 
REMARK    2  A    between atoms: C2'_3  and  C1'_4 
REMARK    3  A    between atoms: C1'_4  and  C1_5 
ROOT
ATOM      1  C1  N4B d   1      -0.102  -0.036   0.508  0.00  0.00    -0.075 A 
ATOM      2  C2  N4B d   1       1.119  -0.407  -0.095  0.00  0.00     0.002 A 
ATOM      3  C3  N4B d   1       1.717  -1.598   0.240  0.00  0.00     0.002 A 
ATOM      4  C4  N4B d   1       1.124  -2.420   1.186  0.00  0.00    -0.004 A 
ATOM      5  C5  N4B d   1      -0.069  -2.066   1.746  0.00  0.00     0.002 A 
ATOM      6  C6  N4B d   1      -0.683  -0.874   1.416  0.00  0.00     0.002 A 
ENDROOT
BRANCH   1   7
ATOM      7  C1' N4B d   1      -0.749   1.295   0.237  0.00  0.00     0.057 C 
BRANCH   7   8
ATOM      8  C2' N4B d   1      -0.785   1.537  -1.269  0.00  0.00     0.009 C 
BRANCH   8   9
ATOM      9  C3' N4B d   1      -2.110   1.114  -1.881  0.00  0.00     0.004 C 
ATOM     10  C4' N4B d   1      -2.426   1.851  -3.147  0.00  0.00     0.003 C 
ENDBRANCH   8   9
ENDBRANCH   7   8
ENDBRANCH   1   7
TORSDOF 3
ENDMDL
