MODEL 1
REMARK minimizedAffinity -6.02427912
REMARK minimizedRMSD -1
REMARK  3 active torsions:
REMARK  status: ('A' for Active; 'I' for Inactive)
REMARK    1  A    between atoms: C3'_2  and  C2'_3 
REMARK    2  A    between atoms: C2'_3  and  C1'_4 
REMARK    3  A    between atoms: C1'_4  and  C1_5 
ROOT
ATOM      1  C1  N4B d   1       0.039  -0.151   0.076  0.00  0.00    -0.075 A 
ATOM      2  C2  N4B d   1       1.305  -0.197  -0.548  0.00  0.00     0.002 A 
ATOM      3  C3  N4B d   1       2.115  -1.293  -0.378  0.00  0.00     0.002 A 
ATOM      4  C4  N4B d   1       1.691  -2.341   0.423  0.00  0.00    -0.004 A 
ATOM      5  C5  N4B d   1       0.456  -2.300   1.003  0.00  0.00     0.002 A 
ATOM      6  C6  N4B d   1      -0.370  -1.207   0.837  0.00  0.00     0.002 A 
ENDROOT
BRANCH   1   7
ATOM      7  C1' N4B d   1      -0.846   1.063  -0.010  0.00  0.00     0.057 C 
BRANCH   7   8
ATOM      8  C2' N4B d   1      -0.853   1.575  -1.447  0.00  0.00     0.009 C 
BRANCH   8   9
ATOM      9  C3' N4B d   1      -2.127   1.192  -2.181  0.00  0.00     0.004 C 
ATOM     10  C4' N4B d   1      -1.985   1.272  -3.672  0.00  0.00     0.003 C 
ENDBRANCH   8   9
ENDBRANCH   7   8
ENDBRANCH   1   7
TORSDOF 3
ENDMDL
