MODEL 1
REMARK minimizedAffinity -3.93426871
REMARK minimizedRMSD -1
REMARK  3 active torsions:
REMARK  status: ('A' for Active; 'I' for Inactive)
REMARK    1  A    between atoms: C3'_2  and  C2'_3 
REMARK    2  A    between atoms: C2'_3  and  C1'_4 
REMARK    3  A    between atoms: C1'_4  and  C1_5 
ROOT
ATOM      1  C1  N4B d   1      -0.720   0.419   0.157  0.00  0.00    -0.075 A 
ATOM      2  C2  N4B d   1      -1.623   0.798   1.174  0.00  0.00     0.002 A 
ATOM      3  C3  N4B d   1      -2.084  -0.138   2.067  0.00  0.00     0.002 A 
ATOM      4  C4  N4B d   1      -1.671  -1.457   1.952  0.00  0.00    -0.004 A 
ATOM      5  C5  N4B d   1      -0.779  -1.810   0.983  0.00  0.00     0.002 A 
ATOM      6  C6  N4B d   1      -0.304  -0.879   0.081  0.00  0.00     0.002 A 
ENDROOT
BRANCH   1   7
ATOM      7  C1' N4B d   1      -0.255   1.389  -0.895  0.00  0.00     0.057 C 
BRANCH   7   8
ATOM      8  C2' N4B d   1      -1.439   2.237  -1.352  0.00  0.00     0.009 C 
BRANCH   8   9
ATOM      9  C3' N4B d   1      -1.614   2.203  -2.860  0.00  0.00     0.004 C 
ATOM     10  C4' N4B d   1      -3.041   2.002  -3.275  0.00  0.00     0.003 C 
ENDBRANCH   8   9
ENDBRANCH   7   8
ENDBRANCH   1   7
TORSDOF 3
ENDMDL
