MODEL 1
REMARK minimizedAffinity -5.98577356
REMARK minimizedRMSD -1
REMARK  3 active torsions:
REMARK  status: ('A' for Active; 'I' for Inactive)
REMARK    1  A    between atoms: C3'_2  and  C2'_3 
REMARK    2  A    between atoms: C2'_3  and  C1'_4 
REMARK    3  A    between atoms: C1'_4  and  C1_5 
ROOT
ATOM      1  C1  N4B d   1      -0.446  -0.708   0.852  0.00  0.00    -0.075 A 
ATOM      2  C2  N4B d   1       0.779  -0.851   0.163  0.00  0.00     0.002 A 
ATOM      3  C3  N4B d   1       1.663  -1.834   0.532  0.00  0.00     0.002 A 
ATOM      4  C4  N4B d   1       1.356  -2.670   1.595  0.00  0.00    -0.004 A 
ATOM      5  C5  N4B d   1       0.160  -2.541   2.239  0.00  0.00     0.002 A 
ATOM      6  C6  N4B d   1      -0.741  -1.560   1.876  0.00  0.00     0.002 A 
ENDROOT
BRANCH   1   7
ATOM      7  C1' N4B d   1      -1.407   0.407   0.540  0.00  0.00     0.057 C 
BRANCH   7   8
ATOM      8  C2' N4B d   1      -1.102   0.957  -0.850  0.00  0.00     0.009 C 
BRANCH   8   9
ATOM      9  C3' N4B d   1      -2.368   1.274  -1.626  0.00  0.00     0.004 C 
ATOM     10  C4' N4B d   1      -2.100   2.035  -2.890  0.00  0.00     0.003 C 
ENDBRANCH   8   9
ENDBRANCH   7   8
ENDBRANCH   1   7
TORSDOF 3
ENDMDL
