MODEL 1
REMARK minimizedAffinity -5.2000103
REMARK minimizedRMSD -1
REMARK  3 active torsions:
REMARK  status: ('A' for Active; 'I' for Inactive)
REMARK    1  A    between atoms: C3'_2  and  C2'_3 
REMARK    2  A    between atoms: C2'_3  and  C1'_4 
REMARK    3  A    between atoms: C1'_4  and  C1_5 
ROOT
ATOM      1  C1  N4B d   1      -0.284   0.691  -0.125  0.00  0.00    -0.075 A 
ATOM      2  C2  N4B d   1       0.998   0.841  -0.698  0.00  0.00     0.002 A 
ATOM      3  C3  N4B d   1       1.908  -0.185  -0.622  0.00  0.00     0.002 A 
ATOM      4  C4  N4B d   1       1.566  -1.357   0.036  0.00  0.00    -0.004 A 
ATOM      5  C5  N4B d   1       0.317  -1.503   0.564  0.00  0.00     0.002 A 
ATOM      6  C6  N4B d   1      -0.609  -0.482   0.492  0.00  0.00     0.002 A 
ENDROOT
BRANCH   1   7
ATOM      7  C1' N4B d   1      -1.283   1.816  -0.108  0.00  0.00     0.057 C 
BRANCH   7   8
ATOM      8  C2' N4B d   1      -1.524   2.294  -1.536  0.00  0.00     0.009 C 
BRANCH   8   9
ATOM      9  C3' N4B d   1      -2.229   1.243  -2.376  0.00  0.00     0.004 C 
ATOM     10  C4' N4B d   1      -1.929   1.371  -3.840  0.00  0.00     0.003 C 
ENDBRANCH   8   9
ENDBRANCH   7   8
ENDBRANCH   1   7
TORSDOF 3
ENDMDL
