MODEL 1
REMARK minimizedAffinity 10.8941927
REMARK minimizedRMSD -1
REMARK  0 active torsions:
REMARK  status: ('A' for Active; 'I' for Inactive)
ROOT
ATOM      1  C   UNL d   1       0.760  -2.158   0.729  0.00  0.00     0.023 A 
ATOM      2  C1  UNL d   1       2.040  -1.908   1.223  0.00  0.00     0.003 A 
ATOM      3  C2  UNL d   1       2.350  -0.659   1.766  0.00  0.00     0.048 A 
ATOM      4  C3  UNL d   1       1.373   0.335   1.813  0.00  0.00     0.023 A 
ATOM      5  C4  UNL d   1       0.090   0.090   1.321  0.00  0.00     0.048 A 
ATOM      6  C5  UNL d   1      -0.214  -1.160   0.778  0.00  0.00     0.003 A 
ATOM      7  I   UNL d   1       1.831   2.195   2.620  0.00  0.00    -0.146 I 
ENDROOT
TORSDOF 0
ENDMDL
