MODEL 1
REMARK minimizedAffinity 6.57661629
REMARK minimizedRMSD -1
REMARK  0 active torsions:
REMARK  status: ('A' for Active; 'I' for Inactive)
ROOT
ATOM      1  C   UNL d   1       3.085   0.092   2.569  0.00  0.00     0.023 A 
ATOM      2  C1  UNL d   1       2.976  -0.235   1.217  0.00  0.00     0.003 A 
ATOM      3  C2  UNL d   1       2.478   0.701   0.309  0.00  0.00     0.048 A 
ATOM      4  C3  UNL d   1       2.092   1.963   0.759  0.00  0.00     0.023 A 
ATOM      5  C4  UNL d   1       2.199   2.295   2.110  0.00  0.00     0.048 A 
ATOM      6  C5  UNL d   1       2.696   1.355   3.015  0.00  0.00     0.003 A 
ATOM      7  I   UNL d   1       1.351   3.359  -0.591  0.00  0.00    -0.146 I 
ENDROOT
TORSDOF 0
ENDMDL
