MODEL 1
REMARK minimizedAffinity 8.56814766
REMARK minimizedRMSD -1
REMARK  0 active torsions:
REMARK  status: ('A' for Active; 'I' for Inactive)
ROOT
ATOM      1  C   UNL d   1       0.258  -5.630  -0.507  0.00  0.00     0.023 A 
ATOM      2  C1  UNL d   1       1.552  -5.901  -0.064  0.00  0.00     0.003 A 
ATOM      3  C2  UNL d   1       2.600  -6.000  -0.982  0.00  0.00     0.048 A 
ATOM      4  C3  UNL d   1       2.346  -5.825  -2.342  0.00  0.00     0.023 A 
ATOM      5  C4  UNL d   1       1.052  -5.553  -2.790  0.00  0.00     0.048 A 
ATOM      6  C5  UNL d   1       0.008  -5.456  -1.868  0.00  0.00     0.003 A 
ATOM      7  I   UNL d   1       3.903  -5.972  -3.711  0.00  0.00    -0.146 I 
ENDROOT
TORSDOF 0
ENDMDL
