MODEL 1
REMARK minimizedAffinity 4.01766729
REMARK minimizedRMSD -1
REMARK  0 active torsions:
REMARK  status: ('A' for Active; 'I' for Inactive)
ROOT
ATOM      1  C   UNL d   1      -4.663  -5.982  -5.856  0.00  0.00     0.023 A 
ATOM      2  C1  UNL d   1      -3.886  -5.968  -4.697  0.00  0.00     0.003 A 
ATOM      3  C2  UNL d   1      -4.163  -5.052  -3.680  0.00  0.00     0.048 A 
ATOM      4  C3  UNL d   1      -5.219  -4.153  -3.828  0.00  0.00     0.023 A 
ATOM      5  C4  UNL d   1      -5.999  -4.164  -4.985  0.00  0.00     0.048 A 
ATOM      6  C5  UNL d   1      -5.718  -5.081  -6.000  0.00  0.00     0.003 A 
ATOM      7  I   UNL d   1      -5.634  -2.789  -2.316  0.00  0.00    -0.146 I 
ENDROOT
TORSDOF 0
ENDMDL
