MODEL 1
REMARK minimizedAffinity 10.7662201
REMARK minimizedRMSD -1
REMARK  0 active torsions:
REMARK  status: ('A' for Active; 'I' for Inactive)
ROOT
ATOM      1  C   UNL d   1       1.639   4.635  -0.770  0.00  0.00     0.023 A 
ATOM      2  C1  UNL d   1       0.711   4.323   0.224  0.00  0.00     0.003 A 
ATOM      3  C2  UNL d   1       0.800   3.109   0.908  0.00  0.00     0.048 A 
ATOM      4  C3  UNL d   1       1.820   2.211   0.594  0.00  0.00     0.023 A 
ATOM      5  C4  UNL d   1       2.751   2.519  -0.399  0.00  0.00     0.048 A 
ATOM      6  C5  UNL d   1       2.658   3.734  -1.081  0.00  0.00     0.003 A 
ATOM      7  I   UNL d   1       1.954   0.404   1.610  0.00  0.00    -0.146 I 
ENDROOT
TORSDOF 0
ENDMDL
