MODEL 1
REMARK minimizedAffinity 12.1222181
REMARK minimizedRMSD -1
REMARK  0 active torsions:
REMARK  status: ('A' for Active; 'I' for Inactive)
ROOT
ATOM      1  C   UNL d   1       1.303   0.048   0.884  0.00  0.00     0.023 A 
ATOM      2  C1  UNL d   1       2.452   0.146   1.669  0.00  0.00     0.003 A 
ATOM      3  C2  UNL d   1       2.605  -0.671   2.791  0.00  0.00     0.048 A 
ATOM      4  C3  UNL d   1       1.605  -1.585   3.121  0.00  0.00     0.023 A 
ATOM      5  C4  UNL d   1       0.454  -1.688   2.338  0.00  0.00     0.048 A 
ATOM      6  C5  UNL d   1       0.306  -0.868   1.218  0.00  0.00     0.003 A 
ATOM      7  I   UNL d   1       1.830  -2.803   4.791  0.00  0.00    -0.146 I 
ENDROOT
TORSDOF 0
ENDMDL
