MODEL 1
REMARK minimizedAffinity 10.8132095
REMARK minimizedRMSD -1
REMARK  0 active torsions:
REMARK  status: ('A' for Active; 'I' for Inactive)
ROOT
ATOM      1  C   UNL d   1      -4.492   1.509  -3.763  0.00  0.00     0.023 A 
ATOM      2  C1  UNL d   1      -3.662   1.555  -2.643  0.00  0.00     0.003 A 
ATOM      3  C2  UNL d   1      -3.998   2.365  -1.557  0.00  0.00     0.048 A 
ATOM      4  C3  UNL d   1      -5.166   3.126  -1.596  0.00  0.00     0.023 A 
ATOM      5  C4  UNL d   1      -6.000   3.082  -2.715  0.00  0.00     0.048 A 
ATOM      6  C5  UNL d   1      -5.659   2.271  -3.799  0.00  0.00     0.003 A 
ATOM      7  I   UNL d   1      -5.668   4.332   0.020  0.00  0.00    -0.146 I 
ENDROOT
TORSDOF 0
ENDMDL
