MODEL 1
REMARK minimizedAffinity 13.5175867
REMARK minimizedRMSD -1
REMARK  0 active torsions:
REMARK  status: ('A' for Active; 'I' for Inactive)
ROOT
ATOM      1  C   UNL d   1       2.277   2.298   2.611  0.00  0.00     0.023 A 
ATOM      2  C1  UNL d   1       3.369   1.941   1.819  0.00  0.00     0.003 A 
ATOM      3  C2  UNL d   1       3.577   0.603   1.476  0.00  0.00     0.048 A 
ATOM      4  C3  UNL d   1       2.689  -0.372   1.927  0.00  0.00     0.023 A 
ATOM      5  C4  UNL d   1       1.594  -0.020   2.718  0.00  0.00     0.048 A 
ATOM      6  C5  UNL d   1       1.391   1.319   3.060  0.00  0.00     0.003 A 
ATOM      7  I   UNL d   1       2.996  -2.363   1.417  0.00  0.00    -0.146 I 
ENDROOT
TORSDOF 0
ENDMDL
