MODEL 1
REMARK minimizedAffinity 8.23546886
REMARK minimizedRMSD -1
REMARK  0 active torsions:
REMARK  status: ('A' for Active; 'I' for Inactive)
ROOT
ATOM      1  C   UNL d   1      -4.128  -1.883  -4.121  0.00  0.00     0.023 A 
ATOM      2  C1  UNL d   1      -3.916  -2.198  -5.463  0.00  0.00     0.003 A 
ATOM      3  C2  UNL d   1      -4.452  -3.371  -6.000  0.00  0.00     0.048 A 
ATOM      4  C3  UNL d   1      -5.199  -4.224  -5.189  0.00  0.00     0.023 A 
ATOM      5  C4  UNL d   1      -5.415  -3.912  -3.845  0.00  0.00     0.048 A 
ATOM      6  C5  UNL d   1      -4.877  -2.739  -3.313  0.00  0.00     0.003 A 
ATOM      7  I   UNL d   1      -5.998  -5.969  -5.985  0.00  0.00    -0.146 I 
ENDROOT
TORSDOF 0
ENDMDL
