MODEL 1
REMARK minimizedAffinity 3.69198394
REMARK minimizedRMSD -1
REMARK  0 active torsions:
REMARK  status: ('A' for Active; 'I' for Inactive)
ROOT
ATOM      1  C   UNL d   1       4.635  -0.789  -5.070  0.00  0.00     0.023 A 
ATOM      2  C1  UNL d   1       5.602  -1.252  -5.962  0.00  0.00     0.003 A 
ATOM      3  C2  UNL d   1       5.995  -2.591  -5.936  0.00  0.00     0.048 A 
ATOM      4  C3  UNL d   1       5.415  -3.463  -5.015  0.00  0.00     0.023 A 
ATOM      5  C4  UNL d   1       4.446  -3.005  -4.121  0.00  0.00     0.048 A 
ATOM      6  C5  UNL d   1       4.058  -1.664  -4.150  0.00  0.00     0.003 A 
ATOM      7  I   UNL d   1       5.997  -5.458  -4.974  0.00  0.00    -0.146 I 
ENDROOT
TORSDOF 0
ENDMDL
