MODEL 1
REMARK minimizedAffinity -3.42304707
REMARK minimizedRMSD -1
REMARK  1 active torsions:
REMARK  status: ('A' for Active; 'I' for Inactive)
REMARK    1  A    between atoms: C3_4  and  O_7 
ROOT
ATOM      1  C   UNL d   1       0.090   2.625   0.687  0.00  0.00    -0.033 A 
ATOM      2  C1  UNL d   1       1.158   1.743   0.864  0.00  0.00     0.039 A 
ATOM      3  C2  UNL d   1       1.100   0.456   0.324  0.00  0.00    -0.080 A 
ATOM      4  C3  UNL d   1      -0.029   0.066  -0.391  0.00  0.00     0.150 A 
ATOM      5  C4  UNL d   1      -1.095   0.941  -0.574  0.00  0.00    -0.007 A 
ATOM      6  C5  UNL d   1      -1.036   2.224  -0.033  0.00  0.00     0.039 A 
ENDROOT
BRANCH   4   7
ATOM      7  O   UNL d   1      -0.134  -1.181  -0.932  0.00  0.00    -0.526 OA
ATOM      8  H5  UNL d   1       0.665  -1.685  -0.701  0.00  0.00     0.418 HD
ENDBRANCH   4   7
TORSDOF 1
ENDMDL
