MODEL 1
REMARK minimizedAffinity -1.66403329
REMARK minimizedRMSD -1
REMARK  1 active torsions:
REMARK  status: ('A' for Active; 'I' for Inactive)
REMARK    1  A    between atoms: C3_4  and  O_7 
ROOT
ATOM      1  C   UNL d   1      -0.112   0.453   0.562  0.00  0.00    -0.033 A 
ATOM      2  C1  UNL d   1      -0.929   0.796  -0.516  0.00  0.00     0.039 A 
ATOM      3  C2  UNL d   1      -1.227  -0.151  -1.498  0.00  0.00    -0.080 A 
ATOM      4  C3  UNL d   1      -0.702  -1.435  -1.390  0.00  0.00     0.150 A 
ATOM      5  C4  UNL d   1       0.110  -1.786  -0.317  0.00  0.00    -0.007 A 
ATOM      6  C5  UNL d   1       0.407  -0.839   0.663  0.00  0.00     0.039 A 
ENDROOT
BRANCH   4   7
ATOM      7  O   UNL d   1      -0.960  -2.392  -2.327  0.00  0.00    -0.526 OA
ATOM      8  H5  UNL d   1      -1.511  -1.999  -3.024  0.00  0.00     0.418 HD
ENDBRANCH   4   7
TORSDOF 1
ENDMDL
