MODEL 1
REMARK minimizedAffinity -2.94007826
REMARK minimizedRMSD -1
REMARK  1 active torsions:
REMARK  status: ('A' for Active; 'I' for Inactive)
REMARK    1  A    between atoms: C3_4  and  O_7 
ROOT
ATOM      1  C   UNL d   1      -0.010  -3.600  -0.718  0.00  0.00    -0.033 A 
ATOM      2  C1  UNL d   1       0.726  -2.720   0.077  0.00  0.00     0.039 A 
ATOM      3  C2  UNL d   1       0.358  -1.376   0.159  0.00  0.00    -0.080 A 
ATOM      4  C3  UNL d   1      -0.746  -0.925  -0.558  0.00  0.00     0.150 A 
ATOM      5  C4  UNL d   1      -1.487  -1.797  -1.350  0.00  0.00    -0.007 A 
ATOM      6  C5  UNL d   1      -1.118  -3.139  -1.431  0.00  0.00     0.039 A 
ENDROOT
BRANCH   4   7
ATOM      7  O   UNL d   1      -1.141   0.379  -0.514  0.00  0.00    -0.526 OA
ATOM      8  H5  UNL d   1      -0.519   0.870   0.049  0.00  0.00     0.418 HD
ENDBRANCH   4   7
TORSDOF 1
ENDMDL
