MODEL 1
REMARK minimizedAffinity -4.21740913
REMARK minimizedRMSD -1
REMARK  1 active torsions:
REMARK  status: ('A' for Active; 'I' for Inactive)
REMARK    1  A    between atoms: C3_4  and  O_7 
ROOT
ATOM      1  C   UNL d   1      -0.027  -0.997  -0.800  0.00  0.00    -0.033 A 
ATOM      2  C1  UNL d   1      -0.879  -0.338  -1.688  0.00  0.00     0.039 A 
ATOM      3  C2  UNL d   1      -1.376   0.928  -1.372  0.00  0.00    -0.080 A 
ATOM      4  C3  UNL d   1      -1.014   1.523  -0.166  0.00  0.00     0.150 A 
ATOM      5  C4  UNL d   1      -0.163   0.873   0.722  0.00  0.00    -0.007 A 
ATOM      6  C5  UNL d   1       0.332  -0.391   0.404  0.00  0.00     0.039 A 
ENDROOT
BRANCH   4   7
ATOM      7  O   UNL d   1      -1.478   2.755   0.188  0.00  0.00    -0.526 OA
ATOM      8  H5  UNL d   1      -2.078   3.070  -0.508  0.00  0.00     0.418 HD
ENDBRANCH   4   7
TORSDOF 1
ENDMDL
