MODEL 1
REMARK minimizedAffinity -3.40122557
REMARK minimizedRMSD -1
REMARK  1 active torsions:
REMARK  status: ('A' for Active; 'I' for Inactive)
REMARK    1  A    between atoms: C3_4  and  O_7 
ROOT
ATOM      1  C   UNL d   1      -0.703   2.398   0.650  0.00  0.00    -0.033 A 
ATOM      2  C1  UNL d   1      -1.722   1.481   0.384  0.00  0.00     0.039 A 
ATOM      3  C2  UNL d   1      -1.408   0.156   0.076  0.00  0.00    -0.080 A 
ATOM      4  C3  UNL d   1      -0.073  -0.239   0.038  0.00  0.00     0.150 A 
ATOM      5  C4  UNL d   1       0.946   0.668   0.306  0.00  0.00    -0.007 A 
ATOM      6  C5  UNL d   1       0.631   1.991   0.613  0.00  0.00     0.039 A 
ENDROOT
BRANCH   4   7
ATOM      7  O   UNL d   1       0.282  -1.521  -0.263  0.00  0.00    -0.526 OA
ATOM      8  H5  UNL d   1      -0.525  -2.027  -0.453  0.00  0.00     0.418 HD
ENDBRANCH   4   7
TORSDOF 1
ENDMDL
