MODEL 1
REMARK minimizedAffinity -2.50992012
REMARK minimizedRMSD -1
REMARK  1 active torsions:
REMARK  status: ('A' for Active; 'I' for Inactive)
REMARK    1  A    between atoms: C3_4  and  O_7 
ROOT
ATOM      1  C   UNL d   1      -0.387   2.573   0.731  0.00  0.00    -0.033 A 
ATOM      2  C1  UNL d   1      -1.582   2.078   0.206  0.00  0.00     0.039 A 
ATOM      3  C2  UNL d   1      -1.646   0.768  -0.274  0.00  0.00    -0.080 A 
ATOM      4  C3  UNL d   1      -0.510  -0.035  -0.221  0.00  0.00     0.150 A 
ATOM      5  C4  UNL d   1       0.683   0.451   0.305  0.00  0.00    -0.007 A 
ATOM      6  C5  UNL d   1       0.745   1.759   0.782  0.00  0.00     0.039 A 
ENDROOT
BRANCH   4   7
ATOM      7  O   UNL d   1      -0.522  -1.318  -0.681  0.00  0.00    -0.526 OA
ATOM      8  H5  UNL d   1      -1.405  -1.507  -1.042  0.00  0.00     0.418 HD
ENDBRANCH   4   7
TORSDOF 1
ENDMDL
