MODEL 1
REMARK minimizedAffinity -2.50397182
REMARK minimizedRMSD -1
REMARK  1 active torsions:
REMARK  status: ('A' for Active; 'I' for Inactive)
REMARK    1  A    between atoms: C3_4  and  O_7 
ROOT
ATOM      1  C   UNL d   1      -0.424  -1.417  -0.515  0.00  0.00    -0.033 A 
ATOM      2  C1  UNL d   1      -0.907  -0.486  -1.436  0.00  0.00     0.039 A 
ATOM      3  C2  UNL d   1      -1.188   0.820  -1.031  0.00  0.00    -0.080 A 
ATOM      4  C3  UNL d   1      -0.980   1.182   0.297  0.00  0.00     0.150 A 
ATOM      5  C4  UNL d   1      -0.495   0.261   1.220  0.00  0.00    -0.007 A 
ATOM      6  C5  UNL d   1      -0.217  -1.043   0.813  0.00  0.00     0.039 A 
ENDROOT
BRANCH   4   7
ATOM      7  O   UNL d   1      -1.243   2.444   0.741  0.00  0.00    -0.526 OA
ATOM      8  H5  UNL d   1      -1.599   2.963   0.000  0.00  0.00     0.418 HD
ENDBRANCH   4   7
TORSDOF 1
ENDMDL
