MODEL 1
REMARK minimizedAffinity -2.96869206
REMARK minimizedRMSD -1
REMARK  1 active torsions:
REMARK  status: ('A' for Active; 'I' for Inactive)
REMARK    1  A    between atoms: C3_4  and  O_7 
ROOT
ATOM      1  C   UNL d   1      -0.912   0.661   0.860  0.00  0.00    -0.033 A 
ATOM      2  C1  UNL d   1      -0.538  -0.523   1.498  0.00  0.00     0.039 A 
ATOM      3  C2  UNL d   1      -0.209  -1.651   0.744  0.00  0.00    -0.080 A 
ATOM      4  C3  UNL d   1      -0.257  -1.582  -0.646  0.00  0.00     0.150 A 
ATOM      5  C4  UNL d   1      -0.625  -0.404  -1.288  0.00  0.00    -0.007 A 
ATOM      6  C5  UNL d   1      -0.954   0.721  -0.533  0.00  0.00     0.039 A 
ENDROOT
BRANCH   4   7
ATOM      7  O   UNL d   1       0.050  -2.658  -1.424  0.00  0.00    -0.526 OA
ATOM      8  H5  UNL d   1       0.257  -3.409  -0.843  0.00  0.00     0.418 HD
ENDBRANCH   4   7
TORSDOF 1
ENDMDL
