MODEL 1
REMARK minimizedAffinity -2.8097055
REMARK minimizedRMSD -1
REMARK  1 active torsions:
REMARK  status: ('A' for Active; 'I' for Inactive)
REMARK    1  A    between atoms: C3_4  and  O_7 
ROOT
ATOM      1  C   UNL d   1      -0.676   0.548   0.167  0.00  0.00    -0.033 A 
ATOM      2  C1  UNL d   1      -1.738   0.445  -0.734  0.00  0.00     0.039 A 
ATOM      3  C2  UNL d   1      -1.959  -0.749  -1.422  0.00  0.00    -0.080 A 
ATOM      4  C3  UNL d   1      -1.112  -1.832  -1.201  0.00  0.00     0.150 A 
ATOM      5  C4  UNL d   1      -0.055  -1.738  -0.302  0.00  0.00    -0.007 A 
ATOM      6  C5  UNL d   1       0.165  -0.544   0.384  0.00  0.00     0.039 A 
ENDROOT
BRANCH   4   7
ATOM      7  O   UNL d   1      -1.285  -3.017  -1.853  0.00  0.00    -0.526 OA
ATOM      8  H5  UNL d   1      -2.036  -2.926  -2.462  0.00  0.00     0.418 HD
ENDBRANCH   4   7
TORSDOF 1
ENDMDL
