MODEL 1
REMARK minimizedAffinity -4.13097858
REMARK minimizedRMSD -1
REMARK  1 active torsions:
REMARK  status: ('A' for Active; 'I' for Inactive)
REMARK    1  A    between atoms: C3_4  and  O_7 
ROOT
ATOM      1  C   UNL d   1      -0.239   2.740   0.709  0.00  0.00    -0.033 A 
ATOM      2  C1  UNL d   1      -1.437   2.161   0.285  0.00  0.00     0.039 A 
ATOM      3  C2  UNL d   1      -1.468   0.819  -0.099  0.00  0.00    -0.080 A 
ATOM      4  C3  UNL d   1      -0.296   0.069  -0.055  0.00  0.00     0.150 A 
ATOM      5  C4  UNL d   1       0.900   0.638   0.369  0.00  0.00    -0.007 A 
ATOM      6  C5  UNL d   1       0.929   1.978   0.752  0.00  0.00     0.039 A 
ENDROOT
BRANCH   4   7
ATOM      7  O   UNL d   1      -0.276  -1.243  -0.426  0.00  0.00    -0.526 OA
ATOM      8  H5  UNL d   1      -1.167  -1.493  -0.723  0.00  0.00     0.418 HD
ENDBRANCH   4   7
TORSDOF 1
ENDMDL
