MODEL 1
REMARK minimizedAffinity -0.607559204
REMARK minimizedRMSD -1
REMARK  1 active torsions:
REMARK  status: ('A' for Active; 'I' for Inactive)
REMARK    1  A    between atoms: C3_4  and  O_7 
ROOT
ATOM      1  C   UNL d   1      -0.678   2.646   1.249  0.00  0.00    -0.033 A 
ATOM      2  C1  UNL d   1       0.625   2.144   1.255  0.00  0.00     0.039 A 
ATOM      3  C2  UNL d   1       0.872   0.834   0.839  0.00  0.00    -0.080 A 
ATOM      4  C3  UNL d   1      -0.190   0.038   0.419  0.00  0.00     0.150 A 
ATOM      5  C4  UNL d   1      -1.490   0.533   0.406  0.00  0.00    -0.007 A 
ATOM      6  C5  UNL d   1      -1.735   1.841   0.823  0.00  0.00     0.039 A 
ENDROOT
BRANCH   4   7
ATOM      7  O   UNL d   1       0.002  -1.247   0.008  0.00  0.00    -0.526 OA
ATOM      8  H5  UNL d   1       0.946  -1.461   0.098  0.00  0.00     0.418 HD
ENDBRANCH   4   7
TORSDOF 1
ENDMDL
