MODEL 1
REMARK minimizedAffinity -3.15036583
REMARK minimizedRMSD -1
REMARK  1 active torsions:
REMARK  status: ('A' for Active; 'I' for Inactive)
REMARK    1  A    between atoms: C3_4  and  O_7 
ROOT
ATOM      1  C   UNL d   1      -0.634  -3.326  -2.633  0.00  0.00    -0.033 A 
ATOM      2  C1  UNL d   1      -1.071  -2.001  -2.701  0.00  0.00     0.039 A 
ATOM      3  C2  UNL d   1      -0.920  -1.157  -1.599  0.00  0.00    -0.080 A 
ATOM      4  C3  UNL d   1      -0.329  -1.648  -0.438  0.00  0.00     0.150 A 
ATOM      5  C4  UNL d   1       0.113  -2.965  -0.365  0.00  0.00    -0.007 A 
ATOM      6  C5  UNL d   1      -0.041  -3.807  -1.466  0.00  0.00     0.039 A 
ENDROOT
BRANCH   4   7
ATOM      7  O   UNL d   1      -0.164  -0.863   0.665  0.00  0.00    -0.526 OA
ATOM      8  H5  UNL d   1      -0.542   0.012   0.478  0.00  0.00     0.418 HD
ENDBRANCH   4   7
TORSDOF 1
ENDMDL
