MODEL 1
REMARK minimizedAffinity -1.07817638
REMARK minimizedRMSD -1
REMARK  1 active torsions:
REMARK  status: ('A' for Active; 'I' for Inactive)
REMARK    1  A    between atoms: C3_4  and  O_7 
ROOT
ATOM      1  C   UNL d   1      -0.185  -1.622  -0.362  0.00  0.00    -0.033 A 
ATOM      2  C1  UNL d   1       0.440  -1.043   0.744  0.00  0.00     0.039 A 
ATOM      3  C2  UNL d   1       0.131   0.267   1.116  0.00  0.00    -0.080 A 
ATOM      4  C3  UNL d   1      -0.803   0.985   0.375  0.00  0.00     0.150 A 
ATOM      5  C4  UNL d   1      -1.432   0.413  -0.725  0.00  0.00    -0.007 A 
ATOM      6  C5  UNL d   1      -1.122  -0.895  -1.096  0.00  0.00     0.039 A 
ENDROOT
BRANCH   4   7
ATOM      7  O   UNL d   1      -1.133   2.268   0.697  0.00  0.00    -0.526 OA
ATOM      8  H5  UNL d   1      -0.599   2.541   1.462  0.00  0.00     0.418 HD
ENDBRANCH   4   7
TORSDOF 1
ENDMDL
