MODEL 1
REMARK minimizedAffinity -2.25380111
REMARK minimizedRMSD -1
REMARK  1 active torsions:
REMARK  status: ('A' for Active; 'I' for Inactive)
REMARK    1  A    between atoms: C3_4  and  O_7 
ROOT
ATOM      1  C   UNL d   1      -0.038  -0.457   0.290  0.00  0.00    -0.033 A 
ATOM      2  C1  UNL d   1       0.349  -1.729   0.719  0.00  0.00     0.039 A 
ATOM      3  C2  UNL d   1       0.207  -2.827  -0.131  0.00  0.00    -0.080 A 
ATOM      4  C3  UNL d   1      -0.322  -2.642  -1.405  0.00  0.00     0.150 A 
ATOM      5  C4  UNL d   1      -0.706  -1.377  -1.840  0.00  0.00    -0.007 A 
ATOM      6  C5  UNL d   1      -0.564  -0.282  -0.990  0.00  0.00     0.039 A 
ENDROOT
BRANCH   4   7
ATOM      7  O   UNL d   1      -0.484  -3.684  -2.268  0.00  0.00    -0.526 OA
ATOM      8  H5  UNL d   1      -0.203  -4.500  -1.821  0.00  0.00     0.418 HD
ENDBRANCH   4   7
TORSDOF 1
ENDMDL
