MODEL 1
REMARK minimizedAffinity -2.16555476
REMARK minimizedRMSD -1
REMARK  1 active torsions:
REMARK  status: ('A' for Active; 'I' for Inactive)
REMARK    1  A    between atoms: C3_4  and  O_7 
ROOT
ATOM      1  C   UNL d   1      -1.129  -0.927  -0.490  0.00  0.00    -0.033 A 
ATOM      2  C1  UNL d   1       0.110  -0.360  -0.794  0.00  0.00     0.039 A 
ATOM      3  C2  UNL d   1       0.464   0.879  -0.255  0.00  0.00    -0.080 A 
ATOM      4  C3  UNL d   1      -0.428   1.538   0.586  0.00  0.00     0.150 A 
ATOM      5  C4  UNL d   1      -1.662   0.977   0.897  0.00  0.00    -0.007 A 
ATOM      6  C5  UNL d   1      -2.015  -0.259   0.357  0.00  0.00     0.039 A 
ENDROOT
BRANCH   4   7
ATOM      7  O   UNL d   1      -0.128   2.751   1.132  0.00  0.00    -0.526 OA
ATOM      8  H5  UNL d   1       0.744   3.028   0.807  0.00  0.00     0.418 HD
ENDBRANCH   4   7
TORSDOF 1
ENDMDL
