MODEL 1
REMARK minimizedAffinity -2.80599666
REMARK minimizedRMSD -1
REMARK  1 active torsions:
REMARK  status: ('A' for Active; 'I' for Inactive)
REMARK    1  A    between atoms: C3_4  and  O_7 
ROOT
ATOM      1  C   UNL d   1      -0.529   2.159   0.679  0.00  0.00    -0.033 A 
ATOM      2  C1  UNL d   1      -1.524   1.791  -0.229  0.00  0.00     0.039 A 
ATOM      3  C2  UNL d   1      -1.442   0.569  -0.899  0.00  0.00    -0.080 A 
ATOM      4  C3  UNL d   1      -0.364  -0.276  -0.651  0.00  0.00     0.150 A 
ATOM      5  C4  UNL d   1       0.628   0.083   0.256  0.00  0.00    -0.007 A 
ATOM      6  C5  UNL d   1       0.546   1.304   0.923  0.00  0.00     0.039 A 
ENDROOT
BRANCH   4   7
ATOM      7  O   UNL d   1      -0.239  -1.477  -1.284  0.00  0.00    -0.526 OA
ATOM      8  H5  UNL d   1      -0.982  -1.577  -1.902  0.00  0.00     0.418 HD
ENDBRANCH   4   7
TORSDOF 1
ENDMDL
