MODEL 1
REMARK minimizedAffinity -3.57402587
REMARK minimizedRMSD -1
REMARK  0 active torsions:
REMARK  status: ('A' for Active; 'I' for Inactive)
ROOT
ATOM      1  C1  BNZ d   1       2.799  -0.770   0.833  0.00  0.00     0.000 A 
ATOM      2  C2  BNZ d   1       3.453  -0.107   1.837  0.00  0.00     0.000 A 
ATOM      3  C3  BNZ d   1       3.022   1.119   2.262  0.00  0.00     0.000 A 
ATOM      4  C4  BNZ d   1       1.965   1.696   1.657  0.00  0.00     0.000 A 
ATOM      5  C5  BNZ d   1       1.301   1.045   0.637  0.00  0.00     0.000 A 
ATOM      6  C6  BNZ d   1       1.713  -0.206   0.238  0.00  0.00     0.000 A 
ENDROOT
TORSDOF 0
ENDMDL
