MODEL 1
REMARK minimizedAffinity -2.49498463
REMARK minimizedRMSD -1
REMARK  0 active torsions:
REMARK  status: ('A' for Active; 'I' for Inactive)
ROOT
ATOM      1  C1  BNZ d   1       0.940  -2.332   1.785  0.00  0.00     0.000 A 
ATOM      2  C2  BNZ d   1      -0.227  -2.014   1.142  0.00  0.00     0.000 A 
ATOM      3  C3  BNZ d   1      -0.292  -0.936   0.304  0.00  0.00     0.000 A 
ATOM      4  C4  BNZ d   1       0.795  -0.156   0.141  0.00  0.00     0.000 A 
ATOM      5  C5  BNZ d   1       1.976  -0.458   0.789  0.00  0.00     0.000 A 
ATOM      6  C6  BNZ d   1       2.049  -1.566   1.602  0.00  0.00     0.000 A 
ENDROOT
TORSDOF 0
ENDMDL
