MODEL 1
REMARK minimizedAffinity -4.88437986
REMARK minimizedRMSD -1
REMARK  0 active torsions:
REMARK  status: ('A' for Active; 'I' for Inactive)
ROOT
ATOM      1  C1  BNZ d   1       0.519  -1.305   0.346  0.00  0.00     0.000 A 
ATOM      2  C2  BNZ d   1      -0.687  -0.680   0.172  0.00  0.00     0.000 A 
ATOM      3  C3  BNZ d   1      -0.757   0.678   0.024  0.00  0.00     0.000 A 
ATOM      4  C4  BNZ d   1       0.373   1.411   0.090  0.00  0.00     0.000 A 
ATOM      5  C5  BNZ d   1       1.595   0.796   0.274  0.00  0.00     0.000 A 
ATOM      6  C6  BNZ d   1       1.666  -0.574   0.383  0.00  0.00     0.000 A 
ENDROOT
TORSDOF 0
ENDMDL
