MODEL 1
REMARK minimizedAffinity 0.937403262
REMARK minimizedRMSD -1
REMARK  0 active torsions:
REMARK  status: ('A' for Active; 'I' for Inactive)
ROOT
ATOM      1  C1  BNZ d   1       0.140  -0.592   1.014  0.00  0.00     0.000 A 
ATOM      2  C2  BNZ d   1      -0.729  -0.753  -0.033  0.00  0.00     0.000 A 
ATOM      3  C3  BNZ d   1      -1.034   0.294  -0.857  0.00  0.00     0.000 A 
ATOM      4  C4  BNZ d   1      -0.502   1.509  -0.609  0.00  0.00     0.000 A 
ATOM      5  C5  BNZ d   1       0.368   1.689   0.447  0.00  0.00     0.000 A 
ATOM      6  C6  BNZ d   1       0.703   0.624   1.251  0.00  0.00     0.000 A 
ENDROOT
TORSDOF 0
ENDMDL
