MODEL 1
REMARK minimizedAffinity -4.12259769
REMARK minimizedRMSD -1
REMARK  0 active torsions:
REMARK  status: ('A' for Active; 'I' for Inactive)
ROOT
ATOM      1  C1  BNZ d   1      -0.903  -0.350   0.250  0.00  0.00     0.000 A 
ATOM      2  C2  BNZ d   1       0.338  -0.919   0.356  0.00  0.00     0.000 A 
ATOM      3  C3  BNZ d   1       1.462  -0.143   0.411  0.00  0.00     0.000 A 
ATOM      4  C4  BNZ d   1       1.347   1.198   0.321  0.00  0.00     0.000 A 
ATOM      5  C5  BNZ d   1       0.103   1.786   0.204  0.00  0.00     0.000 A 
ATOM      6  C6  BNZ d   1      -1.029   1.004   0.188  0.00  0.00     0.000 A 
ENDROOT
TORSDOF 0
ENDMDL
