MODEL 1
REMARK minimizedAffinity -3.57474113
REMARK minimizedRMSD -1
REMARK  0 active torsions:
REMARK  status: ('A' for Active; 'I' for Inactive)
ROOT
ATOM      1  C1  BNZ d   1       1.946  -0.331   0.935  0.00  0.00     0.000 A 
ATOM      2  C2  BNZ d   1       0.892  -1.180   0.725  0.00  0.00     0.000 A 
ATOM      3  C3  BNZ d   1      -0.337  -0.696   0.374  0.00  0.00     0.000 A 
ATOM      4  C4  BNZ d   1      -0.522   0.636   0.273  0.00  0.00     0.000 A 
ATOM      5  C5  BNZ d   1       0.528   1.506   0.492  0.00  0.00     0.000 A 
ATOM      6  C6  BNZ d   1       1.774   1.013   0.807  0.00  0.00     0.000 A 
ENDROOT
TORSDOF 0
ENDMDL
