MODEL 1
REMARK minimizedAffinity -4.13749981
REMARK minimizedRMSD -1
REMARK  0 active torsions:
REMARK  status: ('A' for Active; 'I' for Inactive)
ROOT
ATOM      1  C1  BNZ d   1       1.517  -1.265   0.476  0.00  0.00     0.000 A 
ATOM      2  C2  BNZ d   1       0.156  -1.416   0.463  0.00  0.00     0.000 A 
ATOM      3  C3  BNZ d   1      -0.665  -0.342   0.264  0.00  0.00     0.000 A 
ATOM      4  C4  BNZ d   1      -0.128   0.886   0.120  0.00  0.00     0.000 A 
ATOM      5  C5  BNZ d   1       1.242   1.057   0.141  0.00  0.00     0.000 A 
ATOM      6  C6  BNZ d   1       2.068  -0.032   0.302  0.00  0.00     0.000 A 
ENDROOT
TORSDOF 0
ENDMDL
