MODEL 1
REMARK minimizedAffinity -4.74747419
REMARK minimizedRMSD -1
REMARK  0 active torsions:
REMARK  status: ('A' for Active; 'I' for Inactive)
ROOT
ATOM      1  C1  BNZ d   1       2.448  -1.377   1.021  0.00  0.00     0.000 A 
ATOM      2  C2  BNZ d   1       1.431  -1.165   0.128  0.00  0.00     0.000 A 
ATOM      3  C3  BNZ d   1       1.019   0.102  -0.176  0.00  0.00     0.000 A 
ATOM      4  C4  BNZ d   1       1.597   1.153   0.440  0.00  0.00     0.000 A 
ATOM      5  C5  BNZ d   1       2.617   0.956   1.350  0.00  0.00     0.000 A 
ATOM      6  C6  BNZ d   1       3.055  -0.319   1.625  0.00  0.00     0.000 A 
ENDROOT
TORSDOF 0
ENDMDL
