MODEL 1
REMARK minimizedAffinity -2.07320356
REMARK minimizedRMSD -1
REMARK  0 active torsions:
REMARK  status: ('A' for Active; 'I' for Inactive)
ROOT
ATOM      1  C1  BNZ d   1       0.459  -0.649  -1.932  0.00  0.00     0.000 A 
ATOM      2  C2  BNZ d   1      -0.413  -0.307  -2.931  0.00  0.00     0.000 A 
ATOM      3  C3  BNZ d   1       0.047   0.124  -4.144  0.00  0.00     0.000 A 
ATOM      4  C4  BNZ d   1       1.375   0.252  -4.342  0.00  0.00     0.000 A 
ATOM      5  C5  BNZ d   1       2.266  -0.080  -3.342  0.00  0.00     0.000 A 
ATOM      6  C6  BNZ d   1       1.801  -0.551  -2.135  0.00  0.00     0.000 A 
ENDROOT
TORSDOF 0
ENDMDL
