MODEL 1
REMARK minimizedAffinity -4.801054
REMARK minimizedRMSD -1
REMARK  0 active torsions:
REMARK  status: ('A' for Active; 'I' for Inactive)
ROOT
ATOM      1  C1  BNZ d   1      -0.996   0.167   0.179  0.00  0.00     0.000 A 
ATOM      2  C2  BNZ d   1      -1.820   0.247   1.270  0.00  0.00     0.000 A 
ATOM      3  C3  BNZ d   1      -1.304   0.360   2.530  0.00  0.00     0.000 A 
ATOM      4  C4  BNZ d   1       0.033   0.352   2.702  0.00  0.00     0.000 A 
ATOM      5  C5  BNZ d   1       0.878   0.262   1.614  0.00  0.00     0.000 A 
ATOM      6  C6  BNZ d   1       0.355   0.188   0.343  0.00  0.00     0.000 A 
ENDROOT
TORSDOF 0
ENDMDL
