MODEL 1
REMARK minimizedAffinity -1.74556351
REMARK minimizedRMSD -1
REMARK  0 active torsions:
REMARK  status: ('A' for Active; 'I' for Inactive)
ROOT
ATOM      1  C1  BNZ d   1       1.175  -0.724  -0.425  0.00  0.00     0.000 A 
ATOM      2  C2  BNZ d   1       1.354  -0.734  -1.782  0.00  0.00     0.000 A 
ATOM      3  C3  BNZ d   1       0.357  -0.324  -2.623  0.00  0.00     0.000 A 
ATOM      4  C4  BNZ d   1      -0.829   0.057  -2.107  0.00  0.00     0.000 A 
ATOM      5  C5  BNZ d   1      -1.029   0.063  -0.741  0.00  0.00     0.000 A 
ATOM      6  C6  BNZ d   1      -0.009  -0.313   0.104  0.00  0.00     0.000 A 
ENDROOT
TORSDOF 0
ENDMDL
