MODEL 1
REMARK minimizedAffinity -1.94896793
REMARK minimizedRMSD -1
REMARK  0 active torsions:
REMARK  status: ('A' for Active; 'I' for Inactive)
ROOT
ATOM      1  C1  BNZ d   1      -0.236  -1.144  -1.542  0.00  0.00     0.000 A 
ATOM      2  C2  BNZ d   1      -1.087  -1.126  -0.469  0.00  0.00     0.000 A 
ATOM      3  C3  BNZ d   1      -1.211  -0.007   0.306  0.00  0.00     0.000 A 
ATOM      4  C4  BNZ d   1      -0.457   1.077   0.032  0.00  0.00     0.000 A 
ATOM      5  C5  BNZ d   1       0.412   1.070  -1.041  0.00  0.00     0.000 A 
ATOM      6  C6  BNZ d   1       0.506  -0.044  -1.842  0.00  0.00     0.000 A 
ENDROOT
TORSDOF 0
ENDMDL
