MODEL 1
REMARK minimizedAffinity -3.93617225
REMARK minimizedRMSD -1
REMARK  0 active torsions:
REMARK  status: ('A' for Active; 'I' for Inactive)
ROOT
ATOM      1  C1  BNZ d   1      -1.501   0.474   1.997  0.00  0.00     0.000 A 
ATOM      2  C2  BNZ d   1      -0.292  -0.107   1.718  0.00  0.00     0.000 A 
ATOM      3  C3  BNZ d   1       0.241  -0.045   0.461  0.00  0.00     0.000 A 
ATOM      4  C4  BNZ d   1      -0.452   0.563  -0.524  0.00  0.00     0.000 A 
ATOM      5  C5  BNZ d   1      -1.676   1.146  -0.260  0.00  0.00     0.000 A 
ATOM      6  C6  BNZ d   1      -2.191   1.115   1.015  0.00  0.00     0.000 A 
ENDROOT
TORSDOF 0
ENDMDL
