MODEL 1
REMARK minimizedAffinity -3.29369903
REMARK minimizedRMSD -1
REMARK  0 active torsions:
REMARK  status: ('A' for Active; 'I' for Inactive)
ROOT
ATOM      1  C1  BNZ d   1      -1.615   0.682   1.696  0.00  0.00     0.000 A 
ATOM      2  C2  BNZ d   1      -1.486   0.388   0.364  0.00  0.00     0.000 A 
ATOM      3  C3  BNZ d   1      -0.301  -0.072  -0.139  0.00  0.00     0.000 A 
ATOM      4  C4  BNZ d   1       0.763  -0.199   0.680  0.00  0.00     0.000 A 
ATOM      5  C5  BNZ d   1       0.651   0.102   2.023  0.00  0.00     0.000 A 
ATOM      6  C6  BNZ d   1      -0.554   0.527   2.534  0.00  0.00     0.000 A 
ENDROOT
TORSDOF 0
ENDMDL
