MODEL 1
REMARK minimizedAffinity -0.252802372
REMARK minimizedRMSD -1
REMARK  0 active torsions:
REMARK  status: ('A' for Active; 'I' for Inactive)
ROOT
ATOM      1  C1  BNZ d   1       4.738   0.461   3.299  0.00  0.00     0.000 A 
ATOM      2  C2  BNZ d   1       5.282   0.234   4.535  0.00  0.00     0.000 A 
ATOM      3  C3  BNZ d   1       5.518   1.268   5.397  0.00  0.00     0.000 A 
ATOM      4  C4  BNZ d   1       5.249   2.531   5.006  0.00  0.00     0.000 A 
ATOM      5  C5  BNZ d   1       4.710   2.777   3.759  0.00  0.00     0.000 A 
ATOM      6  C6  BNZ d   1       4.437   1.730   2.910  0.00  0.00     0.000 A 
ENDROOT
TORSDOF 0
ENDMDL
