MODEL 1
REMARK minimizedAffinity 10.9825583
REMARK minimizedRMSD -1
REMARK  0 active torsions:
REMARK  status: ('A' for Active; 'I' for Inactive)
ROOT
ATOM      1  N1  IND d   1       5.163  -1.504   1.504  0.00  0.00    -0.196 N 
ATOM      2  C2  IND d   1       6.000  -2.157   2.366  0.00  0.00     0.054 A 
ATOM      3  C3  IND d   1       5.294  -2.720   3.372  0.00  0.00    -0.031 A 
ATOM      4  C4  IND d   1       2.748  -2.781   3.748  0.00  0.00     0.051 A 
ATOM      5  C5  IND d   1       1.573  -2.294   3.248  0.00  0.00    -0.031 A 
ATOM      6  C6  IND d   1       1.534  -1.504   2.116  0.00  0.00     0.015 A 
ATOM      7  C7  IND d   1       2.672  -1.181   1.434  0.00  0.00    -0.016 A 
ATOM      8  C8  IND d   1       3.867  -1.668   1.943  0.00  0.00    -0.047 A 
ATOM      9  C9  IND d   1       3.918  -2.435   3.114  0.00  0.00    -0.096 A 
ATOM     10  HN1 IND d   1       5.405  -1.064   0.806  0.00  0.00     0.298 HD
ENDROOT
TORSDOF 0
ENDMDL
