MODEL 1
REMARK minimizedAffinity 12.055234
REMARK minimizedRMSD -1
REMARK  0 active torsions:
REMARK  status: ('A' for Active; 'I' for Inactive)
ROOT
ATOM      1  N1  IND d   1       3.661   5.735  -4.922  0.00  0.00    -0.196 N 
ATOM      2  C2  IND d   1       4.804   5.844  -5.664  0.00  0.00     0.054 A 
ATOM      3  C3  IND d   1       5.877   5.998  -4.855  0.00  0.00    -0.031 A 
ATOM      4  C4  IND d   1       6.000   5.997  -2.284  0.00  0.00     0.051 A 
ATOM      5  C5  IND d   1       5.212   5.964  -1.168  0.00  0.00    -0.031 A 
ATOM      6  C6  IND d   1       3.839   5.848  -1.248  0.00  0.00     0.015 A 
ATOM      7  C7  IND d   1       3.201   5.749  -2.452  0.00  0.00    -0.016 A 
ATOM      8  C8  IND d   1       3.998   5.789  -3.588  0.00  0.00    -0.047 A 
ATOM      9  C9  IND d   1       5.388   5.949  -3.514  0.00  0.00    -0.096 A 
ATOM     10  HN1 IND d   1       2.866   5.647  -5.237  0.00  0.00     0.298 HD
ENDROOT
TORSDOF 0
ENDMDL
