MODEL 1
REMARK minimizedAffinity 8.81843758
REMARK minimizedRMSD -1
REMARK  0 active torsions:
REMARK  status: ('A' for Active; 'I' for Inactive)
ROOT
ATOM      1  N1  IND d   1      -4.166  -3.025  -3.043  0.00  0.00    -0.196 N 
ATOM      2  C2  IND d   1      -4.888  -1.895  -3.308  0.00  0.00     0.054 A 
ATOM      3  C3  IND d   1      -5.670  -2.081  -4.395  0.00  0.00    -0.031 A 
ATOM      4  C4  IND d   1      -6.000  -4.192  -5.831  0.00  0.00     0.051 A 
ATOM      5  C5  IND d   1      -5.530  -5.464  -6.000  0.00  0.00    -0.031 A 
ATOM      6  C6  IND d   1      -4.563  -6.000  -5.173  0.00  0.00     0.015 A 
ATOM      7  C7  IND d   1      -4.037  -5.284  -4.135  0.00  0.00    -0.016 A 
ATOM      8  C8  IND d   1      -4.507  -3.990  -3.965  0.00  0.00    -0.047 A 
ATOM      9  C9  IND d   1      -5.457  -3.426  -4.827  0.00  0.00    -0.096 A 
ATOM     10  HN1 IND d   1      -3.594  -3.117  -2.407  0.00  0.00     0.298 HD
ENDROOT
TORSDOF 0
ENDMDL
