MODEL 1
REMARK minimizedAffinity -1.97144341
REMARK minimizedRMSD -1
REMARK  0 active torsions:
REMARK  status: ('A' for Active; 'I' for Inactive)
ROOT
ATOM      1  N1  IND d   1       4.752   5.320  -1.555  0.00  0.00    -0.196 N 
ATOM      2  C2  IND d   1       3.536   4.735  -1.337  0.00  0.00     0.054 A 
ATOM      3  C3  IND d   1       2.909   4.500  -2.511  0.00  0.00    -0.031 A 
ATOM      4  C4  IND d   1       3.736   4.902  -4.916  0.00  0.00     0.051 A 
ATOM      5  C5  IND d   1       4.770   5.451  -5.621  0.00  0.00    -0.031 A 
ATOM      6  C6  IND d   1       5.874   5.993  -4.995  0.00  0.00     0.015 A 
ATOM      7  C7  IND d   1       5.991   5.995  -3.634  0.00  0.00    -0.016 A 
ATOM      8  C8  IND d   1       4.940   5.445  -2.914  0.00  0.00    -0.047 A 
ATOM      9  C9  IND d   1       3.798   4.932  -3.542  0.00  0.00    -0.096 A 
ATOM     10  HN1 IND d   1       5.306   5.567  -0.946  0.00  0.00     0.298 HD
ENDROOT
TORSDOF 0
ENDMDL
