MODEL 1
REMARK minimizedAffinity 15.6209259
REMARK minimizedRMSD -1
REMARK  0 active torsions:
REMARK  status: ('A' for Active; 'I' for Inactive)
ROOT
ATOM      1  N1  IND d   1      -1.043   3.354   1.160  0.00  0.00    -0.196 N 
ATOM      2  C2  IND d   1      -2.153   2.695   0.711  0.00  0.00     0.054 A 
ATOM      3  C3  IND d   1      -1.886   1.380   0.546  0.00  0.00    -0.031 A 
ATOM      4  C4  IND d   1       0.277   0.076   1.047  0.00  0.00     0.051 A 
ATOM      5  C5  IND d   1       1.574   0.251   1.438  0.00  0.00    -0.031 A 
ATOM      6  C6  IND d   1       2.076   1.494   1.765  0.00  0.00     0.015 A 
ATOM      7  C7  IND d   1       1.291   2.612   1.724  0.00  0.00    -0.016 A 
ATOM      8  C8  IND d   1      -0.026   2.439   1.322  0.00  0.00    -0.047 A 
ATOM      9  C9  IND d   1      -0.528   1.186   0.947  0.00  0.00    -0.096 A 
ATOM     10  HN1 IND d   1      -0.989   4.198   1.315  0.00  0.00     0.298 HD
ENDROOT
TORSDOF 0
ENDMDL
