MODEL 1
REMARK minimizedAffinity 8.18430233
REMARK minimizedRMSD -1
REMARK  0 active torsions:
REMARK  status: ('A' for Active; 'I' for Inactive)
ROOT
ATOM      1  N1  IND d   1       1.136   0.427   4.878  0.00  0.00    -0.196 N 
ATOM      2  C2  IND d   1       0.957  -0.707   5.620  0.00  0.00     0.054 A 
ATOM      3  C3  IND d   1       0.958  -1.797   4.820  0.00  0.00    -0.031 A 
ATOM      4  C4  IND d   1       1.337  -1.961   2.279  0.00  0.00     0.051 A 
ATOM      5  C5  IND d   1       1.506  -1.190   1.163  0.00  0.00    -0.031 A 
ATOM      6  C6  IND d   1       1.564   0.187   1.230  0.00  0.00     0.015 A 
ATOM      7  C7  IND d   1       1.466   0.847   2.423  0.00  0.00    -0.016 A 
ATOM      8  C8  IND d   1       1.288   0.068   3.557  0.00  0.00    -0.047 A 
ATOM      9  C9  IND d   1       1.185  -1.328   3.490  0.00  0.00    -0.096 A 
ATOM     10  HN1 IND d   1       1.151   1.230   5.185  0.00  0.00     0.298 HD
ENDROOT
TORSDOF 0
ENDMDL
