MODEL 1
REMARK minimizedAffinity 0.0162157789
REMARK minimizedRMSD -1
REMARK  0 active torsions:
REMARK  status: ('A' for Active; 'I' for Inactive)
ROOT
ATOM      1  N1  IND d   1      -2.651  -0.765  -2.396  0.00  0.00    -0.196 N 
ATOM      2  C2  IND d   1      -3.760  -0.219  -2.980  0.00  0.00     0.054 A 
ATOM      3  C3  IND d   1      -4.033   0.987  -2.434  0.00  0.00    -0.031 A 
ATOM      4  C4  IND d   1      -2.736   2.302  -0.642  0.00  0.00     0.051 A 
ATOM      5  C5  IND d   1      -1.677   2.197   0.216  0.00  0.00    -0.031 A 
ATOM      6  C6  IND d   1      -0.871   1.078   0.245  0.00  0.00     0.015 A 
ATOM      7  C7  IND d   1      -1.087   0.022  -0.594  0.00  0.00    -0.016 A 
ATOM      8  C8  IND d   1      -2.166   0.122  -1.461  0.00  0.00    -0.047 A 
ATOM      9  C9  IND d   1      -3.013   1.237  -1.466  0.00  0.00    -0.096 A 
ATOM     10  HN1 IND d   1      -2.313  -1.534  -2.582  0.00  0.00     0.298 HD
ENDROOT
TORSDOF 0
ENDMDL
