MODEL 1
REMARK minimizedAffinity 15.6325855
REMARK minimizedRMSD -1
REMARK  0 active torsions:
REMARK  status: ('A' for Active; 'I' for Inactive)
ROOT
ATOM      1  N1  IND d   1      -3.198   2.307  -0.555  0.00  0.00    -0.196 N 
ATOM      2  C2  IND d   1      -2.195   1.748   0.187  0.00  0.00     0.054 A 
ATOM      3  C3  IND d   1      -1.873   0.529  -0.300  0.00  0.00    -0.031 A 
ATOM      4  C4  IND d   1      -2.792  -0.702  -2.366  0.00  0.00     0.051 A 
ATOM      5  C5  IND d   1      -3.746  -0.607  -3.340  0.00  0.00    -0.031 A 
ATOM      6  C6  IND d   1      -4.581   0.487  -3.439  0.00  0.00     0.015 A 
ATOM      7  C7  IND d   1      -4.485   1.537  -2.571  0.00  0.00    -0.016 A 
ATOM      8  C8  IND d   1      -3.522   1.442  -1.576  0.00  0.00    -0.047 A 
ATOM      9  C9  IND d   1      -2.701   0.315  -1.444  0.00  0.00    -0.096 A 
ATOM     10  HN1 IND d   1      -3.565   3.071  -0.408  0.00  0.00     0.298 HD
ENDROOT
TORSDOF 0
ENDMDL
