MODEL 1
REMARK minimizedAffinity 12.6580582
REMARK minimizedRMSD -1
REMARK  0 active torsions:
REMARK  status: ('A' for Active; 'I' for Inactive)
ROOT
ATOM      1  N1  IND d   1      -2.821  -0.168  -1.893  0.00  0.00    -0.196 N 
ATOM      2  C2  IND d   1      -3.618   0.369  -2.866  0.00  0.00     0.054 A 
ATOM      3  C3  IND d   1      -4.009   1.615  -2.519  0.00  0.00    -0.031 A 
ATOM      4  C4  IND d   1      -3.380   3.010  -0.449  0.00  0.00     0.051 A 
ATOM      5  C5  IND d   1      -2.708   2.933   0.738  0.00  0.00    -0.031 A 
ATOM      6  C6  IND d   1      -2.022   1.796   1.115  0.00  0.00     0.015 A 
ATOM      7  C7  IND d   1      -1.975   0.693   0.310  0.00  0.00    -0.016 A 
ATOM      8  C8  IND d   1      -2.662   0.765  -0.893  0.00  0.00    -0.047 A 
ATOM      9  C9  IND d   1      -3.395   1.901  -1.262  0.00  0.00    -0.096 A 
ATOM     10  HN1 IND d   1      -2.478  -0.956  -1.905  0.00  0.00     0.298 HD
ENDROOT
TORSDOF 0
ENDMDL
