MODEL 1
REMARK minimizedAffinity 8.32565403
REMARK minimizedRMSD -1
REMARK  0 active torsions:
REMARK  status: ('A' for Active; 'I' for Inactive)
ROOT
ATOM      1  N1  IND d   1       0.683  -0.525   5.106  0.00  0.00    -0.196 N 
ATOM      2  C2  IND d   1       1.165  -1.577   5.833  0.00  0.00     0.054 A 
ATOM      3  C3  IND d   1       1.800  -2.456   5.025  0.00  0.00    -0.031 A 
ATOM      4  C4  IND d   1       2.255  -2.318   2.495  0.00  0.00     0.051 A 
ATOM      5  C5  IND d   1       1.979  -1.562   1.391  0.00  0.00    -0.031 A 
ATOM      6  C6  IND d   1       1.244  -0.397   1.470  0.00  0.00     0.015 A 
ATOM      7  C7  IND d   1       0.766   0.064   2.664  0.00  0.00    -0.016 A 
ATOM      8  C8  IND d   1       1.038  -0.705   3.787  0.00  0.00    -0.047 A 
ATOM      9  C9  IND d   1       1.747  -1.910   3.706  0.00  0.00    -0.096 A 
ATOM     10  HN1 IND d   1       0.234   0.138   5.419  0.00  0.00     0.298 HD
ENDROOT
TORSDOF 0
ENDMDL
