MODEL 1
REMARK minimizedAffinity 8.36261845
REMARK minimizedRMSD -1
REMARK  0 active torsions:
REMARK  status: ('A' for Active; 'I' for Inactive)
ROOT
ATOM      1  N1  IND d   1      -5.884  -2.603  -5.181  0.00  0.00    -0.196 N 
ATOM      2  C2  IND d   1      -5.567  -1.887  -4.060  0.00  0.00     0.054 A 
ATOM      3  C3  IND d   1      -4.750  -2.605  -3.258  0.00  0.00    -0.031 A 
ATOM      4  C4  IND d   1      -3.725  -4.936  -3.633  0.00  0.00     0.051 A 
ATOM      5  C5  IND d   1      -3.750  -5.998  -4.493  0.00  0.00    -0.031 A 
ATOM      6  C6  IND d   1      -4.501  -5.982  -5.651  0.00  0.00     0.015 A 
ATOM      7  C7  IND d   1      -5.249  -4.893  -5.999  0.00  0.00    -0.016 A 
ATOM      8  C8  IND d   1      -5.231  -3.815  -5.125  0.00  0.00    -0.047 A 
ATOM      9  C9  IND d   1      -4.505  -3.843  -3.927  0.00  0.00    -0.096 A 
ATOM     10  HN1 IND d   1      -6.403  -2.341  -5.814  0.00  0.00     0.298 HD
ENDROOT
TORSDOF 0
ENDMDL
