MODEL 1
REMARK minimizedAffinity 1.93524992
REMARK minimizedRMSD -1
REMARK  0 active torsions:
REMARK  status: ('A' for Active; 'I' for Inactive)
ROOT
ATOM      1  N1  IND d   1       2.744  -1.110   2.990  0.00  0.00    -0.196 N 
ATOM      2  C2  IND d   1       1.463  -1.200   2.522  0.00  0.00     0.054 A 
ATOM      3  C3  IND d   1       1.444  -1.808   1.315  0.00  0.00    -0.031 A 
ATOM      4  C4  IND d   1       3.387  -2.826  -0.033  0.00  0.00     0.051 A 
ATOM      5  C5  IND d   1       4.747  -2.956  -0.032  0.00  0.00    -0.031 A 
ATOM      6  C6  IND d   1       5.525  -2.470   0.999  0.00  0.00     0.015 A 
ATOM      7  C7  IND d   1       4.967  -1.843   2.078  0.00  0.00    -0.016 A 
ATOM      8  C8  IND d   1       3.587  -1.703   2.076  0.00  0.00    -0.047 A 
ATOM      9  C9  IND d   1       2.796  -2.156   1.012  0.00  0.00    -0.096 A 
ATOM     10  HN1 IND d   1       2.983  -0.745   3.731  0.00  0.00     0.298 HD
ENDROOT
TORSDOF 0
ENDMDL
