MODEL 1
REMARK minimizedAffinity -5.5671134
REMARK minimizedRMSD -1
REMARK  1 active torsions:
REMARK  status: ('A' for Active; 'I' for Inactive)
REMARK    1  A    between atoms: C1_2  and  C2_3 
ROOT
ATOM      1  C2  UNL d   1       0.436  -0.502  -2.561  0.00  0.00    -0.077 A 
ATOM      2  C3  UNL d   1       1.499   0.214  -3.130  0.00  0.00     0.002 A 
ATOM      3  C4  UNL d   1       1.312   0.940  -4.308  0.00  0.00     0.002 A 
ATOM      4  C5  UNL d   1       0.063   0.960  -4.925  0.00  0.00    -0.004 A 
ATOM      5  C6  UNL d   1      -1.000   0.249  -4.368  0.00  0.00     0.002 A 
ATOM      6  C7  UNL d   1      -0.814  -0.478  -3.192  0.00  0.00     0.002 A 
ENDROOT
BRANCH   1   7
ATOM      7  C1  UNL d   1       0.624  -1.245  -1.265  0.00  0.00     0.055 C 
ATOM      8  C   UNL d   1      -0.110  -0.558  -0.122  0.00  0.00     0.019 C 
ENDBRANCH   1   7
TORSDOF 1
ENDMDL
