MODEL 1
REMARK minimizedAffinity -3.98340821
REMARK minimizedRMSD -1
REMARK  1 active torsions:
REMARK  status: ('A' for Active; 'I' for Inactive)
REMARK    1  A    between atoms: C1_2  and  C2_3 
ROOT
ATOM      1  C2  UNL d   1       0.862  -0.342   0.889  0.00  0.00    -0.077 A 
ATOM      2  C3  UNL d   1       1.691  -0.593   1.991  0.00  0.00     0.002 A 
ATOM      3  C4  UNL d   1       1.238  -0.344   3.287  0.00  0.00     0.002 A 
ATOM      4  C5  UNL d   1      -0.047   0.155   3.494  0.00  0.00    -0.004 A 
ATOM      5  C6  UNL d   1      -0.878   0.410   2.404  0.00  0.00     0.002 A 
ATOM      6  C7  UNL d   1      -0.426   0.162   1.108  0.00  0.00     0.002 A 
ENDROOT
BRANCH   1   7
ATOM      7  C1  UNL d   1       1.332  -0.657  -0.508  0.00  0.00     0.055 C 
ATOM      8  C   UNL d   1       0.278  -1.434  -1.284  0.00  0.00     0.019 C 
ENDBRANCH   1   7
TORSDOF 1
ENDMDL
