MODEL 1
REMARK minimizedAffinity -4.81777382
REMARK minimizedRMSD -1
REMARK  1 active torsions:
REMARK  status: ('A' for Active; 'I' for Inactive)
REMARK    1  A    between atoms: C1_2  and  C2_3 
ROOT
ATOM      1  C2  UNL d   1       0.971  -0.575  -2.064  0.00  0.00    -0.077 A 
ATOM      2  C3  UNL d   1       2.214  -0.036  -2.424  0.00  0.00     0.002 A 
ATOM      3  C4  UNL d   1       2.383   0.583  -3.664  0.00  0.00     0.002 A 
ATOM      4  C5  UNL d   1       1.313   0.673  -4.551  0.00  0.00    -0.004 A 
ATOM      5  C6  UNL d   1       0.073   0.138  -4.204  0.00  0.00     0.002 A 
ATOM      6  C7  UNL d   1      -0.097  -0.483  -2.965  0.00  0.00     0.002 A 
ENDROOT
BRANCH   1   7
ATOM      7  C1  UNL d   1       0.774  -1.200  -0.708  0.00  0.00     0.055 C 
ATOM      8  C   UNL d   1       0.001  -0.275   0.221  0.00  0.00     0.019 C 
ENDBRANCH   1   7
TORSDOF 1
ENDMDL
