MODEL 1
REMARK minimizedAffinity -4.50707388
REMARK minimizedRMSD -1
REMARK  1 active torsions:
REMARK  status: ('A' for Active; 'I' for Inactive)
REMARK    1  A    between atoms: C1_2  and  C2_3 
ROOT
ATOM      1  C2  UNL d   1      -0.030  -0.117   0.438  0.00  0.00    -0.077 A 
ATOM      2  C3  UNL d   1      -1.328   0.319   0.738  0.00  0.00     0.002 A 
ATOM      3  C4  UNL d   1      -1.561   1.130   1.850  0.00  0.00     0.002 A 
ATOM      4  C5  UNL d   1      -0.501   1.515   2.669  0.00  0.00    -0.004 A 
ATOM      5  C6  UNL d   1       0.793   1.084   2.380  0.00  0.00     0.002 A 
ATOM      6  C7  UNL d   1       1.028   0.273   1.269  0.00  0.00     0.002 A 
ENDROOT
BRANCH   1   7
ATOM      7  C1  UNL d   1       0.230  -0.951  -0.789  0.00  0.00     0.055 C 
ATOM      8  C   UNL d   1       0.782  -0.105  -1.927  0.00  0.00     0.019 C 
ENDBRANCH   1   7
TORSDOF 1
ENDMDL
