MODEL 1
REMARK minimizedAffinity -3.24194741
REMARK minimizedRMSD -1
REMARK  1 active torsions:
REMARK  status: ('A' for Active; 'I' for Inactive)
REMARK    1  A    between atoms: C1_2  and  C2_3 
ROOT
ATOM      1  C2  UNL d   1      -0.149  -0.176   0.652  0.00  0.00    -0.077 A 
ATOM      2  C3  UNL d   1       1.090   0.346   1.049  0.00  0.00     0.002 A 
ATOM      3  C4  UNL d   1       1.175   1.201   2.150  0.00  0.00     0.002 A 
ATOM      4  C5  UNL d   1       0.027   1.538   2.864  0.00  0.00    -0.004 A 
ATOM      5  C6  UNL d   1      -1.210   1.026   2.475  0.00  0.00     0.002 A 
ATOM      6  C7  UNL d   1      -1.297   0.172   1.375  0.00  0.00     0.002 A 
ENDROOT
BRANCH   1   7
ATOM      7  C1  UNL d   1      -0.237  -1.137  -0.505  0.00  0.00     0.055 C 
ATOM      8  C   UNL d   1      -0.063  -0.420  -1.835  0.00  0.00     0.019 C 
ENDBRANCH   1   7
TORSDOF 1
ENDMDL
