MODEL 1
REMARK minimizedAffinity -5.63395977
REMARK minimizedRMSD -1
REMARK  1 active torsions:
REMARK  status: ('A' for Active; 'I' for Inactive)
REMARK    1  A    between atoms: C1_2  and  C2_3 
ROOT
ATOM      1  C2  UNL d   1      -0.382   1.299  -0.474  0.00  0.00    -0.077 A 
ATOM      2  C3  UNL d   1      -0.763   2.414  -1.233  0.00  0.00     0.002 A 
ATOM      3  C4  UNL d   1      -1.271   3.554  -0.608  0.00  0.00     0.002 A 
ATOM      4  C5  UNL d   1      -1.399   3.592   0.779  0.00  0.00    -0.004 A 
ATOM      5  C6  UNL d   1      -1.025   2.487   1.543  0.00  0.00     0.002 A 
ATOM      6  C7  UNL d   1      -0.518   1.346   0.919  0.00  0.00     0.002 A 
ENDROOT
BRANCH   1   7
ATOM      7  C1  UNL d   1       0.212   0.087  -1.143  0.00  0.00     0.055 C 
ATOM      8  C   UNL d   1       1.252  -0.581  -0.255  0.00  0.00     0.019 C 
ENDBRANCH   1   7
TORSDOF 1
ENDMDL
