MODEL 1
REMARK minimizedAffinity -6.00122499
REMARK minimizedRMSD -1
REMARK  1 active torsions:
REMARK  status: ('A' for Active; 'I' for Inactive)
REMARK    1  A    between atoms: C1_2  and  C2_3 
ROOT
ATOM      1  C2  UNL d   1       0.016   1.136  -0.270  0.00  0.00    -0.077 A 
ATOM      2  C3  UNL d   1      -0.593   2.179  -0.981  0.00  0.00     0.002 A 
ATOM      3  C4  UNL d   1      -1.284   3.186  -0.304  0.00  0.00     0.002 A 
ATOM      4  C5  UNL d   1      -1.369   3.162   1.086  0.00  0.00    -0.004 A 
ATOM      5  C6  UNL d   1      -0.769   2.127   1.802  0.00  0.00     0.002 A 
ATOM      6  C7  UNL d   1      -0.079   1.119   1.127  0.00  0.00     0.002 A 
ENDROOT
BRANCH   1   7
ATOM      7  C1  UNL d   1       0.803   0.075  -0.995  0.00  0.00     0.055 C 
ATOM      8  C   UNL d   1       0.175  -1.299  -0.816  0.00  0.00     0.019 C 
ENDBRANCH   1   7
TORSDOF 1
ENDMDL
