MODEL 1
REMARK minimizedAffinity -3.80702996
REMARK minimizedRMSD -1
REMARK  1 active torsions:
REMARK  status: ('A' for Active; 'I' for Inactive)
REMARK    1  A    between atoms: C1_2  and  C2_3 
ROOT
ATOM      1  C2  UNL d   1       0.179   0.661  -0.169  0.00  0.00    -0.077 A 
ATOM      2  C3  UNL d   1      -0.306   1.702  -0.974  0.00  0.00     0.002 A 
ATOM      3  C4  UNL d   1      -0.866   2.842  -0.393  0.00  0.00     0.002 A 
ATOM      4  C5  UNL d   1      -0.942   2.953   0.994  0.00  0.00    -0.004 A 
ATOM      5  C6  UNL d   1      -0.465   1.923   1.803  0.00  0.00     0.002 A 
ATOM      6  C7  UNL d   1       0.094   0.782   1.224  0.00  0.00     0.002 A 
ENDROOT
BRANCH   1   7
ATOM      7  C1  UNL d   1       0.827  -0.547  -0.792  0.00  0.00     0.055 C 
ATOM      8  C   UNL d   1      -0.170  -1.683  -0.965  0.00  0.00     0.019 C 
ENDBRANCH   1   7
TORSDOF 1
ENDMDL
