MODEL 1
REMARK minimizedAffinity 3.33136582
REMARK minimizedRMSD -1
REMARK  1 active torsions:
REMARK  status: ('A' for Active; 'I' for Inactive)
REMARK    1  A    between atoms: C1_2  and  C2_3 
ROOT
ATOM      1  C2  UNL d   1       1.143   2.304   0.505  0.00  0.00    -0.077 A 
ATOM      2  C3  UNL d   1       1.860   1.146   0.171  0.00  0.00     0.002 A 
ATOM      3  C4  UNL d   1       3.252   1.123   0.277  0.00  0.00     0.002 A 
ATOM      4  C5  UNL d   1       3.938   2.252   0.718  0.00  0.00    -0.004 A 
ATOM      5  C6  UNL d   1       3.234   3.409   1.050  0.00  0.00     0.002 A 
ATOM      6  C7  UNL d   1       1.843   3.435   0.945  0.00  0.00     0.002 A 
ENDROOT
BRANCH   1   7
ATOM      7  C1  UNL d   1      -0.362   2.315   0.439  0.00  0.00     0.055 C 
ATOM      8  C   UNL d   1      -0.854   2.897  -0.878  0.00  0.00     0.019 C 
ENDBRANCH   1   7
TORSDOF 1
ENDMDL
