MODEL 1
REMARK minimizedAffinity 2.66950417
REMARK minimizedRMSD -1
REMARK  1 active torsions:
REMARK  status: ('A' for Active; 'I' for Inactive)
REMARK    1  A    between atoms: C1_2  and  C2_3 
ROOT
ATOM      1  C2  UNL d   1      -0.954   2.339   1.351  0.00  0.00    -0.077 A 
ATOM      2  C3  UNL d   1      -1.691   3.065   0.404  0.00  0.00     0.002 A 
ATOM      3  C4  UNL d   1      -1.077   3.540  -0.757  0.00  0.00     0.002 A 
ATOM      4  C5  UNL d   1       0.275   3.291  -0.983  0.00  0.00    -0.004 A 
ATOM      5  C6  UNL d   1       1.017   2.572  -0.047  0.00  0.00     0.002 A 
ATOM      6  C7  UNL d   1       0.405   2.098   1.114  0.00  0.00     0.002 A 
ENDROOT
BRANCH   1   7
ATOM      7  C1  UNL d   1      -1.626   1.784   2.579  0.00  0.00     0.055 C 
ATOM      8  C   UNL d   1      -2.001   0.321   2.392  0.00  0.00     0.019 C 
ENDBRANCH   1   7
TORSDOF 1
ENDMDL
