MODEL 1
REMARK minimizedAffinity 10.7905035
REMARK minimizedRMSD -1
REMARK  1 active torsions:
REMARK  status: ('A' for Active; 'I' for Inactive)
REMARK    1  A    between atoms: C1_2  and  C2_3 
ROOT
ATOM      1  C2  UNL d   1       1.462   0.875  -0.399  0.00  0.00    -0.077 A 
ATOM      2  C3  UNL d   1       1.635  -0.204   0.479  0.00  0.00     0.002 A 
ATOM      3  C4  UNL d   1       1.461  -1.514   0.031  0.00  0.00     0.002 A 
ATOM      4  C5  UNL d   1       1.118  -1.759  -1.297  0.00  0.00    -0.004 A 
ATOM      5  C6  UNL d   1       0.941  -0.692  -2.178  0.00  0.00     0.002 A 
ATOM      6  C7  UNL d   1       1.113   0.619  -1.732  0.00  0.00     0.002 A 
ENDROOT
BRANCH   1   7
ATOM      7  C1  UNL d   1       1.697   2.287   0.070  0.00  0.00     0.055 C 
ATOM      8  C   UNL d   1       0.383   3.015   0.315  0.00  0.00     0.019 C 
ENDBRANCH   1   7
TORSDOF 1
ENDMDL
