MODEL 1
REMARK minimizedAffinity 6.31157064
REMARK minimizedRMSD -1
REMARK  1 active torsions:
REMARK  status: ('A' for Active; 'I' for Inactive)
REMARK    1  A    between atoms: C1_2  and  C2_3 
ROOT
ATOM      1  C2  UNL d   1      -1.112  -1.063   1.962  0.00  0.00    -0.077 A 
ATOM      2  C3  UNL d   1      -0.465   0.048   1.403  0.00  0.00     0.002 A 
ATOM      3  C4  UNL d   1       0.541  -0.127   0.450  0.00  0.00     0.002 A 
ATOM      4  C5  UNL d   1       0.905  -1.409   0.045  0.00  0.00    -0.004 A 
ATOM      5  C6  UNL d   1       0.269  -2.520   0.597  0.00  0.00     0.002 A 
ATOM      6  C7  UNL d   1      -0.736  -2.348   1.550  0.00  0.00     0.002 A 
ENDROOT
BRANCH   1   7
ATOM      7  C1  UNL d   1      -2.231  -0.876   2.953  0.00  0.00     0.055 C 
ATOM      8  C   UNL d   1      -3.411  -0.148   2.325  0.00  0.00     0.019 C 
ENDBRANCH   1   7
TORSDOF 1
ENDMDL
