MODEL 1
REMARK minimizedAffinity 0.47486344
REMARK minimizedRMSD -1
REMARK  1 active torsions:
REMARK  status: ('A' for Active; 'I' for Inactive)
REMARK    1  A    between atoms: C1_2  and  C2_3 
ROOT
ATOM      1  C2  UNL d   1       3.621   2.896   1.129  0.00  0.00    -0.077 A 
ATOM      2  C3  UNL d   1       4.689   3.464   1.838  0.00  0.00     0.002 A 
ATOM      3  C4  UNL d   1       4.870   3.174   3.192  0.00  0.00     0.002 A 
ATOM      4  C5  UNL d   1       3.991   2.313   3.846  0.00  0.00    -0.004 A 
ATOM      5  C6  UNL d   1       2.925   1.745   3.149  0.00  0.00     0.002 A 
ATOM      6  C7  UNL d   1       2.742   2.035   1.797  0.00  0.00     0.002 A 
ENDROOT
BRANCH   1   7
ATOM      7  C1  UNL d   1       3.452   3.169  -0.343  0.00  0.00     0.055 C 
ATOM      8  C   UNL d   1       1.996   3.439  -0.693  0.00  0.00     0.019 C 
ENDBRANCH   1   7
TORSDOF 1
ENDMDL
