MODEL 1
REMARK minimizedAffinity 8.58201885
REMARK minimizedRMSD -1
REMARK  1 active torsions:
REMARK  status: ('A' for Active; 'I' for Inactive)
REMARK    1  A    between atoms: C1_2  and  C2_3 
ROOT
ATOM      1  C2  UNL d   1       4.491   2.397  -3.761  0.00  0.00    -0.077 A 
ATOM      2  C3  UNL d   1       5.353   3.484  -3.562  0.00  0.00     0.002 A 
ATOM      3  C4  UNL d   1       5.548   4.426  -4.574  0.00  0.00     0.002 A 
ATOM      4  C5  UNL d   1       4.880   4.293  -5.789  0.00  0.00    -0.004 A 
ATOM      5  C6  UNL d   1       4.022   3.214  -5.998  0.00  0.00     0.002 A 
ATOM      6  C7  UNL d   1       3.827   2.271  -4.988  0.00  0.00     0.002 A 
ENDROOT
BRANCH   1   7
ATOM      7  C1  UNL d   1       4.242   1.407  -2.653  0.00  0.00     0.055 C 
ATOM      8  C   UNL d   1       4.441   2.044  -1.286  0.00  0.00     0.019 C 
ENDBRANCH   1   7
TORSDOF 1
ENDMDL
