MODEL 1
REMARK minimizedAffinity 3.22126365
REMARK minimizedRMSD -1
REMARK  1 active torsions:
REMARK  status: ('A' for Active; 'I' for Inactive)
REMARK    1  A    between atoms: C1_2  and  C2_3 
ROOT
ATOM      1  C2  UNL d   1       0.295   1.678   1.458  0.00  0.00    -0.077 A 
ATOM      2  C3  UNL d   1       0.525   2.397   0.277  0.00  0.00     0.002 A 
ATOM      3  C4  UNL d   1       1.350   1.872  -0.720  0.00  0.00     0.002 A 
ATOM      4  C5  UNL d   1       1.947   0.625  -0.548  0.00  0.00    -0.004 A 
ATOM      5  C6  UNL d   1       1.726  -0.096   0.625  0.00  0.00     0.002 A 
ATOM      6  C7  UNL d   1       0.903   0.427   1.623  0.00  0.00     0.002 A 
ENDROOT
BRANCH   1   7
ATOM      7  C1  UNL d   1      -0.634   2.220   2.513  0.00  0.00     0.055 C 
ATOM      8  C   UNL d   1      -0.171   1.832   3.910  0.00  0.00     0.019 C 
ENDBRANCH   1   7
TORSDOF 1
ENDMDL
