MODEL 1
REMARK minimizedAffinity 0.307061404
REMARK minimizedRMSD -1
REMARK  1 active torsions:
REMARK  status: ('A' for Active; 'I' for Inactive)
REMARK    1  A    between atoms: C1_2  and  C2_3 
ROOT
ATOM      1  C2  UNL d   1       3.170   3.648   2.162  0.00  0.00    -0.077 A 
ATOM      2  C3  UNL d   1       1.894   3.660   2.742  0.00  0.00     0.002 A 
ATOM      3  C4  UNL d   1       1.385   4.831   3.306  0.00  0.00     0.002 A 
ATOM      4  C5  UNL d   1       2.143   6.000   3.292  0.00  0.00    -0.004 A 
ATOM      5  C6  UNL d   1       3.414   5.998   2.720  0.00  0.00     0.002 A 
ATOM      6  C7  UNL d   1       3.925   4.828   2.157  0.00  0.00     0.002 A 
ENDROOT
BRANCH   1   7
ATOM      7  C1  UNL d   1       3.701   2.399   1.509  0.00  0.00     0.055 C 
ATOM      8  C   UNL d   1       2.579   1.423   1.186  0.00  0.00     0.019 C 
ENDBRANCH   1   7
TORSDOF 1
ENDMDL
