MODEL 1
REMARK minimizedAffinity 2.92790365
REMARK minimizedRMSD -1
REMARK  1 active torsions:
REMARK  status: ('A' for Active; 'I' for Inactive)
REMARK    1  A    between atoms: C1_2  and  C2_3 
ROOT
ATOM      1  C2  UNL d   1       0.553   2.722   0.390  0.00  0.00    -0.077 A 
ATOM      2  C3  UNL d   1       1.105   1.454   0.162  0.00  0.00     0.002 A 
ATOM      3  C4  UNL d   1       2.488   1.267   0.205  0.00  0.00     0.002 A 
ATOM      4  C5  UNL d   1       3.330   2.342   0.479  0.00  0.00    -0.004 A 
ATOM      5  C6  UNL d   1       2.791   3.608   0.705  0.00  0.00     0.002 A 
ATOM      6  C7  UNL d   1       1.409   3.797   0.661  0.00  0.00     0.002 A 
ENDROOT
BRANCH   1   7
ATOM      7  C1  UNL d   1      -0.941   2.916   0.393  0.00  0.00     0.055 C 
ATOM      8  C   UNL d   1      -1.662   1.651   0.835  0.00  0.00     0.019 C 
ENDBRANCH   1   7
TORSDOF 1
ENDMDL
