MODEL 1
REMARK minimizedAffinity 2.0419817
REMARK minimizedRMSD -1
REMARK  1 active torsions:
REMARK  status: ('A' for Active; 'I' for Inactive)
REMARK    1  A    between atoms: C1_2  and  C2_3 
ROOT
ATOM      1  C2  UNL d   1       0.940   2.416   0.865  0.00  0.00    -0.077 A 
ATOM      2  C3  UNL d   1       2.127   3.021   1.304  0.00  0.00     0.002 A 
ATOM      3  C4  UNL d   1       3.347   2.355   1.180  0.00  0.00     0.002 A 
ATOM      4  C5  UNL d   1       3.394   1.082   0.614  0.00  0.00    -0.004 A 
ATOM      5  C6  UNL d   1       2.219   0.472   0.176  0.00  0.00     0.002 A 
ATOM      6  C7  UNL d   1       0.998   1.136   0.300  0.00  0.00     0.002 A 
ENDROOT
BRANCH   1   7
ATOM      7  C1  UNL d   1      -0.370   3.154   0.952  0.00  0.00     0.055 C 
ATOM      8  C   UNL d   1      -1.506   2.337   0.354  0.00  0.00     0.019 C 
ENDBRANCH   1   7
TORSDOF 1
ENDMDL
