MODEL 1
REMARK minimizedAffinity 4.0045104
REMARK minimizedRMSD -1
REMARK  1 active torsions:
REMARK  status: ('A' for Active; 'I' for Inactive)
REMARK    1  A    between atoms: N_2  and  C1_3 
ROOT
ATOM      1  C1  UNL d   1      -1.136  -2.383   0.162  0.00  0.00     0.143 A 
ATOM      2  C2  UNL d   1      -2.450  -2.013  -0.143  0.00  0.00    -0.057 A 
ATOM      3  C3  UNL d   1      -3.465  -2.971  -0.261  0.00  0.00     0.033 A 
ATOM      4  C4  UNL d   1      -3.176  -4.323  -0.104  0.00  0.00    -0.042 A 
ATOM      5  C5  UNL d   1      -1.871  -4.715   0.174  0.00  0.00     0.033 A 
ATOM      6  C6  UNL d   1      -0.864  -3.753   0.298  0.00  0.00    -0.057 A 
ENDROOT
BRANCH   1   7
ATOM      7  N   UNL d   1      -0.064  -1.488   0.195  0.00  0.00    -0.732 N 
ATOM      8  C   UNL d   1       0.012  -0.394  -0.749  0.00  0.00     0.284 C 
ATOM      9  H3  UNL d   1       0.203  -1.236   1.145  0.00  0.00     0.395 HD
ENDBRANCH   1   7
TORSDOF 1
ENDMDL
