MODEL 1
REMARK minimizedAffinity 5.08622122
REMARK minimizedRMSD -1
REMARK  1 active torsions:
REMARK  status: ('A' for Active; 'I' for Inactive)
REMARK    1  A    between atoms: N_2  and  C1_3 
ROOT
ATOM      1  C1  UNL d   1       4.520   4.975   1.934  0.00  0.00     0.143 A 
ATOM      2  C2  UNL d   1       4.486   3.661   1.454  0.00  0.00    -0.057 A 
ATOM      3  C3  UNL d   1       4.132   3.382   0.128  0.00  0.00     0.033 A 
ATOM      4  C4  UNL d   1       3.777   4.413  -0.735  0.00  0.00    -0.042 A 
ATOM      5  C5  UNL d   1       3.779   5.724  -0.272  0.00  0.00     0.033 A 
ATOM      6  C6  UNL d   1       4.140   5.997   1.051  0.00  0.00    -0.057 A 
ENDROOT
BRANCH   1   7
ATOM      7  N   UNL d   1       4.768   5.309   3.268  0.00  0.00    -0.732 N 
ATOM      8  C   UNL d   1       5.999   5.970   3.645  0.00  0.00     0.284 C 
ATOM      9  H3  UNL d   1       3.941   5.670   3.738  0.00  0.00     0.395 HD
ENDBRANCH   1   7
TORSDOF 1
ENDMDL
