MODEL 1
REMARK minimizedAffinity 2.11421776
REMARK minimizedRMSD -1
REMARK  1 active torsions:
REMARK  status: ('A' for Active; 'I' for Inactive)
REMARK    1  A    between atoms: N_2  and  C1_3 
ROOT
ATOM      1  C1  UNL d   1       3.964   5.308  -0.414  0.00  0.00     0.143 A 
ATOM      2  C2  UNL d   1       4.202   5.893   0.834  0.00  0.00    -0.057 A 
ATOM      3  C3  UNL d   1       3.929   5.205   2.022  0.00  0.00     0.033 A 
ATOM      4  C4  UNL d   1       3.384   3.926   1.983  0.00  0.00    -0.042 A 
ATOM      5  C5  UNL d   1       3.117   3.334   0.753  0.00  0.00     0.033 A 
ATOM      6  C6  UNL d   1       3.398   4.024  -0.430  0.00  0.00    -0.057 A 
ENDROOT
BRANCH   1   7
ATOM      7  N   UNL d   1       4.123   5.978  -1.630  0.00  0.00    -0.732 N 
ATOM      8  C   UNL d   1       5.405   5.995  -2.301  0.00  0.00     0.284 C 
ATOM      9  H3  UNL d   1       3.329   5.844  -2.253  0.00  0.00     0.395 HD
ENDBRANCH   1   7
TORSDOF 1
ENDMDL
