MODEL 1
REMARK minimizedAffinity 3.56788874
REMARK minimizedRMSD -1
REMARK  1 active torsions:
REMARK  status: ('A' for Active; 'I' for Inactive)
REMARK    1  A    between atoms: N_2  and  C1_3 
ROOT
ATOM      1  C1  UNL d   1       5.165  -2.445   4.628  0.00  0.00     0.143 A 
ATOM      2  C2  UNL d   1       5.517  -1.692   3.502  0.00  0.00    -0.057 A 
ATOM      3  C3  UNL d   1       5.940  -0.363   3.621  0.00  0.00     0.033 A 
ATOM      4  C4  UNL d   1       5.992   0.248   4.870  0.00  0.00    -0.042 A 
ATOM      5  C5  UNL d   1       5.623  -0.473   6.000  0.00  0.00     0.033 A 
ATOM      6  C6  UNL d   1       5.208  -1.802   5.875  0.00  0.00    -0.057 A 
ENDROOT
BRANCH   1   7
ATOM      7  N   UNL d   1       4.643  -3.739   4.566  0.00  0.00    -0.732 N 
ATOM      8  C   UNL d   1       4.678  -4.490   3.330  0.00  0.00     0.284 C 
ATOM      9  H3  UNL d   1       4.867  -4.288   5.393  0.00  0.00     0.395 HD
ENDBRANCH   1   7
TORSDOF 1
ENDMDL
