MODEL 1
REMARK minimizedAffinity 1.04311061
REMARK minimizedRMSD -1
REMARK  1 active torsions:
REMARK  status: ('A' for Active; 'I' for Inactive)
REMARK    1  A    between atoms: N_2  and  C1_3 
ROOT
ATOM      1  C1  UNL d   1       1.476  -1.783  -2.590  0.00  0.00     0.143 A 
ATOM      2  C2  UNL d   1       1.310  -0.395  -2.633  0.00  0.00    -0.057 A 
ATOM      3  C3  UNL d   1       0.611   0.285  -1.628  0.00  0.00     0.033 A 
ATOM      4  C4  UNL d   1       0.039  -0.419  -0.573  0.00  0.00    -0.042 A 
ATOM      5  C5  UNL d   1       0.169  -1.802  -0.523  0.00  0.00     0.033 A 
ATOM      6  C6  UNL d   1       0.874  -2.474  -1.527  0.00  0.00    -0.057 A 
ENDROOT
BRANCH   1   7
ATOM      7  N   UNL d   1       2.075  -2.527  -3.610  0.00  0.00    -0.732 N 
ATOM      8  C   UNL d   1       1.537  -3.813  -3.997  0.00  0.00     0.284 C 
ATOM      9  H3  UNL d   1       2.370  -1.947  -4.392  0.00  0.00     0.395 HD
ENDBRANCH   1   7
TORSDOF 1
ENDMDL
