MODEL 1
REMARK minimizedAffinity -3.94235468
REMARK minimizedRMSD -1
REMARK  1 active torsions:
REMARK  status: ('A' for Active; 'I' for Inactive)
REMARK    1  A    between atoms: N_2  and  C1_3 
ROOT
ATOM      1  C1  UNL d   1       4.831   5.328   0.931  0.00  0.00     0.143 A 
ATOM      2  C2  UNL d   1       3.878   4.308   0.840  0.00  0.00    -0.057 A 
ATOM      3  C3  UNL d   1       3.537   3.741  -0.393  0.00  0.00     0.033 A 
ATOM      4  C4  UNL d   1       4.123   4.206  -1.566  0.00  0.00    -0.042 A 
ATOM      5  C5  UNL d   1       5.054   5.237  -1.502  0.00  0.00     0.033 A 
ATOM      6  C6  UNL d   1       5.395   5.795  -0.266  0.00  0.00    -0.057 A 
ENDROOT
BRANCH   1   7
ATOM      7  N   UNL d   1       5.141   6.000   2.116  0.00  0.00    -0.732 N 
ATOM      8  C   UNL d   1       5.962   5.370   3.128  0.00  0.00     0.284 C 
ATOM      9  H3  UNL d   1       5.353   6.983   1.962  0.00  0.00     0.395 HD
ENDBRANCH   1   7
TORSDOF 1
ENDMDL
