MODEL 1
REMARK minimizedAffinity 8.69379711
REMARK minimizedRMSD -1
REMARK  1 active torsions:
REMARK  status: ('A' for Active; 'I' for Inactive)
REMARK    1  A    between atoms: N_2  and  C1_3 
ROOT
ATOM      1  C1  UNL d   1       1.801   2.171  -0.106  0.00  0.00     0.143 A 
ATOM      2  C2  UNL d   1       1.656   0.887  -0.643  0.00  0.00    -0.057 A 
ATOM      3  C3  UNL d   1       0.390   0.334  -0.869  0.00  0.00     0.033 A 
ATOM      4  C4  UNL d   1      -0.757   1.045  -0.534  0.00  0.00    -0.042 A 
ATOM      5  C5  UNL d   1      -0.636   2.313   0.024  0.00  0.00     0.033 A 
ATOM      6  C6  UNL d   1       0.631   2.863   0.241  0.00  0.00    -0.057 A 
ENDROOT
BRANCH   1   7
ATOM      7  N   UNL d   1       3.032   2.738   0.233  0.00  0.00    -0.732 N 
ATOM      8  C   UNL d   1       3.574   3.838  -0.534  0.00  0.00     0.284 C 
ATOM      9  H3  UNL d   1       3.151   2.834   1.239  0.00  0.00     0.395 HD
ENDBRANCH   1   7
TORSDOF 1
ENDMDL
