MODEL 1
REMARK minimizedAffinity 0.645758927
REMARK minimizedRMSD -1
REMARK  1 active torsions:
REMARK  status: ('A' for Active; 'I' for Inactive)
REMARK    1  A    between atoms: N_2  and  C1_3 
ROOT
ATOM      1  C1  UNL d   1      -0.793  -3.313  -0.529  0.00  0.00     0.143 A 
ATOM      2  C2  UNL d   1      -1.846  -2.593  -1.103  0.00  0.00    -0.057 A 
ATOM      3  C3  UNL d   1      -3.083  -3.197  -1.361  0.00  0.00     0.033 A 
ATOM      4  C4  UNL d   1      -3.279  -4.544  -1.075  0.00  0.00    -0.042 A 
ATOM      5  C5  UNL d   1      -2.237  -5.286  -0.528  0.00  0.00     0.033 A 
ATOM      6  C6  UNL d   1      -1.007  -4.676  -0.267  0.00  0.00    -0.057 A 
ENDROOT
BRANCH   1   7
ATOM      7  N   UNL d   1       0.491  -2.796  -0.340  0.00  0.00    -0.732 N 
ATOM      8  C   UNL d   1       0.708  -1.366  -0.278  0.00  0.00     0.284 C 
ATOM      9  H3  UNL d   1       1.027  -3.327   0.342  0.00  0.00     0.395 HD
ENDBRANCH   1   7
TORSDOF 1
ENDMDL
