MODEL 1
REMARK minimizedAffinity 1.41687357
REMARK minimizedRMSD -1
REMARK  1 active torsions:
REMARK  status: ('A' for Active; 'I' for Inactive)
REMARK    1  A    between atoms: N_2  and  C1_3 
ROOT
ATOM      1  C1  UNL d   1      -0.979  -3.026  -0.466  0.00  0.00     0.143 A 
ATOM      2  C2  UNL d   1      -2.134  -2.511  -1.064  0.00  0.00    -0.057 A 
ATOM      3  C3  UNL d   1      -3.258  -3.316  -1.283  0.00  0.00     0.033 A 
ATOM      4  C4  UNL d   1      -3.237  -4.662  -0.932  0.00  0.00    -0.042 A 
ATOM      5  C5  UNL d   1      -2.090  -5.201  -0.359  0.00  0.00     0.033 A 
ATOM      6  C6  UNL d   1      -0.973  -4.390  -0.137  0.00  0.00    -0.057 A 
ENDROOT
BRANCH   1   7
ATOM      7  N   UNL d   1       0.206  -2.301  -0.312  0.00  0.00    -0.732 N 
ATOM      8  C   UNL d   1       0.506  -1.636   0.938  0.00  0.00     0.284 C 
ATOM      9  H3  UNL d   1       1.005  -2.768  -0.736  0.00  0.00     0.395 HD
ENDBRANCH   1   7
TORSDOF 1
ENDMDL
