MODEL 1
REMARK minimizedAffinity 1.51770592
REMARK minimizedRMSD -1
REMARK  1 active torsions:
REMARK  status: ('A' for Active; 'I' for Inactive)
REMARK    1  A    between atoms: N_2  and  C1_3 
ROOT
ATOM      1  C1  UNL d   1      -0.939  -2.143  -0.654  0.00  0.00     0.143 A 
ATOM      2  C2  UNL d   1      -2.051  -1.322  -0.869  0.00  0.00    -0.057 A 
ATOM      3  C3  UNL d   1      -3.282  -1.857  -1.268  0.00  0.00     0.033 A 
ATOM      4  C4  UNL d   1      -3.415  -3.224  -1.487  0.00  0.00    -0.042 A 
ATOM      5  C5  UNL d   1      -2.316  -4.056  -1.303  0.00  0.00     0.033 A 
ATOM      6  C6  UNL d   1      -1.091  -3.517  -0.898  0.00  0.00    -0.057 A 
ENDROOT
BRANCH   1   7
ATOM      7  N   UNL d   1       0.337  -1.661  -0.352  0.00  0.00    -0.732 N 
ATOM      8  C   UNL d   1       1.518  -2.366  -0.803  0.00  0.00     0.284 C 
ATOM      9  H3  UNL d   1       0.400  -0.649  -0.437  0.00  0.00     0.395 HD
ENDBRANCH   1   7
TORSDOF 1
ENDMDL
