MODEL 1
REMARK minimizedAffinity 5.42856884
REMARK minimizedRMSD -1
REMARK  1 active torsions:
REMARK  status: ('A' for Active; 'I' for Inactive)
REMARK    1  A    between atoms: N_2  and  C1_3 
ROOT
ATOM      1  C1  UNL d   1       4.516   4.523   1.371  0.00  0.00     0.143 A 
ATOM      2  C2  UNL d   1       5.094   5.726   1.789  0.00  0.00    -0.057 A 
ATOM      3  C3  UNL d   1       5.309   5.995   3.146  0.00  0.00     0.033 A 
ATOM      4  C4  UNL d   1       4.922   5.074   4.114  0.00  0.00    -0.042 A 
ATOM      5  C5  UNL d   1       4.323   3.882   3.723  0.00  0.00     0.033 A 
ATOM      6  C6  UNL d   1       4.117   3.617   2.365  0.00  0.00    -0.057 A 
ENDROOT
BRANCH   1   7
ATOM      7  N   UNL d   1       4.186   4.239   0.043  0.00  0.00    -0.732 N 
ATOM      8  C   UNL d   1       4.119   5.296  -0.942  0.00  0.00     0.284 C 
ATOM      9  H3  UNL d   1       4.627   3.385  -0.292  0.00  0.00     0.395 HD
ENDBRANCH   1   7
TORSDOF 1
ENDMDL
