MODEL 1
REMARK minimizedAffinity 3.60687852
REMARK minimizedRMSD -1
REMARK  1 active torsions:
REMARK  status: ('A' for Active; 'I' for Inactive)
REMARK    1  A    between atoms: N_2  and  C1_3 
ROOT
ATOM      1  C1  UNL d   1       4.945   3.737   4.249  0.00  0.00     0.143 A 
ATOM      2  C2  UNL d   1       5.597   3.400   5.440  0.00  0.00    -0.057 A 
ATOM      3  C3  UNL d   1       5.472   2.123   5.999  0.00  0.00     0.033 A 
ATOM      4  C4  UNL d   1       4.667   1.166   5.390  0.00  0.00    -0.042 A 
ATOM      5  C5  UNL d   1       3.991   1.486   4.219  0.00  0.00     0.033 A 
ATOM      6  C6  UNL d   1       4.125   2.762   3.661  0.00  0.00    -0.057 A 
ENDROOT
BRANCH   1   7
ATOM      7  N   UNL d   1       4.951   5.020   3.695  0.00  0.00    -0.732 N 
ATOM      8  C   UNL d   1       5.934   5.998   4.110  0.00  0.00     0.284 C 
ATOM      9  H3  UNL d   1       4.769   5.012   2.694  0.00  0.00     0.395 HD
ENDBRANCH   1   7
TORSDOF 1
ENDMDL
