MODEL 1
REMARK minimizedAffinity -4.23825598
REMARK minimizedRMSD -1
REMARK  0 active torsions:
REMARK  status: ('A' for Active; 'I' for Inactive)
ROOT
ATOM      1  C1  DEN d   1      -0.552  -0.519   2.108  0.00  0.00     0.130 A 
ATOM      2  C2  DEN d   1      -1.467   0.589   2.370  0.00  0.00    -0.031 A 
ATOM      3  C3  DEN d   1      -1.288   1.592   1.301  0.00  0.00     0.027 A 
ATOM      4  C4  DEN d   1       0.304   1.535  -0.727  0.00  0.00     0.027 A 
ATOM      5  C5  DEN d   1       1.282   0.806  -1.366  0.00  0.00    -0.003 A 
ATOM      6  C6  DEN d   1       1.737  -0.390  -0.878  0.00  0.00     0.001 A 
ATOM      7  C7  DEN d   1       1.182  -0.915   0.259  0.00  0.00     0.017 A 
ATOM      8  C8  DEN d   1       0.201  -0.182   0.913  0.00  0.00    -0.094 A 
ATOM      9  C9  DEN d   1      -0.254   1.020   0.398  0.00  0.00    -0.072 A 
ENDROOT
TORSDOF 0
ENDMDL
