MODEL 1
REMARK minimizedAffinity 2.02866697
REMARK minimizedRMSD -1
REMARK  0 active torsions:
REMARK  status: ('A' for Active; 'I' for Inactive)
ROOT
ATOM      1  C1  DEN d   1       0.060   0.159  -0.779  0.00  0.00     0.130 A 
ATOM      2  C2  DEN d   1       0.102  -0.043   0.666  0.00  0.00    -0.031 A 
ATOM      3  C3  DEN d   1       0.581  -1.417   0.921  0.00  0.00     0.027 A 
ATOM      4  C4  DEN d   1       1.261  -3.239  -0.773  0.00  0.00     0.027 A 
ATOM      5  C5  DEN d   1       1.381  -3.538  -2.113  0.00  0.00    -0.003 A 
ATOM      6  C6  DEN d   1       1.039  -2.645  -3.094  0.00  0.00     0.001 A 
ATOM      7  C7  DEN d   1       0.604  -1.392  -2.750  0.00  0.00     0.017 A 
ATOM      8  C8  DEN d   1       0.473  -1.086  -1.401  0.00  0.00    -0.094 A 
ATOM      9  C9  DEN d   1       0.835  -1.998  -0.425  0.00  0.00    -0.072 A 
ENDROOT
TORSDOF 0
ENDMDL
