MODEL 1
REMARK minimizedAffinity -3.52128577
REMARK minimizedRMSD -1
REMARK  0 active torsions:
REMARK  status: ('A' for Active; 'I' for Inactive)
ROOT
ATOM      1  C1  DEN d   1       0.820  -0.103  -0.655  0.00  0.00     0.130 A 
ATOM      2  C2  DEN d   1       0.660  -1.252   0.231  0.00  0.00    -0.031 A 
ATOM      3  C3  DEN d   1      -0.151  -0.826   1.389  0.00  0.00     0.027 A 
ATOM      4  C4  DEN d   1      -1.172   1.488   1.892  0.00  0.00     0.027 A 
ATOM      5  C5  DEN d   1      -1.297   2.783   1.437  0.00  0.00    -0.003 A 
ATOM      6  C6  DEN d   1      -0.702   3.211   0.281  0.00  0.00     0.001 A 
ATOM      7  C7  DEN d   1       0.009   2.326  -0.485  0.00  0.00     0.017 A 
ATOM      8  C8  DEN d   1       0.146   1.021  -0.030  0.00  0.00    -0.094 A 
ATOM      9  C9  DEN d   1      -0.474   0.604   1.136  0.00  0.00    -0.072 A 
ENDROOT
TORSDOF 0
ENDMDL
