MODEL 1
REMARK minimizedAffinity -5.21243954
REMARK minimizedRMSD -1
REMARK  0 active torsions:
REMARK  status: ('A' for Active; 'I' for Inactive)
ROOT
ATOM      1  C1  DEN d   1       0.682   0.822  -1.245  0.00  0.00     0.130 A 
ATOM      2  C2  DEN d   1       1.432  -0.419  -1.073  0.00  0.00    -0.031 A 
ATOM      3  C3  DEN d   1       0.930  -1.092   0.142  0.00  0.00     0.027 A 
ATOM      4  C4  DEN d   1      -0.931  -0.339   1.761  0.00  0.00     0.027 A 
ATOM      5  C5  DEN d   1      -1.847   0.652   2.036  0.00  0.00    -0.003 A 
ATOM      6  C6  DEN d   1      -1.961   1.776   1.261  0.00  0.00     0.001 A 
ATOM      7  C7  DEN d   1      -1.175   1.916   0.148  0.00  0.00     0.017 A 
ATOM      8  C8  DEN d   1      -0.243   0.924  -0.131  0.00  0.00    -0.094 A 
ATOM      9  C9  DEN d   1      -0.152  -0.211   0.657  0.00  0.00    -0.072 A 
ENDROOT
TORSDOF 0
ENDMDL
