MODEL 1
REMARK minimizedAffinity -2.5262394
REMARK minimizedRMSD -1
REMARK  0 active torsions:
REMARK  status: ('A' for Active; 'I' for Inactive)
ROOT
ATOM      1  C1  DEN d   1       1.157   0.515  -0.855  0.00  0.00     0.130 A 
ATOM      2  C2  DEN d   1       0.897   1.894  -1.259  0.00  0.00    -0.031 A 
ATOM      3  C3  DEN d   1       0.004   2.503  -0.253  0.00  0.00     0.027 A 
ATOM      4  C4  DEN d   1      -0.991   1.452   1.882  0.00  0.00     0.027 A 
ATOM      5  C5  DEN d   1      -1.063   0.303   2.639  0.00  0.00    -0.003 A 
ATOM      6  C6  DEN d   1      -0.434  -0.856   2.269  0.00  0.00     0.001 A 
ATOM      7  C7  DEN d   1       0.334  -0.879   1.135  0.00  0.00     0.017 A 
ATOM      8  C8  DEN d   1       0.406   0.273   0.363  0.00  0.00    -0.094 A 
ATOM      9  C9  DEN d   1      -0.228   1.438   0.760  0.00  0.00    -0.072 A 
ENDROOT
TORSDOF 0
ENDMDL
