MODEL 1
REMARK minimizedAffinity 1.15609419
REMARK minimizedRMSD -1
REMARK  0 active torsions:
REMARK  status: ('A' for Active; 'I' for Inactive)
ROOT
ATOM      1  C1  DEN d   1       1.286  -2.589  -2.341  0.00  0.00     0.130 A 
ATOM      2  C2  DEN d   1       0.135  -3.112  -3.072  0.00  0.00    -0.031 A 
ATOM      3  C3  DEN d   1       0.000  -4.546  -2.744  0.00  0.00     0.027 A 
ATOM      4  C4  DEN d   1       1.451  -5.997  -1.181  0.00  0.00     0.027 A 
ATOM      5  C5  DEN d   1       2.547  -5.998  -0.348  0.00  0.00    -0.003 A 
ATOM      6  C6  DEN d   1       3.315  -4.881  -0.149  0.00  0.00     0.001 A 
ATOM      7  C7  DEN d   1       2.968  -3.703  -0.756  0.00  0.00     0.017 A 
ATOM      8  C8  DEN d   1       1.868  -3.696  -1.604  0.00  0.00    -0.094 A 
ATOM      9  C9  DEN d   1       1.098  -4.832  -1.782  0.00  0.00    -0.072 A 
ENDROOT
TORSDOF 0
ENDMDL
