MODEL 1
REMARK minimizedAffinity -5.43405676
REMARK minimizedRMSD -1
REMARK  0 active torsions:
REMARK  status: ('A' for Active; 'I' for Inactive)
ROOT
ATOM      1  C1  DEN d   1      -1.743   2.004   0.424  0.00  0.00     0.130 A 
ATOM      2  C2  DEN d   1      -2.197   1.118   1.492  0.00  0.00    -0.031 A 
ATOM      3  C3  DEN d   1      -1.297  -0.052   1.530  0.00  0.00     0.027 A 
ATOM      4  C4  DEN d   1       0.748  -0.573   0.047  0.00  0.00     0.027 A 
ATOM      5  C5  DEN d   1       1.516  -0.124  -1.005  0.00  0.00    -0.003 A 
ATOM      6  C6  DEN d   1       1.234   1.039  -1.671  0.00  0.00     0.001 A 
ATOM      7  C7  DEN d   1       0.182   1.817  -1.262  0.00  0.00     0.017 A 
ATOM      8  C8  DEN d   1      -0.601   1.367  -0.208  0.00  0.00    -0.094 A 
ATOM      9  C9  DEN d   1      -0.292   0.194   0.460  0.00  0.00    -0.072 A 
ENDROOT
TORSDOF 0
ENDMDL
