MODEL 1
REMARK minimizedAffinity -3.76928067
REMARK minimizedRMSD -1
REMARK  0 active torsions:
REMARK  status: ('A' for Active; 'I' for Inactive)
ROOT
ATOM      1  C1  DEN d   1      -1.637   0.852   2.015  0.00  0.00     0.130 A 
ATOM      2  C2  DEN d   1      -2.330   2.051   1.550  0.00  0.00    -0.031 A 
ATOM      3  C3  DEN d   1      -1.790   2.405   0.222  0.00  0.00     0.027 A 
ATOM      4  C4  DEN d   1       0.041   1.218  -1.154  0.00  0.00     0.027 A 
ATOM      5  C5  DEN d   1       0.930   0.166  -1.168  0.00  0.00    -0.003 A 
ATOM      6  C6  DEN d   1       1.048  -0.704  -0.117  0.00  0.00     0.001 A 
ATOM      7  C7  DEN d   1       0.233  -0.564   0.975  0.00  0.00     0.017 A 
ATOM      8  C8  DEN d   1      -0.661   0.499   1.000  0.00  0.00    -0.094 A 
ATOM      9  C9  DEN d   1      -0.774   1.360  -0.078  0.00  0.00    -0.072 A 
ENDROOT
TORSDOF 0
ENDMDL
