MODEL 1
REMARK minimizedAffinity -3.86734676
REMARK minimizedRMSD -1
REMARK  0 active torsions:
REMARK  status: ('A' for Active; 'I' for Inactive)
ROOT
ATOM      1  C1  DEN d   1       0.182   0.509  -1.470  0.00  0.00     0.130 A 
ATOM      2  C2  DEN d   1       0.855  -0.745  -1.141  0.00  0.00    -0.031 A 
ATOM      3  C3  DEN d   1       0.463  -1.128   0.230  0.00  0.00     0.027 A 
ATOM      4  C4  DEN d   1      -1.117   0.090   1.866  0.00  0.00     0.027 A 
ATOM      5  C5  DEN d   1      -1.916   1.198   2.039  0.00  0.00    -0.003 A 
ATOM      6  C6  DEN d   1      -2.044   2.164   1.076  0.00  0.00     0.001 A 
ATOM      7  C7  DEN d   1      -1.397   2.017  -0.123  0.00  0.00     0.017 A 
ATOM      8  C8  DEN d   1      -0.584   0.906  -0.302  0.00  0.00    -0.094 A 
ATOM      9  C9  DEN d   1      -0.477  -0.066   0.679  0.00  0.00    -0.072 A 
ENDROOT
TORSDOF 0
ENDMDL
