MODEL 1
REMARK minimizedAffinity -6.19875479
REMARK minimizedRMSD -1
REMARK  0 active torsions:
REMARK  status: ('A' for Active; 'I' for Inactive)
ROOT
ATOM      1  C1  DEN d   1      -1.553   2.495   0.461  0.00  0.00     0.130 A 
ATOM      2  C2  DEN d   1      -2.094   2.366   1.811  0.00  0.00    -0.031 A 
ATOM      3  C3  DEN d   1      -1.610   1.091   2.377  0.00  0.00     0.027 A 
ATOM      4  C4  DEN d   1      -0.078  -0.684   1.302  0.00  0.00     0.027 A 
ATOM      5  C5  DEN d   1       0.624  -1.021   0.165  0.00  0.00    -0.003 A 
ATOM      6  C6  DEN d   1       0.622  -0.233  -0.955  0.00  0.00     0.001 A 
ATOM      7  C7  DEN d   1      -0.060   0.956  -0.947  0.00  0.00     0.017 A 
ATOM      8  C8  DEN d   1      -0.776   1.299   0.192  0.00  0.00    -0.094 A 
ATOM      9  C9  DEN d   1      -0.751   0.494   1.319  0.00  0.00    -0.072 A 
ENDROOT
TORSDOF 0
ENDMDL
