MODEL 1
REMARK minimizedAffinity -2.93780732
REMARK minimizedRMSD -1
REMARK  0 active torsions:
REMARK  status: ('A' for Active; 'I' for Inactive)
ROOT
ATOM      1  C1  DEN d   1      -1.428   2.382   0.302  0.00  0.00     0.130 A 
ATOM      2  C2  DEN d   1      -1.685   2.760   1.689  0.00  0.00    -0.031 A 
ATOM      3  C3  DEN d   1      -1.085   1.730   2.561  0.00  0.00     0.027 A 
ATOM      4  C4  DEN d   1       0.215  -0.397   1.902  0.00  0.00     0.027 A 
ATOM      5  C5  DEN d   1       0.678  -1.148   0.844  0.00  0.00    -0.003 A 
ATOM      6  C6  DEN d   1       0.443  -0.795  -0.459  0.00  0.00     0.001 A 
ATOM      7  C7  DEN d   1      -0.234   0.363  -0.737  0.00  0.00     0.017 A 
ATOM      8  C8  DEN d   1      -0.710   1.121   0.325  0.00  0.00    -0.094 A 
ATOM      9  C9  DEN d   1      -0.452   0.754   1.635  0.00  0.00    -0.072 A 
ENDROOT
TORSDOF 0
ENDMDL
