MODEL 1
REMARK minimizedAffinity -3.86644197
REMARK minimizedRMSD -1
REMARK  0 active torsions:
REMARK  status: ('A' for Active; 'I' for Inactive)
ROOT
ATOM      1  C1  DEN d   1       0.150  -0.163  -1.385  0.00  0.00     0.130 A 
ATOM      2  C2  DEN d   1       1.092  -1.201  -0.973  0.00  0.00    -0.031 A 
ATOM      3  C3  DEN d   1       1.056  -1.290   0.501  0.00  0.00     0.027 A 
ATOM      4  C4  DEN d   1      -0.361   0.067   2.175  0.00  0.00     0.027 A 
ATOM      5  C5  DEN d   1      -1.298   1.069   2.299  0.00  0.00    -0.003 A 
ATOM      6  C6  DEN d   1      -1.788   1.748   1.216  0.00  0.00     0.001 A 
ATOM      7  C7  DEN d   1      -1.377   1.403  -0.045  0.00  0.00     0.017 A 
ATOM      8  C8  DEN d   1      -0.428   0.399  -0.178  0.00  0.00    -0.094 A 
ATOM      9  C9  DEN d   1       0.047  -0.285   0.929  0.00  0.00    -0.072 A 
ENDROOT
TORSDOF 0
ENDMDL
