MODEL 1
REMARK minimizedAffinity -2.99936819
REMARK minimizedRMSD -1
REMARK  0 active torsions:
REMARK  status: ('A' for Active; 'I' for Inactive)
ROOT
ATOM      1  C1  DEN d   1       1.328  -5.995  -1.120  0.00  0.00     0.130 A 
ATOM      2  C2  DEN d   1       2.515  -5.916  -0.273  0.00  0.00    -0.031 A 
ATOM      3  C3  DEN d   1       3.004  -4.523  -0.301  0.00  0.00     0.027 A 
ATOM      4  C4  DEN d   1       2.041  -2.491  -1.563  0.00  0.00     0.027 A 
ATOM      5  C5  DEN d   1       1.049  -2.069  -2.421  0.00  0.00    -0.003 A 
ATOM      6  C6  DEN d   1       0.109  -2.926  -2.927  0.00  0.00     0.001 A 
ATOM      7  C7  DEN d   1       0.113  -4.241  -2.545  0.00  0.00     0.017 A 
ATOM      8  C8  DEN d   1       1.115  -4.676  -1.687  0.00  0.00    -0.094 A 
ATOM      9  C9  DEN d   1       2.049  -3.791  -1.176  0.00  0.00    -0.072 A 
ENDROOT
TORSDOF 0
ENDMDL
