MODEL 1
REMARK minimizedAffinity -3.52082109
REMARK minimizedRMSD -1
REMARK  0 active torsions:
REMARK  status: ('A' for Active; 'I' for Inactive)
ROOT
ATOM      1  C1  DEN d   1       1.126  -6.000  -0.530  0.00  0.00     0.130 A 
ATOM      2  C2  DEN d   1       2.447  -5.889   0.081  0.00  0.00    -0.031 A 
ATOM      3  C3  DEN d   1       3.011  -4.575  -0.286  0.00  0.00     0.027 A 
ATOM      4  C4  DEN d   1       1.969  -2.707  -1.727  0.00  0.00     0.027 A 
ATOM      5  C5  DEN d   1       0.869  -2.347  -2.473  0.00  0.00    -0.003 A 
ATOM      6  C6  DEN d   1      -0.200  -3.185  -2.650  0.00  0.00     0.001 A 
ATOM      7  C7  DEN d   1      -0.211  -4.410  -2.036  0.00  0.00     0.017 A 
ATOM      8  C8  DEN d   1       0.898  -4.783  -1.289  0.00  0.00    -0.094 A 
ATOM      9  C9  DEN d   1       1.964  -3.916  -1.112  0.00  0.00    -0.072 A 
ENDROOT
TORSDOF 0
ENDMDL
