MODEL 1
REMARK minimizedAffinity -0.172946021
REMARK minimizedRMSD -1
REMARK  0 active torsions:
REMARK  status: ('A' for Active; 'I' for Inactive)
ROOT
ATOM      1  C1  DEN d   1       0.982  -0.215  -1.004  0.00  0.00     0.130 A 
ATOM      2  C2  DEN d   1       1.295  -1.642  -1.002  0.00  0.00    -0.031 A 
ATOM      3  C3  DEN d   1       0.814  -2.213   0.272  0.00  0.00     0.027 A 
ATOM      4  C4  DEN d   1      -0.383  -1.033   2.229  0.00  0.00     0.027 A 
ATOM      5  C5  DEN d   1      -0.856   0.175   2.691  0.00  0.00    -0.003 A 
ATOM      6  C6  DEN d   1      -0.720   1.335   1.975  0.00  0.00     0.001 A 
ATOM      7  C7  DEN d   1      -0.136   1.303   0.736  0.00  0.00     0.017 A 
ATOM      8  C8  DEN d   1       0.350   0.089   0.267  0.00  0.00    -0.094 A 
ATOM      9  C9  DEN d   1       0.192  -1.074   1.000  0.00  0.00    -0.072 A 
ENDROOT
TORSDOF 0
ENDMDL
