MODEL 1
REMARK minimizedAffinity 27.5573292
REMARK minimizedRMSD -1
REMARK  0 active torsions:
REMARK  status: ('A' for Active; 'I' for Inactive)
ROOT
ATOM      1  C   UNL d   1       0.623  -4.180  -4.033  0.00  0.00     0.124 A 
ATOM      2  C1  UNL d   1       1.783  -4.036  -4.782  0.00  0.00     0.062 A 
ATOM      3  C2  UNL d   1       2.987  -4.554  -4.313  0.00  0.00     0.162 A 
ATOM      4  C3  UNL d   1       3.037  -5.222  -3.090  0.00  0.00    -0.034 A 
ATOM      5  C4  UNL d   1       1.867  -5.362  -2.342  0.00  0.00     0.162 A 
ATOM      6  C5  UNL d   1       0.666  -4.843  -2.814  0.00  0.00     0.062 A 
ATOM      7  F   UNL d   1      -0.453  -4.982  -2.090  0.00  0.00    -0.097 F 
ATOM      8  F1  UNL d   1       1.880  -5.999  -1.162  0.00  0.00    -0.096 F 
ATOM      9  I   UNL d   1       4.836  -5.999  -2.386  0.00  0.00    -0.060 I 
ATOM     10  F2  UNL d   1       4.092  -4.401  -5.058  0.00  0.00    -0.096 F 
ATOM     11  F3  UNL d   1       1.744  -3.396  -5.959  0.00  0.00    -0.097 F 
ATOM     12  F4  UNL d   1      -0.534  -3.680  -4.485  0.00  0.00    -0.092 F 
ENDROOT
TORSDOF 0
ENDMDL
