MODEL 1
REMARK minimizedAffinity 24.392786
REMARK minimizedRMSD -1
REMARK  0 active torsions:
REMARK  status: ('A' for Active; 'I' for Inactive)
ROOT
ATOM      1  C   UNL d   1      -4.456   5.243  -1.463  0.00  0.00     0.124 A 
ATOM      2  C1  UNL d   1      -4.007   5.228  -0.150  0.00  0.00     0.062 A 
ATOM      3  C2  UNL d   1      -2.916   4.442   0.208  0.00  0.00     0.162 A 
ATOM      4  C3  UNL d   1      -2.265   3.664  -0.749  0.00  0.00    -0.034 A 
ATOM      5  C4  UNL d   1      -2.723   3.683  -2.068  0.00  0.00     0.162 A 
ATOM      6  C5  UNL d   1      -3.814   4.470  -2.421  0.00  0.00     0.062 A 
ATOM      7  F   UNL d   1      -4.246   4.483  -3.690  0.00  0.00    -0.097 F 
ATOM      8  F1  UNL d   1      -2.120   2.947  -3.013  0.00  0.00    -0.096 F 
ATOM      9  I   UNL d   1      -0.633   2.486  -0.218  0.00  0.00    -0.060 I 
ATOM     10  F2  UNL d   1      -2.504   4.447   1.485  0.00  0.00    -0.096 F 
ATOM     11  F3  UNL d   1      -4.627   5.973   0.777  0.00  0.00    -0.097 F 
ATOM     12  F4  UNL d   1      -5.507   6.000  -1.805  0.00  0.00    -0.092 F 
ENDROOT
TORSDOF 0
ENDMDL
