MODEL 1
REMARK minimizedAffinity 24.1720276
REMARK minimizedRMSD -1
REMARK  0 active torsions:
REMARK  status: ('A' for Active; 'I' for Inactive)
ROOT
ATOM      1  C   UNL d   1       0.375   2.463  -0.838  0.00  0.00     0.124 A 
ATOM      2  C1  UNL d   1       0.398   3.753  -1.352  0.00  0.00     0.062 A 
ATOM      3  C2  UNL d   1      -0.337   4.764  -0.740  0.00  0.00     0.162 A 
ATOM      4  C3  UNL d   1      -1.102   4.490   0.394  0.00  0.00    -0.034 A 
ATOM      5  C4  UNL d   1      -1.121   3.191   0.905  0.00  0.00     0.162 A 
ATOM      6  C5  UNL d   1      -0.384   2.184   0.290  0.00  0.00     0.062 A 
ATOM      7  F   UNL d   1      -0.408   0.939   0.788  0.00  0.00    -0.097 F 
ATOM      8  F1  UNL d   1      -1.845   2.893   1.994  0.00  0.00    -0.096 F 
ATOM      9  I   UNL d   1      -2.202   5.999   1.312  0.00  0.00    -0.060 I 
ATOM     10  F2  UNL d   1      -0.296   6.000  -1.258  0.00  0.00    -0.096 F 
ATOM     11  F3  UNL d   1       1.130   4.025  -2.442  0.00  0.00    -0.097 F 
ATOM     12  F4  UNL d   1       1.082   1.492  -1.429  0.00  0.00    -0.092 F 
ENDROOT
TORSDOF 0
ENDMDL
