MODEL 1
REMARK minimizedAffinity 21.5328712
REMARK minimizedRMSD -1
REMARK  0 active torsions:
REMARK  status: ('A' for Active; 'I' for Inactive)
ROOT
ATOM      1  C   UNL d   1       0.075   3.026  -1.240  0.00  0.00     0.124 A 
ATOM      2  C1  UNL d   1       1.424   3.352  -1.271  0.00  0.00     0.062 A 
ATOM      3  C2  UNL d   1       2.222   3.139  -0.150  0.00  0.00     0.162 A 
ATOM      4  C3  UNL d   1       1.672   2.597   1.012  0.00  0.00    -0.034 A 
ATOM      5  C4  UNL d   1       0.314   2.273   1.035  0.00  0.00     0.162 A 
ATOM      6  C5  UNL d   1      -0.478   2.487  -0.088  0.00  0.00     0.062 A 
ATOM      7  F   UNL d   1      -1.781   2.172  -0.056  0.00  0.00    -0.097 F 
ATOM      8  F1  UNL d   1      -0.246   1.749   2.136  0.00  0.00    -0.096 F 
ATOM      9  I   UNL d   1       2.861   2.277   2.690  0.00  0.00    -0.060 I 
ATOM     10  F2  UNL d   1       3.522   3.463  -0.208  0.00  0.00    -0.096 F 
ATOM     11  F3  UNL d   1       1.961   3.874  -2.383  0.00  0.00    -0.097 F 
ATOM     12  F4  UNL d   1      -0.690   3.233  -2.320  0.00  0.00    -0.092 F 
ENDROOT
TORSDOF 0
ENDMDL
