MODEL 1
REMARK minimizedAffinity 21.5033321
REMARK minimizedRMSD -1
REMARK  0 active torsions:
REMARK  status: ('A' for Active; 'I' for Inactive)
ROOT
ATOM      1  C   UNL d   1       1.361  -3.028  -0.762  0.00  0.00     0.124 A 
ATOM      2  C1  UNL d   1       2.353  -2.184  -0.284  0.00  0.00     0.062 A 
ATOM      3  C2  UNL d   1       3.678  -2.608  -0.254  0.00  0.00     0.162 A 
ATOM      4  C3  UNL d   1       4.019  -3.883  -0.705  0.00  0.00    -0.034 A 
ATOM      5  C4  UNL d   1       3.016  -4.727  -1.183  0.00  0.00     0.162 A 
ATOM      6  C5  UNL d   1       1.693  -4.298  -1.211  0.00  0.00     0.062 A 
ATOM      7  F   UNL d   1       0.735  -5.115  -1.674  0.00  0.00    -0.097 F 
ATOM      8  F1  UNL d   1       3.309  -5.959  -1.624  0.00  0.00    -0.096 F 
ATOM      9  I   UNL d   1       6.000  -4.521  -0.661  0.00  0.00    -0.060 I 
ATOM     10  F2  UNL d   1       4.617  -1.771   0.213  0.00  0.00    -0.096 F 
ATOM     11  F3  UNL d   1       2.035  -0.956   0.151  0.00  0.00    -0.097 F 
ATOM     12  F4  UNL d   1       0.086  -2.617  -0.789  0.00  0.00    -0.092 F 
ENDROOT
TORSDOF 0
ENDMDL
