MODEL 1
REMARK minimizedAffinity 20.0072041
REMARK minimizedRMSD -1
REMARK  0 active torsions:
REMARK  status: ('A' for Active; 'I' for Inactive)
ROOT
ATOM      1  C   UNL d   1       0.083  -4.448  -2.486  0.00  0.00     0.124 A 
ATOM      2  C1  UNL d   1       0.145  -4.239  -3.857  0.00  0.00     0.062 A 
ATOM      3  C2  UNL d   1       1.310  -4.535  -4.558  0.00  0.00     0.162 A 
ATOM      4  C3  UNL d   1       2.423  -5.045  -3.890  0.00  0.00    -0.034 A 
ATOM      5  C4  UNL d   1       2.354  -5.251  -2.511  0.00  0.00     0.162 A 
ATOM      6  C5  UNL d   1       1.187  -4.953  -1.815  0.00  0.00     0.062 A 
ATOM      7  F   UNL d   1       1.130  -5.156  -0.490  0.00  0.00    -0.097 F 
ATOM      8  F1  UNL d   1       3.406  -5.740  -1.838  0.00  0.00    -0.096 F 
ATOM      9  I   UNL d   1       4.167  -5.490  -4.935  0.00  0.00    -0.060 I 
ATOM     10  F2  UNL d   1       1.341  -4.324  -5.883  0.00  0.00    -0.096 F 
ATOM     11  F3  UNL d   1      -0.920  -3.749  -4.508  0.00  0.00    -0.097 F 
ATOM     12  F4  UNL d   1      -1.039  -4.161  -1.814  0.00  0.00    -0.092 F 
ENDROOT
TORSDOF 0
ENDMDL
