MODEL 1
REMARK minimizedAffinity -2.08592486
REMARK minimizedRMSD -1
REMARK  0 active torsions:
REMARK  status: ('A' for Active; 'I' for Inactive)
ROOT
ATOM      1  C2' OXE d   1      -0.067   0.582  -1.498  0.00  0.00     0.078 C 
ATOM      2  C1' OXE d   1      -2.456   0.784  -0.038  0.00  0.00     0.078 C 
ATOM      3  C1  OXE d   1      -1.189   0.489   0.725  0.00  0.00    -0.078 A 
ATOM      4  C2  OXE d   1      -0.032   0.345  -0.003  0.00  0.00    -0.078 A 
ATOM      5  C3  OXE d   1       1.175   0.126   0.656  0.00  0.00     0.003 A 
ATOM      6  C4  OXE d   1       1.196  -0.101   2.037  0.00  0.00    -0.002 A 
ATOM      7  C5  OXE d   1       0.023   0.001   2.792  0.00  0.00    -0.002 A 
ATOM      8  C6  OXE d   1      -1.168   0.337   2.158  0.00  0.00     0.003 A 
ENDROOT
TORSDOF 0
ENDMDL
