MODEL 1
REMARK minimizedAffinity -5.45574617
REMARK minimizedRMSD -1
REMARK  0 active torsions:
REMARK  status: ('A' for Active; 'I' for Inactive)
ROOT
ATOM      1  C2' OXE d   1       1.604   0.365   1.660  0.00  0.00     0.078 C 
ATOM      2  C1' OXE d   1       0.107   0.504  -0.711  0.00  0.00     0.078 C 
ATOM      3  C1  OXE d   1      -0.643   0.328   0.585  0.00  0.00    -0.078 A 
ATOM      4  C2  OXE d   1       0.100   0.215   1.736  0.00  0.00    -0.078 A 
ATOM      5  C3  OXE d   1      -0.544   0.106   2.965  0.00  0.00     0.003 A 
ATOM      6  C4  OXE d   1      -1.935  -0.042   3.025  0.00  0.00    -0.002 A 
ATOM      7  C5  OXE d   1      -2.708   0.031   1.862  0.00  0.00    -0.002 A 
ATOM      8  C6  OXE d   1      -2.082   0.258   0.641  0.00  0.00     0.003 A 
ENDROOT
TORSDOF 0
ENDMDL
