MODEL 1
REMARK minimizedAffinity -2.11809039
REMARK minimizedRMSD -1
REMARK  0 active torsions:
REMARK  status: ('A' for Active; 'I' for Inactive)
ROOT
ATOM      1  C2' OXE d   1      -2.712   0.002   1.183  0.00  0.00     0.078 C 
ATOM      2  C1' OXE d   1      -0.837  -0.491   3.213  0.00  0.00     0.078 C 
ATOM      3  C1  OXE d   1      -0.316  -0.250   1.818  0.00  0.00    -0.078 A 
ATOM      4  C2  OXE d   1      -1.243  -0.056   0.822  0.00  0.00    -0.078 A 
ATOM      5  C3  OXE d   1      -0.815   0.225  -0.472  0.00  0.00     0.003 A 
ATOM      6  C4  OXE d   1       0.545   0.159  -0.799  0.00  0.00    -0.002 A 
ATOM      7  C5  OXE d   1       1.503  -0.076   0.193  0.00  0.00    -0.002 A 
ATOM      8  C6  OXE d   1       1.093  -0.240   1.511  0.00  0.00     0.003 A 
ENDROOT
TORSDOF 0
ENDMDL
