MODEL 1
REMARK minimizedAffinity -4.04980564
REMARK minimizedRMSD -1
REMARK  0 active torsions:
REMARK  status: ('A' for Active; 'I' for Inactive)
ROOT
ATOM      1  C2' OXE d   1      -0.095   0.880   2.422  0.00  0.00     0.078 C 
ATOM      2  C1' OXE d   1      -1.329  -1.570   1.825  0.00  0.00     0.078 C 
ATOM      3  C1  OXE d   1      -0.679  -0.815   0.692  0.00  0.00    -0.078 A 
ATOM      4  C2  OXE d   1      -0.118   0.405   0.985  0.00  0.00    -0.078 A 
ATOM      5  C3  OXE d   1       0.542   1.117  -0.012  0.00  0.00     0.003 A 
ATOM      6  C4  OXE d   1       0.508   0.675  -1.340  0.00  0.00    -0.002 A 
ATOM      7  C5  OXE d   1      -0.092  -0.546  -1.667  0.00  0.00    -0.002 A 
ATOM      8  C6  OXE d   1      -0.651  -1.322  -0.657  0.00  0.00     0.003 A 
ENDROOT
TORSDOF 0
ENDMDL
