MODEL 1
REMARK minimizedAffinity -2.08458018
REMARK minimizedRMSD -1
REMARK  0 active torsions:
REMARK  status: ('A' for Active; 'I' for Inactive)
ROOT
ATOM      1  C2' OXE d   1      -1.713   1.063  -1.042  0.00  0.00     0.078 C 
ATOM      2  C1' OXE d   1       0.847   0.177  -1.778  0.00  0.00     0.078 C 
ATOM      3  C1  OXE d   1       0.478   0.125  -0.316  0.00  0.00    -0.078 A 
ATOM      4  C2  OXE d   1      -0.760   0.604   0.040  0.00  0.00    -0.078 A 
ATOM      5  C3  OXE d   1      -1.172   0.529   1.368  0.00  0.00     0.003 A 
ATOM      6  C4  OXE d   1      -0.280   0.113   2.364  0.00  0.00    -0.002 A 
ATOM      7  C5  OXE d   1       0.999  -0.341   2.028  0.00  0.00    -0.002 A 
ATOM      8  C6  OXE d   1       1.378  -0.382   0.690  0.00  0.00     0.003 A 
ENDROOT
TORSDOF 0
ENDMDL
