MODEL 1
REMARK minimizedAffinity -4.43753815
REMARK minimizedRMSD -1
REMARK  0 active torsions:
REMARK  status: ('A' for Active; 'I' for Inactive)
ROOT
ATOM      1  C2' OXE d   1       1.636   0.604   1.071  0.00  0.00     0.078 C 
ATOM      2  C1' OXE d   1      -0.237   0.294  -0.996  0.00  0.00     0.078 C 
ATOM      3  C1  OXE d   1      -0.693   0.016   0.414  0.00  0.00    -0.078 A 
ATOM      4  C2  OXE d   1       0.242   0.125   1.414  0.00  0.00    -0.078 A 
ATOM      5  C3  OXE d   1      -0.139  -0.067   2.739  0.00  0.00     0.003 A 
ATOM      6  C4  OXE d   1      -1.428  -0.519   3.047  0.00  0.00    -0.002 A 
ATOM      7  C5  OXE d   1      -2.385  -0.675   2.039  0.00  0.00    -0.002 A 
ATOM      8  C6  OXE d   1      -2.047  -0.371   0.725  0.00  0.00     0.003 A 
ENDROOT
TORSDOF 0
ENDMDL
