MODEL 1
REMARK minimizedAffinity -5.11034918
REMARK minimizedRMSD -1
REMARK  0 active torsions:
REMARK  status: ('A' for Active; 'I' for Inactive)
ROOT
ATOM      1  C2' OXE d   1       0.364   0.507  -0.599  0.00  0.00     0.078 C 
ATOM      2  C1' OXE d   1       2.074  -0.384   1.442  0.00  0.00     0.078 C 
ATOM      3  C1  OXE d   1       0.593  -0.357   1.727  0.00  0.00    -0.078 A 
ATOM      4  C2  OXE d   1      -0.232   0.125   0.739  0.00  0.00    -0.078 A 
ATOM      5  C3  OXE d   1      -1.611   0.120   0.929  0.00  0.00     0.003 A 
ATOM      6  C4  OXE d   1      -2.154  -0.226   2.173  0.00  0.00    -0.002 A 
ATOM      7  C5  OXE d   1      -1.328  -0.682   3.206  0.00  0.00    -0.002 A 
ATOM      8  C6  OXE d   1       0.040  -0.793   2.985  0.00  0.00     0.003 A 
ENDROOT
TORSDOF 0
ENDMDL
