MODEL 1
REMARK minimizedAffinity -4.41150045
REMARK minimizedRMSD -1
REMARK  0 active torsions:
REMARK  status: ('A' for Active; 'I' for Inactive)
ROOT
ATOM      1  C2' OXE d   1       1.653  -0.070   0.516  0.00  0.00     0.078 C 
ATOM      2  C1' OXE d   1      -0.417  -0.898   2.222  0.00  0.00     0.078 C 
ATOM      3  C1  OXE d   1      -0.799  -0.236   0.922  0.00  0.00    -0.078 A 
ATOM      4  C2  OXE d   1       0.221   0.208   0.115  0.00  0.00    -0.078 A 
ATOM      5  C3  OXE d   1      -0.076   0.776  -1.121  0.00  0.00     0.003 A 
ATOM      6  C4  OXE d   1      -1.404   1.039  -1.480  0.00  0.00    -0.002 A 
ATOM      7  C5  OXE d   1      -2.456   0.631  -0.654  0.00  0.00    -0.002 A 
ATOM      8  C6  OXE d   1      -2.173  -0.045   0.528  0.00  0.00     0.003 A 
ENDROOT
TORSDOF 0
ENDMDL
