MODEL 1
REMARK minimizedAffinity -2.162323
REMARK minimizedRMSD -1
REMARK  0 active torsions:
REMARK  status: ('A' for Active; 'I' for Inactive)
ROOT
ATOM      1  C2' OXE d   1      -2.404   0.400   0.090  0.00  0.00     0.078 C 
ATOM      2  C1' OXE d   1      -0.253  -0.086  -1.647  0.00  0.00     0.078 C 
ATOM      3  C1  OXE d   1       0.059   0.157  -0.192  0.00  0.00    -0.078 A 
ATOM      4  C2  OXE d   1      -0.995   0.440   0.643  0.00  0.00    -0.078 A 
ATOM      5  C3  OXE d   1      -0.769   0.618   2.004  0.00  0.00     0.003 A 
ATOM      6  C4  OXE d   1       0.538   0.663   2.505  0.00  0.00    -0.002 A 
ATOM      7  C5  OXE d   1       1.629   0.417   1.665  0.00  0.00    -0.002 A 
ATOM      8  C6  OXE d   1       1.405   0.120   0.326  0.00  0.00     0.003 A 
ENDROOT
TORSDOF 0
ENDMDL
