MODEL 1
REMARK minimizedAffinity -3.36125112
REMARK minimizedRMSD -1
REMARK  0 active torsions:
REMARK  status: ('A' for Active; 'I' for Inactive)
ROOT
ATOM      1  C2' OXE d   1       0.745  -0.415  -0.985  0.00  0.00     0.078 C 
ATOM      2  C1' OXE d   1       2.417   0.187   1.188  0.00  0.00     0.078 C 
ATOM      3  C1  OXE d   1       0.977  -0.150   1.481  0.00  0.00    -0.078 A 
ATOM      4  C2  OXE d   1       0.154  -0.398   0.409  0.00  0.00    -0.078 A 
ATOM      5  C3  OXE d   1      -1.170  -0.768   0.627  0.00  0.00     0.003 A 
ATOM      6  C4  OXE d   1      -1.710  -0.740   1.918  0.00  0.00    -0.002 A 
ATOM      7  C5  OXE d   1      -0.899  -0.451   3.021  0.00  0.00    -0.002 A 
ATOM      8  C6  OXE d   1       0.453  -0.197   2.824  0.00  0.00     0.003 A 
ENDROOT
TORSDOF 0
ENDMDL
