MODEL 1
REMARK minimizedAffinity -3.87964892
REMARK minimizedRMSD -1
REMARK  0 active torsions:
REMARK  status: ('A' for Active; 'I' for Inactive)
ROOT
ATOM      1  C2' OXE d   1      -0.109   0.328  -1.272  0.00  0.00     0.078 C 
ATOM      2  C1' OXE d   1      -2.452  -0.284   0.148  0.00  0.00     0.078 C 
ATOM      3  C1  OXE d   1      -1.160  -0.209   0.922  0.00  0.00    -0.078 A 
ATOM      4  C2  OXE d   1      -0.011   0.045   0.211  0.00  0.00    -0.078 A 
ATOM      5  C3  OXE d   1       1.200   0.179   0.884  0.00  0.00     0.003 A 
ATOM      6  C4  OXE d   1       1.284  -0.094   2.255  0.00  0.00    -0.002 A 
ATOM      7  C5  OXE d   1       0.132  -0.393   2.990  0.00  0.00    -0.002 A 
ATOM      8  C6  OXE d   1      -1.101  -0.413   2.348  0.00  0.00     0.003 A 
ENDROOT
TORSDOF 0
ENDMDL
