MODEL 1
REMARK minimizedAffinity -6.14720869
REMARK minimizedRMSD -1
REMARK  0 active torsions:
REMARK  status: ('A' for Active; 'I' for Inactive)
ROOT
ATOM      1  C2' OXE d   1      -0.381   0.570  -0.814  0.00  0.00     0.078 C 
ATOM      2  C1' OXE d   1       1.451  -0.121   1.197  0.00  0.00     0.078 C 
ATOM      3  C1  OXE d   1       0.003   0.034   1.588  0.00  0.00    -0.078 A 
ATOM      4  C2  OXE d   1      -0.879   0.419   0.607  0.00  0.00    -0.078 A 
ATOM      5  C3  OXE d   1      -2.235   0.524   0.901  0.00  0.00     0.003 A 
ATOM      6  C4  OXE d   1      -2.686   0.392   2.220  0.00  0.00    -0.002 A 
ATOM      7  C5  OXE d   1      -1.799   0.039   3.242  0.00  0.00    -0.002 A 
ATOM      8  C6  OXE d   1      -0.461  -0.184   2.936  0.00  0.00     0.003 A 
ENDROOT
TORSDOF 0
ENDMDL
