MODEL 1
REMARK minimizedAffinity -2.22430754
REMARK minimizedRMSD -1
REMARK  0 active torsions:
REMARK  status: ('A' for Active; 'I' for Inactive)
ROOT
ATOM      1  C2' OXE d   1      -2.902  -0.207   0.475  0.00  0.00     0.078 C 
ATOM      2  C1' OXE d   1      -0.842  -0.659   2.328  0.00  0.00     0.078 C 
ATOM      3  C1  OXE d   1      -0.453  -0.253   0.928  0.00  0.00    -0.078 A 
ATOM      4  C2  OXE d   1      -1.466  -0.079   0.016  0.00  0.00    -0.078 A 
ATOM      5  C3  OXE d   1      -1.165   0.348  -1.274  0.00  0.00     0.003 A 
ATOM      6  C4  OXE d   1       0.166   0.455  -1.694  0.00  0.00    -0.002 A 
ATOM      7  C5  OXE d   1       1.214   0.243  -0.791  0.00  0.00    -0.002 A 
ATOM      8  C6  OXE d   1       0.921  -0.069   0.532  0.00  0.00     0.003 A 
ENDROOT
TORSDOF 0
ENDMDL
