MODEL 1
REMARK minimizedAffinity -5.41750383
REMARK minimizedRMSD -1
REMARK  0 active torsions:
REMARK  status: ('A' for Active; 'I' for Inactive)
ROOT
ATOM      1  C2' OXE d   1       0.100  -0.409  -1.015  0.00  0.00     0.078 C 
ATOM      2  C1' OXE d   1       1.719  -0.637   1.267  0.00  0.00     0.078 C 
ATOM      3  C1  OXE d   1       0.239  -0.434   1.472  0.00  0.00    -0.078 A 
ATOM      4  C2  OXE d   1      -0.539  -0.276   0.351  0.00  0.00    -0.078 A 
ATOM      5  C3  OXE d   1      -1.919  -0.140   0.482  0.00  0.00     0.003 A 
ATOM      6  C4  OXE d   1      -2.500  -0.008   1.749  0.00  0.00    -0.002 A 
ATOM      7  C5  OXE d   1      -1.720  -0.125   2.904  0.00  0.00    -0.002 A 
ATOM      8  C6  OXE d   1      -0.359  -0.380   2.784  0.00  0.00     0.003 A 
ENDROOT
TORSDOF 0
ENDMDL
