MODEL 1
REMARK minimizedAffinity -4.98578024
REMARK minimizedRMSD -1
REMARK  0 active torsions:
REMARK  status: ('A' for Active; 'I' for Inactive)
ROOT
ATOM      1  C2' OXE d   1      -0.504   0.437  -1.356  0.00  0.00     0.078 C 
ATOM      2  C1' OXE d   1      -2.513  -0.275   0.471  0.00  0.00     0.078 C 
ATOM      3  C1  OXE d   1      -1.108  -0.115   0.997  0.00  0.00    -0.078 A 
ATOM      4  C2  OXE d   1      -0.123   0.188   0.088  0.00  0.00    -0.078 A 
ATOM      5  C3  OXE d   1       1.180   0.400   0.529  0.00  0.00     0.003 A 
ATOM      6  C4  OXE d   1       1.525   0.157   1.864  0.00  0.00    -0.002 A 
ATOM      7  C5  OXE d   1       0.544  -0.191   2.799  0.00  0.00    -0.002 A 
ATOM      8  C6  OXE d   1      -0.782  -0.289   2.391  0.00  0.00     0.003 A 
ENDROOT
TORSDOF 0
ENDMDL
