MODEL 1
REMARK minimizedAffinity -0.359247327
REMARK minimizedRMSD -1
REMARK  1 active torsions:
REMARK  status: ('A' for Active; 'I' for Inactive)
REMARK    1  A    between atoms: C1_2  and  C2_3 
ROOT
ATOM      1  C2  UNL d   1      -0.267  -2.076   1.627  0.00  0.00    -0.076 A 
ATOM      2  C3  UNL d   1      -1.557  -2.633   1.562  0.00  0.00     0.004 A 
ATOM      3  C4  UNL d   1      -2.422  -2.317   0.516  0.00  0.00    -0.003 A 
ATOM      4  C5  UNL d   1      -2.012  -1.439  -0.482  0.00  0.00     0.000 A 
ATOM      5  C6  UNL d   1      -0.730  -0.892  -0.442  0.00  0.00     0.000 A 
ATOM      6  C7  UNL d   1       0.160  -1.213   0.596  0.00  0.00    -0.073 A 
ATOM      7  C8  UNL d   1       1.529  -0.589   0.592  0.00  0.00     0.078 C 
ENDROOT
BRANCH   1   8
ATOM      8  C1  UNL d   1       0.618  -2.435   2.800  0.00  0.00     0.053 C 
ATOM      9  C   UNL d   1      -0.101  -2.303   4.134  0.00  0.00     0.018 C 
ENDBRANCH   1   8
TORSDOF 1
ENDMDL
