MODEL 1
REMARK minimizedAffinity -4.31210995
REMARK minimizedRMSD -1
REMARK  1 active torsions:
REMARK  status: ('A' for Active; 'I' for Inactive)
REMARK    1  A    between atoms: C1_2  and  C2_3 
ROOT
ATOM      1  C2  UNL d   1      -0.021   0.005   0.038  0.00  0.00    -0.076 A 
ATOM      2  C3  UNL d   1       0.802  -1.088  -0.285  0.00  0.00     0.004 A 
ATOM      3  C4  UNL d   1       0.425  -2.391   0.039  0.00  0.00    -0.003 A 
ATOM      4  C5  UNL d   1      -0.780  -2.621   0.693  0.00  0.00     0.000 A 
ATOM      5  C6  UNL d   1      -1.617  -1.550   1.006  0.00  0.00     0.000 A 
ATOM      6  C7  UNL d   1      -1.260  -0.233   0.671  0.00  0.00    -0.073 A 
ATOM      7  C8  UNL d   1      -2.198   0.885   1.038  0.00  0.00     0.078 C 
ENDROOT
BRANCH   1   8
ATOM      8  C1  UNL d   1       0.452   1.397  -0.315  0.00  0.00     0.053 C 
ATOM      9  C   UNL d   1       0.893   1.512  -1.766  0.00  0.00     0.018 C 
ENDBRANCH   1   8
TORSDOF 1
ENDMDL
