MODEL 1
REMARK minimizedAffinity -2.16833305
REMARK minimizedRMSD -1
REMARK  1 active torsions:
REMARK  status: ('A' for Active; 'I' for Inactive)
REMARK    1  A    between atoms: C1_2  and  C2_3 
ROOT
ATOM      1  C2  UNL d   1      -0.536  -0.951   0.739  0.00  0.00    -0.076 A 
ATOM      2  C3  UNL d   1      -1.589  -0.021   0.712  0.00  0.00     0.004 A 
ATOM      3  C4  UNL d   1      -1.361   1.312   0.373  0.00  0.00    -0.003 A 
ATOM      4  C5  UNL d   1      -0.076   1.735   0.053  0.00  0.00     0.000 A 
ATOM      5  C6  UNL d   1       0.978   0.822   0.057  0.00  0.00     0.000 A 
ATOM      6  C7  UNL d   1       0.762  -0.528   0.381  0.00  0.00    -0.073 A 
ATOM      7  C8  UNL d   1       1.936  -1.469   0.375  0.00  0.00     0.078 C 
ENDROOT
BRANCH   1   8
ATOM      8  C1  UNL d   1      -0.839  -2.377   1.141  0.00  0.00     0.053 C 
ATOM      9  C   UNL d   1      -0.173  -2.766   2.452  0.00  0.00     0.018 C 
ENDBRANCH   1   8
TORSDOF 1
ENDMDL
