MODEL 1
REMARK minimizedAffinity -0.561653197
REMARK minimizedRMSD -1
REMARK  1 active torsions:
REMARK  status: ('A' for Active; 'I' for Inactive)
REMARK    1  A    between atoms: C1_2  and  C2_3 
ROOT
ATOM      1  C2  UNL d   1      -1.155  -0.536   0.379  0.00  0.00    -0.076 A 
ATOM      2  C3  UNL d   1       0.155  -0.958   0.093  0.00  0.00     0.004 A 
ATOM      3  C4  UNL d   1       1.224  -0.064   0.142  0.00  0.00    -0.003 A 
ATOM      4  C5  UNL d   1       1.000   1.266   0.480  0.00  0.00     0.000 A 
ATOM      5  C6  UNL d   1      -0.291   1.698   0.784  0.00  0.00     0.000 A 
ATOM      6  C7  UNL d   1      -1.377   0.806   0.755  0.00  0.00    -0.073 A 
ATOM      7  C8  UNL d   1      -2.748   1.328   1.086  0.00  0.00     0.078 C 
ENDROOT
BRANCH   1   8
ATOM      8  C1  UNL d   1      -2.278  -1.544   0.283  0.00  0.00     0.053 C 
ATOM      9  C   UNL d   1      -2.141  -2.668   1.298  0.00  0.00     0.018 C 
ENDBRANCH   1   8
TORSDOF 1
ENDMDL
