MODEL 1
REMARK minimizedAffinity -5.03970861
REMARK minimizedRMSD -1
REMARK  1 active torsions:
REMARK  status: ('A' for Active; 'I' for Inactive)
REMARK    1  A    between atoms: C1_2  and  C2_3 
ROOT
ATOM      1  C2  UNL d   1       0.423  -0.066   0.160  0.00  0.00    -0.076 A 
ATOM      2  C3  UNL d   1       1.467  -1.003   0.065  0.00  0.00     0.004 A 
ATOM      3  C4  UNL d   1       1.258  -2.344   0.382  0.00  0.00    -0.003 A 
ATOM      4  C5  UNL d   1       0.002  -2.770   0.800  0.00  0.00     0.000 A 
ATOM      5  C6  UNL d   1      -1.049  -1.857   0.883  0.00  0.00     0.000 A 
ATOM      6  C7  UNL d   1      -0.860  -0.505   0.552  0.00  0.00    -0.073 A 
ATOM      7  C8  UNL d   1      -2.027   0.437   0.666  0.00  0.00     0.078 C 
ENDROOT
BRANCH   1   8
ATOM      8  C1  UNL d   1       0.716   1.380  -0.171  0.00  0.00     0.053 C 
ATOM      9  C   UNL d   1       0.957   1.601  -1.656  0.00  0.00     0.018 C 
ENDBRANCH   1   8
TORSDOF 1
ENDMDL
