MODEL 1
REMARK minimizedAffinity -5.70177603
REMARK minimizedRMSD -1
REMARK  1 active torsions:
REMARK  status: ('A' for Active; 'I' for Inactive)
REMARK    1  A    between atoms: C1_2  and  C2_3 
ROOT
ATOM      1  C2  UNL d   1      -0.568   0.033   0.744  0.00  0.00    -0.076 A 
ATOM      2  C3  UNL d   1       0.045  -1.145   0.285  0.00  0.00     0.004 A 
ATOM      3  C4  UNL d   1      -0.531  -2.393   0.519  0.00  0.00    -0.003 A 
ATOM      4  C5  UNL d   1      -1.731  -2.481   1.216  0.00  0.00     0.000 A 
ATOM      5  C6  UNL d   1      -2.363  -1.321   1.663  0.00  0.00     0.000 A 
ATOM      6  C7  UNL d   1      -1.804  -0.055   1.421  0.00  0.00    -0.073 A 
ATOM      7  C8  UNL d   1      -2.525   1.162   1.931  0.00  0.00     0.078 C 
ENDROOT
BRANCH   1   8
ATOM      8  C1  UNL d   1       0.117   1.355   0.484  0.00  0.00     0.053 C 
ATOM      9  C   UNL d   1       0.897   1.360  -0.822  0.00  0.00     0.018 C 
ENDBRANCH   1   8
TORSDOF 1
ENDMDL
