MODEL 1
REMARK minimizedAffinity -1.57091129
REMARK minimizedRMSD -1
REMARK  1 active torsions:
REMARK  status: ('A' for Active; 'I' for Inactive)
REMARK    1  A    between atoms: C1_2  and  C2_3 
ROOT
ATOM      1  C2  UNL d   1       0.346  -2.035   1.395  0.00  0.00    -0.076 A 
ATOM      2  C3  UNL d   1       1.254  -1.045   0.979  0.00  0.00     0.004 A 
ATOM      3  C4  UNL d   1       0.854  -0.018   0.126  0.00  0.00    -0.003 A 
ATOM      4  C5  UNL d   1      -0.460   0.037  -0.325  0.00  0.00     0.000 A 
ATOM      5  C6  UNL d   1      -1.378  -0.927   0.091  0.00  0.00     0.000 A 
ATOM      6  C7  UNL d   1      -0.995  -1.960   0.964  0.00  0.00    -0.073 A 
ATOM      7  C8  UNL d   1      -2.025  -2.976   1.376  0.00  0.00     0.078 C 
ENDROOT
BRANCH   1   8
ATOM      8  C1  UNL d   1       0.844  -3.140   2.299  0.00  0.00     0.053 C 
ATOM      9  C   UNL d   1       0.656  -2.816   3.773  0.00  0.00     0.018 C 
ENDBRANCH   1   8
TORSDOF 1
ENDMDL
