MODEL 1
REMARK minimizedAffinity -3.54927921
REMARK minimizedRMSD -1
REMARK  1 active torsions:
REMARK  status: ('A' for Active; 'I' for Inactive)
REMARK    1  A    between atoms: C1_2  and  C2_3 
ROOT
ATOM      1  C2  UNL d   1       0.183   1.350  -0.262  0.00  0.00    -0.076 A 
ATOM      2  C3  UNL d   1       0.472  -0.015  -0.434  0.00  0.00     0.004 A 
ATOM      3  C4  UNL d   1      -0.391  -0.997   0.047  0.00  0.00    -0.003 A 
ATOM      4  C5  UNL d   1      -1.558  -0.631   0.708  0.00  0.00     0.000 A 
ATOM      5  C6  UNL d   1      -1.870   0.718   0.872  0.00  0.00     0.000 A 
ATOM      6  C7  UNL d   1      -1.019   1.721   0.379  0.00  0.00    -0.073 A 
ATOM      7  C8  UNL d   1      -1.401   3.161   0.589  0.00  0.00     0.078 C 
ENDROOT
BRANCH   1   8
ATOM      8  C1  UNL d   1       1.170   2.371  -0.781  0.00  0.00     0.053 C 
ATOM      9  C   UNL d   1       1.077   2.559  -2.287  0.00  0.00     0.018 C 
ENDBRANCH   1   8
TORSDOF 1
ENDMDL
