MODEL 1
REMARK minimizedAffinity -4.0932498
REMARK minimizedRMSD -1
REMARK  1 active torsions:
REMARK  status: ('A' for Active; 'I' for Inactive)
REMARK    1  A    between atoms: C1_2  and  C2_3 
ROOT
ATOM      1  C2  UNL d   1       0.279  -0.111   0.283  0.00  0.00    -0.076 A 
ATOM      2  C3  UNL d   1      -1.105  -0.225   0.068  0.00  0.00     0.004 A 
ATOM      3  C4  UNL d   1      -1.783  -1.406   0.365  0.00  0.00    -0.003 A 
ATOM      4  C5  UNL d   1      -1.087  -2.492   0.883  0.00  0.00     0.000 A 
ATOM      5  C6  UNL d   1       0.284  -2.391   1.120  0.00  0.00     0.000 A 
ATOM      6  C7  UNL d   1       0.979  -1.202   0.841  0.00  0.00    -0.073 A 
ATOM      7  C8  UNL d   1       2.458  -1.151   1.111  0.00  0.00     0.078 C 
ENDROOT
BRANCH   1   8
ATOM      8  C1  UNL d   1       0.965   1.186  -0.083  0.00  0.00     0.053 C 
ATOM      9  C   UNL d   1       0.451   1.768  -1.391  0.00  0.00     0.018 C 
ENDBRANCH   1   8
TORSDOF 1
ENDMDL
