MODEL 1
REMARK minimizedAffinity 16.3241653
REMARK minimizedRMSD -1
REMARK  0 active torsions:
REMARK  status: ('A' for Active; 'I' for Inactive)
ROOT
ATOM      1  C   UNL d   1       2.261   1.339   0.370  0.00  0.00     0.124 A 
ATOM      2  C1  UNL d   1       3.528   1.007  -0.089  0.00  0.00     0.062 A 
ATOM      3  C2  UNL d   1       4.597   1.874   0.117  0.00  0.00     0.162 A 
ATOM      4  C3  UNL d   1       4.404   3.082   0.787  0.00  0.00    -0.034 A 
ATOM      5  C4  UNL d   1       3.126   3.410   1.245  0.00  0.00     0.162 A 
ATOM      6  C5  UNL d   1       2.061   2.539   1.036  0.00  0.00     0.062 A 
ATOM      7  F   UNL d   1       0.838   2.862   1.480  0.00  0.00    -0.097 F 
ATOM      8  F1  UNL d   1       2.905   4.563   1.893  0.00  0.00    -0.096 F 
ATOM      9  I   UNL d   1       5.999   4.382   1.098  0.00  0.00    -0.060 I 
ATOM     10  F2  UNL d   1       5.811   1.528  -0.337  0.00  0.00    -0.096 F 
ATOM     11  F3  UNL d   1       3.724  -0.152  -0.734  0.00  0.00    -0.097 F 
ATOM     12  F4  UNL d   1       1.234   0.503   0.169  0.00  0.00    -0.092 F 
ENDROOT
TORSDOF 0
ENDMDL
