MODEL 1
REMARK minimizedAffinity 21.7922211
REMARK minimizedRMSD -1
REMARK  0 active torsions:
REMARK  status: ('A' for Active; 'I' for Inactive)
ROOT
ATOM      1  C   UNL d   1       0.357   4.165  -3.081  0.00  0.00     0.124 A 
ATOM      2  C1  UNL d   1       1.045   3.231  -3.843  0.00  0.00     0.062 A 
ATOM      3  C2  UNL d   1       2.437   3.224  -3.852  0.00  0.00     0.162 A 
ATOM      4  C3  UNL d   1       3.150   4.154  -3.096  0.00  0.00    -0.034 A 
ATOM      5  C4  UNL d   1       2.451   5.091  -2.333  0.00  0.00     0.162 A 
ATOM      6  C5  UNL d   1       1.060   5.094  -2.327  0.00  0.00     0.062 A 
ATOM      7  F   UNL d   1       0.397   5.997  -1.591  0.00  0.00    -0.097 F 
ATOM      8  F1  UNL d   1       3.106   6.000  -1.595  0.00  0.00    -0.096 F 
ATOM      9  I   UNL d   1       5.232   4.147  -3.107  0.00  0.00    -0.060 I 
ATOM     10  F2  UNL d   1       3.076   2.310  -4.597  0.00  0.00    -0.096 F 
ATOM     11  F3  UNL d   1       0.368   2.333  -4.573  0.00  0.00    -0.097 F 
ATOM     12  F4  UNL d   1      -0.982   4.171  -3.075  0.00  0.00    -0.092 F 
ENDROOT
TORSDOF 0
ENDMDL
