MODEL 1
REMARK minimizedAffinity 25.478096
REMARK minimizedRMSD -1
REMARK  0 active torsions:
REMARK  status: ('A' for Active; 'I' for Inactive)
ROOT
ATOM      1  C   UNL d   1       2.873  -3.303   1.363  0.00  0.00     0.124 A 
ATOM      2  C1  UNL d   1       2.624  -2.382   2.371  0.00  0.00     0.062 A 
ATOM      3  C2  UNL d   1       1.325  -1.947   2.616  0.00  0.00     0.162 A 
ATOM      4  C3  UNL d   1       0.264  -2.433   1.851  0.00  0.00    -0.034 A 
ATOM      5  C4  UNL d   1       0.523  -3.358   0.839  0.00  0.00     0.162 A 
ATOM      6  C5  UNL d   1       1.823  -3.790   0.598  0.00  0.00     0.062 A 
ATOM      7  F   UNL d   1       2.062  -4.680  -0.377  0.00  0.00    -0.097 F 
ATOM      8  F1  UNL d   1      -0.474  -3.845   0.085  0.00  0.00    -0.096 F 
ATOM      9  I   UNL d   1      -1.680  -1.784   2.214  0.00  0.00    -0.060 I 
ATOM     10  F2  UNL d   1       1.113  -1.057   3.597  0.00  0.00    -0.096 F 
ATOM     11  F3  UNL d   1       3.637  -1.910   3.112  0.00  0.00    -0.097 F 
ATOM     12  F4  UNL d   1       4.125  -3.720   1.129  0.00  0.00    -0.092 F 
ENDROOT
TORSDOF 0
ENDMDL
