MODEL 1
REMARK minimizedAffinity 20.5560417
REMARK minimizedRMSD -1
REMARK  0 active torsions:
REMARK  status: ('A' for Active; 'I' for Inactive)
ROOT
ATOM      1  C   UNL d   1      -1.593  -0.047   3.522  0.00  0.00     0.124 A 
ATOM      2  C1  UNL d   1      -1.412  -0.987   2.516  0.00  0.00     0.062 A 
ATOM      3  C2  UNL d   1      -2.361  -1.122   1.506  0.00  0.00     0.162 A 
ATOM      4  C3  UNL d   1      -3.499  -0.315   1.497  0.00  0.00    -0.034 A 
ATOM      5  C4  UNL d   1      -3.674   0.627   2.513  0.00  0.00     0.162 A 
ATOM      6  C5  UNL d   1      -2.723   0.758   3.520  0.00  0.00     0.062 A 
ATOM      7  F   UNL d   1      -2.898   1.666   4.491  0.00  0.00    -0.097 F 
ATOM      8  F1  UNL d   1      -4.756   1.419   2.535  0.00  0.00    -0.096 F 
ATOM      9  I   UNL d   1      -4.920  -0.514  -0.010  0.00  0.00    -0.060 I 
ATOM     10  F2  UNL d   1      -2.161  -2.038   0.547  0.00  0.00    -0.096 F 
ATOM     11  F3  UNL d   1      -0.322  -1.767   2.516  0.00  0.00    -0.097 F 
ATOM     12  F4  UNL d   1      -0.679   0.080   4.492  0.00  0.00    -0.092 F 
ENDROOT
TORSDOF 0
ENDMDL
