MODEL 1
REMARK minimizedAffinity 26.368124
REMARK minimizedRMSD -1
REMARK  0 active torsions:
REMARK  status: ('A' for Active; 'I' for Inactive)
ROOT
ATOM      1  C   UNL d   1      -1.139  -0.344   3.143  0.00  0.00     0.124 A 
ATOM      2  C1  UNL d   1      -2.251   0.478   3.255  0.00  0.00     0.062 A 
ATOM      3  C2  UNL d   1      -3.234   0.464   2.269  0.00  0.00     0.162 A 
ATOM      4  C3  UNL d   1      -3.109  -0.376   1.163  0.00  0.00    -0.034 A 
ATOM      5  C4  UNL d   1      -1.986  -1.199   1.057  0.00  0.00     0.162 A 
ATOM      6  C5  UNL d   1      -1.007  -1.182   2.045  0.00  0.00     0.062 A 
ATOM      7  F   UNL d   1       0.067  -1.977   1.935  0.00  0.00    -0.097 F 
ATOM      8  F1  UNL d   1      -1.835  -2.019   0.006  0.00  0.00    -0.096 F 
ATOM      9  I   UNL d   1      -4.576  -0.400  -0.313  0.00  0.00    -0.060 I 
ATOM     10  F2  UNL d   1      -4.298   1.269   2.403  0.00  0.00    -0.096 F 
ATOM     11  F3  UNL d   1      -2.380   1.289   4.315  0.00  0.00    -0.097 F 
ATOM     12  F4  UNL d   1      -0.194  -0.328   4.093  0.00  0.00    -0.092 F 
ENDROOT
TORSDOF 0
ENDMDL
