MODEL 1
REMARK minimizedAffinity 23.9818153
REMARK minimizedRMSD -1
REMARK  0 active torsions:
REMARK  status: ('A' for Active; 'I' for Inactive)
ROOT
ATOM      1  C   UNL d   1      -0.128  -0.825   3.486  0.00  0.00     0.124 A 
ATOM      2  C1  UNL d   1      -0.426  -1.469   2.293  0.00  0.00     0.062 A 
ATOM      3  C2  UNL d   1      -1.608  -1.178   1.618  0.00  0.00     0.162 A 
ATOM      4  C3  UNL d   1      -2.501  -0.238   2.134  0.00  0.00    -0.034 A 
ATOM      5  C4  UNL d   1      -2.194   0.404   3.335  0.00  0.00     0.162 A 
ATOM      6  C5  UNL d   1      -1.011   0.110   4.006  0.00  0.00     0.062 A 
ATOM      7  F   UNL d   1      -0.724   0.733   5.158  0.00  0.00    -0.097 F 
ATOM      8  F1  UNL d   1      -3.029   1.313   3.859  0.00  0.00    -0.096 F 
ATOM      9  I   UNL d   1      -4.269   0.200   1.127  0.00  0.00    -0.060 I 
ATOM     10  F2  UNL d   1      -1.871  -1.815   0.467  0.00  0.00    -0.096 F 
ATOM     11  F3  UNL d   1       0.425  -2.373   1.789  0.00  0.00    -0.097 F 
ATOM     12  F4  UNL d   1       1.010  -1.108   4.134  0.00  0.00    -0.092 F 
ENDROOT
TORSDOF 0
ENDMDL
