MODEL 1
REMARK minimizedAffinity 26.7267532
REMARK minimizedRMSD -1
REMARK  0 active torsions:
REMARK  status: ('A' for Active; 'I' for Inactive)
ROOT
ATOM      1  C   UNL d   1      -2.777   0.547   2.937  0.00  0.00     0.124 A 
ATOM      2  C1  UNL d   1      -1.651  -0.215   3.217  0.00  0.00     0.062 A 
ATOM      3  C2  UNL d   1      -1.328  -1.307   2.417  0.00  0.00     0.162 A 
ATOM      4  C3  UNL d   1      -2.132  -1.645   1.329  0.00  0.00    -0.034 A 
ATOM      5  C4  UNL d   1      -3.263  -0.875   1.054  0.00  0.00     0.162 A 
ATOM      6  C5  UNL d   1      -3.582   0.216   1.856  0.00  0.00     0.062 A 
ATOM      7  F   UNL d   1      -4.671   0.950   1.584  0.00  0.00    -0.097 F 
ATOM      8  F1  UNL d   1      -4.058  -1.171   0.015  0.00  0.00    -0.096 F 
ATOM      9  I   UNL d   1      -1.652  -3.277   0.130  0.00  0.00    -0.060 I 
ATOM     10  F2  UNL d   1      -0.233  -2.025   2.711  0.00  0.00    -0.096 F 
ATOM     11  F3  UNL d   1      -0.872   0.102   4.262  0.00  0.00    -0.097 F 
ATOM     12  F4  UNL d   1      -3.086   1.596   3.709  0.00  0.00    -0.092 F 
ENDROOT
TORSDOF 0
ENDMDL
