MODEL 1
REMARK minimizedAffinity 30.4356251
REMARK minimizedRMSD -1
REMARK  0 active torsions:
REMARK  status: ('A' for Active; 'I' for Inactive)
ROOT
ATOM      1  C   UNL d   1       1.441   4.490  -4.928  0.00  0.00     0.124 A 
ATOM      2  C1  UNL d   1       2.599   3.725  -4.927  0.00  0.00     0.062 A 
ATOM      3  C2  UNL d   1       2.927   2.954  -3.815  0.00  0.00     0.162 A 
ATOM      4  C3  UNL d   1       2.096   2.945  -2.695  0.00  0.00    -0.034 A 
ATOM      5  C4  UNL d   1       0.934   3.718  -2.703  0.00  0.00     0.162 A 
ATOM      6  C5  UNL d   1       0.610   4.487  -3.817  0.00  0.00     0.062 A 
ATOM      7  F   UNL d   1      -0.509   5.226  -3.816  0.00  0.00    -0.097 F 
ATOM      8  F1  UNL d   1       0.112   3.732  -1.643  0.00  0.00    -0.096 F 
ATOM      9  I   UNL d   1       2.583   1.794  -1.031  0.00  0.00    -0.060 I 
ATOM     10  F2  UNL d   1       4.052   2.224  -3.841  0.00  0.00    -0.096 F 
ATOM     11  F3  UNL d   1       3.404   3.728  -5.999  0.00  0.00    -0.097 F 
ATOM     12  F4  UNL d   1       1.128   5.232  -5.999  0.00  0.00    -0.092 F 
ENDROOT
TORSDOF 0
ENDMDL
