MODEL 1
REMARK minimizedAffinity 36.0497932
REMARK minimizedRMSD -1
REMARK  0 active torsions:
REMARK  status: ('A' for Active; 'I' for Inactive)
ROOT
ATOM      1  C   UNL d   1      -0.547  -1.043   2.897  0.00  0.00     0.124 A 
ATOM      2  C1  UNL d   1      -0.240  -0.571   4.165  0.00  0.00     0.062 A 
ATOM      3  C2  UNL d   1      -1.052   0.382   4.774  0.00  0.00     0.162 A 
ATOM      4  C3  UNL d   1      -2.181   0.868   4.115  0.00  0.00    -0.034 A 
ATOM      5  C4  UNL d   1      -2.484   0.389   2.838  0.00  0.00     0.162 A 
ATOM      6  C5  UNL d   1      -1.668  -0.563   2.235  0.00  0.00     0.062 A 
ATOM      7  F   UNL d   1      -1.967  -1.017   1.009  0.00  0.00    -0.097 F 
ATOM      8  F1  UNL d   1      -3.561   0.835   2.177  0.00  0.00    -0.096 F 
ATOM      9  I   UNL d   1      -3.399   2.292   5.021  0.00  0.00    -0.060 I 
ATOM     10  F2  UNL d   1      -0.731   0.820   6.000  0.00  0.00    -0.096 F 
ATOM     11  F3  UNL d   1       0.844  -1.032   4.806  0.00  0.00    -0.097 F 
ATOM     12  F4  UNL d   1       0.237  -1.958   2.313  0.00  0.00    -0.092 F 
ENDROOT
TORSDOF 0
ENDMDL
