MODEL 1
REMARK minimizedAffinity 32.394455
REMARK minimizedRMSD -1
REMARK  0 active torsions:
REMARK  status: ('A' for Active; 'I' for Inactive)
ROOT
ATOM      1  C   UNL d   1       4.173   3.988  -4.594  0.00  0.00     0.124 A 
ATOM      2  C1  UNL d   1       4.894   4.209  -3.429  0.00  0.00     0.062 A 
ATOM      3  C2  UNL d   1       4.473   3.647  -2.227  0.00  0.00     0.162 A 
ATOM      4  C3  UNL d   1       3.325   2.857  -2.184  0.00  0.00    -0.034 A 
ATOM      5  C4  UNL d   1       2.603   2.640  -3.359  0.00  0.00     0.162 A 
ATOM      6  C5  UNL d   1       3.028   3.204  -4.558  0.00  0.00     0.062 A 
ATOM      7  F   UNL d   1       2.330   2.989  -5.682  0.00  0.00    -0.097 F 
ATOM      8  F1  UNL d   1       1.495   1.885  -3.353  0.00  0.00    -0.096 F 
ATOM      9  I   UNL d   1       2.692   2.015  -0.389  0.00  0.00    -0.060 I 
ATOM     10  F2  UNL d   1       5.190   3.878  -1.117  0.00  0.00    -0.096 F 
ATOM     11  F3  UNL d   1       6.000   4.967  -3.461  0.00  0.00    -0.097 F 
ATOM     12  F4  UNL d   1       4.579   4.531  -5.748  0.00  0.00    -0.092 F 
ENDROOT
TORSDOF 0
ENDMDL
