MODEL 1
REMARK minimizedAffinity 17.5428562
REMARK minimizedRMSD -1
REMARK  0 active torsions:
REMARK  status: ('A' for Active; 'I' for Inactive)
ROOT
ATOM      1  C   UNL d   1       0.207  -1.362   3.728  0.00  0.00     0.124 A 
ATOM      2  C1  UNL d   1      -0.128  -1.969   2.526  0.00  0.00     0.062 A 
ATOM      3  C2  UNL d   1      -1.199  -1.492   1.776  0.00  0.00     0.162 A 
ATOM      4  C3  UNL d   1      -1.943  -0.402   2.225  0.00  0.00    -0.034 A 
ATOM      5  C4  UNL d   1      -1.601   0.203   3.436  0.00  0.00     0.162 A 
ATOM      6  C5  UNL d   1      -0.530  -0.277   4.183  0.00  0.00     0.062 A 
ATOM      7  F   UNL d   1      -0.208   0.310   5.344  0.00  0.00    -0.097 F 
ATOM      8  F1  UNL d   1      -2.296   1.253   3.898  0.00  0.00    -0.096 F 
ATOM      9  I   UNL d   1      -3.546   0.314   1.107  0.00  0.00    -0.060 I 
ATOM     10  F2  UNL d   1      -1.500  -2.098   0.617  0.00  0.00    -0.096 F 
ATOM     11  F3  UNL d   1       0.582  -3.018   2.085  0.00  0.00    -0.097 F 
ATOM     12  F4  UNL d   1       1.238  -1.823   4.449  0.00  0.00    -0.092 F 
ENDROOT
TORSDOF 0
ENDMDL
