MODEL 1
REMARK minimizedAffinity 17.9713879
REMARK minimizedRMSD -1
REMARK  0 active torsions:
REMARK  status: ('A' for Active; 'I' for Inactive)
ROOT
ATOM      1  C   UNL d   1      -0.033  -0.682   3.935  0.00  0.00     0.124 A 
ATOM      2  C1  UNL d   1      -0.911   0.237   4.491  0.00  0.00     0.062 A 
ATOM      3  C2  UNL d   1      -2.058   0.617   3.800  0.00  0.00     0.162 A 
ATOM      4  C3  UNL d   1      -2.334   0.076   2.544  0.00  0.00    -0.034 A 
ATOM      5  C4  UNL d   1      -1.445  -0.847   1.990  0.00  0.00     0.162 A 
ATOM      6  C5  UNL d   1      -0.300  -1.223   2.685  0.00  0.00     0.062 A 
ATOM      7  F   UNL d   1       0.547  -2.112   2.146  0.00  0.00    -0.097 F 
ATOM      8  F1  UNL d   1      -1.680  -1.387   0.785  0.00  0.00    -0.096 F 
ATOM      9  I   UNL d   1      -4.048   0.641   1.507  0.00  0.00    -0.060 I 
ATOM     10  F2  UNL d   1      -2.889   1.507   4.361  0.00  0.00    -0.096 F 
ATOM     11  F3  UNL d   1      -0.655   0.762   5.698  0.00  0.00    -0.097 F 
ATOM     12  F4  UNL d   1       1.070  -1.045   4.602  0.00  0.00    -0.092 F 
ENDROOT
TORSDOF 0
ENDMDL
