MODEL 1
REMARK minimizedAffinity 19.4410515
REMARK minimizedRMSD -1
REMARK  0 active torsions:
REMARK  status: ('A' for Active; 'I' for Inactive)
ROOT
ATOM      1  C   UNL d   1       0.308  -0.980   3.683  0.00  0.00     0.124 A 
ATOM      2  C1  UNL d   1      -0.020  -1.638   2.506  0.00  0.00     0.062 A 
ATOM      3  C2  UNL d   1      -1.145  -1.256   1.781  0.00  0.00     0.162 A 
ATOM      4  C3  UNL d   1      -1.951  -0.210   2.230  0.00  0.00    -0.034 A 
ATOM      5  C4  UNL d   1      -1.615   0.447   3.416  0.00  0.00     0.162 A 
ATOM      6  C5  UNL d   1      -0.489   0.061   4.137  0.00  0.00     0.062 A 
ATOM      7  F   UNL d   1      -0.174   0.698   5.274  0.00  0.00    -0.097 F 
ATOM      8  F1  UNL d   1      -2.367   1.457   3.877  0.00  0.00    -0.096 F 
ATOM      9  I   UNL d   1      -3.634   0.364   1.149  0.00  0.00    -0.060 I 
ATOM     10  F2  UNL d   1      -1.439  -1.910   0.647  0.00  0.00    -0.096 F 
ATOM     11  F3  UNL d   1       0.748  -2.645   2.066  0.00  0.00    -0.097 F 
ATOM     12  F4  UNL d   1       1.391  -1.350   4.379  0.00  0.00    -0.092 F 
ENDROOT
TORSDOF 0
ENDMDL
