MODEL 1
REMARK minimizedAffinity 19.015213
REMARK minimizedRMSD -1
REMARK  0 active torsions:
REMARK  status: ('A' for Active; 'I' for Inactive)
ROOT
ATOM      1  C   UNL d   1       0.483  -0.692   2.619  0.00  0.00     0.124 A 
ATOM      2  C1  UNL d   1       0.712  -0.395   3.955  0.00  0.00     0.062 A 
ATOM      3  C2  UNL d   1      -0.207   0.368   4.670  0.00  0.00     0.162 A 
ATOM      4  C3  UNL d   1      -1.364   0.839   4.050  0.00  0.00    -0.034 A 
ATOM      5  C4  UNL d   1      -1.587   0.537   2.705  0.00  0.00     0.162 A 
ATOM      6  C5  UNL d   1      -0.665  -0.226   1.995  0.00  0.00     0.062 A 
ATOM      7  F   UNL d   1      -0.888  -0.511   0.704  0.00  0.00    -0.097 F 
ATOM      8  F1  UNL d   1      -2.689   0.975   2.078  0.00  0.00    -0.096 F 
ATOM      9  I   UNL d   1      -2.741   1.980   5.115  0.00  0.00    -0.060 I 
ATOM     10  F2  UNL d   1       0.039   0.639   5.960  0.00  0.00    -0.096 F 
ATOM     11  F3  UNL d   1       1.821  -0.844   4.560  0.00  0.00    -0.097 F 
ATOM     12  F4  UNL d   1       1.369  -1.426   1.933  0.00  0.00    -0.092 F 
ENDROOT
TORSDOF 0
ENDMDL
