MODEL 1
REMARK minimizedAffinity 17.3838654
REMARK minimizedRMSD -1
REMARK  0 active torsions:
REMARK  status: ('A' for Active; 'I' for Inactive)
ROOT
ATOM      1  C   UNL d   1      -3.502   0.594   2.316  0.00  0.00     0.124 A 
ATOM      2  C1  UNL d   1      -2.627   0.799   3.373  0.00  0.00     0.062 A 
ATOM      3  C2  UNL d   1      -1.434   0.084   3.443  0.00  0.00     0.162 A 
ATOM      4  C3  UNL d   1      -1.110  -0.842   2.452  0.00  0.00    -0.034 A 
ATOM      5  C4  UNL d   1      -1.996  -1.043   1.392  0.00  0.00     0.162 A 
ATOM      6  C5  UNL d   1      -3.186  -0.326   1.327  0.00  0.00     0.062 A 
ATOM      7  F   UNL d   1      -4.031  -0.526   0.304  0.00  0.00    -0.097 F 
ATOM      8  F1  UNL d   1      -1.715  -1.926   0.422  0.00  0.00    -0.096 F 
ATOM      9  I   UNL d   1       0.672  -1.913   2.553  0.00  0.00    -0.060 I 
ATOM     10  F2  UNL d   1      -0.607   0.303   4.476  0.00  0.00    -0.096 F 
ATOM     11  F3  UNL d   1      -2.930   1.688   4.330  0.00  0.00    -0.097 F 
ATOM     12  F4  UNL d   1      -4.649   1.283   2.251  0.00  0.00    -0.092 F 
ENDROOT
TORSDOF 0
ENDMDL
