MODEL 1
REMARK minimizedAffinity 16.9042854
REMARK minimizedRMSD -1
REMARK  0 active torsions:
REMARK  status: ('A' for Active; 'I' for Inactive)
ROOT
ATOM      1  C   UNL d   1      -3.718   0.985   2.199  0.00  0.00     0.124 A 
ATOM      2  C1  UNL d   1      -2.956   1.269   3.324  0.00  0.00     0.062 A 
ATOM      3  C2  UNL d   1      -1.773   0.576   3.561  0.00  0.00     0.162 A 
ATOM      4  C3  UNL d   1      -1.342  -0.407   2.669  0.00  0.00    -0.034 A 
ATOM      5  C4  UNL d   1      -2.113  -0.686   1.540  0.00  0.00     0.162 A 
ATOM      6  C5  UNL d   1      -3.296   0.009   1.308  0.00  0.00     0.062 A 
ATOM      7  F   UNL d   1      -4.030  -0.266   0.220  0.00  0.00    -0.097 F 
ATOM      8  F1  UNL d   1      -1.728  -1.625   0.662  0.00  0.00    -0.096 F 
ATOM      9  I   UNL d   1       0.428  -1.445   3.020  0.00  0.00    -0.060 I 
ATOM     10  F2  UNL d   1      -1.057   0.870   4.656  0.00  0.00    -0.096 F 
ATOM     11  F3  UNL d   1      -3.363   2.211   4.187  0.00  0.00    -0.097 F 
ATOM     12  F4  UNL d   1      -4.857   1.653   1.974  0.00  0.00    -0.092 F 
ENDROOT
TORSDOF 0
ENDMDL
