MODEL 1
REMARK minimizedAffinity 25.9669552
REMARK minimizedRMSD -1
REMARK  0 active torsions:
REMARK  status: ('A' for Active; 'I' for Inactive)
ROOT
ATOM      1  C   UNL d   1       4.850   4.029  -3.865  0.00  0.00     0.124 A 
ATOM      2  C1  UNL d   1       4.848   4.877  -2.767  0.00  0.00     0.062 A 
ATOM      3  C2  UNL d   1       3.655   5.177  -2.115  0.00  0.00     0.162 A 
ATOM      4  C3  UNL d   1       2.453   4.626  -2.560  0.00  0.00    -0.034 A 
ATOM      5  C4  UNL d   1       2.463   3.774  -3.666  0.00  0.00     0.162 A 
ATOM      6  C5  UNL d   1       3.658   3.478  -4.313  0.00  0.00     0.062 A 
ATOM      7  F   UNL d   1       3.658   2.658  -5.374  0.00  0.00    -0.097 F 
ATOM      8  F1  UNL d   1       1.325   3.227  -4.120  0.00  0.00    -0.096 F 
ATOM      9  I   UNL d   1       0.667   5.071  -1.589  0.00  0.00    -0.060 I 
ATOM     10  F2  UNL d   1       3.683   6.000  -1.056  0.00  0.00    -0.096 F 
ATOM     11  F3  UNL d   1       5.999   5.411  -2.332  0.00  0.00    -0.097 F 
ATOM     12  F4  UNL d   1       5.999   3.743  -4.490  0.00  0.00    -0.092 F 
ENDROOT
TORSDOF 0
ENDMDL
