MODEL 1
REMARK minimizedAffinity 23.2077713
REMARK minimizedRMSD -1
REMARK  0 active torsions:
REMARK  status: ('A' for Active; 'I' for Inactive)
ROOT
ATOM      1  C   UNL d   1       1.332   3.936  -2.271  0.00  0.00     0.124 A 
ATOM      2  C1  UNL d   1       2.177   4.980  -1.921  0.00  0.00     0.062 A 
ATOM      3  C2  UNL d   1       3.507   4.972  -2.333  0.00  0.00     0.162 A 
ATOM      4  C3  UNL d   1       4.000   3.917  -3.101  0.00  0.00    -0.034 A 
ATOM      5  C4  UNL d   1       3.144   2.871  -3.449  0.00  0.00     0.162 A 
ATOM      6  C5  UNL d   1       1.816   2.883  -3.034  0.00  0.00     0.062 A 
ATOM      7  F   UNL d   1       1.001   1.873  -3.373  0.00  0.00    -0.097 F 
ATOM      8  F1  UNL d   1       3.585   1.841  -4.186  0.00  0.00    -0.096 F 
ATOM      9  I   UNL d   1       5.987   3.903  -3.719  0.00  0.00    -0.060 I 
ATOM     10  F2  UNL d   1       4.301   5.994  -1.980  0.00  0.00    -0.096 F 
ATOM     11  F3  UNL d   1       1.712   5.998  -1.183  0.00  0.00    -0.097 F 
ATOM     12  F4  UNL d   1       0.054   3.945  -1.873  0.00  0.00    -0.092 F 
ENDROOT
TORSDOF 0
ENDMDL
