MODEL 1
REMARK minimizedAffinity 17.8460674
REMARK minimizedRMSD -1
REMARK  1 active torsions:
REMARK  status: ('A' for Active; 'I' for Inactive)
REMARK    1  A    between atoms: N_2  and  C1_3 
ROOT
ATOM      1  C1  UNL d   1       2.049  -3.711  -0.509  0.00  0.00     0.143 A 
ATOM      2  C2  UNL d   1       1.091  -3.559  -1.517  0.00  0.00    -0.057 A 
ATOM      3  C3  UNL d   1       0.963  -2.355  -2.221  0.00  0.00     0.033 A 
ATOM      4  C4  UNL d   1       1.774  -1.270  -1.907  0.00  0.00    -0.042 A 
ATOM      5  C5  UNL d   1       2.716  -1.390  -0.892  0.00  0.00     0.033 A 
ATOM      6  C6  UNL d   1       2.844  -2.597  -0.197  0.00  0.00    -0.057 A 
ENDROOT
BRANCH   1   7
ATOM      7  N   UNL d   1       2.160  -4.850   0.293  0.00  0.00    -0.732 N 
ATOM      8  C   UNL d   1       3.019  -5.946  -0.097  0.00  0.00     0.284 C 
ATOM      9  H3  UNL d   1       2.199  -4.624   1.285  0.00  0.00     0.395 HD
ENDBRANCH   1   7
TORSDOF 1
ENDMDL
