MODEL 1
REMARK minimizedAffinity -0.705398858
REMARK minimizedRMSD -1
REMARK  1 active torsions:
REMARK  status: ('A' for Active; 'I' for Inactive)
REMARK    1  A    between atoms: N_2  and  C1_3 
ROOT
ATOM      1  C1  UNL d   1       2.906  -2.417  -0.480  0.00  0.00     0.143 A 
ATOM      2  C2  UNL d   1       2.479  -2.588  -1.802  0.00  0.00    -0.057 A 
ATOM      3  C3  UNL d   1       1.977  -1.515  -2.547  0.00  0.00     0.033 A 
ATOM      4  C4  UNL d   1       1.865  -0.253  -1.973  0.00  0.00    -0.042 A 
ATOM      5  C5  UNL d   1       2.260  -0.065  -0.653  0.00  0.00     0.033 A 
ATOM      6  C6  UNL d   1       2.767  -1.139   0.084  0.00  0.00    -0.057 A 
ENDROOT
BRANCH   1   7
ATOM      7  N   UNL d   1       3.323  -3.465   0.344  0.00  0.00    -0.732 N 
ATOM      8  C   UNL d   1       4.688  -3.942   0.297  0.00  0.00     0.284 C 
ATOM      9  H3  UNL d   1       2.939  -3.395   1.284  0.00  0.00     0.395 HD
ENDBRANCH   1   7
TORSDOF 1
ENDMDL
