MODEL 1
REMARK minimizedAffinity 21.748024
REMARK minimizedRMSD -1
REMARK  1 active torsions:
REMARK  status: ('A' for Active; 'I' for Inactive)
REMARK    1  A    between atoms: N_2  and  C1_3 
ROOT
ATOM      1  C1  UNL d   1      -3.669   1.422   3.623  0.00  0.00     0.143 A 
ATOM      2  C2  UNL d   1      -4.743   2.289   3.397  0.00  0.00    -0.057 A 
ATOM      3  C3  UNL d   1      -5.171   3.188   4.382  0.00  0.00     0.033 A 
ATOM      4  C4  UNL d   1      -4.548   3.214   5.625  0.00  0.00    -0.042 A 
ATOM      5  C5  UNL d   1      -3.495   2.344   5.881  0.00  0.00     0.033 A 
ATOM      6  C6  UNL d   1      -3.068   1.454   4.891  0.00  0.00    -0.057 A 
ENDROOT
BRANCH   1   7
ATOM      7  N   UNL d   1      -3.260   0.438   2.720  0.00  0.00    -0.732 N 
ATOM      8  C   UNL d   1      -3.685  -0.936   2.884  0.00  0.00     0.284 C 
ATOM      9  H3  UNL d   1      -3.274   0.765   1.757  0.00  0.00     0.395 HD
ENDBRANCH   1   7
TORSDOF 1
ENDMDL
