MODEL 1
REMARK minimizedAffinity 15.1865406
REMARK minimizedRMSD -1
REMARK  1 active torsions:
REMARK  status: ('A' for Active; 'I' for Inactive)
REMARK    1  A    between atoms: N_2  and  C1_3 
ROOT
ATOM      1  C1  UNL d   1       3.114   1.691  -0.417  0.00  0.00     0.143 A 
ATOM      2  C2  UNL d   1       2.927   2.338  -1.643  0.00  0.00    -0.057 A 
ATOM      3  C3  UNL d   1       2.550   3.685  -1.704  0.00  0.00     0.033 A 
ATOM      4  C4  UNL d   1       2.324   4.403  -0.534  0.00  0.00    -0.042 A 
ATOM      5  C5  UNL d   1       2.480   3.774   0.696  0.00  0.00     0.033 A 
ATOM      6  C6  UNL d   1       2.864   2.431   0.750  0.00  0.00    -0.057 A 
ENDROOT
BRANCH   1   7
ATOM      7  N   UNL d   1       3.393   0.328  -0.290  0.00  0.00    -0.732 N 
ATOM      8  C   UNL d   1       2.336  -0.654  -0.407  0.00  0.00     0.284 C 
ATOM      9  H3  UNL d   1       4.259   0.064  -0.754  0.00  0.00     0.395 HD
ENDBRANCH   1   7
TORSDOF 1
ENDMDL
