MODEL 1
REMARK minimizedAffinity 15.9362907
REMARK minimizedRMSD -1
REMARK  1 active torsions:
REMARK  status: ('A' for Active; 'I' for Inactive)
REMARK    1  A    between atoms: N_2  and  C1_3 
ROOT
ATOM      1  C1  UNL d   1       2.987   2.629  -2.259  0.00  0.00     0.143 A 
ATOM      2  C2  UNL d   1       3.314   1.776  -1.200  0.00  0.00    -0.057 A 
ATOM      3  C3  UNL d   1       3.038   0.405  -1.260  0.00  0.00     0.033 A 
ATOM      4  C4  UNL d   1       2.401  -0.134  -2.373  0.00  0.00    -0.042 A 
ATOM      5  C5  UNL d   1       2.043   0.699  -3.427  0.00  0.00     0.033 A 
ATOM      6  C6  UNL d   1       2.328   2.067  -3.363  0.00  0.00    -0.057 A 
ENDROOT
BRANCH   1   7
ATOM      7  N   UNL d   1       3.146   4.017  -2.218  0.00  0.00    -0.732 N 
ATOM      8  C   UNL d   1       2.218   4.844  -1.477  0.00  0.00     0.284 C 
ATOM      9  H3  UNL d   1       4.120   4.293  -2.118  0.00  0.00     0.395 HD
ENDBRANCH   1   7
TORSDOF 1
ENDMDL
