MODEL 1
REMARK minimizedAffinity 20.6544456
REMARK minimizedRMSD -1
REMARK  1 active torsions:
REMARK  status: ('A' for Active; 'I' for Inactive)
REMARK    1  A    between atoms: N_2  and  C1_3 
ROOT
ATOM      1  C1  UNL d   1       3.322  -0.073  -0.115  0.00  0.00     0.143 A 
ATOM      2  C2  UNL d   1       4.362  -0.891   0.340  0.00  0.00    -0.057 A 
ATOM      3  C3  UNL d   1       4.274  -2.286   0.263  0.00  0.00     0.033 A 
ATOM      4  C4  UNL d   1       3.129  -2.890  -0.244  0.00  0.00    -0.042 A 
ATOM      5  C5  UNL d   1       2.072  -2.097  -0.678  0.00  0.00     0.033 A 
ATOM      6  C6  UNL d   1       2.169  -0.704  -0.605  0.00  0.00    -0.057 A 
ENDROOT
BRANCH   1   7
ATOM      7  N   UNL d   1       3.309   1.317   0.025  0.00  0.00    -0.732 N 
ATOM      8  C   UNL d   1       2.907   1.929   1.273  0.00  0.00     0.284 C 
ATOM      9  H3  UNL d   1       4.112   1.760  -0.416  0.00  0.00     0.395 HD
ENDBRANCH   1   7
TORSDOF 1
ENDMDL
