MODEL 1
REMARK minimizedAffinity 12.3520517
REMARK minimizedRMSD -1
REMARK  1 active torsions:
REMARK  status: ('A' for Active; 'I' for Inactive)
REMARK    1  A    between atoms: N_2  and  C1_3 
ROOT
ATOM      1  C1  UNL d   1      -1.564   1.665   2.470  0.00  0.00     0.143 A 
ATOM      2  C2  UNL d   1      -0.780   2.668   1.890  0.00  0.00    -0.057 A 
ATOM      3  C3  UNL d   1       0.617   2.584   1.882  0.00  0.00     0.033 A 
ATOM      4  C4  UNL d   1       1.259   1.504   2.481  0.00  0.00    -0.042 A 
ATOM      5  C5  UNL d   1       0.500   0.508   3.085  0.00  0.00     0.033 A 
ATOM      6  C6  UNL d   1      -0.895   0.594   3.084  0.00  0.00    -0.057 A 
ENDROOT
BRANCH   1   7
ATOM      7  N   UNL d   1      -2.953   1.739   2.597  0.00  0.00    -0.732 N 
ATOM      8  C   UNL d   1      -3.719   0.581   3.005  0.00  0.00     0.284 C 
ATOM      9  H3  UNL d   1      -3.258   2.610   3.025  0.00  0.00     0.395 HD
ENDBRANCH   1   7
TORSDOF 1
ENDMDL
