MODEL 1
REMARK minimizedAffinity 10.8839245
REMARK minimizedRMSD -1
REMARK  1 active torsions:
REMARK  status: ('A' for Active; 'I' for Inactive)
REMARK    1  A    between atoms: N_2  and  C1_3 
ROOT
ATOM      1  C1  UNL d   1      -2.207   1.546   2.571  0.00  0.00     0.143 A 
ATOM      2  C2  UNL d   1      -1.223   2.099   3.397  0.00  0.00    -0.057 A 
ATOM      3  C3  UNL d   1       0.136   2.004   3.072  0.00  0.00     0.033 A 
ATOM      4  C4  UNL d   1       0.537   1.326   1.925  0.00  0.00    -0.042 A 
ATOM      5  C5  UNL d   1      -0.422   0.747   1.102  0.00  0.00     0.033 A 
ATOM      6  C6  UNL d   1      -1.778   0.851   1.429  0.00  0.00    -0.057 A 
ENDROOT
BRANCH   1   7
ATOM      7  N   UNL d   1      -3.567   1.521   2.890  0.00  0.00    -0.732 N 
ATOM      8  C   UNL d   1      -4.189   2.648   3.551  0.00  0.00     0.284 C 
ATOM      9  H3  UNL d   1      -4.132   1.109   2.151  0.00  0.00     0.395 HD
ENDBRANCH   1   7
TORSDOF 1
ENDMDL
