MODEL 1
REMARK minimizedAffinity 11.6538477
REMARK minimizedRMSD -1
REMARK  1 active torsions:
REMARK  status: ('A' for Active; 'I' for Inactive)
REMARK    1  A    between atoms: N_2  and  C1_3 
ROOT
ATOM      1  C1  UNL d   1      -3.288   1.805   3.626  0.00  0.00     0.143 A 
ATOM      2  C2  UNL d   1      -4.539   2.422   3.511  0.00  0.00    -0.057 A 
ATOM      3  C3  UNL d   1      -5.149   3.037   4.610  0.00  0.00     0.033 A 
ATOM      4  C4  UNL d   1      -4.530   3.022   5.856  0.00  0.00    -0.042 A 
ATOM      5  C5  UNL d   1      -3.298   2.393   6.000  0.00  0.00     0.033 A 
ATOM      6  C6  UNL d   1      -2.691   1.786   4.896  0.00  0.00    -0.057 A 
ENDROOT
BRANCH   1   7
ATOM      7  N   UNL d   1      -2.675   1.091   2.594  0.00  0.00    -0.732 N 
ATOM      8  C   UNL d   1      -1.337   1.428   2.158  0.00  0.00     0.284 C 
ATOM      9  H3  UNL d   1      -2.853   0.091   2.655  0.00  0.00     0.395 HD
ENDBRANCH   1   7
TORSDOF 1
ENDMDL
