MODEL 1
REMARK minimizedAffinity 10.9847517
REMARK minimizedRMSD -1
REMARK  1 active torsions:
REMARK  status: ('A' for Active; 'I' for Inactive)
REMARK    1  A    between atoms: N_2  and  C1_3 
ROOT
ATOM      1  C1  UNL d   1       0.918   0.898   1.293  0.00  0.00     0.143 A 
ATOM      2  C2  UNL d   1       2.224   1.394   1.383  0.00  0.00    -0.057 A 
ATOM      3  C3  UNL d   1       3.184   1.090   0.410  0.00  0.00     0.033 A 
ATOM      4  C4  UNL d   1       2.862   0.259  -0.658  0.00  0.00    -0.042 A 
ATOM      5  C5  UNL d   1       1.578  -0.265  -0.754  0.00  0.00     0.033 A 
ATOM      6  C6  UNL d   1       0.622   0.047   0.217  0.00  0.00    -0.057 A 
ENDROOT
BRANCH   1   7
ATOM      7  N   UNL d   1      -0.053   1.084   2.279  0.00  0.00    -0.732 N 
ATOM      8  C   UNL d   1      -1.457   1.133   1.931  0.00  0.00     0.284 C 
ATOM      9  H3  UNL d   1       0.146   0.556   3.126  0.00  0.00     0.395 HD
ENDBRANCH   1   7
TORSDOF 1
ENDMDL
