MODEL 1
REMARK minimizedAffinity 8.46565342
REMARK minimizedRMSD -1
REMARK  1 active torsions:
REMARK  status: ('A' for Active; 'I' for Inactive)
REMARK    1  A    between atoms: N_2  and  C1_3 
ROOT
ATOM      1  C1  UNL d   1       0.618   1.626   2.778  0.00  0.00     0.143 A 
ATOM      2  C2  UNL d   1      -0.523   2.302   3.223  0.00  0.00    -0.057 A 
ATOM      3  C3  UNL d   1      -1.787   2.023   2.690  0.00  0.00     0.033 A 
ATOM      4  C4  UNL d   1      -1.929   1.078   1.678  0.00  0.00    -0.042 A 
ATOM      5  C5  UNL d   1      -0.805   0.411   1.203  0.00  0.00     0.033 A 
ATOM      6  C6  UNL d   1       0.454   0.690   1.744  0.00  0.00    -0.057 A 
ENDROOT
BRANCH   1   7
ATOM      7  N   UNL d   1       1.915   1.928   3.198  0.00  0.00    -0.732 N 
ATOM      8  C   UNL d   1       2.838   2.605   2.313  0.00  0.00     0.284 C 
ATOM      9  H3  UNL d   1       1.945   2.258   4.160  0.00  0.00     0.395 HD
ENDBRANCH   1   7
TORSDOF 1
ENDMDL
