MODEL 1
REMARK minimizedAffinity 10.1684284
REMARK minimizedRMSD -1
REMARK  1 active torsions:
REMARK  status: ('A' for Active; 'I' for Inactive)
REMARK    1  A    between atoms: N_2  and  C1_3 
ROOT
ATOM      1  C1  UNL d   1       2.626   0.428  -0.088  0.00  0.00     0.143 A 
ATOM      2  C2  UNL d   1       2.983  -0.924  -0.123  0.00  0.00    -0.057 A 
ATOM      3  C3  UNL d   1       2.631  -1.740  -1.204  0.00  0.00     0.033 A 
ATOM      4  C4  UNL d   1       1.888  -1.224  -2.260  0.00  0.00    -0.042 A 
ATOM      5  C5  UNL d   1       1.500   0.111  -2.235  0.00  0.00     0.033 A 
ATOM      6  C6  UNL d   1       1.860   0.923  -1.155  0.00  0.00    -0.057 A 
ENDROOT
BRANCH   1   7
ATOM      7  N   UNL d   1       2.861   1.267   1.004  0.00  0.00    -0.732 N 
ATOM      8  C   UNL d   1       1.809   1.548   1.958  0.00  0.00     0.284 C 
ATOM      9  H3  UNL d   1       3.773   1.108   1.427  0.00  0.00     0.395 HD
ENDBRANCH   1   7
TORSDOF 1
ENDMDL
