MODEL 1
REMARK minimizedAffinity 12.9916697
REMARK minimizedRMSD -1
REMARK  1 active torsions:
REMARK  status: ('A' for Active; 'I' for Inactive)
REMARK    1  A    between atoms: N_2  and  C1_3 
ROOT
ATOM      1  C1  UNL d   1      -2.893   4.394  -5.329  0.00  0.00     0.143 A 
ATOM      2  C2  UNL d   1      -2.317   3.306  -5.994  0.00  0.00    -0.057 A 
ATOM      3  C3  UNL d   1      -1.401   2.464  -5.352  0.00  0.00     0.033 A 
ATOM      4  C4  UNL d   1      -1.022   2.713  -4.036  0.00  0.00    -0.042 A 
ATOM      5  C5  UNL d   1      -1.563   3.803  -3.364  0.00  0.00     0.033 A 
ATOM      6  C6  UNL d   1      -2.482   4.636  -4.009  0.00  0.00    -0.057 A 
ENDROOT
BRANCH   1   7
ATOM      7  N   UNL d   1      -3.734   5.325  -5.944  0.00  0.00    -0.732 N 
ATOM      8  C   UNL d   1      -5.163   5.104  -5.998  0.00  0.00     0.284 C 
ATOM      9  H3  UNL d   1      -3.469   6.285  -5.734  0.00  0.00     0.395 HD
ENDBRANCH   1   7
TORSDOF 1
ENDMDL
