MODEL 1
REMARK minimizedAffinity 7.14429474
REMARK minimizedRMSD -1
REMARK  1 active torsions:
REMARK  status: ('A' for Active; 'I' for Inactive)
REMARK    1  A    between atoms: N_2  and  C1_3 
ROOT
ATOM      1  C1  UNL d   1      -3.381   1.609   3.680  0.00  0.00     0.143 A 
ATOM      2  C2  UNL d   1      -3.089   1.511   5.044  0.00  0.00    -0.057 A 
ATOM      3  C3  UNL d   1      -3.843   2.203   6.000  0.00  0.00     0.033 A 
ATOM      4  C4  UNL d   1      -4.888   3.031   5.603  0.00  0.00    -0.042 A 
ATOM      5  C5  UNL d   1      -5.180   3.163   4.250  0.00  0.00     0.033 A 
ATOM      6  C6  UNL d   1      -4.428   2.464   3.302  0.00  0.00    -0.057 A 
ENDROOT
BRANCH   1   7
ATOM      7  N   UNL d   1      -2.607   1.023   2.675  0.00  0.00    -0.732 N 
ATOM      8  C   UNL d   1      -1.162   1.064   2.740  0.00  0.00     0.284 C 
ATOM      9  H3  UNL d   1      -2.984   0.131   2.364  0.00  0.00     0.395 HD
ENDBRANCH   1   7
TORSDOF 1
ENDMDL
