MODEL 1
REMARK minimizedAffinity 7.13773584
REMARK minimizedRMSD -1
REMARK  0 active torsions:
REMARK  status: ('A' for Active; 'I' for Inactive)
ROOT
ATOM      1  O1  BZF d   1       1.110  -4.279  -3.895  0.00  0.00    -0.204 OA
ATOM      2  C2  BZF d   1       1.230  -5.108  -2.796  0.00  0.00     0.174 A 
ATOM      3  C3  BZF d   1       0.126  -5.868  -2.647  0.00  0.00    -0.012 A 
ATOM      4  C3A BZF d   1      -0.700  -5.556  -3.774  0.00  0.00    -0.107 A 
ATOM      5  C4  BZF d   1      -1.921  -6.000  -4.194  0.00  0.00     0.055 A 
ATOM      6  C5  BZF d   1      -2.483  -5.440  -5.297  0.00  0.00    -0.016 A 
ATOM      7  C6  BZF d   1      -1.856  -4.432  -6.000  0.00  0.00     0.022 A 
ATOM      8  C7  BZF d   1      -0.642  -3.962  -5.624  0.00  0.00     0.029 A 
ATOM      9  C7A BZF d   1      -0.056  -4.549  -4.529  0.00  0.00     0.058 A 
ENDROOT
TORSDOF 0
ENDMDL
