MODEL 1
REMARK minimizedAffinity -2.959409
REMARK minimizedRMSD -1
REMARK  0 active torsions:
REMARK  status: ('A' for Active; 'I' for Inactive)
ROOT
ATOM      1  O1  BZF d   1      -0.452  -4.875  -3.627  0.00  0.00    -0.204 OA
ATOM      2  C2  BZF d   1      -0.633  -4.397  -4.910  0.00  0.00     0.174 A 
ATOM      3  C3  BZF d   1       0.534  -4.385  -5.585  0.00  0.00    -0.012 A 
ATOM      4  C3A BZF d   1       1.489  -4.974  -4.697  0.00  0.00    -0.107 A 
ATOM      5  C4  BZF d   1       2.822  -5.253  -4.801  0.00  0.00     0.055 A 
ATOM      6  C5  BZF d   1       3.476  -5.762  -3.725  0.00  0.00    -0.016 A 
ATOM      7  C6  BZF d   1       2.832  -6.000  -2.529  0.00  0.00     0.022 A 
ATOM      8  C7  BZF d   1       1.509  -5.744  -2.378  0.00  0.00     0.029 A 
ATOM      9  C7A BZF d   1       0.838  -5.259  -3.474  0.00  0.00     0.058 A 
ENDROOT
TORSDOF 0
ENDMDL
