MODEL 1
REMARK minimizedAffinity 8.23425007
REMARK minimizedRMSD -1
REMARK  0 active torsions:
REMARK  status: ('A' for Active; 'I' for Inactive)
ROOT
ATOM      1  O1  BZF d   1      -5.026  -4.101  -5.999  0.00  0.00    -0.204 OA
ATOM      2  C2  BZF d   1      -5.066  -5.482  -5.978  0.00  0.00     0.174 A 
ATOM      3  C3  BZF d   1      -3.820  -5.997  -5.990  0.00  0.00    -0.012 A 
ATOM      4  C3A BZF d   1      -2.945  -4.867  -5.929  0.00  0.00    -0.107 A 
ATOM      5  C4  BZF d   1      -1.586  -4.733  -5.895  0.00  0.00     0.055 A 
ATOM      6  C5  BZF d   1      -1.046  -3.486  -5.910  0.00  0.00    -0.016 A 
ATOM      7  C6  BZF d   1      -1.832  -2.354  -5.964  0.00  0.00     0.022 A 
ATOM      8  C7  BZF d   1      -3.185  -2.437  -5.994  0.00  0.00     0.029 A 
ATOM      9  C7A BZF d   1      -3.735  -3.695  -5.946  0.00  0.00     0.058 A 
ENDROOT
TORSDOF 0
ENDMDL
