MODEL 1
REMARK minimizedAffinity 3.52909303
REMARK minimizedRMSD -1
REMARK  0 active torsions:
REMARK  status: ('A' for Active; 'I' for Inactive)
ROOT
ATOM      1  O1  BZF d   1      -2.785  -1.737   6.000  0.00  0.00    -0.204 OA
ATOM      2  C2  BZF d   1      -3.041  -3.094   6.000  0.00  0.00     0.174 A 
ATOM      3  C3  BZF d   1      -1.906  -3.795   5.798  0.00  0.00    -0.012 A 
ATOM      4  C3A BZF d   1      -0.863  -2.817   5.755  0.00  0.00    -0.107 A 
ATOM      5  C4  BZF d   1       0.491  -2.895   5.596  0.00  0.00     0.055 A 
ATOM      6  C5  BZF d   1       1.216  -1.748   5.527  0.00  0.00    -0.016 A 
ATOM      7  C6  BZF d   1       0.619  -0.507   5.609  0.00  0.00     0.022 A 
ATOM      8  C7  BZF d   1      -0.720  -0.378   5.772  0.00  0.00     0.029 A 
ATOM      9  C7A BZF d   1      -1.451  -1.537   5.875  0.00  0.00     0.058 A 
ENDROOT
TORSDOF 0
ENDMDL
