MODEL 1
REMARK minimizedAffinity 4.47593498
REMARK minimizedRMSD -1
REMARK  0 active torsions:
REMARK  status: ('A' for Active; 'I' for Inactive)
ROOT
ATOM      1  O1  BZF d   1      -2.693  -1.539   4.184  0.00  0.00    -0.204 OA
ATOM      2  C2  BZF d   1      -1.734  -1.892   5.114  0.00  0.00     0.174 A 
ATOM      3  C3  BZF d   1      -2.230  -2.780   6.000  0.00  0.00    -0.012 A 
ATOM      4  C3A BZF d   1      -3.555  -3.067   5.543  0.00  0.00    -0.107 A 
ATOM      5  C4  BZF d   1      -4.547  -3.888   5.996  0.00  0.00     0.055 A 
ATOM      6  C5  BZF d   1      -5.751  -3.882   5.365  0.00  0.00    -0.016 A 
ATOM      7  C6  BZF d   1      -5.998  -3.064   4.282  0.00  0.00     0.022 A 
ATOM      8  C7  BZF d   1      -5.043  -2.235   3.793  0.00  0.00     0.029 A 
ATOM      9  C7A BZF d   1      -3.816  -2.263   4.409  0.00  0.00     0.058 A 
ENDROOT
TORSDOF 0
ENDMDL
