MODEL 1
REMARK minimizedAffinity 20.6700058
REMARK minimizedRMSD -1
REMARK  0 active torsions:
REMARK  status: ('A' for Active; 'I' for Inactive)
ROOT
ATOM      1  O1  BZF d   1      -4.883  -3.757  -5.993  0.00  0.00    -0.204 OA
ATOM      2  C2  BZF d   1      -5.581  -4.949  -5.971  0.00  0.00     0.174 A 
ATOM      3  C3  BZF d   1      -4.734  -5.999  -5.990  0.00  0.00    -0.012 A 
ATOM      4  C3A BZF d   1      -3.424  -5.427  -5.933  0.00  0.00    -0.107 A 
ATOM      5  C4  BZF d   1      -2.167  -5.960  -5.906  0.00  0.00     0.055 A 
ATOM      6  C5  BZF d   1      -1.095  -5.125  -5.925  0.00  0.00    -0.016 A 
ATOM      7  C6  BZF d   1      -1.243  -3.755  -5.975  0.00  0.00     0.022 A 
ATOM      8  C7  BZF d   1      -2.469  -3.179  -5.999  0.00  0.00     0.029 A 
ATOM      9  C7A BZF d   1      -3.555  -4.019  -5.946  0.00  0.00     0.058 A 
ENDROOT
TORSDOF 0
ENDMDL
