MODEL 1
REMARK minimizedAffinity 2.61298513
REMARK minimizedRMSD -1
REMARK  0 active torsions:
REMARK  status: ('A' for Active; 'I' for Inactive)
ROOT
ATOM      1  O1  BZF d   1      -2.589  -3.143   4.922  0.00  0.00    -0.204 OA
ATOM      2  C2  BZF d   1      -3.098  -3.914   5.949  0.00  0.00     0.174 A 
ATOM      3  C3  BZF d   1      -4.442  -3.816   6.000  0.00  0.00    -0.012 A 
ATOM      4  C3A BZF d   1      -4.803  -3.001   4.880  0.00  0.00    -0.107 A 
ATOM      5  C4  BZF d   1      -5.997  -2.557   4.388  0.00  0.00     0.055 A 
ATOM      6  C5  BZF d   1      -6.000  -1.716   3.321  0.00  0.00    -0.016 A 
ATOM      7  C6  BZF d   1      -4.829  -1.295   2.725  0.00  0.00     0.022 A 
ATOM      8  C7  BZF d   1      -3.620  -1.712   3.175  0.00  0.00     0.029 A 
ATOM      9  C7A BZF d   1      -3.615  -2.588   4.233  0.00  0.00     0.058 A 
ENDROOT
TORSDOF 0
ENDMDL
