MODEL 1
REMARK minimizedAffinity 8.91547775
REMARK minimizedRMSD -1
REMARK  0 active torsions:
REMARK  status: ('A' for Active; 'I' for Inactive)
ROOT
ATOM      1  O1  BZF d   1      -2.550  -2.129  -5.959  0.00  0.00    -0.204 OA
ATOM      2  C2  BZF d   1      -1.176  -2.271  -5.923  0.00  0.00     0.174 A 
ATOM      3  C3  BZF d   1      -0.831  -3.572  -5.855  0.00  0.00    -0.012 A 
ATOM      4  C3A BZF d   1      -2.063  -4.294  -5.941  0.00  0.00    -0.107 A 
ATOM      5  C4  BZF d   1      -2.375  -5.624  -5.945  0.00  0.00     0.055 A 
ATOM      6  C5  BZF d   1      -3.681  -5.996  -5.968  0.00  0.00    -0.016 A 
ATOM      7  C6  BZF d   1      -4.701  -5.067  -5.983  0.00  0.00     0.022 A 
ATOM      8  C7  BZF d   1      -4.441  -3.736  -5.986  0.00  0.00     0.029 A 
ATOM      9  C7A BZF d   1      -3.121  -3.357  -5.996  0.00  0.00     0.058 A 
ENDROOT
TORSDOF 0
ENDMDL
