MODEL 1
REMARK minimizedAffinity 5.78175545
REMARK minimizedRMSD -1
REMARK  2 active torsions:
REMARK  status: ('A' for Active; 'I' for Inactive)
REMARK    1  A    between atoms: C1_2  and  C2_3 
REMARK    2  A    between atoms: C2_3  and  C3_4 
ROOT
ATOM      1  C3  UNL d   1       1.296   3.610   1.602  0.00  0.00    -0.075 A 
ATOM      2  C4  UNL d   1       0.310   3.287   0.659  0.00  0.00     0.002 A 
ATOM      3  C5  UNL d   1       0.229   3.982  -0.548  0.00  0.00     0.002 A 
ATOM      4  C6  UNL d   1       1.125   5.013  -0.823  0.00  0.00    -0.004 A 
ATOM      5  C7  UNL d   1       2.099   5.353   0.113  0.00  0.00     0.002 A 
ATOM      6  C8  UNL d   1       2.185   4.656   1.320  0.00  0.00     0.002 A 
ENDROOT
BRANCH   1   7
ATOM      7  C2  UNL d   1       1.407   2.842   2.897  0.00  0.00     0.056 C 
BRANCH   7   8
ATOM      8  C1  UNL d   1       0.248   1.873   3.149  0.00  0.00     0.007 C 
ATOM      9  C   UNL d   1       0.628   0.703   4.047  0.00  0.00     0.009 C 
ENDBRANCH   7   8
ENDBRANCH   1   7
TORSDOF 2
ENDMDL
