MODEL 1
REMARK minimizedAffinity -1.92895055
REMARK minimizedRMSD -1
REMARK  2 active torsions:
REMARK  status: ('A' for Active; 'I' for Inactive)
REMARK    1  A    between atoms: C1_2  and  C2_3 
REMARK    2  A    between atoms: C2_3  and  C3_4 
ROOT
ATOM      1  C3  UNL d   1      -4.810   2.688  -3.154  0.00  0.00    -0.075 A 
ATOM      2  C4  UNL d   1      -6.000   3.060  -3.797  0.00  0.00     0.002 A 
ATOM      3  C5  UNL d   1      -5.986   3.471  -5.130  0.00  0.00     0.002 A 
ATOM      4  C6  UNL d   1      -4.785   3.524  -5.833  0.00  0.00    -0.004 A 
ATOM      5  C7  UNL d   1      -3.595   3.173  -5.200  0.00  0.00     0.002 A 
ATOM      6  C8  UNL d   1      -3.606   2.758  -3.867  0.00  0.00     0.002 A 
ENDROOT
BRANCH   1   7
ATOM      7  C2  UNL d   1      -4.822   2.215  -1.720  0.00  0.00     0.056 C 
BRANCH   7   8
ATOM      8  C1  UNL d   1      -3.479   1.659  -1.235  0.00  0.00     0.007 C 
ATOM      9  C   UNL d   1      -3.611   0.341  -0.485  0.00  0.00     0.009 C 
ENDBRANCH   7   8
ENDBRANCH   1   7
TORSDOF 2
ENDMDL
