MODEL 1
REMARK minimizedAffinity 5.05091715
REMARK minimizedRMSD -1
REMARK  2 active torsions:
REMARK  status: ('A' for Active; 'I' for Inactive)
REMARK    1  A    between atoms: C1_2  and  C2_3 
REMARK    2  A    between atoms: C2_3  and  C3_4 
ROOT
ATOM      1  C3  UNL d   1       0.606   1.298  -0.792  0.00  0.00    -0.075 A 
ATOM      2  C4  UNL d   1      -0.342   2.259  -1.175  0.00  0.00     0.002 A 
ATOM      3  C5  UNL d   1      -0.642   3.332  -0.335  0.00  0.00     0.002 A 
ATOM      4  C6  UNL d   1      -0.008   3.452   0.900  0.00  0.00    -0.004 A 
ATOM      5  C7  UNL d   1       0.922   2.495   1.298  0.00  0.00     0.002 A 
ATOM      6  C8  UNL d   1       1.228   1.423   0.457  0.00  0.00     0.002 A 
ENDROOT
BRANCH   1   7
ATOM      7  C2  UNL d   1       0.957   0.151  -1.709  0.00  0.00     0.056 C 
BRANCH   7   8
ATOM      8  C1  UNL d   1       1.050  -1.206  -1.003  0.00  0.00     0.007 C 
ATOM      9  C   UNL d   1       0.150  -2.267  -1.620  0.00  0.00     0.009 C 
ENDBRANCH   7   8
ENDBRANCH   1   7
TORSDOF 2
ENDMDL
