MODEL 1
REMARK minimizedAffinity 1.69736576
REMARK minimizedRMSD -1
REMARK  2 active torsions:
REMARK  status: ('A' for Active; 'I' for Inactive)
REMARK    1  A    between atoms: C1_2  and  C2_3 
REMARK    2  A    between atoms: C2_3  and  C3_4 
ROOT
ATOM      1  C3  UNL d   1       0.773   0.589  -0.543  0.00  0.00    -0.075 A 
ATOM      2  C4  UNL d   1       1.558   1.048   0.526  0.00  0.00     0.002 A 
ATOM      3  C5  UNL d   1       1.419   2.354   0.997  0.00  0.00     0.002 A 
ATOM      4  C6  UNL d   1       0.504   3.219   0.401  0.00  0.00    -0.004 A 
ATOM      5  C7  UNL d   1      -0.268   2.779  -0.671  0.00  0.00     0.002 A 
ATOM      6  C8  UNL d   1      -0.135   1.472  -1.142  0.00  0.00     0.002 A 
ENDROOT
BRANCH   1   7
ATOM      7  C2  UNL d   1       0.898  -0.832  -1.038  0.00  0.00     0.056 C 
BRANCH   7   8
ATOM      8  C1  UNL d   1      -0.391  -1.652  -0.911  0.00  0.00     0.007 C 
ATOM      9  C   UNL d   1      -0.153  -3.155  -0.960  0.00  0.00     0.009 C 
ENDBRANCH   7   8
ENDBRANCH   1   7
TORSDOF 2
ENDMDL
