MODEL 1
REMARK minimizedAffinity -0.430665612
REMARK minimizedRMSD -1
REMARK  2 active torsions:
REMARK  status: ('A' for Active; 'I' for Inactive)
REMARK    1  A    between atoms: C1_2  and  C2_3 
REMARK    2  A    between atoms: C2_3  and  C3_4 
ROOT
ATOM      1  C3  UNL d   1      -0.361   1.051  -1.154  0.00  0.00    -0.075 A 
ATOM      2  C4  UNL d   1      -1.637   1.047  -0.572  0.00  0.00     0.002 A 
ATOM      3  C5  UNL d   1      -2.425  -0.104  -0.600  0.00  0.00     0.002 A 
ATOM      4  C6  UNL d   1      -1.953  -1.260  -1.217  0.00  0.00    -0.004 A 
ATOM      5  C7  UNL d   1      -0.693  -1.262  -1.813  0.00  0.00     0.002 A 
ATOM      6  C8  UNL d   1       0.099  -0.113  -1.783  0.00  0.00     0.002 A 
ENDROOT
BRANCH   1   7
ATOM      7  C2  UNL d   1       0.508   2.285  -1.101  0.00  0.00     0.056 C 
BRANCH   7   8
ATOM      8  C1  UNL d   1       0.036   3.338  -0.093  0.00  0.00     0.007 C 
ATOM      9  C   UNL d   1       0.365   4.764  -0.515  0.00  0.00     0.009 C 
ENDBRANCH   7   8
ENDBRANCH   1   7
TORSDOF 2
ENDMDL
