MODEL 1
REMARK minimizedAffinity 12.6438761
REMARK minimizedRMSD -1
REMARK  1 active torsions:
REMARK  status: ('A' for Active; 'I' for Inactive)
REMARK    1  A    between atoms: C1_2  and  C2_3 
ROOT
ATOM      1  C2  UNL d   1      -0.877   2.731  -1.212  0.00  0.00    -0.081 A 
ATOM      2  C3  UNL d   1      -1.266   1.567  -0.538  0.00  0.00     0.006 A 
ATOM      3  C4  UNL d   1      -0.759   1.281   0.732  0.00  0.00     0.002 A 
ATOM      4  C5  UNL d   1       0.137   2.158   1.352  0.00  0.00    -0.080 A 
ATOM      5  C6  UNL d   1       0.665   1.879   2.728  0.00  0.00     0.076 C 
ATOM      6  C7  UNL d   1       0.539   3.313   0.671  0.00  0.00     0.002 A 
ATOM      7  C8  UNL d   1       0.033   3.598  -0.599  0.00  0.00     0.006 A 
ENDROOT
BRANCH   1   8
ATOM      8  C1  UNL d   1      -1.472   3.074  -2.555  0.00  0.00     0.054 C 
ATOM      9  C   UNL d   1      -2.941   2.685  -2.625  0.00  0.00     0.018 C 
ENDBRANCH   1   8
TORSDOF 1
ENDMDL
