MODEL 1
REMARK minimizedAffinity -0.140020087
REMARK minimizedRMSD -1
REMARK  1 active torsions:
REMARK  status: ('A' for Active; 'I' for Inactive)
REMARK    1  A    between atoms: C1_2  and  C2_3 
ROOT
ATOM      1  C2  UNL d   1      -1.099  -3.918  -5.979  0.00  0.00    -0.081 A 
ATOM      2  C3  UNL d   1      -2.299  -3.196  -5.990  0.00  0.00     0.006 A 
ATOM      3  C4  UNL d   1      -3.527  -3.863  -6.000  0.00  0.00     0.002 A 
ATOM      4  C5  UNL d   1      -3.575  -5.261  -5.992  0.00  0.00    -0.080 A 
ATOM      5  C6  UNL d   1      -4.886  -5.989  -5.972  0.00  0.00     0.076 C 
ATOM      6  C7  UNL d   1      -2.376  -5.982  -5.999  0.00  0.00     0.002 A 
ATOM      7  C8  UNL d   1      -1.149  -5.316  -5.990  0.00  0.00     0.006 A 
ENDROOT
BRANCH   1   8
ATOM      8  C1  UNL d   1       0.225  -3.201  -5.903  0.00  0.00     0.054 C 
ATOM      9  C   UNL d   1       1.388  -4.178  -5.996  0.00  0.00     0.018 C 
ENDBRANCH   1   8
TORSDOF 1
ENDMDL
