MODEL 1
REMARK minimizedAffinity 2.77125859
REMARK minimizedRMSD -1
REMARK  1 active torsions:
REMARK  status: ('A' for Active; 'I' for Inactive)
REMARK    1  A    between atoms: C1_2  and  C2_3 
ROOT
ATOM      1  C2  UNL d   1      -5.484  -1.055   4.469  0.00  0.00    -0.081 A 
ATOM      2  C3  UNL d   1      -5.947   0.111   3.847  0.00  0.00     0.006 A 
ATOM      3  C4  UNL d   1      -5.515   0.447   2.562  0.00  0.00     0.002 A 
ATOM      4  C5  UNL d   1      -4.620  -0.380   1.875  0.00  0.00    -0.080 A 
ATOM      5  C6  UNL d   1      -4.172  -0.047   0.483  0.00  0.00     0.076 C 
ATOM      6  C7  UNL d   1      -4.144  -1.536   2.503  0.00  0.00     0.002 A 
ATOM      7  C8  UNL d   1      -4.575  -1.872   3.789  0.00  0.00     0.006 A 
ENDROOT
BRANCH   1   8
ATOM      8  C1  UNL d   1      -5.998  -1.453   5.829  0.00  0.00     0.054 C 
ATOM      9  C   UNL d   1      -5.998  -2.966   5.999  0.00  0.00     0.018 C 
ENDBRANCH   1   8
TORSDOF 1
ENDMDL
