MODEL 1
REMARK minimizedAffinity 3.62549734
REMARK minimizedRMSD -1
REMARK  1 active torsions:
REMARK  status: ('A' for Active; 'I' for Inactive)
REMARK    1  A    between atoms: C1_2  and  C2_3 
ROOT
ATOM      1  C2  UNL d   1      -1.009   5.052  -3.652  0.00  0.00    -0.081 A 
ATOM      2  C3  UNL d   1      -1.765   4.256  -4.522  0.00  0.00     0.006 A 
ATOM      3  C4  UNL d   1      -2.986   3.718  -4.109  0.00  0.00     0.002 A 
ATOM      4  C5  UNL d   1      -3.475   3.972  -2.823  0.00  0.00    -0.080 A 
ATOM      5  C6  UNL d   1      -4.798   3.425  -2.377  0.00  0.00     0.076 C 
ATOM      6  C7  UNL d   1      -2.712   4.752  -1.948  0.00  0.00     0.002 A 
ATOM      7  C8  UNL d   1      -1.491   5.290  -2.360  0.00  0.00     0.006 A 
ENDROOT
BRANCH   1   8
ATOM      8  C1  UNL d   1       0.277   5.687  -4.116  0.00  0.00     0.054 C 
ATOM      9  C   UNL d   1       0.490   5.477  -5.608  0.00  0.00     0.018 C 
ENDBRANCH   1   8
TORSDOF 1
ENDMDL
