MODEL 1
REMARK minimizedAffinity 6.97027636
REMARK minimizedRMSD -1
REMARK  1 active torsions:
REMARK  status: ('A' for Active; 'I' for Inactive)
REMARK    1  A    between atoms: C1_2  and  C2_3 
ROOT
ATOM      1  C2  UNL d   1      -3.096  -4.378  -5.984  0.00  0.00    -0.081 A 
ATOM      2  C3  UNL d   1      -2.206  -5.459  -5.961  0.00  0.00     0.006 A 
ATOM      3  C4  UNL d   1      -0.827  -5.240  -5.943  0.00  0.00     0.002 A 
ATOM      4  C5  UNL d   1      -0.314  -3.938  -5.940  0.00  0.00    -0.080 A 
ATOM      5  C6  UNL d   1       1.164  -3.689  -5.889  0.00  0.00     0.076 C 
ATOM      6  C7  UNL d   1      -1.203  -2.858  -5.981  0.00  0.00     0.002 A 
ATOM      7  C8  UNL d   1      -2.582  -3.076  -6.000  0.00  0.00     0.006 A 
ENDROOT
BRANCH   1   8
ATOM      8  C1  UNL d   1      -4.585  -4.610  -5.939  0.00  0.00     0.054 C 
ATOM      9  C   UNL d   1      -4.915  -5.968  -5.337  0.00  0.00     0.018 C 
ENDBRANCH   1   8
TORSDOF 1
ENDMDL
