MODEL 1
REMARK minimizedAffinity 1.94338953
REMARK minimizedRMSD -1
REMARK  1 active torsions:
REMARK  status: ('A' for Active; 'I' for Inactive)
REMARK    1  A    between atoms: C1_2  and  C2_3 
ROOT
ATOM      1  C2  UNL d   1      -5.997  -1.409   2.817  0.00  0.00    -0.081 A 
ATOM      2  C3  UNL d   1      -5.969  -0.993   4.153  0.00  0.00     0.006 A 
ATOM      3  C4  UNL d   1      -5.933  -1.932   5.187  0.00  0.00     0.002 A 
ATOM      4  C5  UNL d   1      -5.917  -3.302   4.901  0.00  0.00    -0.080 A 
ATOM      5  C6  UNL d   1      -5.848  -4.320   6.000  0.00  0.00     0.076 C 
ATOM      6  C7  UNL d   1      -5.963  -3.717   3.566  0.00  0.00     0.002 A 
ATOM      7  C8  UNL d   1      -6.000  -2.779   2.532  0.00  0.00     0.006 A 
ENDROOT
BRANCH   1   8
ATOM      8  C1  UNL d   1      -5.971  -0.398   1.699  0.00  0.00     0.054 C 
ATOM      9  C   UNL d   1      -5.012  -0.820   0.594  0.00  0.00     0.018 C 
ENDBRANCH   1   8
TORSDOF 1
ENDMDL
