MODEL 1
REMARK minimizedAffinity 11.8946629
REMARK minimizedRMSD -1
REMARK  1 active torsions:
REMARK  status: ('A' for Active; 'I' for Inactive)
REMARK    1  A    between atoms: C1_2  and  C2_3 
ROOT
ATOM      1  C2  UNL d   1      -0.752   3.323  -2.154  0.00  0.00    -0.081 A 
ATOM      2  C3  UNL d   1      -0.680   1.963  -1.828  0.00  0.00     0.006 A 
ATOM      3  C4  UNL d   1      -0.070   1.550  -0.641  0.00  0.00     0.002 A 
ATOM      4  C5  UNL d   1       0.471   2.489   0.243  0.00  0.00    -0.080 A 
ATOM      5  C6  UNL d   1       1.102   2.061   1.534  0.00  0.00     0.076 C 
ATOM      6  C7  UNL d   1       0.415   3.847  -0.090  0.00  0.00     0.002 A 
ATOM      7  C8  UNL d   1      -0.194   4.260  -1.277  0.00  0.00     0.006 A 
ENDROOT
BRANCH   1   8
ATOM      8  C1  UNL d   1      -1.466   3.776  -3.401  0.00  0.00     0.054 C 
ATOM      9  C   UNL d   1      -2.877   3.209  -3.467  0.00  0.00     0.018 C 
ENDBRANCH   1   8
TORSDOF 1
ENDMDL
