MODEL 1
REMARK minimizedAffinity 1.74978578
REMARK minimizedRMSD -1
REMARK  1 active torsions:
REMARK  status: ('A' for Active; 'I' for Inactive)
REMARK    1  A    between atoms: C1_2  and  C2_3 
ROOT
ATOM      1  C2  UNL d   1      -1.622  -3.919  -5.889  0.00  0.00    -0.081 A 
ATOM      2  C3  UNL d   1      -1.831  -5.303  -5.837  0.00  0.00     0.006 A 
ATOM      3  C4  UNL d   1      -3.127  -5.824  -5.856  0.00  0.00     0.002 A 
ATOM      4  C5  UNL d   1      -4.234  -4.972  -5.935  0.00  0.00    -0.080 A 
ATOM      5  C6  UNL d   1      -5.629  -5.520  -5.987  0.00  0.00     0.076 C 
ATOM      6  C7  UNL d   1      -4.025  -3.589  -5.969  0.00  0.00     0.002 A 
ATOM      7  C8  UNL d   1      -2.730  -3.067  -5.949  0.00  0.00     0.006 A 
ENDROOT
BRANCH   1   8
ATOM      8  C1  UNL d   1      -0.224  -3.357  -5.933  0.00  0.00     0.054 C 
ATOM      9  C   UNL d   1      -0.224  -1.854  -5.691  0.00  0.00     0.018 C 
ENDBRANCH   1   8
TORSDOF 1
ENDMDL
