MODEL 1
REMARK minimizedAffinity -2.74488878
REMARK minimizedRMSD -1
REMARK  1 active torsions:
REMARK  status: ('A' for Active; 'I' for Inactive)
REMARK    1  A    between atoms: C1_2  and  C2_3 
ROOT
ATOM      1  C2  UNL d   1      -2.038  -3.955  -5.932  0.00  0.00    -0.081 A 
ATOM      2  C3  UNL d   1      -3.239  -3.238  -6.000  0.00  0.00     0.006 A 
ATOM      3  C4  UNL d   1      -4.465  -3.897  -5.879  0.00  0.00     0.002 A 
ATOM      4  C5  UNL d   1      -4.510  -5.281  -5.681  0.00  0.00    -0.080 A 
ATOM      5  C6  UNL d   1      -5.819  -5.996  -5.519  0.00  0.00     0.076 C 
ATOM      6  C7  UNL d   1      -3.311  -6.000  -5.631  0.00  0.00     0.002 A 
ATOM      7  C8  UNL d   1      -2.085  -5.342  -5.752  0.00  0.00     0.006 A 
ENDROOT
BRANCH   1   8
ATOM      8  C1  UNL d   1      -0.713  -3.239  -5.997  0.00  0.00     0.054 C 
ATOM      9  C   UNL d   1       0.448  -4.223  -5.994  0.00  0.00     0.018 C 
ENDBRANCH   1   8
TORSDOF 1
ENDMDL
