MODEL 1
REMARK minimizedAffinity 10.3801403
REMARK minimizedRMSD -1
REMARK  1 active torsions:
REMARK  status: ('A' for Active; 'I' for Inactive)
REMARK    1  A    between atoms: C1_2  and  C2_3 
ROOT
ATOM      1  C2  UNL d   1      -2.245   5.331  -0.136  0.00  0.00    -0.081 A 
ATOM      2  C3  UNL d   1      -1.835   5.938  -1.330  0.00  0.00     0.006 A 
ATOM      3  C4  UNL d   1      -0.905   5.309  -2.161  0.00  0.00     0.002 A 
ATOM      4  C5  UNL d   1      -0.376   4.060  -1.817  0.00  0.00    -0.080 A 
ATOM      5  C6  UNL d   1       0.601   3.361  -2.715  0.00  0.00     0.076 C 
ATOM      6  C7  UNL d   1      -0.772   3.462  -0.616  0.00  0.00     0.002 A 
ATOM      7  C8  UNL d   1      -1.702   4.091   0.216  0.00  0.00     0.006 A 
ENDROOT
BRANCH   1   8
ATOM      8  C1  UNL d   1      -3.297   5.977   0.730  0.00  0.00     0.054 C 
ATOM      9  C   UNL d   1      -2.872   5.998   2.191  0.00  0.00     0.018 C 
ENDBRANCH   1   8
TORSDOF 1
ENDMDL
