MODEL 1
REMARK minimizedAffinity -2.25213003
REMARK minimizedRMSD -1
REMARK  0 active torsions:
REMARK  status: ('A' for Active; 'I' for Inactive)
ROOT
ATOM      1  C   UNL d   1      -2.910   1.501   1.132  0.00  0.00    -0.002 A 
ATOM      2  C1  UNL d   1      -3.666   0.863   2.106  0.00  0.00     0.010 A 
ATOM      3  C2  UNL d   1      -4.647  -0.065   1.750  0.00  0.00     0.041 A 
ATOM      4  C3  UNL d   1      -4.855  -0.346   0.385  0.00  0.00    -0.075 A 
ATOM      5  S   UNL d   1      -6.000  -1.447  -0.286  0.00  0.00     0.015 SA
ATOM      6  C4  UNL d   1      -5.512  -1.098  -1.882  0.00  0.00     0.022 A 
ATOM      7  C5  UNL d   1      -4.502  -0.166  -1.920  0.00  0.00     0.026 A 
ATOM      8  C6  UNL d   1      -4.106   0.283  -0.614  0.00  0.00    -0.082 A 
ATOM      9  C7  UNL d   1      -3.120   1.219  -0.221  0.00  0.00     0.045 A 
ENDROOT
TORSDOF 0
ENDMDL
