MODEL 1
REMARK minimizedAffinity -1.83099675
REMARK minimizedRMSD -1
REMARK  0 active torsions:
REMARK  status: ('A' for Active; 'I' for Inactive)
ROOT
ATOM      1  C   UNL d   1       1.136  -2.102  -0.030  0.00  0.00    -0.002 A 
ATOM      2  C1  UNL d   1       0.034  -1.263  -0.120  0.00  0.00     0.010 A 
ATOM      3  C2  UNL d   1       0.200   0.114  -0.278  0.00  0.00     0.041 A 
ATOM      4  C3  UNL d   1       1.505   0.640  -0.346  0.00  0.00    -0.075 A 
ATOM      5  S   UNL d   1       1.951   2.294  -0.539  0.00  0.00     0.015 SA
ATOM      6  C4  UNL d   1       3.615   1.927  -0.507  0.00  0.00     0.022 A 
ATOM      7  C5  UNL d   1       3.843   0.580  -0.354  0.00  0.00     0.026 A 
ATOM      8  C6  UNL d   1       2.631  -0.184  -0.259  0.00  0.00    -0.082 A 
ATOM      9  C7  UNL d   1       2.430  -1.576  -0.098  0.00  0.00     0.045 A 
ENDROOT
TORSDOF 0
ENDMDL
