MODEL 1
REMARK minimizedAffinity -3.73078203
REMARK minimizedRMSD -1
REMARK  0 active torsions:
REMARK  status: ('A' for Active; 'I' for Inactive)
ROOT
ATOM      1  C   UNL d   1      -0.315   1.754  -1.051  0.00  0.00    -0.002 A 
ATOM      2  C1  UNL d   1       0.768   2.133  -0.271  0.00  0.00     0.010 A 
ATOM      3  C2  UNL d   1       1.659   1.177   0.220  0.00  0.00     0.041 A 
ATOM      4  C3  UNL d   1       1.441  -0.180  -0.090  0.00  0.00    -0.075 A 
ATOM      5  S   UNL d   1       2.402  -1.525   0.400  0.00  0.00     0.015 SA
ATOM      6  C4  UNL d   1       1.397  -2.635  -0.414  0.00  0.00     0.022 A 
ATOM      7  C5  UNL d   1       0.349  -2.011  -1.050  0.00  0.00     0.026 A 
ATOM      8  C6  UNL d   1       0.358  -0.586  -0.874  0.00  0.00    -0.082 A 
ATOM      9  C7  UNL d   1      -0.528   0.407  -1.356  0.00  0.00     0.045 A 
ENDROOT
TORSDOF 0
ENDMDL
