MODEL 1
REMARK minimizedAffinity -2.34466529
REMARK minimizedRMSD -1
REMARK  0 active torsions:
REMARK  status: ('A' for Active; 'I' for Inactive)
ROOT
ATOM      1  C   UNL d   1       2.493  -1.777   0.933  0.00  0.00    -0.002 A 
ATOM      2  C1  UNL d   1       1.547  -2.500   0.218  0.00  0.00     0.010 A 
ATOM      3  C2  UNL d   1       0.461  -1.855  -0.375  0.00  0.00     0.041 A 
ATOM      4  C3  UNL d   1       0.340  -0.458  -0.240  0.00  0.00    -0.075 A 
ATOM      5  S   UNL d   1      -0.906   0.545  -0.882  0.00  0.00     0.015 SA
ATOM      6  C4  UNL d   1      -0.213   1.956  -0.224  0.00  0.00     0.022 A 
ATOM      7  C5  UNL d   1       0.942   1.687   0.471  0.00  0.00     0.026 A 
ATOM      8  C6  UNL d   1       1.280   0.292   0.474  0.00  0.00    -0.082 A 
ATOM      9  C7  UNL d   1       2.370  -0.392   1.065  0.00  0.00     0.045 A 
ENDROOT
TORSDOF 0
ENDMDL
