MODEL 1
REMARK minimizedAffinity 16.2830067
REMARK minimizedRMSD -1
REMARK  0 active torsions:
REMARK  status: ('A' for Active; 'I' for Inactive)
ROOT
ATOM      1  C1  DEN d   1       0.355   2.303  -5.597  0.00  0.00     0.130 A 
ATOM      2  C2  DEN d   1      -0.614   1.292  -5.184  0.00  0.00    -0.031 A 
ATOM      3  C3  DEN d   1      -1.923   1.955  -5.020  0.00  0.00     0.027 A 
ATOM      4  C4  DEN d   1      -2.541   4.435  -5.369  0.00  0.00     0.027 A 
ATOM      5  C5  DEN d   1      -2.052   5.677  -5.708  0.00  0.00    -0.003 A 
ATOM      6  C6  DEN d   1      -0.730   5.886  -5.999  0.00  0.00     0.001 A 
ATOM      7  C7  DEN d   1       0.141   4.828  -6.000  0.00  0.00     0.017 A 
ATOM      8  C8  DEN d   1      -0.344   3.574  -5.651  0.00  0.00    -0.094 A 
ATOM      9  C9  DEN d   1      -1.686   3.381  -5.373  0.00  0.00    -0.072 A 
ENDROOT
TORSDOF 0
ENDMDL
