MODEL 1
REMARK minimizedAffinity 4.75780249
REMARK minimizedRMSD -1
REMARK  0 active torsions:
REMARK  status: ('A' for Active; 'I' for Inactive)
ROOT
ATOM      1  C1  DEN d   1      -3.383  -2.997  -1.488  0.00  0.00     0.130 A 
ATOM      2  C2  DEN d   1      -3.540  -4.449  -1.487  0.00  0.00    -0.031 A 
ATOM      3  C3  DEN d   1      -2.670  -5.002  -0.429  0.00  0.00     0.027 A 
ATOM      4  C4  DEN d   1      -1.108  -3.756   1.202  0.00  0.00     0.027 A 
ATOM      5  C5  DEN d   1      -0.631  -2.519   1.575  0.00  0.00    -0.003 A 
ATOM      6  C6  DEN d   1      -1.008  -1.367   0.937  0.00  0.00     0.001 A 
ATOM      7  C7  DEN d   1      -1.924  -1.425  -0.080  0.00  0.00     0.017 A 
ATOM      8  C8  DEN d   1      -2.404  -2.669  -0.467  0.00  0.00    -0.094 A 
ATOM      9  C9  DEN d   1      -2.019  -3.820   0.199  0.00  0.00    -0.072 A 
ENDROOT
TORSDOF 0
ENDMDL
