MODEL 1
REMARK minimizedAffinity 0.564170599
REMARK minimizedRMSD -1
REMARK  0 active torsions:
REMARK  status: ('A' for Active; 'I' for Inactive)
ROOT
ATOM      1  C1  DEN d   1      -5.891   2.451  -0.656  0.00  0.00     0.130 A 
ATOM      2  C2  DEN d   1      -5.956   3.023   0.686  0.00  0.00    -0.031 A 
ATOM      3  C3  DEN d   1      -5.999   4.493   0.555  0.00  0.00     0.027 A 
ATOM      4  C4  DEN d   1      -5.977   5.932  -1.585  0.00  0.00     0.027 A 
ATOM      5  C5  DEN d   1      -5.917   5.897  -2.961  0.00  0.00    -0.003 A 
ATOM      6  C6  DEN d   1      -5.811   4.723  -3.657  0.00  0.00     0.001 A 
ATOM      7  C7  DEN d   1      -5.807   3.531  -2.982  0.00  0.00     0.017 A 
ATOM      8  C8  DEN d   1      -5.859   3.558  -1.594  0.00  0.00    -0.094 A 
ATOM      9  C9  DEN d   1      -5.979   4.755  -0.909  0.00  0.00    -0.072 A 
ENDROOT
TORSDOF 0
ENDMDL
