MODEL 1
REMARK minimizedAffinity 5.13418865
REMARK minimizedRMSD -1
REMARK  0 active torsions:
REMARK  status: ('A' for Active; 'I' for Inactive)
ROOT
ATOM      1  C1  DEN d   1       2.254   5.642  -5.950  0.00  0.00     0.130 A 
ATOM      2  C2  DEN d   1       1.370   4.480  -5.975  0.00  0.00    -0.031 A 
ATOM      3  C3  DEN d   1       2.211   3.266  -5.995  0.00  0.00     0.027 A 
ATOM      4  C4  DEN d   1       4.784   3.075  -5.984  0.00  0.00     0.027 A 
ATOM      5  C5  DEN d   1       5.962   3.788  -5.977  0.00  0.00    -0.003 A 
ATOM      6  C6  DEN d   1       5.987   5.158  -5.995  0.00  0.00     0.001 A 
ATOM      7  C7  DEN d   1       4.810   5.859  -5.975  0.00  0.00     0.017 A 
ATOM      8  C8  DEN d   1       3.618   5.147  -5.989  0.00  0.00    -0.094 A 
ATOM      9  C9  DEN d   1       3.614   3.763  -5.959  0.00  0.00    -0.072 A 
ENDROOT
TORSDOF 0
ENDMDL
