MODEL 1
REMARK minimizedAffinity 13.4791203
REMARK minimizedRMSD -1
REMARK  0 active torsions:
REMARK  status: ('A' for Active; 'I' for Inactive)
ROOT
ATOM      1  C1  DEN d   1       4.580   3.621   2.031  0.00  0.00     0.130 A 
ATOM      2  C2  DEN d   1       4.324   4.845   2.785  0.00  0.00    -0.031 A 
ATOM      3  C3  DEN d   1       4.681   5.992   1.926  0.00  0.00     0.027 A 
ATOM      4  C4  DEN d   1       5.595   5.991  -0.486  0.00  0.00     0.027 A 
ATOM      5  C5  DEN d   1       5.987   5.193  -1.537  0.00  0.00    -0.003 A 
ATOM      6  C6  DEN d   1       5.969   3.825  -1.462  0.00  0.00     0.001 A 
ATOM      7  C7  DEN d   1       5.509   3.214  -0.325  0.00  0.00     0.017 A 
ATOM      8  C8  DEN d   1       5.119   4.013   0.742  0.00  0.00    -0.094 A 
ATOM      9  C9  DEN d   1       5.132   5.393   0.641  0.00  0.00    -0.072 A 
ENDROOT
TORSDOF 0
ENDMDL
