MODEL 1
REMARK minimizedAffinity -1.02955723
REMARK minimizedRMSD -1
REMARK  0 active torsions:
REMARK  status: ('A' for Active; 'I' for Inactive)
ROOT
ATOM      1  C1  DEN d   1      -2.940  -3.141  -2.414  0.00  0.00     0.130 A 
ATOM      2  C2  DEN d   1      -3.083  -4.575  -2.645  0.00  0.00    -0.031 A 
ATOM      3  C3  DEN d   1      -2.849  -5.270  -1.364  0.00  0.00     0.027 A 
ATOM      4  C4  DEN d   1      -2.287  -4.269   0.946  0.00  0.00     0.027 A 
ATOM      5  C5  DEN d   1      -2.051  -3.100   1.635  0.00  0.00    -0.003 A 
ATOM      6  C6  DEN d   1      -2.060  -1.876   1.022  0.00  0.00     0.001 A 
ATOM      7  C7  DEN d   1      -2.357  -1.788  -0.313  0.00  0.00     0.017 A 
ATOM      8  C8  DEN d   1      -2.589  -2.963  -1.016  0.00  0.00    -0.094 A 
ATOM      9  C9  DEN d   1      -2.587  -4.190  -0.375  0.00  0.00    -0.072 A 
ENDROOT
TORSDOF 0
ENDMDL
