MODEL 1
REMARK minimizedAffinity 13.7701283
REMARK minimizedRMSD -1
REMARK  0 active torsions:
REMARK  status: ('A' for Active; 'I' for Inactive)
ROOT
ATOM      1  C1  DEN d   1       6.000   2.632  -0.846  0.00  0.00     0.130 A 
ATOM      2  C2  DEN d   1       5.477   3.407  -1.968  0.00  0.00    -0.031 A 
ATOM      3  C3  DEN d   1       4.875   4.643  -1.427  0.00  0.00     0.027 A 
ATOM      4  C4  DEN d   1       4.709   5.429   1.024  0.00  0.00     0.027 A 
ATOM      5  C5  DEN d   1       5.000   5.102   2.330  0.00  0.00    -0.003 A 
ATOM      6  C6  DEN d   1       5.609   3.923   2.669  0.00  0.00     0.001 A 
ATOM      7  C7  DEN d   1       5.988   3.048   1.686  0.00  0.00     0.017 A 
ATOM      8  C8  DEN d   1       5.691   3.367   0.367  0.00  0.00    -0.094 A 
ATOM      9  C9  DEN d   1       5.086   4.569   0.044  0.00  0.00    -0.072 A 
ENDROOT
TORSDOF 0
ENDMDL
