MODEL 1
REMARK minimizedAffinity -2.777004
REMARK minimizedRMSD -1
REMARK  0 active torsions:
REMARK  status: ('A' for Active; 'I' for Inactive)
ROOT
ATOM      1  C1  DEN d   1      -5.732   5.634  -3.795  0.00  0.00     0.130 A 
ATOM      2  C2  DEN d   1      -5.554   5.999  -5.198  0.00  0.00    -0.031 A 
ATOM      3  C3  DEN d   1      -5.537   4.756  -5.995  0.00  0.00     0.027 A 
ATOM      4  C4  DEN d   1      -5.772   2.314  -5.197  0.00  0.00     0.027 A 
ATOM      5  C5  DEN d   1      -5.931   1.504  -4.095  0.00  0.00    -0.003 A 
ATOM      6  C6  DEN d   1      -6.000   2.007  -2.823  0.00  0.00     0.001 A 
ATOM      7  C7  DEN d   1      -5.955   3.361  -2.625  0.00  0.00     0.017 A 
ATOM      8  C8  DEN d   1      -5.788   4.185  -3.731  0.00  0.00    -0.094 A 
ATOM      9  C9  DEN d   1      -5.732   3.658  -5.010  0.00  0.00    -0.072 A 
ENDROOT
TORSDOF 0
ENDMDL
