MODEL 1
REMARK minimizedAffinity 5.65915585
REMARK minimizedRMSD -1
REMARK  0 active torsions:
REMARK  status: ('A' for Active; 'I' for Inactive)
ROOT
ATOM      1  C1  DEN d   1      -1.973   3.069   3.751  0.00  0.00     0.130 A 
ATOM      2  C2  DEN d   1      -0.883   3.450   4.645  0.00  0.00    -0.031 A 
ATOM      3  C3  DEN d   1       0.374   2.916   4.086  0.00  0.00     0.027 A 
ATOM      4  C4  DEN d   1       0.739   1.546   1.931  0.00  0.00     0.027 A 
ATOM      5  C5  DEN d   1       0.113   0.967   0.850  0.00  0.00    -0.003 A 
ATOM      6  C6  DEN d   1      -1.245   1.018   0.679  0.00  0.00     0.001 A 
ATOM      7  C7  DEN d   1      -2.018   1.701   1.581  0.00  0.00     0.017 A 
ATOM      8  C8  DEN d   1      -1.394   2.282   2.678  0.00  0.00    -0.094 A 
ATOM      9  C9  DEN d   1      -0.019   2.230   2.826  0.00  0.00    -0.072 A 
ENDROOT
TORSDOF 0
ENDMDL
