MODEL 1
REMARK minimizedAffinity 9.13322735
REMARK minimizedRMSD -1
REMARK  0 active torsions:
REMARK  status: ('A' for Active; 'I' for Inactive)
ROOT
ATOM      1  C1  DEN d   1       3.006   1.610  -4.977  0.00  0.00     0.130 A 
ATOM      2  C2  DEN d   1       3.844   2.609  -5.635  0.00  0.00    -0.031 A 
ATOM      3  C3  DEN d   1       2.988   3.757  -5.995  0.00  0.00     0.027 A 
ATOM      4  C4  DEN d   1       0.461   4.087  -5.596  0.00  0.00     0.027 A 
ATOM      5  C5  DEN d   1      -0.679   3.508  -5.084  0.00  0.00    -0.003 A 
ATOM      6  C6  DEN d   1      -0.678   2.253  -4.536  0.00  0.00     0.001 A 
ATOM      7  C7  DEN d   1       0.496   1.552  -4.446  0.00  0.00     0.017 A 
ATOM      8  C8  DEN d   1       1.649   2.126  -4.966  0.00  0.00    -0.094 A 
ATOM      9  C9  DEN d   1       1.629   3.401  -5.505  0.00  0.00    -0.072 A 
ENDROOT
TORSDOF 0
ENDMDL
