MODEL 1
REMARK minimizedAffinity 21.2346878
REMARK minimizedRMSD -1
REMARK  0 active torsions:
REMARK  status: ('A' for Active; 'I' for Inactive)
ROOT
ATOM      1  C1  DEN d   1      -3.326  -1.602   1.283  0.00  0.00     0.130 A 
ATOM      2  C2  DEN d   1      -2.388  -1.761   2.391  0.00  0.00    -0.031 A 
ATOM      3  C3  DEN d   1      -1.889  -3.151   2.371  0.00  0.00     0.027 A 
ATOM      4  C4  DEN d   1      -2.471  -5.060   0.737  0.00  0.00     0.027 A 
ATOM      5  C5  DEN d   1      -3.227  -5.407  -0.361  0.00  0.00    -0.003 A 
ATOM      6  C6  DEN d   1      -4.088  -4.527  -0.962  0.00  0.00     0.001 A 
ATOM      7  C7  DEN d   1      -4.180  -3.242  -0.496  0.00  0.00     0.017 A 
ATOM      8  C8  DEN d   1      -3.426  -2.887   0.615  0.00  0.00    -0.094 A 
ATOM      9  C9  DEN d   1      -2.552  -3.787   1.201  0.00  0.00    -0.072 A 
ENDROOT
TORSDOF 0
ENDMDL
