MODEL 1
REMARK minimizedAffinity 12.421937
REMARK minimizedRMSD -1
REMARK  0 active torsions:
REMARK  status: ('A' for Active; 'I' for Inactive)
ROOT
ATOM      1  C1  DEN d   1      -1.351  -3.759   3.196  0.00  0.00     0.130 A 
ATOM      2  C2  DEN d   1      -0.979  -3.884   1.790  0.00  0.00    -0.031 A 
ATOM      3  C3  DEN d   1      -1.813  -2.946   1.012  0.00  0.00     0.027 A 
ATOM      4  C4  DEN d   1      -3.630  -1.317   1.844  0.00  0.00     0.027 A 
ATOM      5  C5  DEN d   1      -4.307  -0.861   2.955  0.00  0.00    -0.003 A 
ATOM      6  C6  DEN d   1      -4.071  -1.360   4.208  0.00  0.00     0.001 A 
ATOM      7  C7  DEN d   1      -3.103  -2.313   4.389  0.00  0.00     0.017 A 
ATOM      8  C8  DEN d   1      -2.422  -2.782   3.273  0.00  0.00    -0.094 A 
ATOM      9  C9  DEN d   1      -2.666  -2.256   2.016  0.00  0.00    -0.072 A 
ENDROOT
TORSDOF 0
ENDMDL
