MODEL 1
REMARK minimizedAffinity 5.45145035
REMARK minimizedRMSD -1
REMARK  0 active torsions:
REMARK  status: ('A' for Active; 'I' for Inactive)
ROOT
ATOM      1  C1  DEN d   1       0.875   0.262   1.358  0.00  0.00     0.130 A 
ATOM      2  C2  DEN d   1       1.031   1.375   0.425  0.00  0.00    -0.031 A 
ATOM      3  C3  DEN d   1      -0.257   1.571  -0.271  0.00  0.00     0.027 A 
ATOM      4  C4  DEN d   1      -2.467   0.270   0.007  0.00  0.00     0.027 A 
ATOM      5  C5  DEN d   1      -3.082  -0.767   0.672  0.00  0.00    -0.003 A 
ATOM      6  C6  DEN d   1      -2.418  -1.549   1.580  0.00  0.00     0.001 A 
ATOM      7  C7  DEN d   1      -1.110  -1.278   1.881  0.00  0.00     0.017 A 
ATOM      8  C8  DEN d   1      -0.480  -0.238   1.209  0.00  0.00    -0.094 A 
ATOM      9  C9  DEN d   1      -1.172   0.549   0.304  0.00  0.00    -0.072 A 
ENDROOT
TORSDOF 0
ENDMDL
