MODEL 1
REMARK minimizedAffinity 3.75851035
REMARK minimizedRMSD -1
REMARK  1 active torsions:
REMARK  status: ('A' for Active; 'I' for Inactive)
REMARK    1  A    between atoms: C1_2  and  C2_3 
ROOT
ATOM      1  C2  UNL d   1       0.369   1.652  -0.555  0.00  0.00    -0.077 A 
ATOM      2  C3  UNL d   1      -0.998   1.957  -0.506  0.00  0.00     0.002 A 
ATOM      3  C4  UNL d   1      -1.554   2.529   0.639  0.00  0.00     0.002 A 
ATOM      4  C5  UNL d   1      -0.749   2.806   1.743  0.00  0.00    -0.004 A 
ATOM      5  C6  UNL d   1       0.611   2.504   1.705  0.00  0.00     0.002 A 
ATOM      6  C7  UNL d   1       1.169   1.931   0.562  0.00  0.00     0.002 A 
ENDROOT
BRANCH   1   7
ATOM      7  C1  UNL d   1       0.980   1.080  -1.807  0.00  0.00     0.055 C 
ATOM      8  C   UNL d   1       2.463   0.794  -1.619  0.00  0.00     0.019 C 
ENDBRANCH   1   7
TORSDOF 1
ENDMDL
