MODEL 1
REMARK minimizedAffinity 9.13327026
REMARK minimizedRMSD -1
REMARK  1 active torsions:
REMARK  status: ('A' for Active; 'I' for Inactive)
REMARK    1  A    between atoms: C1_2  and  C2_3 
ROOT
ATOM      1  C2  UNL d   1       2.199   2.147  -4.327  0.00  0.00    -0.077 A 
ATOM      2  C3  UNL d   1       2.127   3.363  -3.634  0.00  0.00     0.002 A 
ATOM      3  C4  UNL d   1       1.359   3.469  -2.473  0.00  0.00     0.002 A 
ATOM      4  C5  UNL d   1       0.661   2.363  -1.993  0.00  0.00    -0.004 A 
ATOM      5  C6  UNL d   1       0.725   1.150  -2.677  0.00  0.00     0.002 A 
ATOM      6  C7  UNL d   1       1.491   1.042  -3.838  0.00  0.00     0.002 A 
ENDROOT
BRANCH   1   7
ATOM      7  C1  UNL d   1       3.067   2.017  -5.552  0.00  0.00     0.055 C 
ATOM      8  C   UNL d   1       4.473   1.564  -5.189  0.00  0.00     0.019 C 
ENDBRANCH   1   7
TORSDOF 1
ENDMDL
