MODEL 1
REMARK minimizedAffinity 6.12676048
REMARK minimizedRMSD -1
REMARK  1 active torsions:
REMARK  status: ('A' for Active; 'I' for Inactive)
REMARK    1  A    between atoms: C1_2  and  C2_3 
ROOT
ATOM      1  C2  UNL d   1       1.530   2.461  -0.269  0.00  0.00    -0.077 A 
ATOM      2  C3  UNL d   1       2.099   1.820   0.840  0.00  0.00     0.002 A 
ATOM      3  C4  UNL d   1       2.719   2.565   1.845  0.00  0.00     0.002 A 
ATOM      4  C5  UNL d   1       2.772   3.954   1.753  0.00  0.00    -0.004 A 
ATOM      5  C6  UNL d   1       2.211   4.601   0.653  0.00  0.00     0.002 A 
ATOM      6  C7  UNL d   1       1.591   3.858  -0.353  0.00  0.00     0.002 A 
ENDROOT
BRANCH   1   7
ATOM      7  C1  UNL d   1       0.817   1.663  -1.330  0.00  0.00     0.055 C 
ATOM      8  C   UNL d   1       1.799   1.064  -2.326  0.00  0.00     0.019 C 
ENDBRANCH   1   7
TORSDOF 1
ENDMDL
