MODEL 1
REMARK minimizedAffinity -0.549776971
REMARK minimizedRMSD -1
REMARK  1 active torsions:
REMARK  status: ('A' for Active; 'I' for Inactive)
REMARK    1  A    between atoms: C1_2  and  C2_3 
ROOT
ATOM      1  C2  UNL d   1       2.355  -0.202  -1.695  0.00  0.00    -0.077 A 
ATOM      2  C3  UNL d   1       1.371  -1.084  -2.165  0.00  0.00     0.002 A 
ATOM      3  C4  UNL d   1       1.055  -2.238  -1.446  0.00  0.00     0.002 A 
ATOM      4  C5  UNL d   1       1.714  -2.519  -0.251  0.00  0.00    -0.004 A 
ATOM      5  C6  UNL d   1       2.695  -1.649   0.224  0.00  0.00     0.002 A 
ATOM      6  C7  UNL d   1       3.013  -0.496  -0.494  0.00  0.00     0.002 A 
ENDROOT
BRANCH   1   7
ATOM      7  C1  UNL d   1       2.663   1.068  -2.444  0.00  0.00     0.055 C 
ATOM      8  C   UNL d   1       1.435   1.591  -3.175  0.00  0.00     0.019 C 
ENDBRANCH   1   7
TORSDOF 1
ENDMDL
