MODEL 1
REMARK minimizedAffinity -0.227527142
REMARK minimizedRMSD -1
REMARK  1 active torsions:
REMARK  status: ('A' for Active; 'I' for Inactive)
REMARK    1  A    between atoms: C1_2  and  C2_3 
ROOT
ATOM      1  C2  UNL d   1       5.687  -2.143   4.250  0.00  0.00    -0.077 A 
ATOM      2  C3  UNL d   1       5.905  -3.152   3.302  0.00  0.00     0.002 A 
ATOM      3  C4  UNL d   1       6.000  -4.487   3.701  0.00  0.00     0.002 A 
ATOM      4  C5  UNL d   1       5.873  -4.824   5.047  0.00  0.00    -0.004 A 
ATOM      5  C6  UNL d   1       5.659  -3.827   5.997  0.00  0.00     0.002 A 
ATOM      6  C7  UNL d   1       5.565  -2.492   5.600  0.00  0.00     0.002 A 
ENDROOT
BRANCH   1   7
ATOM      7  C1  UNL d   1       5.536  -0.708   3.816  0.00  0.00     0.055 C 
ATOM      8  C   UNL d   1       4.117  -0.417   3.350  0.00  0.00     0.019 C 
ENDBRANCH   1   7
TORSDOF 1
ENDMDL
