MODEL 1
REMARK minimizedAffinity 0.567475438
REMARK minimizedRMSD -1
REMARK  1 active torsions:
REMARK  status: ('A' for Active; 'I' for Inactive)
REMARK    1  A    between atoms: C1_2  and  C2_3 
ROOT
ATOM      1  C2  UNL d   1       0.296   2.565   1.052  0.00  0.00    -0.077 A 
ATOM      2  C3  UNL d   1      -0.394   3.772   0.877  0.00  0.00     0.002 A 
ATOM      3  C4  UNL d   1      -0.764   4.196  -0.401  0.00  0.00     0.002 A 
ATOM      4  C5  UNL d   1      -0.452   3.416  -1.513  0.00  0.00    -0.004 A 
ATOM      5  C6  UNL d   1       0.236   2.215  -1.349  0.00  0.00     0.002 A 
ATOM      6  C7  UNL d   1       0.607   1.790  -0.073  0.00  0.00     0.002 A 
ENDROOT
BRANCH   1   7
ATOM      7  C1  UNL d   1       0.652   2.082   2.434  0.00  0.00     0.055 C 
ATOM      8  C   UNL d   1       2.126   1.717   2.530  0.00  0.00     0.019 C 
ENDBRANCH   1   7
TORSDOF 1
ENDMDL
