MODEL 1
REMARK minimizedAffinity 9.42900562
REMARK minimizedRMSD -1
REMARK  1 active torsions:
REMARK  status: ('A' for Active; 'I' for Inactive)
REMARK    1  A    between atoms: C1_2  and  C2_3 
ROOT
ATOM      1  C2  UNL d   1       0.985   1.678  -0.965  0.00  0.00    -0.077 A 
ATOM      2  C3  UNL d   1      -0.369   2.023  -0.850  0.00  0.00     0.002 A 
ATOM      3  C4  UNL d   1      -0.871   2.521   0.354  0.00  0.00     0.002 A 
ATOM      4  C5  UNL d   1      -0.026   2.682   1.450  0.00  0.00    -0.004 A 
ATOM      5  C6  UNL d   1       1.322   2.340   1.346  0.00  0.00     0.002 A 
ATOM      6  C7  UNL d   1       1.825   1.841   0.143  0.00  0.00     0.002 A 
ENDROOT
BRANCH   1   7
ATOM      7  C1  UNL d   1       1.539   1.188  -2.278  0.00  0.00     0.055 C 
ATOM      8  C   UNL d   1       2.356  -0.083  -2.093  0.00  0.00     0.019 C 
ENDBRANCH   1   7
TORSDOF 1
ENDMDL
