MODEL 1
REMARK minimizedAffinity 8.99455833
REMARK minimizedRMSD -1
REMARK  1 active torsions:
REMARK  status: ('A' for Active; 'I' for Inactive)
REMARK    1  A    between atoms: C1_2  and  C2_3 
ROOT
ATOM      1  C2  UNL d   1       0.526   1.943  -0.151  0.00  0.00    -0.077 A 
ATOM      2  C3  UNL d   1       1.821   2.035   0.379  0.00  0.00     0.002 A 
ATOM      3  C4  UNL d   1       2.019   2.492   1.683  0.00  0.00     0.002 A 
ATOM      4  C5  UNL d   1       0.928   2.856   2.470  0.00  0.00    -0.004 A 
ATOM      5  C6  UNL d   1      -0.363   2.769   1.952  0.00  0.00     0.002 A 
ATOM      6  C7  UNL d   1      -0.564   2.314   0.648  0.00  0.00     0.002 A 
ENDROOT
BRANCH   1   7
ATOM      7  C1  UNL d   1       0.306   1.404  -1.540  0.00  0.00     0.055 C 
ATOM      8  C   UNL d   1       1.305   0.305  -1.872  0.00  0.00     0.019 C 
ENDBRANCH   1   7
TORSDOF 1
ENDMDL
