MODEL 1
REMARK minimizedAffinity -0.182218418
REMARK minimizedRMSD -1
REMARK  1 active torsions:
REMARK  status: ('A' for Active; 'I' for Inactive)
REMARK    1  A    between atoms: C1_2  and  C2_3 
ROOT
ATOM      1  C2  UNL d   1       1.168   1.369  -0.519  0.00  0.00    -0.077 A 
ATOM      2  C3  UNL d   1       1.667   1.780   0.725  0.00  0.00     0.002 A 
ATOM      3  C4  UNL d   1       0.835   2.424   1.642  0.00  0.00     0.002 A 
ATOM      4  C5  UNL d   1      -0.502   2.659   1.327  0.00  0.00    -0.004 A 
ATOM      5  C6  UNL d   1      -1.008   2.256   0.092  0.00  0.00     0.002 A 
ATOM      6  C7  UNL d   1      -0.177   1.613  -0.827  0.00  0.00     0.002 A 
ENDROOT
BRANCH   1   7
ATOM      7  C1  UNL d   1       2.051   0.630  -1.490  0.00  0.00     0.055 C 
ATOM      8  C   UNL d   1       1.598  -0.813  -1.663  0.00  0.00     0.019 C 
ENDBRANCH   1   7
TORSDOF 1
ENDMDL
