MODEL 1
REMARK minimizedAffinity -5.4221797
REMARK minimizedRMSD -1
REMARK  3 active torsions:
REMARK  status: ('A' for Active; 'I' for Inactive)
REMARK    1  A    between atoms: C3'_2  and  C2'_3 
REMARK    2  A    between atoms: C2'_3  and  C1'_4 
REMARK    3  A    between atoms: C1'_4  and  C1_5 
ROOT
ATOM      1  C1  N4B d   1      -0.269   0.920   0.439  0.00  0.00    -0.075 A 
ATOM      2  C2  N4B d   1      -1.039   2.102   0.503  0.00  0.00     0.002 A 
ATOM      3  C3  N4B d   1      -0.424   3.327   0.411  0.00  0.00     0.002 A 
ATOM      4  C4  N4B d   1       0.954   3.394   0.275  0.00  0.00    -0.004 A 
ATOM      5  C5  N4B d   1       1.687   2.247   0.189  0.00  0.00     0.002 A 
ATOM      6  C6  N4B d   1       1.083   1.009   0.276  0.00  0.00     0.002 A 
ENDROOT
BRANCH   1   7
ATOM      7  C1' N4B d   1      -0.887  -0.440   0.621  0.00  0.00     0.057 C 
BRANCH   7   8
ATOM      8  C2' N4B d   1       0.101  -1.505   0.154  0.00  0.00     0.009 C 
BRANCH   8   9
ATOM      9  C3' N4B d   1      -0.600  -2.685  -0.494  0.00  0.00     0.004 C 
ATOM     10  C4' N4B d   1      -0.023  -3.041  -1.832  0.00  0.00     0.003 C 
ENDBRANCH   8   9
ENDBRANCH   7   8
ENDBRANCH   1   7
TORSDOF 3
ENDMDL
