MODEL 1
REMARK minimizedAffinity -5.40085459
REMARK minimizedRMSD -1
REMARK  3 active torsions:
REMARK  status: ('A' for Active; 'I' for Inactive)
REMARK    1  A    between atoms: C3'_2  and  C2'_3 
REMARK    2  A    between atoms: C2'_3  and  C1'_4 
REMARK    3  A    between atoms: C1'_4  and  C1_5 
ROOT
ATOM      1  C1  N4B d   1       0.548   0.252   0.298  0.00  0.00    -0.075 A 
ATOM      2  C2  N4B d   1       1.685   1.066   0.102  0.00  0.00     0.002 A 
ATOM      3  C3  N4B d   1       1.606   2.419   0.322  0.00  0.00     0.002 A 
ATOM      4  C4  N4B d   1       0.402   2.981   0.716  0.00  0.00    -0.004 A 
ATOM      5  C5  N4B d   1      -0.686   2.185   0.927  0.00  0.00     0.002 A 
ATOM      6  C6  N4B d   1      -0.620   0.823   0.715  0.00  0.00     0.002 A 
ENDROOT
BRANCH   1   7
ATOM      7  C1' N4B d   1       0.562  -1.220  -0.012  0.00  0.00     0.057 C 
BRANCH   7   8
ATOM      8  C2' N4B d   1      -0.846  -1.664  -0.398  0.00  0.00     0.009 C 
BRANCH   8   9
ATOM      9  C3' N4B d   1      -0.845  -3.015  -1.093  0.00  0.00     0.004 C 
ATOM     10  C4' N4B d   1       0.174  -3.103  -2.190  0.00  0.00     0.003 C 
ENDBRANCH   8   9
ENDBRANCH   7   8
ENDBRANCH   1   7
TORSDOF 3
ENDMDL
