MODEL 1
REMARK minimizedAffinity -4.90609932
REMARK minimizedRMSD -1
REMARK  3 active torsions:
REMARK  status: ('A' for Active; 'I' for Inactive)
REMARK    1  A    between atoms: C3'_2  and  C2'_3 
REMARK    2  A    between atoms: C2'_3  and  C1'_4 
REMARK    3  A    between atoms: C1'_4  and  C1_5 
ROOT
ATOM      1  C1  N4B d   1      -0.172   0.015   0.265  0.00  0.00    -0.075 A 
ATOM      2  C2  N4B d   1      -1.504   0.133   0.717  0.00  0.00     0.002 A 
ATOM      3  C3  N4B d   1      -2.040   1.375   0.957  0.00  0.00     0.002 A 
ATOM      4  C4  N4B d   1      -1.259   2.506   0.772  0.00  0.00    -0.004 A 
ATOM      5  C5  N4B d   1       0.019   2.384   0.311  0.00  0.00     0.002 A 
ATOM      6  C6  N4B d   1       0.569   1.143   0.061  0.00  0.00     0.002 A 
ENDROOT
BRANCH   1   7
ATOM      7  C1' N4B d   1       0.485  -1.325   0.071  0.00  0.00     0.057 C 
BRANCH   7   8
ATOM      8  C2' N4B d   1      -0.512  -2.281  -0.578  0.00  0.00     0.009 C 
BRANCH   8   9
ATOM      9  C3' N4B d   1       0.030  -2.879  -1.865  0.00  0.00     0.004 C 
ATOM     10  C4' N4B d   1      -1.048  -3.449  -2.739  0.00  0.00     0.003 C 
ENDBRANCH   8   9
ENDBRANCH   7   8
ENDBRANCH   1   7
TORSDOF 3
ENDMDL
