MODEL 1
REMARK minimizedAffinity -6.93946075
REMARK minimizedRMSD -1
REMARK  3 active torsions:
REMARK  status: ('A' for Active; 'I' for Inactive)
REMARK    1  A    between atoms: C3'_2  and  C2'_3 
REMARK    2  A    between atoms: C2'_3  and  C1'_4 
REMARK    3  A    between atoms: C1'_4  and  C1_5 
ROOT
ATOM      1  C1  N4B d   1       0.282   1.216   0.194  0.00  0.00    -0.075 A 
ATOM      2  C2  N4B d   1      -0.292   2.504   0.264  0.00  0.00     0.002 A 
ATOM      3  C3  N4B d   1       0.513   3.617   0.238  0.00  0.00     0.002 A 
ATOM      4  C4  N4B d   1       1.889   3.467   0.162  0.00  0.00    -0.004 A 
ATOM      5  C5  N4B d   1       2.434   2.220   0.069  0.00  0.00     0.002 A 
ATOM      6  C6  N4B d   1       1.638   1.093   0.090  0.00  0.00     0.002 A 
ENDROOT
BRANCH   1   7
ATOM      7  C1' N4B d   1      -0.550  -0.032   0.305  0.00  0.00     0.057 C 
BRANCH   7   8
ATOM      8  C2' N4B d   1       0.327  -1.246   0.019  0.00  0.00     0.009 C 
BRANCH   8   9
ATOM      9  C3' N4B d   1      -0.460  -2.380  -0.616  0.00  0.00     0.004 C 
ATOM     10  C4' N4B d   1       0.052  -2.753  -1.975  0.00  0.00     0.003 C 
ENDBRANCH   8   9
ENDBRANCH   7   8
ENDBRANCH   1   7
TORSDOF 3
ENDMDL
