MODEL 1
REMARK minimizedAffinity -3.6768415
REMARK minimizedRMSD -1
REMARK  3 active torsions:
REMARK  status: ('A' for Active; 'I' for Inactive)
REMARK    1  A    between atoms: C3'_2  and  C2'_3 
REMARK    2  A    between atoms: C2'_3  and  C1'_4 
REMARK    3  A    between atoms: C1'_4  and  C1_5 
ROOT
ATOM      1  C1  N4B d   1       0.066  -0.204   0.367  0.00  0.00    -0.075 A 
ATOM      2  C2  N4B d   1      -1.261   0.107   0.736  0.00  0.00     0.002 A 
ATOM      3  C3  N4B d   1      -1.631   1.415   0.930  0.00  0.00     0.002 A 
ATOM      4  C4  N4B d   1      -0.690   2.423   0.781  0.00  0.00    -0.004 A 
ATOM      5  C5  N4B d   1       0.583   2.116   0.401  0.00  0.00     0.002 A 
ATOM      6  C6  N4B d   1       0.968   0.806   0.198  0.00  0.00     0.002 A 
ENDROOT
BRANCH   1   7
ATOM      7  C1' N4B d   1       0.539  -1.625   0.227  0.00  0.00     0.057 C 
BRANCH   7   8
ATOM      8  C2' N4B d   1      -0.529  -2.439  -0.498  0.00  0.00     0.009 C 
BRANCH   8   9
ATOM      9  C3' N4B d   1       0.024  -3.130  -1.732  0.00  0.00     0.004 C 
ATOM     10  C4' N4B d   1      -1.048  -3.539  -2.698  0.00  0.00     0.003 C 
ENDBRANCH   8   9
ENDBRANCH   7   8
ENDBRANCH   1   7
TORSDOF 3
ENDMDL
