MODEL 1
REMARK minimizedAffinity -6.46064377
REMARK minimizedRMSD -1
REMARK  3 active torsions:
REMARK  status: ('A' for Active; 'I' for Inactive)
REMARK    1  A    between atoms: C3'_2  and  C2'_3 
REMARK    2  A    between atoms: C2'_3  and  C1'_4 
REMARK    3  A    between atoms: C1'_4  and  C1_5 
ROOT
ATOM      1  C1  N4B d   1      -0.042   0.959   0.165  0.00  0.00    -0.075 A 
ATOM      2  C2  N4B d   1       1.173   1.608   0.473  0.00  0.00     0.002 A 
ATOM      3  C3  N4B d   1       1.256   2.978   0.409  0.00  0.00     0.002 A 
ATOM      4  C4  N4B d   1       0.146   3.714   0.023  0.00  0.00    -0.004 A 
ATOM      5  C5  N4B d   1      -1.031   3.082  -0.249  0.00  0.00     0.002 A 
ATOM      6  C6  N4B d   1      -1.130   1.706  -0.185  0.00  0.00     0.002 A 
ENDROOT
BRANCH   1   7
ATOM      7  C1' N4B d   1      -0.157  -0.540   0.137  0.00  0.00     0.057 C 
BRANCH   7   8
ATOM      8  C2' N4B d   1       0.352  -1.057  -1.205  0.00  0.00     0.009 C 
BRANCH   8   9
ATOM      9  C3' N4B d   1      -0.075  -2.493  -1.460  0.00  0.00     0.004 C 
ATOM     10  C4' N4B d   1      -0.983  -3.027  -0.393  0.00  0.00     0.003 C 
ENDBRANCH   8   9
ENDBRANCH   7   8
ENDBRANCH   1   7
TORSDOF 3
ENDMDL
