MODEL 1
REMARK minimizedAffinity -4.69914055
REMARK minimizedRMSD -1
REMARK  3 active torsions:
REMARK  status: ('A' for Active; 'I' for Inactive)
REMARK    1  A    between atoms: C3'_2  and  C2'_3 
REMARK    2  A    between atoms: C2'_3  and  C1'_4 
REMARK    3  A    between atoms: C1'_4  and  C1_5 
ROOT
ATOM      1  C1  N4B d   1       0.161  -2.468  -0.613  0.00  0.00    -0.075 A 
ATOM      2  C2  N4B d   1      -0.831  -3.160   0.116  0.00  0.00     0.002 A 
ATOM      3  C3  N4B d   1      -1.734  -3.959  -0.542  0.00  0.00     0.002 A 
ATOM      4  C4  N4B d   1      -1.677  -4.065  -1.924  0.00  0.00    -0.004 A 
ATOM      5  C5  N4B d   1      -0.700  -3.412  -2.618  0.00  0.00     0.002 A 
ATOM      6  C6  N4B d   1       0.217  -2.610  -1.969  0.00  0.00     0.002 A 
ENDROOT
BRANCH   1   7
ATOM      7  C1' N4B d   1       1.117  -1.515   0.053  0.00  0.00     0.057 C 
BRANCH   7   8
ATOM      8  C2' N4B d   1       0.662  -0.083  -0.210  0.00  0.00     0.009 C 
BRANCH   8   9
ATOM      9  C3' N4B d   1      -0.735   0.178   0.327  0.00  0.00     0.004 C 
ATOM     10  C4' N4B d   1      -1.085   1.636   0.352  0.00  0.00     0.003 C 
ENDBRANCH   8   9
ENDBRANCH   7   8
ENDBRANCH   1   7
TORSDOF 3
ENDMDL
