MODEL 1
REMARK minimizedAffinity 1.17970252
REMARK minimizedRMSD -1
REMARK  0 active torsions:
REMARK  status: ('A' for Active; 'I' for Inactive)
ROOT
ATOM      1  C   UNL d   1      -1.292   0.814  -0.588  0.00  0.00     0.077 C 
ATOM      2  C1  UNL d   1      -2.021   1.627  -1.615  0.00  0.00    -0.074 A 
ATOM      3  C2  UNL d   1      -1.836   1.393  -2.982  0.00  0.00    -0.005 A 
ATOM      4  C3  UNL d   1      -2.529   2.152  -3.925  0.00  0.00     0.006 A 
ATOM      5  C4  UNL d   1      -3.411   3.151  -3.513  0.00  0.00    -0.005 A 
ATOM      6  C5  UNL d   1      -3.609   3.399  -2.151  0.00  0.00    -0.074 A 
ATOM      7  C6  UNL d   1      -4.561   4.463  -1.691  0.00  0.00     0.077 C 
ATOM      8  C7  UNL d   1      -2.915   2.628  -1.209  0.00  0.00    -0.001 A 
ENDROOT
TORSDOF 0
ENDMDL
