MODEL 1
REMARK minimizedAffinity -2.51996231
REMARK minimizedRMSD -1
REMARK  0 active torsions:
REMARK  status: ('A' for Active; 'I' for Inactive)
ROOT
ATOM      1  C   UNL d   1       5.687  -3.106  -5.858  0.00  0.00     0.077 C 
ATOM      2  C1  UNL d   1       4.749  -4.093  -5.230  0.00  0.00    -0.074 A 
ATOM      3  C2  UNL d   1       4.128  -5.083  -5.999  0.00  0.00    -0.005 A 
ATOM      4  C3  UNL d   1       3.265  -6.000  -5.399  0.00  0.00     0.006 A 
ATOM      5  C4  UNL d   1       3.014  -5.936  -4.028  0.00  0.00    -0.005 A 
ATOM      6  C5  UNL d   1       3.627  -4.954  -3.243  0.00  0.00    -0.074 A 
ATOM      7  C6  UNL d   1       3.376  -4.878  -1.767  0.00  0.00     0.077 C 
ATOM      8  C7  UNL d   1       4.498  -4.040  -3.852  0.00  0.00    -0.001 A 
ENDROOT
TORSDOF 0
ENDMDL
