MODEL 1
REMARK minimizedAffinity 2.42557693
REMARK minimizedRMSD -1
REMARK  0 active torsions:
REMARK  status: ('A' for Active; 'I' for Inactive)
ROOT
ATOM      1  C   UNL d   1       2.409  -4.799  -0.792  0.00  0.00     0.077 C 
ATOM      2  C1  UNL d   1       1.325  -3.790  -1.031  0.00  0.00    -0.074 A 
ATOM      3  C2  UNL d   1       0.277  -4.057  -1.917  0.00  0.00    -0.005 A 
ATOM      4  C3  UNL d   1      -0.729  -3.112  -2.122  0.00  0.00     0.006 A 
ATOM      5  C4  UNL d   1      -0.696  -1.893  -1.444  0.00  0.00    -0.005 A 
ATOM      6  C5  UNL d   1       0.344  -1.609  -0.553  0.00  0.00    -0.074 A 
ATOM      7  C6  UNL d   1       0.389  -0.308   0.192  0.00  0.00     0.077 C 
ATOM      8  C7  UNL d   1       1.347  -2.566  -0.347  0.00  0.00    -0.001 A 
ENDROOT
TORSDOF 0
ENDMDL
