MODEL 1
REMARK minimizedAffinity 9.23585033
REMARK minimizedRMSD -1
REMARK  0 active torsions:
REMARK  status: ('A' for Active; 'I' for Inactive)
ROOT
ATOM      1  C   UNL d   1      -0.711  -1.495   0.405  0.00  0.00     0.077 C 
ATOM      2  C1  UNL d   1      -0.183  -0.104   0.216  0.00  0.00    -0.074 A 
ATOM      3  C2  UNL d   1      -0.988   0.903  -0.325  0.00  0.00    -0.005 A 
ATOM      4  C3  UNL d   1      -0.486   2.194  -0.486  0.00  0.00     0.006 A 
ATOM      5  C4  UNL d   1       0.825   2.491  -0.110  0.00  0.00    -0.005 A 
ATOM      6  C5  UNL d   1       1.645   1.496   0.433  0.00  0.00    -0.074 A 
ATOM      7  C6  UNL d   1       3.052   1.800   0.853  0.00  0.00     0.077 C 
ATOM      8  C7  UNL d   1       1.130   0.203   0.599  0.00  0.00    -0.001 A 
ENDROOT
TORSDOF 0
ENDMDL
