MODEL 1
REMARK minimizedAffinity 0.123383261
REMARK minimizedRMSD -1
REMARK  0 active torsions:
REMARK  status: ('A' for Active; 'I' for Inactive)
ROOT
ATOM      1  C   UNL d   1      -1.931  -1.914  -2.795  0.00  0.00     0.077 C 
ATOM      2  C1  UNL d   1      -1.342  -1.480  -1.485  0.00  0.00    -0.074 A 
ATOM      3  C2  UNL d   1      -1.035  -2.414  -0.490  0.00  0.00    -0.005 A 
ATOM      4  C3  UNL d   1      -0.479  -1.996   0.719  0.00  0.00     0.006 A 
ATOM      5  C4  UNL d   1      -0.225  -0.642   0.945  0.00  0.00    -0.005 A 
ATOM      6  C5  UNL d   1      -0.525   0.306  -0.039  0.00  0.00    -0.074 A 
ATOM      7  C6  UNL d   1      -0.250   1.763   0.184  0.00  0.00     0.077 C 
ATOM      8  C7  UNL d   1      -1.077  -0.123  -1.254  0.00  0.00    -0.001 A 
ENDROOT
TORSDOF 0
ENDMDL
