MODEL 1
REMARK minimizedAffinity 2.49086642
REMARK minimizedRMSD -1
REMARK  0 active torsions:
REMARK  status: ('A' for Active; 'I' for Inactive)
ROOT
ATOM      1  C   UNL d   1      -0.787   0.194  -0.311  0.00  0.00     0.077 C 
ATOM      2  C1  UNL d   1      -1.515   0.449  -1.598  0.00  0.00    -0.074 A 
ATOM      3  C2  UNL d   1      -1.488  -0.487  -2.636  0.00  0.00    -0.005 A 
ATOM      4  C3  UNL d   1      -2.178  -0.240  -3.823  0.00  0.00     0.006 A 
ATOM      5  C4  UNL d   1      -2.901   0.943  -3.983  0.00  0.00    -0.005 A 
ATOM      6  C5  UNL d   1      -2.939   1.890  -2.955  0.00  0.00    -0.074 A 
ATOM      7  C6  UNL d   1      -3.719   3.163  -3.107  0.00  0.00     0.077 C 
ATOM      8  C7  UNL d   1      -2.249   1.632  -1.763  0.00  0.00    -0.001 A 
ENDROOT
TORSDOF 0
ENDMDL
