MODEL 1
REMARK minimizedAffinity -1.33772516
REMARK minimizedRMSD -1
REMARK  0 active torsions:
REMARK  status: ('A' for Active; 'I' for Inactive)
ROOT
ATOM      1  C   UNL d   1       2.558   1.824   4.024  0.00  0.00     0.077 C 
ATOM      2  C1  UNL d   1       2.552   0.959   2.798  0.00  0.00    -0.074 A 
ATOM      3  C2  UNL d   1       2.769   1.509   1.530  0.00  0.00    -0.005 A 
ATOM      4  C3  UNL d   1       2.770   0.691   0.400  0.00  0.00     0.006 A 
ATOM      5  C4  UNL d   1       2.555  -0.682   0.526  0.00  0.00    -0.005 A 
ATOM      6  C5  UNL d   1       2.337  -1.249   1.786  0.00  0.00    -0.074 A 
ATOM      7  C6  UNL d   1       2.113  -2.724   1.940  0.00  0.00     0.077 C 
ATOM      8  C7  UNL d   1       2.344  -0.422   2.917  0.00  0.00    -0.001 A 
ENDROOT
TORSDOF 0
ENDMDL
