MODEL 1
REMARK minimizedAffinity -4.46319199
REMARK minimizedRMSD -1
REMARK  0 active torsions:
REMARK  status: ('A' for Active; 'I' for Inactive)
ROOT
ATOM      1  C   UNL d   1      -1.170   1.127   2.161  0.00  0.00     0.023 A 
ATOM      2  C1  UNL d   1      -1.920   0.877   1.012  0.00  0.00     0.003 A 
ATOM      3  C2  UNL d   1      -1.283   0.498  -0.171  0.00  0.00     0.048 A 
ATOM      4  C3  UNL d   1       0.106   0.369  -0.197  0.00  0.00     0.023 A 
ATOM      5  C4  UNL d   1       0.860   0.617   0.950  0.00  0.00     0.048 A 
ATOM      6  C5  UNL d   1       0.219   0.997   2.131  0.00  0.00     0.003 A 
ATOM      7  I   UNL d   1       1.057  -0.196  -1.957  0.00  0.00    -0.146 I 
ENDROOT
TORSDOF 0
ENDMDL
