MODEL 1
REMARK minimizedAffinity -3.22259235
REMARK minimizedRMSD -1
REMARK  0 active torsions:
REMARK  status: ('A' for Active; 'I' for Inactive)
ROOT
ATOM      1  C   UNL d   1      -0.524   1.735   2.750  0.00  0.00     0.023 A 
ATOM      2  C1  UNL d   1      -1.200   0.523   2.608  0.00  0.00     0.003 A 
ATOM      3  C2  UNL d   1      -1.065  -0.220   1.434  0.00  0.00     0.048 A 
ATOM      4  C3  UNL d   1      -0.250   0.254   0.406  0.00  0.00     0.023 A 
ATOM      5  C4  UNL d   1       0.429   1.465   0.544  0.00  0.00     0.048 A 
ATOM      6  C5  UNL d   1       0.290   2.206   1.719  0.00  0.00     0.003 A 
ATOM      7  I   UNL d   1      -0.047  -0.851  -1.343  0.00  0.00    -0.146 I 
ENDROOT
TORSDOF 0
ENDMDL
