MODEL 1
REMARK minimizedAffinity -3.73362255
REMARK minimizedRMSD -1
REMARK  0 active torsions:
REMARK  status: ('A' for Active; 'I' for Inactive)
ROOT
ATOM      1  C   UNL d   1      -1.331   0.780   1.863  0.00  0.00     0.023 A 
ATOM      2  C1  UNL d   1      -0.081   1.329   1.577  0.00  0.00     0.003 A 
ATOM      3  C2  UNL d   1       0.537   1.061   0.354  0.00  0.00     0.048 A 
ATOM      4  C3  UNL d   1      -0.100   0.243  -0.579  0.00  0.00     0.023 A 
ATOM      5  C4  UNL d   1      -1.351  -0.308  -0.297  0.00  0.00     0.048 A 
ATOM      6  C5  UNL d   1      -1.965  -0.038   0.928  0.00  0.00     0.003 A 
ATOM      7  I   UNL d   1       0.818  -0.157  -2.400  0.00  0.00    -0.146 I 
ENDROOT
TORSDOF 0
ENDMDL
