MODEL 1
REMARK minimizedAffinity -1.94793904
REMARK minimizedRMSD -1
REMARK  0 active torsions:
REMARK  status: ('A' for Active; 'I' for Inactive)
ROOT
ATOM      1  C   UNL d   1      -1.088   1.044   2.679  0.00  0.00     0.023 A 
ATOM      2  C1  UNL d   1      -1.885   0.235   1.869  0.00  0.00     0.003 A 
ATOM      3  C2  UNL d   1      -1.479  -0.068   0.568  0.00  0.00     0.048 A 
ATOM      4  C3  UNL d   1      -0.274   0.440   0.084  0.00  0.00     0.023 A 
ATOM      5  C4  UNL d   1       0.527   1.249   0.891  0.00  0.00     0.048 A 
ATOM      6  C5  UNL d   1       0.117   1.550   2.191  0.00  0.00     0.003 A 
ATOM      7  I   UNL d   1       0.334  -0.011  -1.852  0.00  0.00    -0.146 I 
ENDROOT
TORSDOF 0
ENDMDL
