MODEL 1
REMARK minimizedAffinity -3.65857768
REMARK minimizedRMSD -1
REMARK  0 active torsions:
REMARK  status: ('A' for Active; 'I' for Inactive)
ROOT
ATOM      1  C   UNL d   1      -0.379  -0.700  -1.282  0.00  0.00     0.023 A 
ATOM      2  C1  UNL d   1      -1.581  -0.439  -0.623  0.00  0.00     0.003 A 
ATOM      3  C2  UNL d   1      -1.573  -0.036   0.714  0.00  0.00     0.048 A 
ATOM      4  C3  UNL d   1      -0.359   0.106   1.386  0.00  0.00     0.023 A 
ATOM      5  C4  UNL d   1       0.846  -0.153   0.730  0.00  0.00     0.048 A 
ATOM      6  C5  UNL d   1       0.832  -0.557  -0.606  0.00  0.00     0.003 A 
ATOM      7  I   UNL d   1      -0.344   0.706   3.376  0.00  0.00    -0.146 I 
ENDROOT
TORSDOF 0
ENDMDL
