MODEL 1
REMARK minimizedAffinity -4.57799864
REMARK minimizedRMSD -1
REMARK  0 active torsions:
REMARK  status: ('A' for Active; 'I' for Inactive)
ROOT
ATOM      1  C   UNL d   1       0.041   1.096   3.401  0.00  0.00     0.023 A 
ATOM      2  C1  UNL d   1      -1.111   0.781   2.680  0.00  0.00     0.003 A 
ATOM      3  C2  UNL d   1      -1.008   0.177   1.425  0.00  0.00     0.048 A 
ATOM      4  C3  UNL d   1       0.251  -0.109   0.897  0.00  0.00     0.023 A 
ATOM      5  C4  UNL d   1       1.406   0.203   1.615  0.00  0.00     0.048 A 
ATOM      6  C5  UNL d   1       1.298   0.807   2.869  0.00  0.00     0.003 A 
ATOM      7  I   UNL d   1       0.407  -1.008  -0.970  0.00  0.00    -0.146 I 
ENDROOT
TORSDOF 0
ENDMDL
