MODEL 1
REMARK minimizedAffinity -3.99886703
REMARK minimizedRMSD -1
REMARK  0 active torsions:
REMARK  status: ('A' for Active; 'I' for Inactive)
ROOT
ATOM      1  C   UNL d   1      -0.915   1.573   2.741  0.00  0.00     0.023 A 
ATOM      2  C1  UNL d   1       0.124   2.158   2.017  0.00  0.00     0.003 A 
ATOM      3  C2  UNL d   1       0.584   1.558   0.843  0.00  0.00     0.048 A 
ATOM      4  C3  UNL d   1       0.000   0.372   0.398  0.00  0.00     0.023 A 
ATOM      5  C4  UNL d   1      -1.040  -0.217   1.118  0.00  0.00     0.048 A 
ATOM      6  C5  UNL d   1      -1.496   0.387   2.292  0.00  0.00     0.003 A 
ATOM      7  I   UNL d   1       0.683  -0.523  -1.349  0.00  0.00    -0.146 I 
ENDROOT
TORSDOF 0
ENDMDL
