MODEL 1
REMARK minimizedAffinity -3.32878065
REMARK minimizedRMSD -1
REMARK  0 active torsions:
REMARK  status: ('A' for Active; 'I' for Inactive)
ROOT
ATOM      1  C   UNL d   1      -0.757   0.874   2.570  0.00  0.00     0.023 A 
ATOM      2  C1  UNL d   1      -1.729   0.219   1.814  0.00  0.00     0.003 A 
ATOM      3  C2  UNL d   1      -1.474  -0.111   0.481  0.00  0.00     0.048 A 
ATOM      4  C3  UNL d   1      -0.244   0.217  -0.089  0.00  0.00     0.023 A 
ATOM      5  C4  UNL d   1       0.732   0.871   0.665  0.00  0.00     0.048 A 
ATOM      6  C5  UNL d   1       0.472   1.199   1.996  0.00  0.00     0.003 A 
ATOM      7  I   UNL d   1       0.138  -0.273  -2.072  0.00  0.00    -0.146 I 
ENDROOT
TORSDOF 0
ENDMDL
