MODEL 1
REMARK minimizedAffinity -0.172569573
REMARK minimizedRMSD -1
REMARK  0 active torsions:
REMARK  status: ('A' for Active; 'I' for Inactive)
ROOT
ATOM      1  C   UNL d   1      -0.193  -0.921  -3.623  0.00  0.00     0.020 A 
ATOM      2  C1  UNL d   1       0.645  -0.021  -4.279  0.00  0.00     0.020 A 
ATOM      3  C2  UNL d   1       1.698   0.582  -3.589  0.00  0.00     0.034 A 
ATOM      4  C3  UNL d   1       1.916   0.286  -2.238  0.00  0.00     0.017 A 
ATOM      5  C4  UNL d   1       1.073  -0.618  -1.580  0.00  0.00     0.017 A 
ATOM      6  C5  UNL d   1       0.020  -1.219  -2.277  0.00  0.00     0.034 A 
ATOM      7 Cl   UNL d   1       1.279  -1.033   0.085  0.00  0.00    -0.070 Cl
ATOM      8 Cl1  UNL d   1       3.237   1.069  -1.447  0.00  0.00    -0.070 Cl
ENDROOT
TORSDOF 0
ENDMDL
