MODEL 1
REMARK minimizedAffinity -0.499431252
REMARK minimizedRMSD -1
REMARK  0 active torsions:
REMARK  status: ('A' for Active; 'I' for Inactive)
ROOT
ATOM      1  C   UNL d   1       0.818  -0.260   0.890  0.00  0.00     0.020 A 
ATOM      2  C1  UNL d   1       0.451  -0.503  -0.433  0.00  0.00     0.020 A 
ATOM      3  C2  UNL d   1      -0.891  -0.711  -0.759  0.00  0.00     0.034 A 
ATOM      4  C3  UNL d   1      -1.871  -0.676   0.240  0.00  0.00     0.017 A 
ATOM      5  C4  UNL d   1      -1.502  -0.432   1.568  0.00  0.00     0.017 A 
ATOM      6  C5  UNL d   1      -0.157  -0.225   1.888  0.00  0.00     0.034 A 
ATOM      7 Cl   UNL d   1      -2.654  -0.374   2.854  0.00  0.00    -0.070 Cl
ATOM      8 Cl1  UNL d   1      -3.511  -0.941  -0.235  0.00  0.00    -0.070 Cl
ENDROOT
TORSDOF 0
ENDMDL
