MODEL 1
REMARK minimizedAffinity 1.23173809
REMARK minimizedRMSD -1
REMARK  0 active torsions:
REMARK  status: ('A' for Active; 'I' for Inactive)
ROOT
ATOM      1  C   UNL d   1      -0.072   0.110   0.194  0.00  0.00     0.020 A 
ATOM      2  C1  UNL d   1      -1.381   0.048  -0.283  0.00  0.00     0.020 A 
ATOM      3  C2  UNL d   1      -2.432  -0.226   0.596  0.00  0.00     0.034 A 
ATOM      4  C3  UNL d   1      -2.175  -0.440   1.955  0.00  0.00     0.017 A 
ATOM      5  C4  UNL d   1      -0.861  -0.377   2.432  0.00  0.00     0.017 A 
ATOM      6  C5  UNL d   1       0.187  -0.102   1.548  0.00  0.00     0.034 A 
ATOM      7 Cl   UNL d   1      -0.466  -0.629   4.096  0.00  0.00    -0.070 Cl
ATOM      8 Cl1  UNL d   1      -3.522  -0.774   2.984  0.00  0.00    -0.070 Cl
ENDROOT
TORSDOF 0
ENDMDL
