MODEL 1
REMARK minimizedAffinity 0.402070463
REMARK minimizedRMSD -1
REMARK  0 active torsions:
REMARK  status: ('A' for Active; 'I' for Inactive)
ROOT
ATOM      1  C   UNL d   1      -1.175  -0.771   2.149  0.00  0.00     0.020 A 
ATOM      2  C1  UNL d   1      -2.350  -0.308   1.558  0.00  0.00     0.020 A 
ATOM      3  C2  UNL d   1      -2.293   0.431   0.374  0.00  0.00     0.034 A 
ATOM      4  C3  UNL d   1      -1.058   0.709  -0.222  0.00  0.00     0.017 A 
ATOM      5  C4  UNL d   1       0.121   0.244   0.371  0.00  0.00     0.017 A 
ATOM      6  C5  UNL d   1       0.058  -0.495   1.556  0.00  0.00     0.034 A 
ATOM      7 Cl   UNL d   1       1.682   0.547  -0.307  0.00  0.00    -0.070 Cl
ATOM      8 Cl1  UNL d   1      -1.061   1.628  -1.686  0.00  0.00    -0.070 Cl
ENDROOT
TORSDOF 0
ENDMDL
