MODEL 1
REMARK minimizedAffinity 0.786933005
REMARK minimizedRMSD -1
REMARK  0 active torsions:
REMARK  status: ('A' for Active; 'I' for Inactive)
ROOT
ATOM      1  C   UNL d   1      -0.615   0.404   0.975  0.00  0.00     0.020 A 
ATOM      2  C1  UNL d   1      -1.971   0.242   0.694  0.00  0.00     0.020 A 
ATOM      3  C2  UNL d   1      -2.790  -0.459   1.582  0.00  0.00     0.034 A 
ATOM      4  C3  UNL d   1      -2.253  -1.002   2.755  0.00  0.00     0.017 A 
ATOM      5  C4  UNL d   1      -0.891  -0.839   3.036  0.00  0.00     0.017 A 
ATOM      6  C5  UNL d   1      -0.076  -0.136   2.144  0.00  0.00     0.034 A 
ATOM      7 Cl   UNL d   1      -0.156  -1.480   4.463  0.00  0.00    -0.070 Cl
ATOM      8 Cl1  UNL d   1      -3.323  -1.857   3.808  0.00  0.00    -0.070 Cl
ENDROOT
TORSDOF 0
ENDMDL
