MODEL 1
REMARK minimizedAffinity -0.941379249
REMARK minimizedRMSD -1
REMARK  0 active torsions:
REMARK  status: ('A' for Active; 'I' for Inactive)
ROOT
ATOM      1  C   UNL d   1      -2.371  -0.073   1.564  0.00  0.00     0.020 A 
ATOM      2  C1  UNL d   1      -1.669   0.010   0.362  0.00  0.00     0.020 A 
ATOM      3  C2  UNL d   1      -0.310  -0.309   0.324  0.00  0.00     0.034 A 
ATOM      4  C3  UNL d   1       0.352  -0.711   1.489  0.00  0.00     0.017 A 
ATOM      5  C4  UNL d   1      -0.353  -0.793   2.696  0.00  0.00     0.017 A 
ATOM      6  C5  UNL d   1      -1.714  -0.474   2.728  0.00  0.00     0.034 A 
ATOM      7 Cl   UNL d   1       0.395  -1.282   4.175  0.00  0.00    -0.070 Cl
ATOM      8 Cl1  UNL d   1       2.033  -1.090   1.369  0.00  0.00    -0.070 Cl
ENDROOT
TORSDOF 0
ENDMDL
