MODEL 1
REMARK minimizedAffinity -0.355166286
REMARK minimizedRMSD -1
REMARK  0 active torsions:
REMARK  status: ('A' for Active; 'I' for Inactive)
ROOT
ATOM      1  N1  IND d   1       0.419   3.346  -1.777  0.00  0.00    -0.196 N 
ATOM      2  C2  IND d   1       0.494   4.655  -1.390  0.00  0.00     0.054 A 
ATOM      3  C3  IND d   1       0.481   4.749  -0.042  0.00  0.00    -0.031 A 
ATOM      4  C4  IND d   1       0.445   2.879   1.728  0.00  0.00     0.051 A 
ATOM      5  C5  IND d   1       0.338   1.523   1.860  0.00  0.00    -0.031 A 
ATOM      6  C6  IND d   1       0.254   0.688   0.764  0.00  0.00     0.015 A 
ATOM      7  C7  IND d   1       0.285   1.180  -0.510  0.00  0.00    -0.016 A 
ATOM      8  C8  IND d   1       0.386   2.557  -0.648  0.00  0.00    -0.047 A 
ATOM      9  C9  IND d   1       0.429   3.412   0.460  0.00  0.00    -0.096 A 
ATOM     10  HN1 IND d   1       0.396   3.063  -2.588  0.00  0.00     0.298 HD
ENDROOT
TORSDOF 0
ENDMDL
