MODEL 1
REMARK minimizedAffinity 0.822814405
REMARK minimizedRMSD -1
REMARK  0 active torsions:
REMARK  status: ('A' for Active; 'I' for Inactive)
ROOT
ATOM      1  N1  IND d   1       0.260   3.003  -1.486  0.00  0.00    -0.196 N 
ATOM      2  C2  IND d   1       0.497   4.348  -1.531  0.00  0.00     0.054 A 
ATOM      3  C3  IND d   1       0.766   4.820  -0.293  0.00  0.00    -0.031 A 
ATOM      4  C4  IND d   1       0.972   3.546   1.934  0.00  0.00     0.051 A 
ATOM      5  C5  IND d   1       0.807   2.307   2.485  0.00  0.00    -0.031 A 
ATOM      6  C6  IND d   1       0.447   1.213   1.725  0.00  0.00     0.015 A 
ATOM      7  C7  IND d   1       0.248   1.316   0.377  0.00  0.00    -0.016 A 
ATOM      8  C8  IND d   1       0.408   2.575  -0.184  0.00  0.00    -0.047 A 
ATOM      9  C9  IND d   1       0.732   3.697   0.589  0.00  0.00    -0.096 A 
ATOM     10  HN1 IND d   1       0.053   2.507  -2.157  0.00  0.00     0.298 HD
ENDROOT
TORSDOF 0
ENDMDL
