MODEL 1
REMARK minimizedAffinity -3.77309155
REMARK minimizedRMSD -1
REMARK  0 active torsions:
REMARK  status: ('A' for Active; 'I' for Inactive)
ROOT
ATOM      1  N1  IND d   1       3.313   1.836   4.568  0.00  0.00    -0.196 N 
ATOM      2  C2  IND d   1       2.659   2.964   4.158  0.00  0.00     0.054 A 
ATOM      3  C3  IND d   1       1.811   2.675   3.146  0.00  0.00    -0.031 A 
ATOM      4  C4  IND d   1       1.263   0.401   2.071  0.00  0.00     0.051 A 
ATOM      5  C5  IND d   1       1.634  -0.914   2.084  0.00  0.00    -0.031 A 
ATOM      6  C6  IND d   1       2.602  -1.390   2.945  0.00  0.00     0.015 A 
ATOM      7  C7  IND d   1       3.229  -0.567   3.837  0.00  0.00    -0.016 A 
ATOM      8  C8  IND d   1       2.859   0.771   3.821  0.00  0.00    -0.047 A 
ATOM      9  C9  IND d   1       1.908   1.268   2.921  0.00  0.00    -0.096 A 
ATOM     10  HN1 IND d   1       3.909   1.798   5.187  0.00  0.00     0.298 HD
ENDROOT
TORSDOF 0
ENDMDL
