MODEL 1
REMARK minimizedAffinity 6.19351339
REMARK minimizedRMSD -1
REMARK  0 active torsions:
REMARK  status: ('A' for Active; 'I' for Inactive)
ROOT
ATOM      1  N1  IND d   1       1.034   0.010  -1.029  0.00  0.00    -0.196 N 
ATOM      2  C2  IND d   1       0.463   1.144  -1.536  0.00  0.00     0.054 A 
ATOM      3  C3  IND d   1       0.079   1.966  -0.534  0.00  0.00    -0.031 A 
ATOM      4  C4  IND d   1       0.382   1.698   2.008  0.00  0.00     0.051 A 
ATOM      5  C5  IND d   1       0.815   0.812   2.954  0.00  0.00    -0.031 A 
ATOM      6  C6  IND d   1       1.358  -0.410   2.613  0.00  0.00     0.015 A 
ATOM      7  C7  IND d   1       1.498  -0.789   1.308  0.00  0.00    -0.016 A 
ATOM      8  C8  IND d   1       1.052   0.105   0.345  0.00  0.00    -0.047 A 
ATOM      9  C9  IND d   1       0.461   1.329   0.686  0.00  0.00    -0.096 A 
ATOM     10  HN1 IND d   1       1.332  -0.651  -1.490  0.00  0.00     0.298 HD
ENDROOT
TORSDOF 0
ENDMDL
