MODEL 1
REMARK minimizedAffinity -5.91744518
REMARK minimizedRMSD -1
REMARK  0 active torsions:
REMARK  status: ('A' for Active; 'I' for Inactive)
ROOT
ATOM      1  N1  IND d   1      -0.559   1.377  -0.241  0.00  0.00    -0.196 N 
ATOM      2  C2  IND d   1      -0.296   1.594   1.083  0.00  0.00     0.054 A 
ATOM      3  C3  IND d   1      -0.120   2.914   1.318  0.00  0.00    -0.031 A 
ATOM      4  C4  IND d   1      -0.321   4.904  -0.302  0.00  0.00     0.051 A 
ATOM      5  C5  IND d   1      -0.509   5.204  -1.622  0.00  0.00    -0.031 A 
ATOM      6  C6  IND d   1      -0.731   4.224  -2.568  0.00  0.00     0.015 A 
ATOM      7  C7  IND d   1      -0.784   2.902  -2.225  0.00  0.00    -0.016 A 
ATOM      8  C8  IND d   1      -0.586   2.594  -0.887  0.00  0.00    -0.047 A 
ATOM      9  C9  IND d   1      -0.319   3.581   0.071  0.00  0.00    -0.096 A 
ATOM     10  HN1 IND d   1      -0.686   0.610  -0.608  0.00  0.00     0.298 HD
ENDROOT
TORSDOF 0
ENDMDL
