MODEL 1
REMARK minimizedAffinity -1.98049867
REMARK minimizedRMSD -1
REMARK  0 active torsions:
REMARK  status: ('A' for Active; 'I' for Inactive)
ROOT
ATOM      1  N1  IND d   1       0.407   3.106  -1.713  0.00  0.00    -0.196 N 
ATOM      2  C2  IND d   1       0.417   4.407  -1.293  0.00  0.00     0.054 A 
ATOM      3  C3  IND d   1       0.412   4.466   0.058  0.00  0.00    -0.031 A 
ATOM      4  C4  IND d   1       0.492   2.552   1.777  0.00  0.00     0.051 A 
ATOM      5  C5  IND d   1       0.457   1.189   1.875  0.00  0.00    -0.031 A 
ATOM      6  C6  IND d   1       0.406   0.379   0.759  0.00  0.00     0.015 A 
ATOM      7  C7  IND d   1       0.399   0.904  -0.503  0.00  0.00    -0.016 A 
ATOM      8  C8  IND d   1       0.426   2.288  -0.605  0.00  0.00    -0.047 A 
ATOM      9  C9  IND d   1       0.436   3.116   0.525  0.00  0.00    -0.096 A 
ATOM     10  HN1 IND d   1       0.391   2.844  -2.532  0.00  0.00     0.298 HD
ENDROOT
TORSDOF 0
ENDMDL
