MODEL 1
REMARK minimizedAffinity -2.71274805
REMARK minimizedRMSD -1
REMARK  0 active torsions:
REMARK  status: ('A' for Active; 'I' for Inactive)
ROOT
ATOM      1  N1  IND d   1       0.214   3.721  -2.008  0.00  0.00    -0.196 N 
ATOM      2  C2  IND d   1       0.497   5.014  -1.664  0.00  0.00     0.054 A 
ATOM      3  C3  IND d   1       0.810   5.094  -0.352  0.00  0.00    -0.031 A 
ATOM      4  C4  IND d   1       1.021   3.215   1.396  0.00  0.00     0.051 A 
ATOM      5  C5  IND d   1       0.825   1.873   1.564  0.00  0.00    -0.031 A 
ATOM      6  C6  IND d   1       0.410   1.062   0.529  0.00  0.00     0.015 A 
ATOM      7  C7  IND d   1       0.185   1.563  -0.723  0.00  0.00    -0.016 A 
ATOM      8  C8  IND d   1       0.376   2.926  -0.895  0.00  0.00    -0.047 A 
ATOM      9  C9  IND d   1       0.756   3.762   0.163  0.00  0.00    -0.096 A 
ATOM     10  HN1 IND d   1      -0.024   3.451  -2.789  0.00  0.00     0.298 HD
ENDROOT
TORSDOF 0
ENDMDL
