MODEL 1
REMARK minimizedAffinity -0.559011638
REMARK minimizedRMSD -1
REMARK  0 active torsions:
REMARK  status: ('A' for Active; 'I' for Inactive)
ROOT
ATOM      1  N1  IND d   1      -0.314   4.519  -2.913  0.00  0.00    -0.196 N 
ATOM      2  C2  IND d   1       0.121   5.648  -2.278  0.00  0.00     0.054 A 
ATOM      3  C3  IND d   1       0.454   5.369  -0.998  0.00  0.00    -0.031 A 
ATOM      4  C4  IND d   1       0.461   3.109   0.235  0.00  0.00     0.051 A 
ATOM      5  C5  IND d   1       0.110   1.797   0.081  0.00  0.00    -0.031 A 
ATOM      6  C6  IND d   1      -0.407   1.315  -1.104  0.00  0.00     0.015 A 
ATOM      7  C7  IND d   1      -0.584   2.128  -2.187  0.00  0.00    -0.016 A 
ATOM      8  C8  IND d   1      -0.236   3.463  -2.032  0.00  0.00    -0.047 A 
ATOM      9  C9  IND d   1       0.250   3.967  -0.819  0.00  0.00    -0.096 A 
ATOM     10  HN1 IND d   1      -0.590   4.475  -3.727  0.00  0.00     0.298 HD
ENDROOT
TORSDOF 0
ENDMDL
