MODEL 1
REMARK minimizedAffinity 4.25090694
REMARK minimizedRMSD -1
REMARK  0 active torsions:
REMARK  status: ('A' for Active; 'I' for Inactive)
ROOT
ATOM      1  N1  IND d   1       0.493   3.724  -1.524  0.00  0.00    -0.196 N 
ATOM      2  C2  IND d   1       0.719   4.928  -0.918  0.00  0.00     0.054 A 
ATOM      3  C3  IND d   1       0.868   4.763   0.415  0.00  0.00    -0.031 A 
ATOM      4  C4  IND d   1       0.882   2.595   1.803  0.00  0.00     0.051 A 
ATOM      5  C5  IND d   1       0.680   1.247   1.698  0.00  0.00    -0.031 A 
ATOM      6  C6  IND d   1       0.403   0.644   0.489  0.00  0.00     0.015 A 
ATOM      7  C7  IND d   1       0.328   1.367  -0.668  0.00  0.00    -0.016 A 
ATOM      8  C8  IND d   1       0.525   2.737  -0.564  0.00  0.00    -0.047 A 
ATOM      9  C9  IND d   1       0.765   3.361   0.667  0.00  0.00    -0.096 A 
ATOM     10  HN1 IND d   1       0.355   3.603  -2.364  0.00  0.00     0.298 HD
ENDROOT
TORSDOF 0
ENDMDL
