MODEL 1
REMARK minimizedAffinity -0.17608133
REMARK minimizedRMSD -1
REMARK  3 active torsions:
REMARK  status: ('A' for Active; 'I' for Inactive)
REMARK    1  A    between atoms: C3'_2  and  C2'_3 
REMARK    2  A    between atoms: C2'_3  and  C1'_4 
REMARK    3  A    between atoms: C1'_4  and  C1_5 
ROOT
ATOM      1  C1  N4B d   1       4.956  -1.007   4.073  0.00  0.00    -0.075 A 
ATOM      2  C2  N4B d   1       5.988  -1.055   5.036  0.00  0.00     0.002 A 
ATOM      3  C3  N4B d   1       5.996  -2.049   5.984  0.00  0.00     0.002 A 
ATOM      4  C4  N4B d   1       4.977  -2.990   6.000  0.00  0.00    -0.004 A 
ATOM      5  C5  N4B d   1       3.999  -2.952   5.050  0.00  0.00     0.002 A 
ATOM      6  C6  N4B d   1       3.980  -1.961   4.089  0.00  0.00     0.002 A 
ENDROOT
BRANCH   1   7
ATOM      7  C1' N4B d   1       4.858   0.110   3.070  0.00  0.00     0.057 C 
BRANCH   7   8
ATOM      8  C2' N4B d   1       3.533   0.841   3.264  0.00  0.00     0.009 C 
BRANCH   8   9
ATOM      9  C3' N4B d   1       3.058   1.506   1.983  0.00  0.00     0.004 C 
ATOM     10  C4' N4B d   1       3.404   2.964   1.922  0.00  0.00     0.003 C 
ENDBRANCH   8   9
ENDBRANCH   7   8
ENDBRANCH   1   7
TORSDOF 3
ENDMDL
