MODEL 1
REMARK minimizedAffinity -3.88395548
REMARK minimizedRMSD -1
REMARK  3 active torsions:
REMARK  status: ('A' for Active; 'I' for Inactive)
REMARK    1  A    between atoms: C3'_2  and  C2'_3 
REMARK    2  A    between atoms: C2'_3  and  C1'_4 
REMARK    3  A    between atoms: C1'_4  and  C1_5 
ROOT
ATOM      1  C1  N4B d   1      -1.952   0.825   1.904  0.00  0.00    -0.075 A 
ATOM      2  C2  N4B d   1      -3.139   0.466   2.581  0.00  0.00     0.002 A 
ATOM      3  C3  N4B d   1      -3.227   0.625   3.942  0.00  0.00     0.002 A 
ATOM      4  C4  N4B d   1      -2.141   1.120   4.648  0.00  0.00    -0.004 A 
ATOM      5  C5  N4B d   1      -1.007   1.488   3.983  0.00  0.00     0.002 A 
ATOM      6  C6  N4B d   1      -0.906   1.338   2.615  0.00  0.00     0.002 A 
ENDROOT
BRANCH   1   7
ATOM      7  C1' N4B d   1      -1.777   0.590   0.429  0.00  0.00     0.057 C 
BRANCH   7   8
ATOM      8  C2' N4B d   1      -0.326   0.208   0.151  0.00  0.00     0.009 C 
BRANCH   8   9
ATOM      9  C3' N4B d   1      -0.134  -1.298   0.107  0.00  0.00     0.004 C 
ATOM     10  C4' N4B d   1       1.121  -1.702  -0.609  0.00  0.00     0.003 C 
ENDBRANCH   8   9
ENDBRANCH   7   8
ENDBRANCH   1   7
TORSDOF 3
ENDMDL
