MODEL 1
REMARK minimizedAffinity 2.17793417
REMARK minimizedRMSD -1
REMARK  3 active torsions:
REMARK  status: ('A' for Active; 'I' for Inactive)
REMARK    1  A    between atoms: C3'_2  and  C2'_3 
REMARK    2  A    between atoms: C2'_3  and  C1'_4 
REMARK    3  A    between atoms: C1'_4  and  C1_5 
ROOT
ATOM      1  C1  N4B d   1      -0.040  -1.790  -0.967  0.00  0.00    -0.075 A 
ATOM      2  C2  N4B d   1      -0.400  -0.649  -0.216  0.00  0.00     0.002 A 
ATOM      3  C3  N4B d   1      -0.030   0.601  -0.647  0.00  0.00     0.002 A 
ATOM      4  C4  N4B d   1       0.714   0.734  -1.810  0.00  0.00    -0.004 A 
ATOM      5  C5  N4B d   1       1.036  -0.371  -2.542  0.00  0.00     0.002 A 
ATOM      6  C6  N4B d   1       0.667  -1.633  -2.124  0.00  0.00     0.002 A 
ENDROOT
BRANCH   1   7
ATOM      7  C1' N4B d   1      -0.348  -3.183  -0.492  0.00  0.00     0.057 C 
BRANCH   7   8
ATOM      8  C2' N4B d   1      -1.857  -3.406  -0.539  0.00  0.00     0.009 C 
BRANCH   8   9
ATOM      9  C3' N4B d   1      -2.210  -4.809  -1.002  0.00  0.00     0.004 C 
ATOM     10  C4' N4B d   1      -2.810  -5.647   0.087  0.00  0.00     0.003 C 
ENDBRANCH   8   9
ENDBRANCH   7   8
ENDBRANCH   1   7
TORSDOF 3
ENDMDL
