MODEL 1
REMARK minimizedAffinity 10.3229151
REMARK minimizedRMSD -1
REMARK  3 active torsions:
REMARK  status: ('A' for Active; 'I' for Inactive)
REMARK    1  A    between atoms: C3'_2  and  C2'_3 
REMARK    2  A    between atoms: C2'_3  and  C1'_4 
REMARK    3  A    between atoms: C1'_4  and  C1_5 
ROOT
ATOM      1  C1  N4B d   1       5.894  -1.846  -3.588  0.00  0.00    -0.075 A 
ATOM      2  C2  N4B d   1       5.817  -1.176  -4.829  0.00  0.00     0.002 A 
ATOM      3  C3  N4B d   1       5.835  -1.895  -5.999  0.00  0.00     0.002 A 
ATOM      4  C4  N4B d   1       5.948  -3.276  -5.954  0.00  0.00    -0.004 A 
ATOM      5  C5  N4B d   1       5.996  -3.917  -4.751  0.00  0.00     0.002 A 
ATOM      6  C6  N4B d   1       5.975  -3.208  -3.567  0.00  0.00     0.002 A 
ENDROOT
BRANCH   1   7
ATOM      7  C1' N4B d   1       5.964  -1.098  -2.285  0.00  0.00     0.057 C 
BRANCH   7   8
ATOM      8  C2' N4B d   1       5.286   0.259  -2.449  0.00  0.00     0.009 C 
BRANCH   8   9
ATOM      9  C3' N4B d   1       5.702   0.950  -3.736  0.00  0.00     0.004 C 
ATOM     10  C4' N4B d   1       5.567   2.442  -3.664  0.00  0.00     0.003 C 
ENDBRANCH   8   9
ENDBRANCH   7   8
ENDBRANCH   1   7
TORSDOF 3
ENDMDL
