MODEL 1
REMARK minimizedAffinity -1.66520846
REMARK minimizedRMSD -1
REMARK  3 active torsions:
REMARK  status: ('A' for Active; 'I' for Inactive)
REMARK    1  A    between atoms: C3'_2  and  C2'_3 
REMARK    2  A    between atoms: C2'_3  and  C1'_4 
REMARK    3  A    between atoms: C1'_4  and  C1_5 
ROOT
ATOM      1  C1  N4B d   1      -3.956   3.346   5.570  0.00  0.00    -0.075 A 
ATOM      2  C2  N4B d   1      -4.816   4.380   6.000  0.00  0.00     0.002 A 
ATOM      3  C3  N4B d   1      -4.433   5.692   5.867  0.00  0.00     0.002 A 
ATOM      4  C4  N4B d   1      -3.191   5.993   5.327  0.00  0.00    -0.004 A 
ATOM      5  C5  N4B d   1      -2.376   4.989   4.891  0.00  0.00     0.002 A 
ATOM      6  C6  N4B d   1      -2.751   3.666   5.015  0.00  0.00     0.002 A 
ENDROOT
BRANCH   1   7
ATOM      7  C1' N4B d   1      -4.295   1.895   5.774  0.00  0.00     0.057 C 
BRANCH   7   8
ATOM      8  C2' N4B d   1      -3.827   1.096   4.561  0.00  0.00     0.009 C 
BRANCH   8   9
ATOM      9  C3' N4B d   1      -4.323  -0.339   4.600  0.00  0.00     0.004 C 
ATOM     10  C4' N4B d   1      -3.206  -1.340   4.576  0.00  0.00     0.003 C 
ENDBRANCH   8   9
ENDBRANCH   7   8
ENDBRANCH   1   7
TORSDOF 3
ENDMDL
