MODEL 1
REMARK minimizedAffinity 6.874053
REMARK minimizedRMSD -1
REMARK  3 active torsions:
REMARK  status: ('A' for Active; 'I' for Inactive)
REMARK    1  A    between atoms: C3'_2  and  C2'_3 
REMARK    2  A    between atoms: C2'_3  and  C1'_4 
REMARK    3  A    between atoms: C1'_4  and  C1_5 
ROOT
ATOM      1  C1  N4B d   1       4.522   0.767   2.894  0.00  0.00    -0.075 A 
ATOM      2  C2  N4B d   1       5.280   1.506   3.828  0.00  0.00     0.002 A 
ATOM      3  C3  N4B d   1       6.000   0.853   4.798  0.00  0.00     0.002 A 
ATOM      4  C4  N4B d   1       5.962  -0.531   4.866  0.00  0.00    -0.004 A 
ATOM      5  C5  N4B d   1       5.247  -1.239   3.944  0.00  0.00     0.002 A 
ATOM      6  C6  N4B d   1       4.522  -0.596   2.961  0.00  0.00     0.002 A 
ENDROOT
BRANCH   1   7
ATOM      7  C1' N4B d   1       3.650   1.440   1.869  0.00  0.00     0.057 C 
BRANCH   7   8
ATOM      8  C2' N4B d   1       3.583   2.934   2.171  0.00  0.00     0.009 C 
BRANCH   8   9
ATOM      9  C3' N4B d   1       3.457   3.764   0.906  0.00  0.00     0.004 C 
ATOM     10  C4' N4B d   1       2.062   3.779   0.357  0.00  0.00     0.003 C 
ENDBRANCH   8   9
ENDBRANCH   7   8
ENDBRANCH   1   7
TORSDOF 3
ENDMDL
