MODEL 1
REMARK minimizedAffinity 10.0479975
REMARK minimizedRMSD -1
REMARK  3 active torsions:
REMARK  status: ('A' for Active; 'I' for Inactive)
REMARK    1  A    between atoms: C3'_2  and  C2'_3 
REMARK    2  A    between atoms: C2'_3  and  C1'_4 
REMARK    3  A    between atoms: C1'_4  and  C1_5 
ROOT
ATOM      1  C1  N4B d   1       0.392  -0.936  -1.492  0.00  0.00    -0.075 A 
ATOM      2  C2  N4B d   1       0.478  -2.258  -1.981  0.00  0.00     0.002 A 
ATOM      3  C3  N4B d   1       0.808  -2.485  -3.295  0.00  0.00     0.002 A 
ATOM      4  C4  N4B d   1       1.037  -1.409  -4.140  0.00  0.00    -0.004 A 
ATOM      5  C5  N4B d   1       0.977  -0.136  -3.654  0.00  0.00     0.002 A 
ATOM      6  C6  N4B d   1       0.650   0.107  -2.335  0.00  0.00     0.002 A 
ENDROOT
BRANCH   1   7
ATOM      7  C1' N4B d   1      -0.049  -0.636  -0.086  0.00  0.00     0.057 C 
BRANCH   7   8
ATOM      8  C2' N4B d   1      -1.056  -1.692   0.359  0.00  0.00     0.009 C 
BRANCH   8   9
ATOM      9  C3' N4B d   1      -0.715  -2.263   1.725  0.00  0.00     0.004 C 
ATOM     10  C4' N4B d   1      -1.422  -1.556   2.843  0.00  0.00     0.003 C 
ENDBRANCH   8   9
ENDBRANCH   7   8
ENDBRANCH   1   7
TORSDOF 3
ENDMDL
