MODEL 1
REMARK minimizedAffinity 5.26146412
REMARK minimizedRMSD -1
REMARK  3 active torsions:
REMARK  status: ('A' for Active; 'I' for Inactive)
REMARK    1  A    between atoms: C3'_2  and  C2'_3 
REMARK    2  A    between atoms: C2'_3  and  C1'_4 
REMARK    3  A    between atoms: C1'_4  and  C1_5 
ROOT
ATOM      1  C1  N4B d   1      -3.686   0.737   4.665  0.00  0.00    -0.075 A 
ATOM      2  C2  N4B d   1      -2.750  -0.235   5.082  0.00  0.00     0.002 A 
ATOM      3  C3  N4B d   1      -2.827  -1.516   4.594  0.00  0.00     0.002 A 
ATOM      4  C4  N4B d   1      -3.838  -1.852   3.705  0.00  0.00    -0.004 A 
ATOM      5  C5  N4B d   1      -4.722  -0.901   3.287  0.00  0.00     0.002 A 
ATOM      6  C6  N4B d   1      -4.654   0.392   3.767  0.00  0.00     0.002 A 
ENDROOT
BRANCH   1   7
ATOM      7  C1' N4B d   1      -3.694   2.128   5.237  0.00  0.00     0.057 C 
BRANCH   7   8
ATOM      8  C2' N4B d   1      -3.519   3.136   4.105  0.00  0.00     0.009 C 
BRANCH   8   9
ATOM      9  C3' N4B d   1      -3.681   4.567   4.588  0.00  0.00     0.004 C 
ATOM     10  C4' N4B d   1      -3.746   5.557   3.463  0.00  0.00     0.003 C 
ENDBRANCH   8   9
ENDBRANCH   7   8
ENDBRANCH   1   7
TORSDOF 3
ENDMDL
