MODEL 1
REMARK minimizedAffinity 12.4781656
REMARK minimizedRMSD -1
REMARK  3 active torsions:
REMARK  status: ('A' for Active; 'I' for Inactive)
REMARK    1  A    between atoms: C3'_2  and  C2'_3 
REMARK    2  A    between atoms: C2'_3  and  C1'_4 
REMARK    3  A    between atoms: C1'_4  and  C1_5 
ROOT
ATOM      1  C1  N4B d   1       3.632   3.914  -5.288  0.00  0.00    -0.075 A 
ATOM      2  C2  N4B d   1       4.304   2.846  -5.922  0.00  0.00     0.002 A 
ATOM      3  C3  N4B d   1       5.475   2.360  -5.393  0.00  0.00     0.002 A 
ATOM      4  C4  N4B d   1       6.000   2.936  -4.246  0.00  0.00    -0.004 A 
ATOM      5  C5  N4B d   1       5.331   3.950  -3.625  0.00  0.00     0.002 A 
ATOM      6  C6  N4B d   1       4.152   4.446  -4.144  0.00  0.00     0.002 A 
ENDROOT
BRANCH   1   7
ATOM      7  C1' N4B d   1       2.395   4.536  -5.877  0.00  0.00     0.057 C 
BRANCH   7   8
ATOM      8  C2' N4B d   1       1.236   3.550  -5.762  0.00  0.00     0.009 C 
BRANCH   8   9
ATOM      9  C3' N4B d   1       1.668   2.236  -5.133  0.00  0.00     0.004 C 
ATOM     10  C4' N4B d   1       0.901   1.910  -3.886  0.00  0.00     0.003 C 
ENDBRANCH   8   9
ENDBRANCH   7   8
ENDBRANCH   1   7
TORSDOF 3
ENDMDL
