MODEL 1
REMARK minimizedAffinity 12.9331341
REMARK minimizedRMSD -1
REMARK  3 active torsions:
REMARK  status: ('A' for Active; 'I' for Inactive)
REMARK    1  A    between atoms: C3'_2  and  C2'_3 
REMARK    2  A    between atoms: C2'_3  and  C1'_4 
REMARK    3  A    between atoms: C1'_4  and  C1_5 
ROOT
ATOM      1  C1  N4B d   1      -3.522   3.500   5.153  0.00  0.00    -0.075 A 
ATOM      2  C2  N4B d   1      -3.081   3.644   3.819  0.00  0.00     0.002 A 
ATOM      3  C3  N4B d   1      -3.030   4.889   3.243  0.00  0.00     0.002 A 
ATOM      4  C4  N4B d   1      -3.431   5.999   3.973  0.00  0.00    -0.004 A 
ATOM      5  C5  N4B d   1      -3.831   5.855   5.269  0.00  0.00     0.002 A 
ATOM      6  C6  N4B d   1      -3.883   4.609   5.862  0.00  0.00     0.002 A 
ENDROOT
BRANCH   1   7
ATOM      7  C1' N4B d   1      -3.676   2.149   5.797  0.00  0.00     0.057 C 
BRANCH   7   8
ATOM      8  C2' N4B d   1      -3.040   1.091   4.901  0.00  0.00     0.009 C 
BRANCH   8   9
ATOM      9  C3' N4B d   1      -3.977  -0.076   4.646  0.00  0.00     0.004 C 
ATOM     10  C4' N4B d   1      -3.254  -1.382   4.504  0.00  0.00     0.003 C 
ENDBRANCH   8   9
ENDBRANCH   7   8
ENDBRANCH   1   7
TORSDOF 3
ENDMDL
