MODEL 1
REMARK minimizedAffinity -2.63442087
REMARK minimizedRMSD -1
REMARK  0 active torsions:
REMARK  status: ('A' for Active; 'I' for Inactive)
ROOT
ATOM      1  C4' PXY d   1      -0.322  -4.280  -3.751  0.00  0.00     0.077 C 
ATOM      2  C1' PXY d   1      -0.458  -0.052   0.188  0.00  0.00     0.077 C 
ATOM      3  C1  PXY d   1      -0.428  -1.153  -0.854  0.00  0.00    -0.082 A 
ATOM      4  C2  PXY d   1      -0.361  -2.417  -0.468  0.00  0.00     0.003 A 
ATOM      5  C3  PXY d   1      -0.301  -3.423  -1.397  0.00  0.00     0.003 A 
ATOM      6  C4  PXY d   1      -0.364  -3.136  -2.734  0.00  0.00    -0.082 A 
ATOM      7  C5  PXY d   1      -0.443  -1.850  -3.136  0.00  0.00     0.003 A 
ATOM      8  C6  PXY d   1      -0.462  -0.841  -2.178  0.00  0.00     0.003 A 
ENDROOT
TORSDOF 0
ENDMDL
