MODEL 1
REMARK minimizedAffinity -4.33162165
REMARK minimizedRMSD -1
REMARK  0 active torsions:
REMARK  status: ('A' for Active; 'I' for Inactive)
ROOT
ATOM      1  C4' PXY d   1      -0.321  -2.218  -1.372  0.00  0.00     0.077 C 
ATOM      2  C1' PXY d   1      -0.296   2.866   1.379  0.00  0.00     0.077 C 
ATOM      3  C1  PXY d   1      -0.300   1.539   0.646  0.00  0.00    -0.082 A 
ATOM      4  C2  PXY d   1      -0.998   0.526   1.132  0.00  0.00     0.003 A 
ATOM      5  C3  PXY d   1      -0.987  -0.691   0.499  0.00  0.00     0.003 A 
ATOM      6  C4  PXY d   1      -0.296  -0.857  -0.671  0.00  0.00    -0.082 A 
ATOM      7  C5  PXY d   1       0.410   0.176  -1.179  0.00  0.00     0.003 A 
ATOM      8  C6  PXY d   1       0.419   1.390  -0.500  0.00  0.00     0.003 A 
ENDROOT
TORSDOF 0
ENDMDL
