MODEL 1
REMARK minimizedAffinity -3.05427432
REMARK minimizedRMSD -1
REMARK  0 active torsions:
REMARK  status: ('A' for Active; 'I' for Inactive)
ROOT
ATOM      1  C4' PXY d   1       0.331   3.351   0.333  0.00  0.00     0.077 C 
ATOM      2  C1' PXY d   1      -1.004  -2.267   0.081  0.00  0.00     0.077 C 
ATOM      3  C1  PXY d   1      -0.642  -0.797   0.148  0.00  0.00    -0.082 A 
ATOM      4  C2  PXY d   1      -1.538   0.079   0.571  0.00  0.00     0.003 A 
ATOM      5  C3  PXY d   1      -1.237   1.417   0.608  0.00  0.00     0.003 A 
ATOM      6  C4  PXY d   1       0.012   1.856   0.258  0.00  0.00    -0.082 A 
ATOM      7  C5  PXY d   1       0.935   0.966  -0.165  0.00  0.00     0.003 A 
ATOM      8  C6  PXY d   1       0.597  -0.382  -0.234  0.00  0.00     0.003 A 
ENDROOT
TORSDOF 0
ENDMDL
