MODEL 1
REMARK minimizedAffinity -5.31240416
REMARK minimizedRMSD -1
REMARK  0 active torsions:
REMARK  status: ('A' for Active; 'I' for Inactive)
ROOT
ATOM      1  C4' PXY d   1      -0.296  -1.330   0.039  0.00  0.00     0.077 C 
ATOM      2  C1' PXY d   1       1.548   4.148   0.095  0.00  0.00     0.077 C 
ATOM      3  C1  PXY d   1       1.053   2.715   0.086  0.00  0.00    -0.082 A 
ATOM      4  C2  PXY d   1       1.927   1.722   0.061  0.00  0.00     0.003 A 
ATOM      5  C3  PXY d   1       1.496   0.421   0.020  0.00  0.00     0.003 A 
ATOM      6  C4  PXY d   1       0.158   0.132   0.059  0.00  0.00    -0.082 A 
ATOM      7  C5  PXY d   1      -0.739   1.140   0.095  0.00  0.00     0.003 A 
ATOM      8  C6  PXY d   1      -0.282   2.455   0.094  0.00  0.00     0.003 A 
ENDROOT
TORSDOF 0
ENDMDL
