MODEL 1
REMARK minimizedAffinity -1.87648141
REMARK minimizedRMSD -1
REMARK  0 active torsions:
REMARK  status: ('A' for Active; 'I' for Inactive)
ROOT
ATOM      1  C4' PXY d   1      -0.769  -2.572  -1.569  0.00  0.00     0.077 C 
ATOM      2  C1' PXY d   1      -0.159   2.271   1.528  0.00  0.00     0.077 C 
ATOM      3  C1  PXY d   1      -0.306   0.999   0.716  0.00  0.00    -0.082 A 
ATOM      4  C2  PXY d   1      -1.390   0.815  -0.021  0.00  0.00     0.003 A 
ATOM      5  C3  PXY d   1      -1.553  -0.343  -0.736  0.00  0.00     0.003 A 
ATOM      6  C4  PXY d   1      -0.574  -1.299  -0.740  0.00  0.00    -0.082 A 
ATOM      7  C5  PXY d   1       0.540  -1.114   0.000  0.00  0.00     0.003 A 
ATOM      8  C6  PXY d   1       0.668   0.050   0.752  0.00  0.00     0.003 A 
ENDROOT
TORSDOF 0
ENDMDL
