MODEL 1
REMARK minimizedAffinity -3.26383829
REMARK minimizedRMSD -1
REMARK  0 active torsions:
REMARK  status: ('A' for Active; 'I' for Inactive)
ROOT
ATOM      1  C4' PXY d   1      -0.103  -1.987   0.415  0.00  0.00     0.077 C 
ATOM      2  C1' PXY d   1       0.445   3.726  -0.281  0.00  0.00     0.077 C 
ATOM      3  C1  PXY d   1       0.289   2.229  -0.093  0.00  0.00    -0.082 A 
ATOM      4  C2  PXY d   1       1.366   1.465  -0.008  0.00  0.00     0.003 A 
ATOM      5  C3  PXY d   1       1.243   0.107   0.130  0.00  0.00     0.003 A 
ATOM      6  C4  PXY d   1       0.006  -0.470   0.235  0.00  0.00    -0.082 A 
ATOM      7  C5  PXY d   1      -1.097   0.304   0.159  0.00  0.00     0.003 A 
ATOM      8  C6  PXY d   1      -0.952   1.676  -0.022  0.00  0.00     0.003 A 
ENDROOT
TORSDOF 0
ENDMDL
