MODEL 1
REMARK minimizedAffinity -4.43746233
REMARK minimizedRMSD -1
REMARK  0 active torsions:
REMARK  status: ('A' for Active; 'I' for Inactive)
ROOT
ATOM      1  C4' PXY d   1      -0.218   3.253   0.130  0.00  0.00     0.077 C 
ATOM      2  C1' PXY d   1       0.411  -2.493   0.192  0.00  0.00     0.077 C 
ATOM      3  C1  PXY d   1       0.233  -0.987   0.174  0.00  0.00    -0.082 A 
ATOM      4  C2  PXY d   1       1.253  -0.212  -0.156  0.00  0.00     0.003 A 
ATOM      5  C3  PXY d   1       1.119   1.153  -0.147  0.00  0.00     0.003 A 
ATOM      6  C4  PXY d   1      -0.087   1.728   0.153  0.00  0.00    -0.082 A 
ATOM      7  C5  PXY d   1      -1.135   0.943   0.481  0.00  0.00     0.003 A 
ATOM      8  C6  PXY d   1      -0.967  -0.438   0.505  0.00  0.00     0.003 A 
ENDROOT
TORSDOF 0
ENDMDL
