MODEL 1
REMARK minimizedAffinity -4.00751114
REMARK minimizedRMSD -1
REMARK  0 active torsions:
REMARK  status: ('A' for Active; 'I' for Inactive)
ROOT
ATOM      1  C4' PXY d   1      -0.060  -1.606  -0.226  0.00  0.00     0.077 C 
ATOM      2  C1' PXY d   1       0.956   4.023   0.607  0.00  0.00     0.077 C 
ATOM      3  C1  PXY d   1       0.679   2.548   0.396  0.00  0.00    -0.082 A 
ATOM      4  C2  PXY d   1       1.675   1.732   0.094  0.00  0.00     0.003 A 
ATOM      5  C3  PXY d   1       1.437   0.400  -0.132  0.00  0.00     0.003 A 
ATOM      6  C4  PXY d   1       0.174  -0.111   0.005  0.00  0.00    -0.082 A 
ATOM      7  C5  PXY d   1      -0.846   0.714   0.324  0.00  0.00     0.003 A 
ATOM      8  C6  PXY d   1      -0.590   2.069   0.508  0.00  0.00     0.003 A 
ENDROOT
TORSDOF 0
ENDMDL
