MODEL 1
REMARK minimizedAffinity -2.13310337
REMARK minimizedRMSD -1
REMARK  0 active torsions:
REMARK  status: ('A' for Active; 'I' for Inactive)
ROOT
ATOM      1  C4' PXY d   1      -0.925  -3.141  -0.881  0.00  0.00     0.077 C 
ATOM      2  C1' PXY d   1      -0.590   2.263   1.145  0.00  0.00     0.077 C 
ATOM      3  C1  PXY d   1      -0.666   0.847   0.607  0.00  0.00    -0.082 A 
ATOM      4  C2  PXY d   1      -1.843   0.254   0.494  0.00  0.00     0.003 A 
ATOM      5  C3  PXY d   1      -1.928  -1.038   0.040  0.00  0.00     0.003 A 
ATOM      6  C4  PXY d   1      -0.801  -1.709  -0.352  0.00  0.00    -0.082 A 
ATOM      7  C5  PXY d   1       0.402  -1.107  -0.249  0.00  0.00     0.003 A 
ATOM      8  C6  PXY d   1       0.471   0.190   0.253  0.00  0.00     0.003 A 
ENDROOT
TORSDOF 0
ENDMDL
