MODEL 1
REMARK minimizedAffinity -4.01076221
REMARK minimizedRMSD -1
REMARK  0 active torsions:
REMARK  status: ('A' for Active; 'I' for Inactive)
ROOT
ATOM      1  C4' PXY d   1      -0.553  -1.747   0.519  0.00  0.00     0.077 C 
ATOM      2  C1' PXY d   1       0.118   3.946  -0.223  0.00  0.00     0.077 C 
ATOM      3  C1  PXY d   1      -0.066   2.455  -0.018  0.00  0.00    -0.082 A 
ATOM      4  C2  PXY d   1       0.893   1.621  -0.386  0.00  0.00     0.003 A 
ATOM      5  C3  PXY d   1       0.729   0.268  -0.238  0.00  0.00     0.003 A 
ATOM      6  C4  PXY d   1      -0.406  -0.234   0.341  0.00  0.00    -0.082 A 
ATOM      7  C5  PXY d   1      -1.384   0.612   0.729  0.00  0.00     0.003 A 
ATOM      8  C6  PXY d   1      -1.216   1.979   0.532  0.00  0.00     0.003 A 
ENDROOT
TORSDOF 0
ENDMDL
