MODEL 1
REMARK minimizedAffinity 1.24901271
REMARK minimizedRMSD -1
REMARK  0 active torsions:
REMARK  status: ('A' for Active; 'I' for Inactive)
ROOT
ATOM      1  C4' PXY d   1      -4.381  -5.992   0.702  0.00  0.00     0.077 C 
ATOM      2  C1' PXY d   1      -0.665  -2.958  -2.523  0.00  0.00     0.077 C 
ATOM      3  C1  PXY d   1      -1.650  -3.748  -1.683  0.00  0.00    -0.082 A 
ATOM      4  C2  PXY d   1      -1.259  -4.263  -0.529  0.00  0.00     0.003 A 
ATOM      5  C3  PXY d   1      -2.127  -5.007   0.228  0.00  0.00     0.003 A 
ATOM      6  C4  PXY d   1      -3.424  -5.180  -0.175  0.00  0.00    -0.082 A 
ATOM      7  C5  PXY d   1      -3.834  -4.648  -1.346  0.00  0.00     0.003 A 
ATOM      8  C6  PXY d   1      -2.926  -3.931  -2.120  0.00  0.00     0.003 A 
ENDROOT
TORSDOF 0
ENDMDL
