MODEL 1
REMARK minimizedAffinity -3.88291168
REMARK minimizedRMSD -1
REMARK  0 active torsions:
REMARK  status: ('A' for Active; 'I' for Inactive)
ROOT
ATOM      1  C4' PXY d   1      -0.800  -2.445   0.068  0.00  0.00     0.077 C 
ATOM      2  C1' PXY d   1      -0.088   3.290   0.204  0.00  0.00     0.077 C 
ATOM      3  C1  PXY d   1      -0.284   1.787   0.177  0.00  0.00    -0.082 A 
ATOM      4  C2  PXY d   1       0.694   1.007  -0.255  0.00  0.00     0.003 A 
ATOM      5  C3  PXY d   1       0.522  -0.352  -0.316  0.00  0.00     0.003 A 
ATOM      6  C4  PXY d   1      -0.644  -0.923   0.121  0.00  0.00    -0.082 A 
ATOM      7  C5  PXY d   1      -1.642  -0.135   0.574  0.00  0.00     0.003 A 
ATOM      8  C6  PXY d   1      -1.463   1.246   0.589  0.00  0.00     0.003 A 
ENDROOT
TORSDOF 0
ENDMDL
