MODEL 1
REMARK minimizedAffinity -4.16129541
REMARK minimizedRMSD -1
REMARK  0 active torsions:
REMARK  status: ('A' for Active; 'I' for Inactive)
ROOT
ATOM      1  C4' PXY d   1      -0.126  -2.259  -0.283  0.00  0.00     0.077 C 
ATOM      2  C1' PXY d   1      -0.129   3.509   0.099  0.00  0.00     0.077 C 
ATOM      3  C1  PXY d   1      -0.138   1.996   0.008  0.00  0.00    -0.082 A 
ATOM      4  C2  PXY d   1       0.942   1.360  -0.417  0.00  0.00     0.003 A 
ATOM      5  C3  PXY d   1       0.940  -0.006  -0.536  0.00  0.00     0.003 A 
ATOM      6  C4  PXY d   1      -0.160  -0.733  -0.166  0.00  0.00    -0.082 A 
ATOM      7  C5  PXY d   1      -1.261  -0.092   0.279  0.00  0.00     0.003 A 
ATOM      8  C6  PXY d   1      -1.254   1.298   0.353  0.00  0.00     0.003 A 
ENDROOT
TORSDOF 0
ENDMDL
