MODEL 1
REMARK minimizedAffinity -4.71404743
REMARK minimizedRMSD -1
REMARK  0 active torsions:
REMARK  status: ('A' for Active; 'I' for Inactive)
ROOT
ATOM      1  C4' PXY d   1      -0.048  -2.044   0.021  0.00  0.00     0.077 C 
ATOM      2  C1' PXY d   1       0.684   3.680   0.358  0.00  0.00     0.077 C 
ATOM      3  C1  PXY d   1       0.481   2.180   0.276  0.00  0.00    -0.082 A 
ATOM      4  C2  PXY d   1       1.528   1.384   0.130  0.00  0.00     0.003 A 
ATOM      5  C3  PXY d   1       1.360   0.028   0.022  0.00  0.00     0.003 A 
ATOM      6  C4  PXY d   1       0.111  -0.525   0.118  0.00  0.00    -0.082 A 
ATOM      7  C5  PXY d   1      -0.962   0.279   0.278  0.00  0.00     0.003 A 
ATOM      8  C6  PXY d   1      -0.773   1.656   0.344  0.00  0.00     0.003 A 
ENDROOT
TORSDOF 0
ENDMDL
