MODEL 1
REMARK minimizedAffinity -3.49087787
REMARK minimizedRMSD -1
REMARK  0 active torsions:
REMARK  status: ('A' for Active; 'I' for Inactive)
ROOT
ATOM      1  C4' PXY d   1       0.907   1.470  -1.527  0.00  0.00     0.077 C 
ATOM      2  C1' PXY d   1       1.919   4.120   3.510  0.00  0.00     0.077 C 
ATOM      3  C1  PXY d   1       1.666   3.420   2.189  0.00  0.00    -0.082 A 
ATOM      4  C2  PXY d   1       0.756   3.901   1.358  0.00  0.00     0.003 A 
ATOM      5  C3  PXY d   1       0.491   3.262   0.174  0.00  0.00     0.003 A 
ATOM      6  C4  PXY d   1       1.203   2.149  -0.187  0.00  0.00    -0.082 A 
ATOM      7  C5  PXY d   1       2.141   1.659   0.651  0.00  0.00     0.003 A 
ATOM      8  C6  PXY d   1       2.365   2.298   1.866  0.00  0.00     0.003 A 
ENDROOT
TORSDOF 0
ENDMDL
