MODEL 1
REMARK minimizedAffinity -5.62315083
REMARK minimizedRMSD -1
REMARK  0 active torsions:
REMARK  status: ('A' for Active; 'I' for Inactive)
ROOT
ATOM      1  C4' PXY d   1       0.345   3.631   0.058  0.00  0.00     0.077 C 
ATOM      2  C1' PXY d   1       0.175  -2.145   0.185  0.00  0.00     0.077 C 
ATOM      3  C1  PXY d   1       0.207  -0.630   0.148  0.00  0.00    -0.082 A 
ATOM      4  C2  PXY d   1       1.355  -0.005  -0.055  0.00  0.00     0.003 A 
ATOM      5  C3  PXY d   1       1.407   1.365  -0.059  0.00  0.00     0.003 A 
ATOM      6  C4  PXY d   1       0.263   2.103   0.093  0.00  0.00    -0.082 A 
ATOM      7  C5  PXY d   1      -0.914   1.472   0.291  0.00  0.00     0.003 A 
ATOM      8  C6  PXY d   1      -0.939   0.081   0.333  0.00  0.00     0.003 A 
ENDROOT
TORSDOF 0
ENDMDL
