MODEL 1
REMARK minimizedAffinity -3.70300913
REMARK minimizedRMSD -1
REMARK  0 active torsions:
REMARK  status: ('A' for Active; 'I' for Inactive)
ROOT
ATOM      1  C4' PXY d   1       0.174   3.188   0.098  0.00  0.00     0.077 C 
ATOM      2  C1' PXY d   1       0.056  -2.572  -0.368  0.00  0.00     0.077 C 
ATOM      3  C1  PXY d   1       0.074  -1.061  -0.244  0.00  0.00    -0.082 A 
ATOM      4  C2  PXY d   1       1.059  -0.371  -0.795  0.00  0.00     0.003 A 
ATOM      5  C3  PXY d   1       1.108   0.993  -0.666  0.00  0.00     0.003 A 
ATOM      6  C4  PXY d   1       0.110   1.662  -0.010  0.00  0.00    -0.082 A 
ATOM      7  C5  PXY d   1      -0.904   0.967   0.547  0.00  0.00     0.003 A 
ATOM      8  C6  PXY d   1      -0.914  -0.421   0.439  0.00  0.00     0.003 A 
ENDROOT
TORSDOF 0
ENDMDL
