MODEL 1
REMARK minimizedAffinity -5.3761301
REMARK minimizedRMSD -1
REMARK  0 active torsions:
REMARK  status: ('A' for Active; 'I' for Inactive)
ROOT
ATOM      1  C4' PXY d   1      -0.386  -2.471  -0.070  0.00  0.00     0.077 C 
ATOM      2  C1' PXY d   1       0.238   3.258   0.381  0.00  0.00     0.077 C 
ATOM      3  C1  PXY d   1       0.062   1.757   0.267  0.00  0.00    -0.082 A 
ATOM      4  C2  PXY d   1       1.124   0.969   0.306  0.00  0.00     0.003 A 
ATOM      5  C3  PXY d   1       0.986  -0.389   0.172  0.00  0.00     0.003 A 
ATOM      6  C4  PXY d   1      -0.257  -0.950   0.051  0.00  0.00    -0.082 A 
ATOM      7  C5  PXY d   1      -1.346  -0.154   0.021  0.00  0.00     0.003 A 
ATOM      8  C6  PXY d   1      -1.181   1.225   0.117  0.00  0.00     0.003 A 
ENDROOT
TORSDOF 0
ENDMDL
