MODEL 1
REMARK minimizedAffinity -3.47727799
REMARK minimizedRMSD -1
REMARK  0 active torsions:
REMARK  status: ('A' for Active; 'I' for Inactive)
ROOT
ATOM      1  C4' PXY d   1      -0.179  -1.815  -0.090  0.00  0.00     0.077 C 
ATOM      2  C1' PXY d   1       0.354   3.938   0.095  0.00  0.00     0.077 C 
ATOM      3  C1  PXY d   1       0.224   2.429   0.038  0.00  0.00    -0.082 A 
ATOM      4  C2  PXY d   1      -0.937   1.861   0.323  0.00  0.00     0.003 A 
ATOM      5  C3  PXY d   1      -1.063   0.495   0.308  0.00  0.00     0.003 A 
ATOM      6  C4  PXY d   1      -0.005  -0.294  -0.054  0.00  0.00    -0.082 A 
ATOM      7  C5  PXY d   1       1.179   0.278  -0.358  0.00  0.00     0.003 A 
ATOM      8  C6  PXY d   1       1.298   1.664  -0.296  0.00  0.00     0.003 A 
ENDROOT
TORSDOF 0
ENDMDL
