MODEL 1
REMARK minimizedAffinity -3.70265651
REMARK minimizedRMSD -1
REMARK  0 active torsions:
REMARK  status: ('A' for Active; 'I' for Inactive)
ROOT
ATOM      1  C4' PXY d   1       2.683   0.727  -0.971  0.00  0.00     0.077 C 
ATOM      2  C1' PXY d   1      -2.510  -0.143   1.415  0.00  0.00     0.077 C 
ATOM      3  C1  PXY d   1      -1.143   0.075   0.797  0.00  0.00    -0.082 A 
ATOM      4  C2  PXY d   1      -0.848   1.248   0.259  0.00  0.00     0.003 A 
ATOM      5  C3  PXY d   1       0.372   1.452  -0.333  0.00  0.00     0.003 A 
ATOM      6  C4  PXY d   1       1.319   0.464  -0.327  0.00  0.00    -0.082 A 
ATOM      7  C5  PXY d   1       1.030  -0.732   0.229  0.00  0.00     0.003 A 
ATOM      8  C6  PXY d   1      -0.229  -0.933   0.788  0.00  0.00     0.003 A 
ENDROOT
TORSDOF 0
ENDMDL
