MODEL 1
REMARK minimizedAffinity 13.0359554
REMARK minimizedRMSD -1
REMARK  0 active torsions:
REMARK  status: ('A' for Active; 'I' for Inactive)
ROOT
ATOM      1  C   UNL d   1       0.186   4.782  -4.491  0.00  0.00     0.077 C 
ATOM      2  C1  UNL d   1       1.445   4.361  -3.794  0.00  0.00    -0.074 A 
ATOM      3  C2  UNL d   1       1.833   3.018  -3.761  0.00  0.00    -0.005 A 
ATOM      4  C3  UNL d   1       3.012   2.642  -3.117  0.00  0.00     0.006 A 
ATOM      5  C4  UNL d   1       3.814   3.604  -2.501  0.00  0.00    -0.005 A 
ATOM      6  C5  UNL d   1       3.443   4.952  -2.525  0.00  0.00    -0.074 A 
ATOM      7  C6  UNL d   1       4.298   6.000  -1.877  0.00  0.00     0.077 C 
ATOM      8  C7  UNL d   1       2.260   5.322  -3.180  0.00  0.00    -0.001 A 
ENDROOT
TORSDOF 0
ENDMDL
