MODEL 1
REMARK minimizedAffinity 10.9814043
REMARK minimizedRMSD -1
REMARK  0 active torsions:
REMARK  status: ('A' for Active; 'I' for Inactive)
ROOT
ATOM      1  C   UNL d   1      -4.418  -3.542   2.172  0.00  0.00     0.077 C 
ATOM      2  C1  UNL d   1      -3.259  -2.623   1.924  0.00  0.00    -0.074 A 
ATOM      3  C2  UNL d   1      -2.132  -3.061   1.221  0.00  0.00    -0.005 A 
ATOM      4  C3  UNL d   1      -1.065  -2.191   0.990  0.00  0.00     0.006 A 
ATOM      5  C4  UNL d   1      -1.115  -0.878   1.458  0.00  0.00    -0.005 A 
ATOM      6  C5  UNL d   1      -2.234  -0.422   2.162  0.00  0.00    -0.074 A 
ATOM      7  C6  UNL d   1      -2.308   0.989   2.664  0.00  0.00     0.077 C 
ATOM      8  C7  UNL d   1      -3.304  -1.299   2.384  0.00  0.00    -0.001 A 
ENDROOT
TORSDOF 0
ENDMDL
