MODEL 1
REMARK minimizedAffinity 8.38961601
REMARK minimizedRMSD -1
REMARK  0 active torsions:
REMARK  status: ('A' for Active; 'I' for Inactive)
ROOT
ATOM      1  C   UNL d   1      -0.615  -3.190   1.032  0.00  0.00     0.077 C 
ATOM      2  C1  UNL d   1      -1.007  -1.911   1.711  0.00  0.00    -0.074 A 
ATOM      3  C2  UNL d   1      -1.475  -0.820   0.973  0.00  0.00    -0.005 A 
ATOM      4  C3  UNL d   1      -1.846   0.360   1.619  0.00  0.00     0.006 A 
ATOM      5  C4  UNL d   1      -1.753   0.459   3.008  0.00  0.00    -0.005 A 
ATOM      6  C5  UNL d   1      -1.288  -0.623   3.763  0.00  0.00    -0.074 A 
ATOM      7  C6  UNL d   1      -1.191  -0.537   5.257  0.00  0.00     0.077 C 
ATOM      8  C7  UNL d   1      -0.924  -1.807   3.107  0.00  0.00    -0.001 A 
ENDROOT
TORSDOF 0
ENDMDL
