MODEL 1
REMARK minimizedAffinity 11.5320015
REMARK minimizedRMSD -1
REMARK  0 active torsions:
REMARK  status: ('A' for Active; 'I' for Inactive)
ROOT
ATOM      1  C   UNL d   1       2.407   2.525  -3.386  0.00  0.00     0.077 C 
ATOM      2  C1  UNL d   1       3.646   3.370  -3.404  0.00  0.00    -0.074 A 
ATOM      3  C2  UNL d   1       4.221   3.776  -4.612  0.00  0.00    -0.005 A 
ATOM      4  C3  UNL d   1       5.368   4.570  -4.614  0.00  0.00     0.006 A 
ATOM      5  C4  UNL d   1       5.951   4.965  -3.409  0.00  0.00    -0.005 A 
ATOM      6  C5  UNL d   1       5.389   4.569  -2.191  0.00  0.00    -0.074 A 
ATOM      7  C6  UNL d   1       5.997   4.993  -0.886  0.00  0.00     0.077 C 
ATOM      8  C7  UNL d   1       4.233   3.778  -2.198  0.00  0.00    -0.001 A 
ENDROOT
TORSDOF 0
ENDMDL
