MODEL 1
REMARK minimizedAffinity 11.0662107
REMARK minimizedRMSD -1
REMARK  0 active torsions:
REMARK  status: ('A' for Active; 'I' for Inactive)
ROOT
ATOM      1  C   UNL d   1      -4.441  -3.733   2.103  0.00  0.00     0.077 C 
ATOM      2  C1  UNL d   1      -3.290  -2.774   2.038  0.00  0.00    -0.074 A 
ATOM      3  C2  UNL d   1      -2.198  -3.017   1.199  0.00  0.00    -0.005 A 
ATOM      4  C3  UNL d   1      -1.139  -2.111   1.142  0.00  0.00     0.006 A 
ATOM      5  C4  UNL d   1      -1.161  -0.955   1.923  0.00  0.00    -0.005 A 
ATOM      6  C5  UNL d   1      -2.245  -0.694   2.767  0.00  0.00    -0.074 A 
ATOM      7  C6  UNL d   1      -2.289   0.549   3.605  0.00  0.00     0.077 C 
ATOM      8  C7  UNL d   1      -3.308  -1.606   2.813  0.00  0.00    -0.001 A 
ENDROOT
TORSDOF 0
ENDMDL
