MODEL 1
REMARK minimizedAffinity 15.4449024
REMARK minimizedRMSD -1
REMARK  0 active torsions:
REMARK  status: ('A' for Active; 'I' for Inactive)
ROOT
ATOM      1  C   UNL d   1       2.866   0.887  -0.651  0.00  0.00     0.077 C 
ATOM      2  C1  UNL d   1       2.186  -0.022   0.329  0.00  0.00    -0.074 A 
ATOM      3  C2  UNL d   1       2.904  -1.007   1.014  0.00  0.00    -0.005 A 
ATOM      4  C3  UNL d   1       2.260  -1.839   1.929  0.00  0.00     0.006 A 
ATOM      5  C4  UNL d   1       0.893  -1.695   2.169  0.00  0.00    -0.005 A 
ATOM      6  C5  UNL d   1       0.158  -0.715   1.494  0.00  0.00    -0.074 A 
ATOM      7  C6  UNL d   1      -1.310  -0.540   1.746  0.00  0.00     0.077 C 
ATOM      8  C7  UNL d   1       0.814   0.122   0.580  0.00  0.00    -0.001 A 
ENDROOT
TORSDOF 0
ENDMDL
