MODEL 1
REMARK minimizedAffinity 9.30860233
REMARK minimizedRMSD -1
REMARK  0 active torsions:
REMARK  status: ('A' for Active; 'I' for Inactive)
ROOT
ATOM      1  C   UNL d   1       5.999   3.083   1.142  0.00  0.00     0.077 C 
ATOM      2  C1  UNL d   1       4.843   2.229   0.713  0.00  0.00    -0.074 A 
ATOM      3  C2  UNL d   1       4.145   1.447   1.638  0.00  0.00    -0.005 A 
ATOM      4  C3  UNL d   1       3.066   0.665   1.226  0.00  0.00     0.006 A 
ATOM      5  C4  UNL d   1       2.675   0.657  -0.114  0.00  0.00    -0.005 A 
ATOM      6  C5  UNL d   1       3.361   1.433  -1.053  0.00  0.00    -0.074 A 
ATOM      7  C6  UNL d   1       2.948   1.444  -2.495  0.00  0.00     0.077 C 
ATOM      8  C7  UNL d   1       4.440   2.222  -0.630  0.00  0.00    -0.001 A 
ENDROOT
TORSDOF 0
ENDMDL
