MODEL 1
REMARK minimizedAffinity 3.56712198
REMARK minimizedRMSD -1
REMARK  0 active torsions:
REMARK  status: ('A' for Active; 'I' for Inactive)
ROOT
ATOM      1  C   UNL d   1       5.210   3.392   1.591  0.00  0.00     0.077 C 
ATOM      2  C1  UNL d   1       4.142   2.450   1.122  0.00  0.00    -0.074 A 
ATOM      3  C2  UNL d   1       3.782   1.334   1.884  0.00  0.00    -0.005 A 
ATOM      4  C3  UNL d   1       2.779   0.472   1.439  0.00  0.00     0.006 A 
ATOM      5  C4  UNL d   1       2.127   0.718   0.230  0.00  0.00    -0.005 A 
ATOM      6  C5  UNL d   1       2.473   1.829  -0.545  0.00  0.00    -0.074 A 
ATOM      7  C6  UNL d   1       1.775   2.113  -1.842  0.00  0.00     0.077 C 
ATOM      8  C7  UNL d   1       3.476   2.694  -0.088  0.00  0.00    -0.001 A 
ENDROOT
TORSDOF 0
ENDMDL
