MODEL 1
REMARK minimizedAffinity 4.2433548
REMARK minimizedRMSD -1
REMARK  0 active torsions:
REMARK  status: ('A' for Active; 'I' for Inactive)
ROOT
ATOM      1  C   UNL d   1      -5.975   0.834   0.834  0.00  0.00     0.077 C 
ATOM      2  C1  UNL d   1      -5.222   1.381   2.010  0.00  0.00    -0.074 A 
ATOM      3  C2  UNL d   1      -3.828   1.288   2.077  0.00  0.00    -0.005 A 
ATOM      4  C3  UNL d   1      -3.140   1.810   3.172  0.00  0.00     0.006 A 
ATOM      5  C4  UNL d   1      -3.838   2.429   4.210  0.00  0.00    -0.005 A 
ATOM      6  C5  UNL d   1      -5.232   2.532   4.160  0.00  0.00    -0.074 A 
ATOM      7  C6  UNL d   1      -5.996   3.203   5.262  0.00  0.00     0.077 C 
ATOM      8  C7  UNL d   1      -5.915   2.011   3.053  0.00  0.00    -0.001 A 
ENDROOT
TORSDOF 0
ENDMDL
