MODEL 1
REMARK minimizedAffinity 11.4182329
REMARK minimizedRMSD -1
REMARK  0 active torsions:
REMARK  status: ('A' for Active; 'I' for Inactive)
ROOT
ATOM      1  C   UNL d   1      -1.160  -3.776  -1.962  0.00  0.00     0.077 C 
ATOM      2  C1  UNL d   1      -1.020  -4.545  -3.242  0.00  0.00    -0.074 A 
ATOM      3  C2  UNL d   1       0.238  -4.928  -3.717  0.00  0.00    -0.005 A 
ATOM      4  C3  UNL d   1       0.352  -5.651  -4.905  0.00  0.00     0.006 A 
ATOM      5  C4  UNL d   1      -0.790  -5.998  -5.627  0.00  0.00    -0.005 A 
ATOM      6  C5  UNL d   1      -2.057  -5.625  -5.167  0.00  0.00    -0.074 A 
ATOM      7  C6  UNL d   1      -3.295  -5.999  -5.926  0.00  0.00     0.077 C 
ATOM      8  C7  UNL d   1      -2.163  -4.905  -3.969  0.00  0.00    -0.001 A 
ENDROOT
TORSDOF 0
ENDMDL
