MODEL 1
REMARK minimizedAffinity 9.35664463
REMARK minimizedRMSD -1
REMARK  0 active torsions:
REMARK  status: ('A' for Active; 'I' for Inactive)
ROOT
ATOM      1  C   UNL d   1       1.496  -2.098   3.222  0.00  0.00     0.077 C 
ATOM      2  C1  UNL d   1       0.195  -1.607   2.660  0.00  0.00    -0.074 A 
ATOM      3  C2  UNL d   1      -0.329  -2.146   1.481  0.00  0.00    -0.005 A 
ATOM      4  C3  UNL d   1      -1.545  -1.685   0.976  0.00  0.00     0.006 A 
ATOM      5  C4  UNL d   1      -2.248  -0.682   1.643  0.00  0.00    -0.005 A 
ATOM      6  C5  UNL d   1      -1.740  -0.131   2.824  0.00  0.00    -0.074 A 
ATOM      7  C6  UNL d   1      -2.488   0.942   3.559  0.00  0.00     0.077 C 
ATOM      8  C7  UNL d   1      -0.521  -0.604   3.329  0.00  0.00    -0.001 A 
ENDROOT
TORSDOF 0
ENDMDL
