MODEL 1
REMARK minimizedAffinity 0.946457207
REMARK minimizedRMSD -1
REMARK  0 active torsions:
REMARK  status: ('A' for Active; 'I' for Inactive)
ROOT
ATOM      1  C   UNL d   1      -0.014  -3.281   0.478  0.00  0.00     0.077 C 
ATOM      2  C1  UNL d   1       1.466  -3.070   0.354  0.00  0.00    -0.074 A 
ATOM      3  C2  UNL d   1       2.012  -1.782   0.358  0.00  0.00    -0.005 A 
ATOM      4  C3  UNL d   1       3.391  -1.602   0.252  0.00  0.00     0.006 A 
ATOM      5  C4  UNL d   1       4.237  -2.706   0.141  0.00  0.00    -0.005 A 
ATOM      6  C5  UNL d   1       3.710  -4.002   0.136  0.00  0.00    -0.074 A 
ATOM      7  C6  UNL d   1       4.606  -5.200   0.028  0.00  0.00     0.077 C 
ATOM      8  C7  UNL d   1       2.323  -4.175   0.251  0.00  0.00    -0.001 A 
ENDROOT
TORSDOF 0
ENDMDL
