MODEL 1
REMARK minimizedAffinity 1.38164854
REMARK minimizedRMSD -1
REMARK  0 active torsions:
REMARK  status: ('A' for Active; 'I' for Inactive)
ROOT
ATOM      1  C   UNL d   1      -4.996  -0.811  -2.100  0.00  0.00     0.077 C 
ATOM      2  C1  UNL d   1      -3.979  -1.633  -2.834  0.00  0.00    -0.074 A 
ATOM      3  C2  UNL d   1      -2.612  -1.475  -2.586  0.00  0.00    -0.005 A 
ATOM      4  C3  UNL d   1      -1.678  -2.253  -3.270  0.00  0.00     0.006 A 
ATOM      5  C4  UNL d   1      -2.102  -3.196  -4.208  0.00  0.00    -0.005 A 
ATOM      6  C5  UNL d   1      -3.465  -3.368  -4.469  0.00  0.00    -0.074 A 
ATOM      7  C6  UNL d   1      -3.937  -4.383  -5.467  0.00  0.00     0.077 C 
ATOM      8  C7  UNL d   1      -4.397  -2.587  -3.772  0.00  0.00    -0.001 A 
ENDROOT
TORSDOF 0
ENDMDL
