MODEL 1
REMARK minimizedAffinity -3.91815686
REMARK minimizedRMSD -1
REMARK  0 active torsions:
REMARK  status: ('A' for Active; 'I' for Inactive)
ROOT
ATOM      1  C   UNL d   1      -5.568  -2.213   5.986  0.00  0.00     0.077 C 
ATOM      2  C1  UNL d   1      -5.430  -3.537   5.296  0.00  0.00    -0.074 A 
ATOM      3  C2  UNL d   1      -5.593  -4.735   6.000  0.00  0.00    -0.005 A 
ATOM      4  C3  UNL d   1      -5.471  -5.959   5.343  0.00  0.00     0.006 A 
ATOM      5  C4  UNL d   1      -5.185  -5.998   3.978  0.00  0.00    -0.005 A 
ATOM      6  C5  UNL d   1      -5.019  -4.811   3.257  0.00  0.00    -0.074 A 
ATOM      7  C6  UNL d   1      -4.721  -4.835   1.787  0.00  0.00     0.077 C 
ATOM      8  C7  UNL d   1      -5.150  -3.585   3.923  0.00  0.00    -0.001 A 
ENDROOT
TORSDOF 0
ENDMDL
