MODEL 1
REMARK minimizedAffinity -2.89092731
REMARK minimizedRMSD -1
REMARK  0 active torsions:
REMARK  status: ('A' for Active; 'I' for Inactive)
ROOT
ATOM      1  O1  BZF d   1      -1.085  -0.921   0.421  0.00  0.00    -0.204 OA
ATOM      2  C2  BZF d   1      -1.096  -2.062   1.199  0.00  0.00     0.174 A 
ATOM      3  C3  BZF d   1       0.157  -2.523   1.390  0.00  0.00    -0.012 A 
ATOM      4  C3A BZF d   1       1.011  -1.560   0.764  0.00  0.00    -0.107 A 
ATOM      5  C4  BZF d   1       2.366  -1.454   0.630  0.00  0.00     0.055 A 
ATOM      6  C5  BZF d   1       2.879  -0.431  -0.102  0.00  0.00    -0.016 A 
ATOM      7  C6  BZF d   1       2.068   0.500  -0.717  0.00  0.00     0.022 A 
ATOM      8  C7  BZF d   1       0.718   0.439  -0.608  0.00  0.00     0.029 A 
ATOM      9  C7A BZF d   1       0.198  -0.575   0.158  0.00  0.00     0.058 A 
ENDROOT
TORSDOF 0
ENDMDL
