MODEL 1
REMARK minimizedAffinity -2.11652446
REMARK minimizedRMSD -1
REMARK  0 active torsions:
REMARK  status: ('A' for Active; 'I' for Inactive)
ROOT
ATOM      1  O1  BZF d   1      -1.670   0.767  -3.372  0.00  0.00    -0.204 OA
ATOM      2  C2  BZF d   1      -2.589   1.779  -3.571  0.00  0.00     0.174 A 
ATOM      3  C3  BZF d   1      -2.860   2.413  -2.412  0.00  0.00    -0.012 A 
ATOM      4  C3A BZF d   1      -1.991   1.817  -1.445  0.00  0.00    -0.107 A 
ATOM      5  C4  BZF d   1      -1.781   2.032  -0.112  0.00  0.00     0.055 A 
ATOM      6  C5  BZF d   1      -0.914   1.228   0.558  0.00  0.00    -0.016 A 
ATOM      7  C6  BZF d   1      -0.244   0.199  -0.071  0.00  0.00     0.022 A 
ATOM      8  C7  BZF d   1      -0.415  -0.049  -1.392  0.00  0.00     0.029 A 
ATOM      9  C7A BZF d   1      -1.266   0.781  -2.079  0.00  0.00     0.058 A 
ENDROOT
TORSDOF 0
ENDMDL
