MODEL 1
REMARK minimizedAffinity -1.13686728
REMARK minimizedRMSD -1
REMARK  0 active torsions:
REMARK  status: ('A' for Active; 'I' for Inactive)
ROOT
ATOM      1  O1  BZF d   1      -1.039   4.377  -5.369  0.00  0.00    -0.204 OA
ATOM      2  C2  BZF d   1      -0.174   5.277  -4.777  0.00  0.00     0.174 A 
ATOM      3  C3  BZF d   1      -0.211   5.163  -3.434  0.00  0.00    -0.012 A 
ATOM      4  C3A BZF d   1      -1.088   4.063  -3.173  0.00  0.00    -0.107 A 
ATOM      5  C4  BZF d   1      -1.514   3.453  -2.029  0.00  0.00     0.055 A 
ATOM      6  C5  BZF d   1      -2.429   2.451  -2.115  0.00  0.00    -0.016 A 
ATOM      7  C6  BZF d   1      -2.942   2.039  -3.328  0.00  0.00     0.022 A 
ATOM      8  C7  BZF d   1      -2.546   2.611  -4.491  0.00  0.00     0.029 A 
ATOM      9  C7A BZF d   1      -1.597   3.601  -4.409  0.00  0.00     0.058 A 
ENDROOT
TORSDOF 0
ENDMDL
