MODEL 1
REMARK minimizedAffinity -5.34221888
REMARK minimizedRMSD -1
REMARK  0 active torsions:
REMARK  status: ('A' for Active; 'I' for Inactive)
ROOT
ATOM      1  O1  BZF d   1       2.028  -1.866   1.038  0.00  0.00    -0.204 OA
ATOM      2  C2  BZF d   1       1.178  -2.721   1.713  0.00  0.00     0.174 A 
ATOM      3  C3  BZF d   1      -0.096  -2.284   1.641  0.00  0.00    -0.012 A 
ATOM      4  C3A BZF d   1      -0.051  -1.131   0.796  0.00  0.00    -0.107 A 
ATOM      5  C4  BZF d   1      -1.003  -0.267   0.334  0.00  0.00     0.055 A 
ATOM      6  C5  BZF d   1      -0.620   0.800  -0.415  0.00  0.00    -0.016 A 
ATOM      7  C6  BZF d   1       0.706   1.037  -0.716  0.00  0.00     0.022 A 
ATOM      8  C7  BZF d   1       1.685   0.206  -0.285  0.00  0.00     0.029 A 
ATOM      9  C7A BZF d   1       1.298  -0.892   0.444  0.00  0.00     0.058 A 
ENDROOT
TORSDOF 0
ENDMDL
