MODEL 1
REMARK minimizedAffinity -3.49903226
REMARK minimizedRMSD -1
REMARK  0 active torsions:
REMARK  status: ('A' for Active; 'I' for Inactive)
ROOT
ATOM      1  O1  BZF d   1       0.583   1.173  -0.858  0.00  0.00    -0.204 OA
ATOM      2  C2  BZF d   1      -0.599   1.515  -0.230  0.00  0.00     0.174 A 
ATOM      3  C3  BZF d   1      -0.991   0.540   0.616  0.00  0.00    -0.012 A 
ATOM      4  C3A BZF d   1       0.057  -0.434   0.578  0.00  0.00    -0.107 A 
ATOM      5  C4  BZF d   1       0.254  -1.625   1.217  0.00  0.00     0.055 A 
ATOM      6  C5  BZF d   1       1.348  -2.369   0.903  0.00  0.00    -0.016 A 
ATOM      7  C6  BZF d   1       2.259  -1.955  -0.046  0.00  0.00     0.022 A 
ATOM      8  C7  BZF d   1       2.109  -0.779  -0.702  0.00  0.00     0.029 A 
ATOM      9  C7A BZF d   1       1.022  -0.009  -0.363  0.00  0.00     0.058 A 
ENDROOT
TORSDOF 0
ENDMDL
