MODEL 1
REMARK minimizedAffinity -4.81406498
REMARK minimizedRMSD -1
REMARK  0 active torsions:
REMARK  status: ('A' for Active; 'I' for Inactive)
ROOT
ATOM      1  O1  BZF d   1      -0.834   1.582   0.223  0.00  0.00    -0.204 OA
ATOM      2  C2  BZF d   1      -0.013   1.633  -0.887  0.00  0.00     0.174 A 
ATOM      3  C3  BZF d   1       0.678   0.483  -1.024  0.00  0.00    -0.012 A 
ATOM      4  C3A BZF d   1       0.194  -0.373   0.016  0.00  0.00    -0.107 A 
ATOM      5  C4  BZF d   1       0.484  -1.654   0.389  0.00  0.00     0.055 A 
ATOM      6  C5  BZF d   1      -0.113  -2.171   1.495  0.00  0.00    -0.016 A 
ATOM      7  C6  BZF d   1      -0.999  -1.435   2.253  0.00  0.00     0.022 A 
ATOM      8  C7  BZF d   1      -1.322  -0.162   1.920  0.00  0.00     0.029 A 
ATOM      9  C7A BZF d   1      -0.746   0.353   0.784  0.00  0.00     0.058 A 
ENDROOT
TORSDOF 0
ENDMDL
