MODEL 1
REMARK minimizedAffinity -5.17361736
REMARK minimizedRMSD -1
REMARK  0 active torsions:
REMARK  status: ('A' for Active; 'I' for Inactive)
ROOT
ATOM      1  O1  BZF d   1      -1.361   0.727   0.034  0.00  0.00    -0.204 OA
ATOM      2  C2  BZF d   1      -0.986   1.636  -0.937  0.00  0.00     0.174 A 
ATOM      3  C3  BZF d   1       0.308   1.466  -1.276  0.00  0.00    -0.012 A 
ATOM      4  C3A BZF d   1       0.745   0.324  -0.534  0.00  0.00    -0.107 A 
ATOM      5  C4  BZF d   1       1.932  -0.348  -0.457  0.00  0.00     0.055 A 
ATOM      6  C5  BZF d   1       2.051  -1.380   0.419  0.00  0.00    -0.016 A 
ATOM      7  C6  BZF d   1       1.007  -1.762   1.237  0.00  0.00     0.022 A 
ATOM      8  C7  BZF d   1      -0.190  -1.129   1.192  0.00  0.00     0.029 A 
ATOM      9  C7A BZF d   1      -0.324  -0.108   0.284  0.00  0.00     0.058 A 
ENDROOT
TORSDOF 0
ENDMDL
