MODEL 1
REMARK minimizedAffinity 0.789290309
REMARK minimizedRMSD -1
REMARK  0 active torsions:
REMARK  status: ('A' for Active; 'I' for Inactive)
ROOT
ATOM      1  O1  BZF d   1       1.152  -2.883   1.443  0.00  0.00    -0.204 OA
ATOM      2  C2  BZF d   1       2.477  -2.705   1.791  0.00  0.00     0.174 A 
ATOM      3  C3  BZF d   1       2.902  -1.474   1.440  0.00  0.00    -0.012 A 
ATOM      4  C3A BZF d   1       1.747  -0.811   0.918  0.00  0.00    -0.107 A 
ATOM      5  C4  BZF d   1       1.527   0.441   0.420  0.00  0.00     0.055 A 
ATOM      6  C5  BZF d   1       0.300   0.750  -0.076  0.00  0.00    -0.016 A 
ATOM      7  C6  BZF d   1      -0.728  -0.170  -0.094  0.00  0.00     0.022 A 
ATOM      8  C7  BZF d   1      -0.559  -1.424   0.393  0.00  0.00     0.029 A 
ATOM      9  C7A BZF d   1       0.670  -1.728   0.925  0.00  0.00     0.058 A 
ENDROOT
TORSDOF 0
ENDMDL
