MODEL 1
REMARK minimizedAffinity -3.57418966
REMARK minimizedRMSD -1
REMARK  0 active torsions:
REMARK  status: ('A' for Active; 'I' for Inactive)
ROOT
ATOM      1  O1  BZF d   1      -2.104   3.840  -4.667  0.00  0.00    -0.204 OA
ATOM      2  C2  BZF d   1      -0.942   4.525  -4.367  0.00  0.00     0.174 A 
ATOM      3  C3  BZF d   1      -0.376   4.037  -3.245  0.00  0.00    -0.012 A 
ATOM      4  C3A BZF d   1      -1.189   2.922  -2.867  0.00  0.00    -0.107 A 
ATOM      5  C4  BZF d   1      -1.129   2.020  -1.843  0.00  0.00     0.055 A 
ATOM      6  C5  BZF d   1      -2.119   1.098  -1.716  0.00  0.00    -0.016 A 
ATOM      7  C6  BZF d   1      -3.184   1.051  -2.591  0.00  0.00     0.022 A 
ATOM      8  C7  BZF d   1      -3.285   1.922  -3.625  0.00  0.00     0.029 A 
ATOM      9  C7A BZF d   1      -2.269   2.834  -3.775  0.00  0.00     0.058 A 
ENDROOT
TORSDOF 0
ENDMDL
