MODEL 1
REMARK minimizedAffinity -0.465458572
REMARK minimizedRMSD -1
REMARK  0 active torsions:
REMARK  status: ('A' for Active; 'I' for Inactive)
ROOT
ATOM      1  O1  BZF d   1       2.482  -1.774   0.605  0.00  0.00    -0.204 OA
ATOM      2  C2  BZF d   1       1.775  -2.872   1.054  0.00  0.00     0.174 A 
ATOM      3  C3  BZF d   1       0.453  -2.607   1.093  0.00  0.00    -0.012 A 
ATOM      4  C3A BZF d   1       0.317  -1.290   0.552  0.00  0.00    -0.107 A 
ATOM      5  C4  BZF d   1      -0.755  -0.478   0.316  0.00  0.00     0.055 A 
ATOM      6  C5  BZF d   1      -0.541   0.779  -0.153  0.00  0.00    -0.016 A 
ATOM      7  C6  BZF d   1       0.730   1.259  -0.391  0.00  0.00     0.022 A 
ATOM      8  C7  BZF d   1       1.825   0.489  -0.176  0.00  0.00     0.029 A 
ATOM      9  C7A BZF d   1       1.610  -0.794   0.266  0.00  0.00     0.058 A 
ENDROOT
TORSDOF 0
ENDMDL
