MODEL 1
REMARK minimizedAffinity -4.55462456
REMARK minimizedRMSD -1
REMARK  0 active torsions:
REMARK  status: ('A' for Active; 'I' for Inactive)
ROOT
ATOM      1  O1  BZF d   1       1.981  -2.106   0.443  0.00  0.00    -0.204 OA
ATOM      2  C2  BZF d   1       1.121  -2.856   1.222  0.00  0.00     0.174 A 
ATOM      3  C3  BZF d   1      -0.041  -2.200   1.420  0.00  0.00    -0.012 A 
ATOM      4  C3A BZF d   1       0.067  -1.002   0.645  0.00  0.00    -0.107 A 
ATOM      5  C4  BZF d   1      -0.774   0.051   0.423  0.00  0.00     0.055 A 
ATOM      6  C5  BZF d   1      -0.338   1.097  -0.327  0.00  0.00    -0.016 A 
ATOM      7  C6  BZF d   1       0.933   1.126  -0.864  0.00  0.00     0.022 A 
ATOM      8  C7  BZF d   1       1.801   0.102  -0.675  0.00  0.00     0.029 A 
ATOM      9  C7A BZF d   1       1.352  -0.971   0.055  0.00  0.00     0.058 A 
ENDROOT
TORSDOF 0
ENDMDL
