MODEL 1
REMARK minimizedAffinity -3.80250335
REMARK minimizedRMSD -1
REMARK  0 active torsions:
REMARK  status: ('A' for Active; 'I' for Inactive)
ROOT
ATOM      1  O1  BZF d   1       0.317   1.272  -1.217  0.00  0.00    -0.204 OA
ATOM      2  C2  BZF d   1      -1.064   1.323  -1.212  0.00  0.00     0.174 A 
ATOM      3  C3  BZF d   1      -1.576   0.322  -0.467  0.00  0.00    -0.012 A 
ATOM      4  C3A BZF d   1      -0.444  -0.344   0.100  0.00  0.00    -0.107 A 
ATOM      5  C4  BZF d   1      -0.305  -1.408   0.943  0.00  0.00     0.055 A 
ATOM      6  C5  BZF d   1       0.942  -1.854   1.245  0.00  0.00    -0.016 A 
ATOM      7  C6  BZF d   1       2.072  -1.263   0.718  0.00  0.00     0.022 A 
ATOM      8  C7  BZF d   1       1.985  -0.201  -0.120  0.00  0.00     0.029 A 
ATOM      9  C7A BZF d   1       0.727   0.272  -0.400  0.00  0.00     0.058 A 
ENDROOT
TORSDOF 0
ENDMDL
