MODEL 1
REMARK minimizedAffinity -4.18513441
REMARK minimizedRMSD -1
REMARK  0 active torsions:
REMARK  status: ('A' for Active; 'I' for Inactive)
ROOT
ATOM      1  O1  BZF d   1      -0.966   0.719   0.257  0.00  0.00    -0.204 OA
ATOM      2  C2  BZF d   1      -0.019   1.528  -0.342  0.00  0.00     0.174 A 
ATOM      3  C3  BZF d   1       1.194   0.937  -0.325  0.00  0.00    -0.012 A 
ATOM      4  C3A BZF d   1       0.973  -0.359   0.241  0.00  0.00    -0.107 A 
ATOM      5  C4  BZF d   1       1.792  -1.419   0.505  0.00  0.00     0.055 A 
ATOM      6  C5  BZF d   1       1.278  -2.511   1.130  0.00  0.00    -0.016 A 
ATOM      7  C6  BZF d   1      -0.047  -2.574   1.509  0.00  0.00     0.022 A 
ATOM      8  C7  BZF d   1      -0.899  -1.548   1.264  0.00  0.00     0.029 A 
ATOM      9  C7A BZF d   1      -0.390  -0.457   0.604  0.00  0.00     0.058 A 
ENDROOT
TORSDOF 0
ENDMDL
