MODEL 1
REMARK minimizedAffinity -1.63603771
REMARK minimizedRMSD -1
REMARK  0 active torsions:
REMARK  status: ('A' for Active; 'I' for Inactive)
ROOT
ATOM      1  O1  BZF d   1       0.044   1.056  -0.525  0.00  0.00    -0.204 OA
ATOM      2  C2  BZF d   1      -1.331   1.149  -0.421  0.00  0.00     0.174 A 
ATOM      3  C3  BZF d   1      -1.843   0.041   0.153  0.00  0.00    -0.012 A 
ATOM      4  C3A BZF d   1      -0.710  -0.757   0.508  0.00  0.00    -0.107 A 
ATOM      5  C4  BZF d   1      -0.571  -1.967   1.124  0.00  0.00     0.055 A 
ATOM      6  C5  BZF d   1       0.671  -2.503   1.255  0.00  0.00    -0.016 A 
ATOM      7  C6  BZF d   1       1.793  -1.859   0.777  0.00  0.00     0.022 A 
ATOM      8  C7  BZF d   1       1.706  -0.654   0.163  0.00  0.00     0.029 A 
ATOM      9  C7A BZF d   1       0.456  -0.095   0.059  0.00  0.00     0.058 A 
ENDROOT
TORSDOF 0
ENDMDL
