MODEL 1
REMARK minimizedAffinity -1.14326763
REMARK minimizedRMSD -1
REMARK  0 active torsions:
REMARK  status: ('A' for Active; 'I' for Inactive)
ROOT
ATOM      1  O1  BZF d   1       1.167   0.956   0.101  0.00  0.00    -0.204 OA
ATOM      2  C2  BZF d   1      -0.053   1.453  -0.314  0.00  0.00     0.174 A 
ATOM      3  C3  BZF d   1      -1.034   0.552  -0.105  0.00  0.00    -0.012 A 
ATOM      4  C3A BZF d   1      -0.401  -0.544   0.563  0.00  0.00    -0.107 A 
ATOM      5  C4  BZF d   1      -0.856  -1.737   1.047  0.00  0.00     0.055 A 
ATOM      6  C5  BZF d   1       0.033  -2.616   1.579  0.00  0.00    -0.016 A 
ATOM      7  C6  BZF d   1       1.383  -2.338   1.638  0.00  0.00     0.022 A 
ATOM      8  C7  BZF d   1       1.881  -1.166   1.175  0.00  0.00     0.029 A 
ATOM      9  C7A BZF d   1       0.980  -0.261   0.667  0.00  0.00     0.058 A 
ENDROOT
TORSDOF 0
ENDMDL
