MODEL 1
REMARK minimizedAffinity -3.00090384
REMARK minimizedRMSD -1
REMARK  0 active torsions:
REMARK  status: ('A' for Active; 'I' for Inactive)
ROOT
ATOM      1  O1  BZF d   1       1.502  -2.670   0.929  0.00  0.00    -0.204 OA
ATOM      2  C2  BZF d   1       0.255  -3.258   0.838  0.00  0.00     0.174 A 
ATOM      3  C3  BZF d   1      -0.650  -2.386   0.348  0.00  0.00    -0.012 A 
ATOM      4  C3A BZF d   1       0.096  -1.207   0.032  0.00  0.00    -0.107 A 
ATOM      5  C4  BZF d   1      -0.242   0.004  -0.502  0.00  0.00     0.055 A 
ATOM      6  C5  BZF d   1       0.710   0.966  -0.613  0.00  0.00    -0.016 A 
ATOM      7  C6  BZF d   1       2.008   0.755  -0.196  0.00  0.00     0.022 A 
ATOM      8  C7  BZF d   1       2.393  -0.431   0.335  0.00  0.00     0.029 A 
ATOM      9  C7A BZF d   1       1.440  -1.417   0.419  0.00  0.00     0.058 A 
ENDROOT
TORSDOF 0
ENDMDL
