MODEL 1
REMARK minimizedAffinity -2.83536196
REMARK minimizedRMSD -1
REMARK  0 active torsions:
REMARK  status: ('A' for Active; 'I' for Inactive)
ROOT
ATOM      1  O1  BZF d   1       2.405  -1.908   0.682  0.00  0.00    -0.204 OA
ATOM      2  C2  BZF d   1       1.777  -3.094   1.007  0.00  0.00     0.174 A 
ATOM      3  C3  BZF d   1       0.439  -2.977   0.883  0.00  0.00    -0.012 A 
ATOM      4  C3A BZF d   1       0.223  -1.661   0.365  0.00  0.00    -0.107 A 
ATOM      5  C4  BZF d   1      -0.897  -0.962   0.014  0.00  0.00     0.055 A 
ATOM      6  C5  BZF d   1      -0.770   0.330  -0.389  0.00  0.00    -0.016 A 
ATOM      7  C6  BZF d   1       0.459   0.954  -0.448  0.00  0.00     0.022 A 
ATOM      8  C7  BZF d   1       1.598   0.300  -0.115  0.00  0.00     0.029 A 
ATOM      9  C7A BZF d   1       1.477  -1.015   0.261  0.00  0.00     0.058 A 
ENDROOT
TORSDOF 0
ENDMDL
