MODEL 1
REMARK minimizedAffinity -4.65266848
REMARK minimizedRMSD -1
REMARK  0 active torsions:
REMARK  status: ('A' for Active; 'I' for Inactive)
ROOT
ATOM      1  O1  BZF d   1       0.437  -2.386   0.998  0.00  0.00    -0.204 OA
ATOM      2  C2  BZF d   1       1.780  -2.695   0.903  0.00  0.00     0.174 A 
ATOM      3  C3  BZF d   1       2.463  -1.688   0.320  0.00  0.00    -0.012 A 
ATOM      4  C3A BZF d   1       1.500  -0.649   0.117  0.00  0.00    -0.107 A 
ATOM      5  C4  BZF d   1       1.573   0.609  -0.409  0.00  0.00     0.055 A 
ATOM      6  C5  BZF d   1       0.435   1.342  -0.530  0.00  0.00    -0.016 A 
ATOM      7  C6  BZF d   1      -0.792   0.846  -0.142  0.00  0.00     0.022 A 
ATOM      8  C7  BZF d   1      -0.914  -0.395   0.390  0.00  0.00     0.029 A 
ATOM      9  C7A BZF d   1       0.239  -1.125   0.544  0.00  0.00     0.058 A 
ENDROOT
TORSDOF 0
ENDMDL
