MODEL 1
REMARK minimizedAffinity -5.11646891
REMARK minimizedRMSD -1
REMARK  0 active torsions:
REMARK  status: ('A' for Active; 'I' for Inactive)
ROOT
ATOM      1  O1  BZF d   1      -0.154  -2.178   1.581  0.00  0.00    -0.204 OA
ATOM      2  C2  BZF d   1       0.934  -2.958   1.242  0.00  0.00     0.174 A 
ATOM      3  C3  BZF d   1       1.707  -2.331   0.332  0.00  0.00    -0.012 A 
ATOM      4  C3A BZF d   1       1.111  -1.042   0.156  0.00  0.00    -0.107 A 
ATOM      5  C4  BZF d   1       1.431   0.043  -0.608  0.00  0.00     0.055 A 
ATOM      6  C5  BZF d   1       0.601   1.120  -0.606  0.00  0.00    -0.016 A 
ATOM      7  C6  BZF d   1      -0.556   1.143   0.144  0.00  0.00     0.022 A 
ATOM      8  C7  BZF d   1      -0.912   0.092   0.922  0.00  0.00     0.029 A 
ATOM      9  C7A BZF d   1      -0.059  -0.985   0.947  0.00  0.00     0.058 A 
ENDROOT
TORSDOF 0
ENDMDL
