MODEL 1
REMARK minimizedAffinity -5.06916714
REMARK minimizedRMSD -1
REMARK  1 active torsions:
REMARK  status: ('A' for Active; 'I' for Inactive)
REMARK    1  A    between atoms: C1_2  and  C2_3 
ROOT
ATOM      1  C2  UNL d   1      -0.091   0.280   0.113  0.00  0.00    -0.077 A 
ATOM      2  C3  UNL d   1       0.918   0.787   0.943  0.00  0.00     0.002 A 
ATOM      3  C4  UNL d   1       0.605   1.299   2.204  0.00  0.00     0.002 A 
ATOM      4  C5  UNL d   1      -0.716   1.304   2.646  0.00  0.00    -0.004 A 
ATOM      5  C6  UNL d   1      -1.727   0.804   1.827  0.00  0.00     0.002 A 
ATOM      6  C7  UNL d   1      -1.416   0.293   0.566  0.00  0.00     0.002 A 
ENDROOT
BRANCH   1   7
ATOM      7  C1  UNL d   1       0.251  -0.318  -1.227  0.00  0.00     0.055 C 
ATOM      8  C   UNL d   1       1.150  -1.536  -1.077  0.00  0.00     0.019 C 
ENDBRANCH   1   7
TORSDOF 1
ENDMDL
