MODEL 1
REMARK minimizedAffinity 4.9630127
REMARK minimizedRMSD -1
REMARK  1 active torsions:
REMARK  status: ('A' for Active; 'I' for Inactive)
REMARK    1  A    between atoms: C1_2  and  C2_3 
ROOT
ATOM      1  C2  UNL d   1       0.285  -0.478   1.035  0.00  0.00    -0.077 A 
ATOM      2  C3  UNL d   1      -0.244  -0.283   2.319  0.00  0.00     0.002 A 
ATOM      3  C4  UNL d   1      -1.616  -0.093   2.496  0.00  0.00     0.002 A 
ATOM      4  C5  UNL d   1      -2.470  -0.100   1.395  0.00  0.00    -0.004 A 
ATOM      5  C6  UNL d   1      -1.953  -0.291   0.114  0.00  0.00     0.002 A 
ATOM      6  C7  UNL d   1      -0.582  -0.481  -0.065  0.00  0.00     0.002 A 
ENDROOT
BRANCH   1   7
ATOM      7  C1  UNL d   1       1.758  -0.733   0.847  0.00  0.00     0.055 C 
ATOM      8  C   UNL d   1       2.568  -0.181   2.010  0.00  0.00     0.019 C 
ENDBRANCH   1   7
TORSDOF 1
ENDMDL
