MODEL 1
REMARK minimizedAffinity -4.00055742
REMARK minimizedRMSD -1
REMARK  1 active torsions:
REMARK  status: ('A' for Active; 'I' for Inactive)
REMARK    1  A    between atoms: C1_2  and  C2_3 
ROOT
ATOM      1  C2  UNL d   1      -0.351   0.199   1.126  0.00  0.00    -0.077 A 
ATOM      2  C3  UNL d   1      -1.277   0.723   2.038  0.00  0.00     0.002 A 
ATOM      3  C4  UNL d   1      -0.846   1.508   3.110  0.00  0.00     0.002 A 
ATOM      4  C5  UNL d   1       0.510   1.779   3.275  0.00  0.00    -0.004 A 
ATOM      5  C6  UNL d   1       1.439   1.261   2.374  0.00  0.00     0.002 A 
ATOM      6  C7  UNL d   1       1.010   0.475   1.303  0.00  0.00     0.002 A 
ENDROOT
BRANCH   1   7
ATOM      7  C1  UNL d   1      -0.819  -0.607  -0.058  0.00  0.00     0.055 C 
ATOM      8  C   UNL d   1      -2.337  -0.692  -0.105  0.00  0.00     0.019 C 
ENDBRANCH   1   7
TORSDOF 1
ENDMDL
