MODEL 1
REMARK minimizedAffinity -4.31907606
REMARK minimizedRMSD -1
REMARK  1 active torsions:
REMARK  status: ('A' for Active; 'I' for Inactive)
REMARK    1  A    between atoms: C1_2  and  C2_3 
ROOT
ATOM      1  C2  UNL d   1       0.336  -0.424  -1.185  0.00  0.00    -0.077 A 
ATOM      2  C3  UNL d   1      -0.805   0.062  -0.532  0.00  0.00     0.002 A 
ATOM      3  C4  UNL d   1      -0.746   0.432   0.813  0.00  0.00     0.002 A 
ATOM      4  C5  UNL d   1       0.453   0.323   1.515  0.00  0.00    -0.004 A 
ATOM      5  C6  UNL d   1       1.593  -0.161   0.875  0.00  0.00     0.002 A 
ATOM      6  C7  UNL d   1       1.535  -0.532  -0.469  0.00  0.00     0.002 A 
ENDROOT
BRANCH   1   7
ATOM      7  C1  UNL d   1       0.286  -0.777  -2.648  0.00  0.00     0.055 C 
ATOM      8  C   UNL d   1       1.033   0.248  -3.490  0.00  0.00     0.019 C 
ENDBRANCH   1   7
TORSDOF 1
ENDMDL
