MODEL 1
REMARK minimizedAffinity -1.30939114
REMARK minimizedRMSD -1
REMARK  1 active torsions:
REMARK  status: ('A' for Active; 'I' for Inactive)
REMARK    1  A    between atoms: C1_2  and  C2_3 
ROOT
ATOM      1  C2  UNL d   1       0.511   0.241   1.448  0.00  0.00    -0.077 A 
ATOM      2  C3  UNL d   1      -0.496  -0.074   0.525  0.00  0.00     0.002 A 
ATOM      3  C4  UNL d   1      -0.181  -0.732  -0.666  0.00  0.00     0.002 A 
ATOM      4  C5  UNL d   1       1.138  -1.084  -0.942  0.00  0.00    -0.004 A 
ATOM      5  C6  UNL d   1       2.147  -0.773  -0.031  0.00  0.00     0.002 A 
ATOM      6  C7  UNL d   1       1.835  -0.114   1.159  0.00  0.00     0.002 A 
ENDROOT
BRANCH   1   7
ATOM      7  C1  UNL d   1       0.167   0.906   2.755  0.00  0.00     0.055 C 
ATOM      8  C   UNL d   1      -0.025  -0.118   3.864  0.00  0.00     0.019 C 
ENDBRANCH   1   7
TORSDOF 1
ENDMDL
