MODEL 1
REMARK minimizedAffinity -0.698159873
REMARK minimizedRMSD -1
REMARK  2 active torsions:
REMARK  status: ('A' for Active; 'I' for Inactive)
REMARK    1  A    between atoms: C1_2  and  C2_3 
REMARK    2  A    between atoms: C2_3  and  C3_4 
ROOT
ATOM      1  C3  UNL d   1      -0.660   0.756   1.707  0.00  0.00    -0.075 A 
ATOM      2  C4  UNL d   1      -1.832   0.351   1.052  0.00  0.00     0.002 A 
ATOM      3  C5  UNL d   1      -1.764  -0.360  -0.147  0.00  0.00     0.002 A 
ATOM      4  C6  UNL d   1      -0.526  -0.665  -0.710  0.00  0.00    -0.004 A 
ATOM      5  C7  UNL d   1       0.644  -0.253  -0.076  0.00  0.00     0.002 A 
ATOM      6  C8  UNL d   1       0.579   0.454   1.125  0.00  0.00     0.002 A 
ENDROOT
BRANCH   1   7
ATOM      7  C2  UNL d   1      -0.726   1.500   3.019  0.00  0.00     0.056 C 
BRANCH   7   8
ATOM      8  C1  UNL d   1       0.391   1.133   4.002  0.00  0.00     0.007 C 
ATOM      9  C   UNL d   1       0.296   1.880   5.325  0.00  0.00     0.009 C 
ENDBRANCH   7   8
ENDBRANCH   1   7
TORSDOF 2
ENDMDL
