MODEL 1
REMARK minimizedAffinity 1.20097136
REMARK minimizedRMSD -1
REMARK  2 active torsions:
REMARK  status: ('A' for Active; 'I' for Inactive)
REMARK    1  A    between atoms: C1_2  and  C2_3 
REMARK    2  A    between atoms: C2_3  and  C3_4 
ROOT
ATOM      1  C3  UNL d   1       0.076   0.351   1.894  0.00  0.00    -0.075 A 
ATOM      2  C4  UNL d   1      -1.101   0.996   1.486  0.00  0.00     0.002 A 
ATOM      3  C5  UNL d   1      -2.283   0.834   2.209  0.00  0.00     0.002 A 
ATOM      4  C6  UNL d   1      -2.307   0.019   3.338  0.00  0.00    -0.004 A 
ATOM      5  C7  UNL d   1      -1.148  -0.640   3.742  0.00  0.00     0.002 A 
ATOM      6  C8  UNL d   1       0.038  -0.476   3.024  0.00  0.00     0.002 A 
ENDROOT
BRANCH   1   7
ATOM      7  C2  UNL d   1       1.366   0.545   1.133  0.00  0.00     0.056 C 
BRANCH   7   8
ATOM      8  C1  UNL d   1       1.810   2.007   1.020  0.00  0.00     0.007 C 
ATOM      9  C   UNL d   1       3.188   2.265   1.613  0.00  0.00     0.009 C 
ENDBRANCH   7   8
ENDBRANCH   1   7
TORSDOF 2
ENDMDL
