MODEL 1
REMARK minimizedAffinity 0.340545535
REMARK minimizedRMSD -1
REMARK  2 active torsions:
REMARK  status: ('A' for Active; 'I' for Inactive)
REMARK    1  A    between atoms: C1_2  and  C2_3 
REMARK    2  A    between atoms: C2_3  and  C3_4 
ROOT
ATOM      1  C3  UNL d   1       0.527  -1.863   4.839  0.00  0.00    -0.075 A 
ATOM      2  C4  UNL d   1       1.271  -2.179   5.985  0.00  0.00     0.002 A 
ATOM      3  C5  UNL d   1       2.666  -2.178   5.947  0.00  0.00     0.002 A 
ATOM      4  C6  UNL d   1       3.333  -1.871   4.763  0.00  0.00    -0.004 A 
ATOM      5  C7  UNL d   1       2.604  -1.572   3.614  0.00  0.00     0.002 A 
ATOM      6  C8  UNL d   1       1.208  -1.568   3.651  0.00  0.00     0.002 A 
ENDROOT
BRANCH   1   7
ATOM      7  C2  UNL d   1      -0.982  -1.834   4.882  0.00  0.00     0.056 C 
BRANCH   7   8
ATOM      8  C1  UNL d   1      -1.645  -1.843   3.500  0.00  0.00     0.007 C 
ATOM      9  C   UNL d   1      -2.939  -1.043   3.450  0.00  0.00     0.009 C 
ENDBRANCH   7   8
ENDBRANCH   1   7
TORSDOF 2
ENDMDL
