MODEL 1
REMARK minimizedAffinity 0.66188091
REMARK minimizedRMSD -1
REMARK  2 active torsions:
REMARK  status: ('A' for Active; 'I' for Inactive)
REMARK    1  A    between atoms: C1_2  and  C2_3 
REMARK    2  A    between atoms: C2_3  and  C3_4 
ROOT
ATOM      1  C3  UNL d   1       1.453   0.052   3.123  0.00  0.00    -0.075 A 
ATOM      2  C4  UNL d   1       1.352   0.231   1.736  0.00  0.00     0.002 A 
ATOM      3  C5  UNL d   1       0.113   0.146   1.099  0.00  0.00     0.002 A 
ATOM      4  C6  UNL d   1      -1.036  -0.128   1.838  0.00  0.00    -0.004 A 
ATOM      5  C7  UNL d   1      -0.944  -0.324   3.214  0.00  0.00     0.002 A 
ATOM      6  C8  UNL d   1       0.293  -0.235   3.854  0.00  0.00     0.002 A 
ENDROOT
BRANCH   1   7
ATOM      7  C2  UNL d   1       2.786   0.172   3.822  0.00  0.00     0.056 C 
BRANCH   7   8
ATOM      8  C1  UNL d   1       2.694   0.141   5.351  0.00  0.00     0.007 C 
ATOM      9  C   UNL d   1       3.621  -0.885   5.988  0.00  0.00     0.009 C 
ENDBRANCH   7   8
ENDBRANCH   1   7
TORSDOF 2
ENDMDL
