MODEL 1
REMARK minimizedAffinity 7.65312195
REMARK minimizedRMSD -1
REMARK  2 active torsions:
REMARK  status: ('A' for Active; 'I' for Inactive)
REMARK    1  A    between atoms: C1_2  and  C2_3 
REMARK    2  A    between atoms: C2_3  and  C3_4 
ROOT
ATOM      1  C3  UNL d   1      -1.679   2.379   1.337  0.00  0.00    -0.075 A 
ATOM      2  C4  UNL d   1      -1.917   1.323   2.229  0.00  0.00     0.002 A 
ATOM      3  C5  UNL d   1      -2.378   0.092   1.762  0.00  0.00     0.002 A 
ATOM      4  C6  UNL d   1      -2.616  -0.096   0.402  0.00  0.00    -0.004 A 
ATOM      5  C7  UNL d   1      -2.399   0.951  -0.490  0.00  0.00     0.002 A 
ATOM      6  C8  UNL d   1      -1.934   2.183  -0.027  0.00  0.00     0.002 A 
ENDROOT
BRANCH   1   7
ATOM      7  C2  UNL d   1      -1.153   3.705   1.833  0.00  0.00     0.056 C 
BRANCH   7   8
ATOM      8  C1  UNL d   1      -1.857   4.922   1.225  0.00  0.00     0.007 C 
ATOM      9  C   UNL d   1      -2.194   5.995   2.251  0.00  0.00     0.009 C 
ENDBRANCH   7   8
ENDBRANCH   1   7
TORSDOF 2
ENDMDL
