MODEL 1
REMARK minimizedAffinity 5.82119417
REMARK minimizedRMSD -1
REMARK  0 active torsions:
REMARK  status: ('A' for Active; 'I' for Inactive)
ROOT
ATOM      1  C1  BNZ d   1      -5.992  -0.307   3.030  0.00  0.00     0.000 A 
ATOM      2  C2  BNZ d   1      -5.975  -0.012   4.368  0.00  0.00     0.000 A 
ATOM      3  C3  BNZ d   1      -5.943  -1.008   5.303  0.00  0.00     0.000 A 
ATOM      4  C4  BNZ d   1      -5.969  -2.296   4.902  0.00  0.00     0.000 A 
ATOM      5  C5  BNZ d   1      -5.995  -2.609   3.558  0.00  0.00     0.000 A 
ATOM      6  C6  BNZ d   1      -5.988  -1.604   2.618  0.00  0.00     0.000 A 
ENDROOT
TORSDOF 0
ENDMDL
