MODEL 1
REMARK minimizedAffinity -1.17693579
REMARK minimizedRMSD -1
REMARK  0 active torsions:
REMARK  status: ('A' for Active; 'I' for Inactive)
ROOT
ATOM      1  C1  BNZ d   1       0.931  -0.062   1.213  0.00  0.00     0.000 A 
ATOM      2  C2  BNZ d   1       0.920  -0.192  -0.150  0.00  0.00     0.000 A 
ATOM      3  C3  BNZ d   1       0.244   0.702  -0.933  0.00  0.00     0.000 A 
ATOM      4  C4  BNZ d   1      -0.451   1.700  -0.351  0.00  0.00     0.000 A 
ATOM      5  C5  BNZ d   1      -0.457   1.839   1.022  0.00  0.00     0.000 A 
ATOM      6  C6  BNZ d   1       0.255   0.961   1.805  0.00  0.00     0.000 A 
ENDROOT
TORSDOF 0
ENDMDL
