MODEL 1
REMARK minimizedAffinity 1.31575239
REMARK minimizedRMSD -1
REMARK  0 active torsions:
REMARK  status: ('A' for Active; 'I' for Inactive)
ROOT
ATOM      1  C1  BNZ d   1       0.727   0.302   2.748  0.00  0.00     0.000 A 
ATOM      2  C2  BNZ d   1       0.019   0.910   1.746  0.00  0.00     0.000 A 
ATOM      3  C3  BNZ d   1       0.258   0.605   0.435  0.00  0.00     0.000 A 
ATOM      4  C4  BNZ d   1       1.231  -0.276   0.126  0.00  0.00     0.000 A 
ATOM      5  C5  BNZ d   1       1.960  -0.890   1.124  0.00  0.00     0.000 A 
ATOM      6  C6  BNZ d   1       1.690  -0.611   2.444  0.00  0.00     0.000 A 
ENDROOT
TORSDOF 0
ENDMDL
