MODEL 1
REMARK minimizedAffinity -1.72061861
REMARK minimizedRMSD -1
REMARK  0 active torsions:
REMARK  status: ('A' for Active; 'I' for Inactive)
ROOT
ATOM      1  C1  BNZ d   1       0.211   3.731   1.516  0.00  0.00     0.000 A 
ATOM      2  C2  BNZ d   1       0.244   3.819   0.150  0.00  0.00     0.000 A 
ATOM      3  C3  BNZ d   1      -0.004   2.722  -0.628  0.00  0.00     0.000 A 
ATOM      4  C4  BNZ d   1      -0.244   1.533  -0.040  0.00  0.00     0.000 A 
ATOM      5  C5  BNZ d   1      -0.271   1.427   1.337  0.00  0.00     0.000 A 
ATOM      6  C6  BNZ d   1      -0.060   2.541   2.116  0.00  0.00     0.000 A 
ENDROOT
TORSDOF 0
ENDMDL
