MODEL 1
REMARK minimizedAffinity -2.94122338
REMARK minimizedRMSD -1
REMARK  0 active torsions:
REMARK  status: ('A' for Active; 'I' for Inactive)
ROOT
ATOM      1  C1  DEN d   1      -1.714  -3.325  -1.023  0.00  0.00     0.130 A 
ATOM      2  C2  DEN d   1      -3.082  -2.830  -1.147  0.00  0.00    -0.031 A 
ATOM      3  C3  DEN d   1      -3.079  -1.392  -0.810  0.00  0.00     0.027 A 
ATOM      4  C4  DEN d   1      -1.098   0.108  -0.117  0.00  0.00     0.027 A 
ATOM      5  C5  DEN d   1       0.256   0.133   0.137  0.00  0.00    -0.003 A 
ATOM      6  C6  DEN d   1       1.035  -0.991   0.056  0.00  0.00     0.001 A 
ATOM      7  C7  DEN d   1       0.475  -2.179  -0.332  0.00  0.00     0.017 A 
ATOM      8  C8  DEN d   1      -0.891  -2.214  -0.583  0.00  0.00    -0.094 A 
ATOM      9  C9  DEN d   1      -1.659  -1.065  -0.507  0.00  0.00    -0.072 A 
ENDROOT
TORSDOF 0
ENDMDL
