MODEL 1
REMARK minimizedAffinity -5.28497648
REMARK minimizedRMSD -1
REMARK  0 active torsions:
REMARK  status: ('A' for Active; 'I' for Inactive)
ROOT
ATOM      1  C1  DEN d   1      -3.545  -0.020   3.077  0.00  0.00     0.130 A 
ATOM      2  C2  DEN d   1      -2.671   0.962   3.712  0.00  0.00    -0.031 A 
ATOM      3  C3  DEN d   1      -1.470   1.120   2.868  0.00  0.00     0.027 A 
ATOM      4  C4  DEN d   1      -0.884  -0.053   0.647  0.00  0.00     0.027 A 
ATOM      5  C5  DEN d   1      -1.310  -0.977  -0.281  0.00  0.00    -0.003 A 
ATOM      6  C6  DEN d   1      -2.485  -1.666  -0.139  0.00  0.00     0.001 A 
ATOM      7  C7  DEN d   1      -3.298  -1.409   0.933  0.00  0.00     0.017 A 
ATOM      8  C8  DEN d   1      -2.871  -0.484   1.877  0.00  0.00    -0.094 A 
ATOM      9  C9  DEN d   1      -1.685   0.211   1.709  0.00  0.00    -0.072 A 
ENDROOT
TORSDOF 0
ENDMDL
