MODEL 1
REMARK minimizedAffinity -1.01378977
REMARK minimizedRMSD -1
REMARK  0 active torsions:
REMARK  status: ('A' for Active; 'I' for Inactive)
ROOT
ATOM      1  C1  DEN d   1      -0.128   0.955   0.578  0.00  0.00     0.130 A 
ATOM      2  C2  DEN d   1      -0.495  -0.053  -0.413  0.00  0.00    -0.031 A 
ATOM      3  C3  DEN d   1      -1.676  -0.781   0.091  0.00  0.00     0.027 A 
ATOM      4  C4  DEN d   1      -2.970  -0.444   2.297  0.00  0.00     0.027 A 
ATOM      5  C5  DEN d   1      -3.027   0.284   3.465  0.00  0.00    -0.003 A 
ATOM      6  C6  DEN d   1      -2.109   1.255   3.766  0.00  0.00     0.001 A 
ATOM      7  C7  DEN d   1      -1.120   1.556   2.867  0.00  0.00     0.017 A 
ATOM      8  C8  DEN d   1      -1.052   0.822   1.690  0.00  0.00    -0.094 A 
ATOM      9  C9  DEN d   1      -1.997  -0.148   1.399  0.00  0.00    -0.072 A 
ENDROOT
TORSDOF 0
ENDMDL
