MODEL 1
REMARK minimizedAffinity -4.83247423
REMARK minimizedRMSD -1
REMARK  0 active torsions:
REMARK  status: ('A' for Active; 'I' for Inactive)
ROOT
ATOM      1  C1  DEN d   1      -3.002  -0.621  -0.019  0.00  0.00     0.130 A 
ATOM      2  C2  DEN d   1      -1.999   0.413   0.224  0.00  0.00    -0.031 A 
ATOM      3  C3  DEN d   1      -0.683  -0.246   0.343  0.00  0.00     0.027 A 
ATOM      4  C4  DEN d   1      -0.103  -2.754   0.171  0.00  0.00     0.027 A 
ATOM      5  C5  DEN d   1      -0.622  -4.016  -0.015  0.00  0.00    -0.003 A 
ATOM      6  C6  DEN d   1      -1.963  -4.237  -0.181  0.00  0.00     0.001 A 
ATOM      7  C7  DEN d   1      -2.828  -3.174  -0.208  0.00  0.00     0.017 A 
ATOM      8  C8  DEN d   1      -2.313  -1.899  -0.013  0.00  0.00    -0.094 A 
ATOM      9  C9  DEN d   1      -0.952  -1.696   0.140  0.00  0.00    -0.072 A 
ENDROOT
TORSDOF 0
ENDMDL
