MODEL 1
REMARK minimizedAffinity -3.32932663
REMARK minimizedRMSD -1
REMARK  0 active torsions:
REMARK  status: ('A' for Active; 'I' for Inactive)
ROOT
ATOM      1  C1  DEN d   1      -1.859  -3.949  -0.493  0.00  0.00     0.130 A 
ATOM      2  C2  DEN d   1      -3.189  -3.445  -0.824  0.00  0.00    -0.031 A 
ATOM      3  C3  DEN d   1      -3.129  -1.969  -0.831  0.00  0.00     0.027 A 
ATOM      4  C4  DEN d   1      -1.116  -0.425  -0.368  0.00  0.00     0.027 A 
ATOM      5  C5  DEN d   1       0.219  -0.391  -0.032  0.00  0.00    -0.003 A 
ATOM      6  C6  DEN d   1       0.941  -1.531   0.206  0.00  0.00     0.001 A 
ATOM      7  C7  DEN d   1       0.342  -2.755   0.066  0.00  0.00     0.017 A 
ATOM      8  C8  DEN d   1      -1.005  -2.797  -0.265  0.00  0.00    -0.094 A 
ATOM      9  C9  DEN d   1      -1.715  -1.634  -0.514  0.00  0.00    -0.072 A 
ENDROOT
TORSDOF 0
ENDMDL
