MODEL 1
REMARK minimizedAffinity -0.914776981
REMARK minimizedRMSD -1
REMARK  0 active torsions:
REMARK  status: ('A' for Active; 'I' for Inactive)
ROOT
ATOM      1  C1  DEN d   1      -3.495  -1.153   2.605  0.00  0.00     0.130 A 
ATOM      2  C2  DEN d   1      -4.236  -1.502   3.814  0.00  0.00    -0.031 A 
ATOM      3  C3  DEN d   1      -3.734  -0.658   4.917  0.00  0.00     0.027 A 
ATOM      4  C4  DEN d   1      -1.896   1.151   4.869  0.00  0.00     0.027 A 
ATOM      5  C5  DEN d   1      -0.974   1.794   4.072  0.00  0.00    -0.003 A 
ATOM      6  C6  DEN d   1      -0.806   1.479   2.750  0.00  0.00     0.001 A 
ATOM      7  C7  DEN d   1      -1.603   0.525   2.173  0.00  0.00     0.017 A 
ATOM      8  C8  DEN d   1      -2.529  -0.133   2.971  0.00  0.00    -0.094 A 
ATOM      9  C9  DEN d   1      -2.692   0.209   4.303  0.00  0.00    -0.072 A 
ENDROOT
TORSDOF 0
ENDMDL
