MODEL 1
REMARK minimizedAffinity -5.12636566
REMARK minimizedRMSD -1
REMARK  0 active torsions:
REMARK  status: ('A' for Active; 'I' for Inactive)
ROOT
ATOM      1  C1  DEN d   1       1.438  -2.084  -0.754  0.00  0.00     0.130 A 
ATOM      2  C2  DEN d   1       0.242  -2.047   0.084  0.00  0.00    -0.031 A 
ATOM      3  C3  DEN d   1      -0.275  -0.664   0.080  0.00  0.00     0.027 A 
ATOM      4  C4  DEN d   1       0.653   1.412  -1.138  0.00  0.00     0.027 A 
ATOM      5  C5  DEN d   1       1.656   1.876  -1.959  0.00  0.00    -0.003 A 
ATOM      6  C6  DEN d   1       2.668   1.068  -2.405  0.00  0.00     0.001 A 
ATOM      7  C7  DEN d   1       2.674  -0.260  -2.069  0.00  0.00     0.017 A 
ATOM      8  C8  DEN d   1       1.670  -0.734  -1.235  0.00  0.00    -0.094 A 
ATOM      9  C9  DEN d   1       0.649   0.096  -0.805  0.00  0.00    -0.072 A 
ENDROOT
TORSDOF 0
ENDMDL
