MODEL 1
REMARK minimizedAffinity 3.10085845
REMARK minimizedRMSD -1
REMARK  0 active torsions:
REMARK  status: ('A' for Active; 'I' for Inactive)
ROOT
ATOM      1  C1  DEN d   1       1.721   5.940  -3.994  0.00  0.00     0.130 A 
ATOM      2  C2  DEN d   1       2.226   5.970  -5.364  0.00  0.00    -0.031 A 
ATOM      3  C3  DEN d   1       3.701   6.000  -5.306  0.00  0.00     0.027 A 
ATOM      4  C4  DEN d   1       5.245   5.998  -3.240  0.00  0.00     0.027 A 
ATOM      5  C5  DEN d   1       5.277   5.990  -1.863  0.00  0.00    -0.003 A 
ATOM      6  C6  DEN d   1       4.136   5.999  -1.106  0.00  0.00     0.001 A 
ATOM      7  C7  DEN d   1       2.912   5.971  -1.721  0.00  0.00     0.017 A 
ATOM      8  C8  DEN d   1       2.871   5.986  -3.109  0.00  0.00    -0.094 A 
ATOM      9  C9  DEN d   1       4.036   5.965  -3.857  0.00  0.00    -0.072 A 
ENDROOT
TORSDOF 0
ENDMDL
