MODEL 1
REMARK minimizedAffinity 2.08983517
REMARK minimizedRMSD -1
REMARK  0 active torsions:
REMARK  status: ('A' for Active; 'I' for Inactive)
ROOT
ATOM      1  C1  DEN d   1      -1.427   1.641   2.924  0.00  0.00     0.130 A 
ATOM      2  C2  DEN d   1      -1.081   2.115   4.261  0.00  0.00    -0.031 A 
ATOM      3  C3  DEN d   1      -1.440   1.059   5.227  0.00  0.00     0.027 A 
ATOM      4  C4  DEN d   1      -2.489  -1.256   4.786  0.00  0.00     0.027 A 
ATOM      5  C5  DEN d   1      -2.971  -2.102   3.812  0.00  0.00    -0.003 A 
ATOM      6  C6  DEN d   1      -3.004  -1.750   2.489  0.00  0.00     0.001 A 
ATOM      7  C7  DEN d   1      -2.504  -0.536   2.097  0.00  0.00     0.017 A 
ATOM      8  C8  DEN d   1      -2.023   0.326   3.074  0.00  0.00    -0.094 A 
ATOM      9  C9  DEN d   1      -1.987  -0.054   4.405  0.00  0.00    -0.072 A 
ENDROOT
TORSDOF 0
ENDMDL
