MODEL 1
REMARK minimizedAffinity -5.54783773
REMARK minimizedRMSD -1
REMARK  0 active torsions:
REMARK  status: ('A' for Active; 'I' for Inactive)
ROOT
ATOM      1  C1  DEN d   1       5.094   0.952   3.319  0.00  0.00     0.130 A 
ATOM      2  C2  DEN d   1       5.250   0.544   4.712  0.00  0.00    -0.031 A 
ATOM      3  C3  DEN d   1       5.522   1.753   5.515  0.00  0.00     0.027 A 
ATOM      4  C4  DEN d   1       5.710   4.206   4.740  0.00  0.00     0.027 A 
ATOM      5  C5  DEN d   1       5.665   5.045   3.649  0.00  0.00    -0.003 A 
ATOM      6  C6  DEN d   1       5.462   4.579   2.377  0.00  0.00     0.001 A 
ATOM      7  C7  DEN d   1       5.251   3.241   2.171  0.00  0.00     0.017 A 
ATOM      8  C8  DEN d   1       5.303   2.388   3.265  0.00  0.00    -0.094 A 
ATOM      9  C9  DEN d   1       5.497   2.880   4.544  0.00  0.00    -0.072 A 
ENDROOT
TORSDOF 0
ENDMDL
