MODEL 1
REMARK minimizedAffinity -4.63300991
REMARK minimizedRMSD -1
REMARK  0 active torsions:
REMARK  status: ('A' for Active; 'I' for Inactive)
ROOT
ATOM      1  C1  DEN d   1       5.999  -1.450   5.000  0.00  0.00     0.130 A 
ATOM      2  C2  DEN d   1       5.614  -2.636   4.240  0.00  0.00    -0.031 A 
ATOM      3  C3  DEN d   1       5.186  -2.198   2.896  0.00  0.00     0.027 A 
ATOM      4  C4  DEN d   1       5.088   0.188   1.922  0.00  0.00     0.027 A 
ATOM      5  C5  DEN d   1       5.304   1.521   2.193  0.00  0.00    -0.003 A 
ATOM      6  C6  DEN d   1       5.732   1.957   3.420  0.00  0.00     0.001 A 
ATOM      7  C7  DEN d   1       6.000   1.046   4.408  0.00  0.00     0.017 A 
ATOM      8  C8  DEN d   1       5.777  -0.299   4.144  0.00  0.00    -0.094 A 
ATOM      9  C9  DEN d   1       5.356  -0.720   2.894  0.00  0.00    -0.072 A 
ENDROOT
TORSDOF 0
ENDMDL
