MODEL 1
REMARK minimizedAffinity -1.59700108
REMARK minimizedRMSD -1
REMARK  0 active torsions:
REMARK  status: ('A' for Active; 'I' for Inactive)
ROOT
ATOM      1  C1  DEN d   1       5.554   1.080   3.537  0.00  0.00     0.130 A 
ATOM      2  C2  DEN d   1       5.629   1.930   4.723  0.00  0.00    -0.031 A 
ATOM      3  C3  DEN d   1       5.815   1.057   5.899  0.00  0.00     0.027 A 
ATOM      4  C4  DEN d   1       6.000  -1.513   5.999  0.00  0.00     0.027 A 
ATOM      5  C5  DEN d   1       5.982  -2.670   5.251  0.00  0.00    -0.003 A 
ATOM      6  C6  DEN d   1       5.789  -2.660   3.896  0.00  0.00     0.001 A 
ATOM      7  C7  DEN d   1       5.650  -1.466   3.238  0.00  0.00     0.017 A 
ATOM      8  C8  DEN d   1       5.659  -0.296   3.987  0.00  0.00    -0.094 A 
ATOM      9  C9  DEN d   1       5.868  -0.326   5.355  0.00  0.00    -0.072 A 
ENDROOT
TORSDOF 0
ENDMDL
