MODEL 1
REMARK minimizedAffinity -1.92650557
REMARK minimizedRMSD -1
REMARK  0 active torsions:
REMARK  status: ('A' for Active; 'I' for Inactive)
ROOT
ATOM      1  C1  DEN d   1       5.974   0.142   5.999  0.00  0.00     0.130 A 
ATOM      2  C2  DEN d   1       5.451  -0.895   5.113  0.00  0.00    -0.031 A 
ATOM      3  C3  DEN d   1       4.877  -0.233   3.924  0.00  0.00     0.027 A 
ATOM      4  C4  DEN d   1       4.754   2.283   3.369  0.00  0.00     0.027 A 
ATOM      5  C5  DEN d   1       5.055   3.548   3.821  0.00  0.00    -0.003 A 
ATOM      6  C6  DEN d   1       5.648   3.767   5.037  0.00  0.00     0.001 A 
ATOM      7  C7  DEN d   1       6.000   2.701   5.822  0.00  0.00     0.017 A 
ATOM      8  C8  DEN d   1       5.693   1.423   5.376  0.00  0.00    -0.094 A 
ATOM      9  C9  DEN d   1       5.104   1.222   4.139  0.00  0.00    -0.072 A 
ENDROOT
TORSDOF 0
ENDMDL
