MODEL 1
REMARK minimizedAffinity 0.623155713
REMARK minimizedRMSD -1
REMARK  0 active torsions:
REMARK  status: ('A' for Active; 'I' for Inactive)
ROOT
ATOM      1  C1  BNZ d   1       3.368  -1.448   5.022  0.00  0.00     0.000 A 
ATOM      2  C2  BNZ d   1       4.330  -1.456   5.995  0.00  0.00     0.000 A 
ATOM      3  C3  BNZ d   1       5.314  -2.405   5.999  0.00  0.00     0.000 A 
ATOM      4  C4  BNZ d   1       5.311  -3.367   5.054  0.00  0.00     0.000 A 
ATOM      5  C5  BNZ d   1       4.341  -3.378   4.071  0.00  0.00     0.000 A 
ATOM      6  C6  BNZ d   1       3.375  -2.398   4.048  0.00  0.00     0.000 A 
ENDROOT
TORSDOF 0
ENDMDL
