MODEL 1
REMARK minimizedAffinity -1.78806365
REMARK minimizedRMSD -1
REMARK  0 active torsions:
REMARK  status: ('A' for Active; 'I' for Inactive)
ROOT
ATOM      1  C1  BNZ d   1       6.000  -3.638   6.000  0.00  0.00     0.000 A 
ATOM      2  C2  BNZ d   1       5.986  -2.307   5.681  0.00  0.00     0.000 A 
ATOM      3  C3  BNZ d   1       4.881  -1.734   5.115  0.00  0.00     0.000 A 
ATOM      4  C4  BNZ d   1       3.809  -2.501   4.831  0.00  0.00     0.000 A 
ATOM      5  C5  BNZ d   1       3.811  -3.847   5.138  0.00  0.00     0.000 A 
ATOM      6  C6  BNZ d   1       4.910  -4.412   5.744  0.00  0.00     0.000 A 
ENDROOT
TORSDOF 0
ENDMDL
