MODEL 1
REMARK minimizedAffinity 1.20921886
REMARK minimizedRMSD -1
REMARK  0 active torsions:
REMARK  status: ('A' for Active; 'I' for Inactive)
ROOT
ATOM      1  C1  BNZ d   1       5.881  -2.672   5.999  0.00  0.00     0.000 A 
ATOM      2  C2  BNZ d   1       5.985  -3.415   4.854  0.00  0.00     0.000 A 
ATOM      3  C3  BNZ d   1       5.380  -3.007   3.697  0.00  0.00     0.000 A 
ATOM      4  C4  BNZ d   1       4.642  -1.879   3.698  0.00  0.00     0.000 A 
ATOM      5  C5  BNZ d   1       4.520  -1.123   4.847  0.00  0.00     0.000 A 
ATOM      6  C6  BNZ d   1       5.162  -1.516   5.999  0.00  0.00     0.000 A 
ENDROOT
TORSDOF 0
ENDMDL
