MODEL 1
REMARK minimizedAffinity -3.35526276
REMARK minimizedRMSD -1
REMARK  0 active torsions:
REMARK  status: ('A' for Active; 'I' for Inactive)
ROOT
ATOM      1  C1  BNZ d   1       4.482   4.865  -5.990  0.00  0.00     0.000 A 
ATOM      2  C2  BNZ d   1       4.219   5.907  -5.141  0.00  0.00     0.000 A 
ATOM      3  C3  BNZ d   1       4.730   5.923  -3.873  0.00  0.00     0.000 A 
ATOM      4  C4  BNZ d   1       5.469   4.880  -3.443  0.00  0.00     0.000 A 
ATOM      5  C5  BNZ d   1       5.735   3.818  -4.284  0.00  0.00     0.000 A 
ATOM      6  C6  BNZ d   1       5.252   3.823  -5.572  0.00  0.00     0.000 A 
ENDROOT
TORSDOF 0
ENDMDL
