MODEL 1
REMARK minimizedAffinity -0.342420697
REMARK minimizedRMSD -1
REMARK  0 active torsions:
REMARK  status: ('A' for Active; 'I' for Inactive)
ROOT
ATOM      1  C1  BNZ d   1       5.984   4.200  -4.661  0.00  0.00     0.000 A 
ATOM      2  C2  BNZ d   1       6.000   4.185  -3.291  0.00  0.00     0.000 A 
ATOM      3  C3  BNZ d   1       5.229   5.056  -2.573  0.00  0.00     0.000 A 
ATOM      4  C4  BNZ d   1       4.475   5.966  -3.223  0.00  0.00     0.000 A 
ATOM      5  C5  BNZ d   1       4.456   6.000  -4.603  0.00  0.00     0.000 A 
ATOM      6  C6  BNZ d   1       5.203   5.096  -5.323  0.00  0.00     0.000 A 
ENDROOT
TORSDOF 0
ENDMDL
