MODEL 1
REMARK minimizedAffinity 0.515574753
REMARK minimizedRMSD -1
REMARK  0 active torsions:
REMARK  status: ('A' for Active; 'I' for Inactive)
ROOT
ATOM      1  C1  BNZ d   1      -0.039  -5.844  -2.610  0.00  0.00     0.000 A 
ATOM      2  C2  BNZ d   1       0.476  -4.610  -2.315  0.00  0.00     0.000 A 
ATOM      3  C3  BNZ d   1       0.140  -3.515  -3.060  0.00  0.00     0.000 A 
ATOM      4  C4  BNZ d   1      -0.678  -3.661  -4.122  0.00  0.00     0.000 A 
ATOM      5  C5  BNZ d   1      -1.198  -4.900  -4.439  0.00  0.00     0.000 A 
ATOM      6  C6  BNZ d   1      -0.888  -5.994  -3.663  0.00  0.00     0.000 A 
ENDROOT
TORSDOF 0
ENDMDL
