MODEL 1
REMARK minimizedAffinity -0.641455948
REMARK minimizedRMSD -1
REMARK  0 active torsions:
REMARK  status: ('A' for Active; 'I' for Inactive)
ROOT
ATOM      1  C1  BNZ d   1       5.308   3.762  -2.924  0.00  0.00     0.000 A 
ATOM      2  C2  BNZ d   1       4.731   3.781  -4.166  0.00  0.00     0.000 A 
ATOM      3  C3  BNZ d   1       4.806   4.895  -4.955  0.00  0.00     0.000 A 
ATOM      4  C4  BNZ d   1       5.421   6.000  -4.486  0.00  0.00     0.000 A 
ATOM      5  C5  BNZ d   1       5.999   5.999  -3.232  0.00  0.00     0.000 A 
ATOM      6  C6  BNZ d   1       5.956   4.863  -2.457  0.00  0.00     0.000 A 
ENDROOT
TORSDOF 0
ENDMDL
