MODEL 1
REMARK minimizedAffinity -2.73798704
REMARK minimizedRMSD -1
REMARK  0 active torsions:
REMARK  status: ('A' for Active; 'I' for Inactive)
ROOT
ATOM      1  C1  BNZ d   1       5.183   3.811  -4.226  0.00  0.00     0.000 A 
ATOM      2  C2  BNZ d   1       4.392   4.896  -4.495  0.00  0.00     0.000 A 
ATOM      3  C3  BNZ d   1       4.419   5.999  -3.687  0.00  0.00     0.000 A 
ATOM      4  C4  BNZ d   1       5.204   5.998  -2.591  0.00  0.00     0.000 A 
ATOM      5  C5  BNZ d   1       6.000   4.908  -2.301  0.00  0.00     0.000 A 
ATOM      6  C6  BNZ d   1       6.000   3.816  -3.138  0.00  0.00     0.000 A 
ENDROOT
TORSDOF 0
ENDMDL
