MODEL 1
REMARK minimizedAffinity -0.488931239
REMARK minimizedRMSD -1
REMARK  0 active torsions:
REMARK  status: ('A' for Active; 'I' for Inactive)
ROOT
ATOM      1  C1  BNZ d   1       4.834   6.000  -4.331  0.00  0.00     0.000 A 
ATOM      2  C2  BNZ d   1       5.998   5.964  -3.610  0.00  0.00     0.000 A 
ATOM      3  C3  BNZ d   1       5.974   5.904  -2.245  0.00  0.00     0.000 A 
ATOM      4  C4  BNZ d   1       4.788   5.920  -1.601  0.00  0.00     0.000 A 
ATOM      5  C5  BNZ d   1       3.607   5.965  -2.314  0.00  0.00     0.000 A 
ATOM      6  C6  BNZ d   1       3.634   5.986  -3.689  0.00  0.00     0.000 A 
ENDROOT
TORSDOF 0
ENDMDL
