MODEL 1
REMARK minimizedAffinity -1.75526786
REMARK minimizedRMSD -1
REMARK  0 active torsions:
REMARK  status: ('A' for Active; 'I' for Inactive)
ROOT
ATOM      1  C1  BNZ d   1       5.544   5.082  -4.344  0.00  0.00     0.000 A 
ATOM      2  C2  BNZ d   1       5.450   6.000  -3.332  0.00  0.00     0.000 A 
ATOM      3  C3  BNZ d   1       5.654   5.631  -2.032  0.00  0.00     0.000 A 
ATOM      4  C4  BNZ d   1       5.911   4.339  -1.741  0.00  0.00     0.000 A 
ATOM      5  C5  BNZ d   1       5.999   3.400  -2.750  0.00  0.00     0.000 A 
ATOM      6  C6  BNZ d   1       5.832   3.783  -4.061  0.00  0.00     0.000 A 
ENDROOT
TORSDOF 0
ENDMDL
