MODEL 1
REMARK minimizedAffinity -1.62112355
REMARK minimizedRMSD -1
REMARK  0 active torsions:
REMARK  status: ('A' for Active; 'I' for Inactive)
ROOT
ATOM      1  C1  BNZ d   1       0.353  -4.148  -3.411  0.00  0.00     0.000 A 
ATOM      2  C2  BNZ d   1      -0.732  -3.849  -2.631  0.00  0.00     0.000 A 
ATOM      3  C3  BNZ d   1      -0.794  -2.671  -1.940  0.00  0.00     0.000 A 
ATOM      4  C4  BNZ d   1       0.245  -1.814  -1.996  0.00  0.00     0.000 A 
ATOM      5  C5  BNZ d   1       1.351  -2.105  -2.770  0.00  0.00     0.000 A 
ATOM      6  C6  BNZ d   1       1.393  -3.274  -3.496  0.00  0.00     0.000 A 
ENDROOT
TORSDOF 0
ENDMDL
