MODEL 1
REMARK minimizedAffinity -3.40389776
REMARK minimizedRMSD -1
REMARK  0 active torsions:
REMARK  status: ('A' for Active; 'I' for Inactive)
ROOT
ATOM      1  C1  BNZ d   1       5.961   5.036  -4.249  0.00  0.00     0.000 A 
ATOM      2  C2  BNZ d   1       4.757   4.785  -4.851  0.00  0.00     0.000 A 
ATOM      3  C3  BNZ d   1       3.583   5.096  -4.224  0.00  0.00     0.000 A 
ATOM      4  C4  BNZ d   1       3.613   5.620  -2.982  0.00  0.00     0.000 A 
ATOM      5  C5  BNZ d   1       4.819   5.870  -2.358  0.00  0.00     0.000 A 
ATOM      6  C6  BNZ d   1       6.000   5.591  -3.007  0.00  0.00     0.000 A 
ENDROOT
TORSDOF 0
ENDMDL
