MODEL 1
REMARK minimizedAffinity -0.8242926
REMARK minimizedRMSD -1
REMARK  0 active torsions:
REMARK  status: ('A' for Active; 'I' for Inactive)
ROOT
ATOM      1  C1  BNZ d   1       5.682  -1.850   3.643  0.00  0.00     0.000 A 
ATOM      2  C2  BNZ d   1       4.928  -0.707   3.624  0.00  0.00     0.000 A 
ATOM      3  C3  BNZ d   1       4.495  -0.135   4.787  0.00  0.00     0.000 A 
ATOM      4  C4  BNZ d   1       4.781  -0.727   5.964  0.00  0.00     0.000 A 
ATOM      5  C5  BNZ d   1       5.532  -1.885   5.999  0.00  0.00     0.000 A 
ATOM      6  C6  BNZ d   1       6.000  -2.437   4.829  0.00  0.00     0.000 A 
ENDROOT
TORSDOF 0
ENDMDL
