MODEL 1
REMARK minimizedAffinity -3.8041842
REMARK minimizedRMSD -1
REMARK  0 active torsions:
REMARK  status: ('A' for Active; 'I' for Inactive)
ROOT
ATOM      1  C   UNL d   1      -0.287   0.463   0.181  0.00  0.00     0.172 C 
ATOM      2  N   UNL d   1       1.073   0.100   0.501  0.00  0.00    -0.070 N 
ATOM      3  C1  UNL d   1       2.106   0.976   0.706  0.00  0.00    -0.004 A 
ATOM      4  C2  UNL d   1       3.236   0.238   0.987  0.00  0.00    -0.047 A 
ATOM      5  C3  UNL d   1       2.869  -1.128   0.950  0.00  0.00    -0.047 A 
ATOM      6  C4  UNL d   1       1.525  -1.185   0.647  0.00  0.00    -0.004 A 
ENDROOT
TORSDOF 0
ENDMDL
