MODEL 1
REMARK minimizedAffinity -2.08251143
REMARK minimizedRMSD -1
REMARK  0 active torsions:
REMARK  status: ('A' for Active; 'I' for Inactive)
ROOT
ATOM      1  C   UNL d   1      -0.831   1.507  -1.274  0.00  0.00     0.172 C 
ATOM      2  N   UNL d   1      -1.964   1.154  -0.451  0.00  0.00    -0.070 N 
ATOM      3  C1  UNL d   1      -2.534   1.950   0.506  0.00  0.00    -0.004 A 
ATOM      4  C2  UNL d   1      -3.586   1.254   1.062  0.00  0.00    -0.047 A 
ATOM      5  C3  UNL d   1      -3.650  -0.003   0.416  0.00  0.00    -0.047 A 
ATOM      6  C4  UNL d   1      -2.635  -0.039  -0.516  0.00  0.00    -0.004 A 
ENDROOT
TORSDOF 0
ENDMDL
