MODEL 1
REMARK minimizedAffinity -3.45660281
REMARK minimizedRMSD -1
REMARK  0 active torsions:
REMARK  status: ('A' for Active; 'I' for Inactive)
ROOT
ATOM      1  C   UNL d   1      -0.113   1.065  -0.604  0.00  0.00     0.172 C 
ATOM      2  N   UNL d   1       0.648  -0.011  -0.015  0.00  0.00    -0.070 N 
ATOM      3  C1  UNL d   1       1.048  -0.083   1.293  0.00  0.00    -0.004 A 
ATOM      4  C2  UNL d   1       1.748  -1.259   1.456  0.00  0.00    -0.047 A 
ATOM      5  C3  UNL d   1       1.770  -1.916   0.203  0.00  0.00    -0.047 A 
ATOM      6  C4  UNL d   1       1.082  -1.121  -0.690  0.00  0.00    -0.004 A 
ENDROOT
TORSDOF 0
ENDMDL
