MODEL 1
REMARK minimizedAffinity -2.32696843
REMARK minimizedRMSD -1
REMARK  0 active torsions:
REMARK  status: ('A' for Active; 'I' for Inactive)
ROOT
ATOM      1  C   UNL d   1      -0.627   0.536   0.000  0.00  0.00     0.172 C 
ATOM      2  N   UNL d   1       0.652  -0.122  -0.133  0.00  0.00    -0.070 N 
ATOM      3  C1  UNL d   1       1.871   0.502  -0.166  0.00  0.00    -0.004 A 
ATOM      4  C2  UNL d   1       2.838  -0.470  -0.302  0.00  0.00    -0.047 A 
ATOM      5  C3  UNL d   1       2.178  -1.721  -0.354  0.00  0.00    -0.047 A 
ATOM      6  C4  UNL d   1       0.825  -1.476  -0.247  0.00  0.00    -0.004 A 
ENDROOT
TORSDOF 0
ENDMDL
