MODEL 1
REMARK minimizedAffinity -3.44961405
REMARK minimizedRMSD -1
REMARK  0 active torsions:
REMARK  status: ('A' for Active; 'I' for Inactive)
ROOT
ATOM      1  C   UNL d   1      -0.371   0.235  -0.037  0.00  0.00     0.172 C 
ATOM      2  N   UNL d   1       0.940  -0.341   0.153  0.00  0.00    -0.070 N 
ATOM      3  C1  UNL d   1       1.269  -1.657  -0.034  0.00  0.00    -0.004 A 
ATOM      4  C2  UNL d   1       2.610  -1.801   0.249  0.00  0.00    -0.047 A 
ATOM      5  C3  UNL d   1       3.104  -0.528   0.620  0.00  0.00    -0.047 A 
ATOM      6  C4  UNL d   1       2.049   0.358   0.552  0.00  0.00    -0.004 A 
ENDROOT
TORSDOF 0
ENDMDL
