MODEL 1
REMARK minimizedAffinity -3.27483273
REMARK minimizedRMSD -1
REMARK  0 active torsions:
REMARK  status: ('A' for Active; 'I' for Inactive)
ROOT
ATOM      1  C   UNL d   1      -3.284   2.183   1.944  0.00  0.00     0.172 C 
ATOM      2  N   UNL d   1      -3.708   1.016   1.206  0.00  0.00    -0.070 N 
ATOM      3  C1  UNL d   1      -3.234   0.631  -0.019  0.00  0.00    -0.004 A 
ATOM      4  C2  UNL d   1      -3.888  -0.528  -0.379  0.00  0.00    -0.047 A 
ATOM      5  C3  UNL d   1      -4.786  -0.850   0.667  0.00  0.00    -0.047 A 
ATOM      6  C4  UNL d   1      -4.654   0.123   1.635  0.00  0.00    -0.004 A 
ENDROOT
TORSDOF 0
ENDMDL
