MODEL 1
REMARK minimizedAffinity -3.13820267
REMARK minimizedRMSD -1
REMARK  0 active torsions:
REMARK  status: ('A' for Active; 'I' for Inactive)
ROOT
ATOM      1  C   UNL d   1      -0.263   0.538   0.136  0.00  0.00     0.172 C 
ATOM      2  N   UNL d   1       0.734  -0.499   0.258  0.00  0.00    -0.070 N 
ATOM      3  C1  UNL d   1       1.381  -0.852   1.412  0.00  0.00    -0.004 A 
ATOM      4  C2  UNL d   1       2.250  -1.879   1.111  0.00  0.00    -0.047 A 
ATOM      5  C3  UNL d   1       2.121  -2.152  -0.271  0.00  0.00    -0.047 A 
ATOM      6  C4  UNL d   1       1.176  -1.283  -0.775  0.00  0.00    -0.004 A 
ENDROOT
TORSDOF 0
ENDMDL
