MODEL 1
REMARK minimizedAffinity 8.63497829
REMARK minimizedRMSD -1
REMARK  0 active torsions:
REMARK  status: ('A' for Active; 'I' for Inactive)
ROOT
ATOM      1  C   UNL d   1      -2.819   2.371  -1.514  0.00  0.00     0.078 C 
ATOM      2  C1  UNL d   1      -1.465   2.719  -0.972  0.00  0.00    -0.077 A 
ATOM      3  C2  UNL d   1      -0.431   3.131  -1.823  0.00  0.00    -0.001 A 
ATOM      4  C3  UNL d   1       0.827   3.442  -1.306  0.00  0.00     0.003 A 
ATOM      5  C4  UNL d   1       1.065   3.343   0.064  0.00  0.00    -0.005 A 
ATOM      6  C5  UNL d   1       0.043   2.932   0.918  0.00  0.00     0.003 A 
ATOM      7  C6  UNL d   1      -1.216   2.620   0.402  0.00  0.00    -0.001 A 
ENDROOT
TORSDOF 0
ENDMDL
