MODEL 1
REMARK minimizedAffinity 11.7592773
REMARK minimizedRMSD -1
REMARK  0 active torsions:
REMARK  status: ('A' for Active; 'I' for Inactive)
ROOT
ATOM      1  C   UNL d   1       1.080   4.698  -1.941  0.00  0.00     0.078 C 
ATOM      2  C1  UNL d   1       0.422   3.808  -0.929  0.00  0.00    -0.077 A 
ATOM      3  C2  UNL d   1      -0.972   3.770  -0.801  0.00  0.00    -0.001 A 
ATOM      4  C3  UNL d   1      -1.570   2.945   0.153  0.00  0.00     0.003 A 
ATOM      5  C4  UNL d   1      -0.783   2.152   0.986  0.00  0.00    -0.005 A 
ATOM      6  C5  UNL d   1       0.605   2.186   0.867  0.00  0.00     0.003 A 
ATOM      7  C6  UNL d   1       1.206   3.010  -0.086  0.00  0.00    -0.001 A 
ENDROOT
TORSDOF 0
ENDMDL
