MODEL 1
REMARK minimizedAffinity 5.96427584
REMARK minimizedRMSD -1
REMARK  0 active torsions:
REMARK  status: ('A' for Active; 'I' for Inactive)
ROOT
ATOM      1  C   UNL d   1       1.102   6.000  -2.252  0.00  0.00     0.078 C 
ATOM      2  C1  UNL d   1       0.347   4.923  -1.533  0.00  0.00    -0.077 A 
ATOM      3  C2  UNL d   1      -1.052   4.874  -1.572  0.00  0.00    -0.001 A 
ATOM      4  C3  UNL d   1      -1.743   3.871  -0.890  0.00  0.00     0.003 A 
ATOM      5  C4  UNL d   1      -1.044   2.910  -0.162  0.00  0.00    -0.005 A 
ATOM      6  C5  UNL d   1       0.348   2.952  -0.116  0.00  0.00     0.003 A 
ATOM      7  C6  UNL d   1       1.041   3.954  -0.797  0.00  0.00    -0.001 A 
ENDROOT
TORSDOF 0
ENDMDL
