MODEL 1
REMARK minimizedAffinity 10.2356977
REMARK minimizedRMSD -1
REMARK  0 active torsions:
REMARK  status: ('A' for Active; 'I' for Inactive)
ROOT
ATOM      1  C   UNL d   1       0.316   1.336   0.730  0.00  0.00     0.078 C 
ATOM      2  C1  UNL d   1       0.298   2.531  -0.175  0.00  0.00    -0.077 A 
ATOM      3  C2  UNL d   1       1.353   3.452  -0.176  0.00  0.00    -0.001 A 
ATOM      4  C3  UNL d   1       1.317   4.566  -1.017  0.00  0.00     0.003 A 
ATOM      5  C4  UNL d   1       0.229   4.769  -1.863  0.00  0.00    -0.005 A 
ATOM      6  C5  UNL d   1      -0.827   3.860  -1.868  0.00  0.00     0.003 A 
ATOM      7  C6  UNL d   1      -0.793   2.746  -1.027  0.00  0.00    -0.001 A 
ENDROOT
TORSDOF 0
ENDMDL
