MODEL 1
REMARK minimizedAffinity 16.1349907
REMARK minimizedRMSD -1
REMARK  0 active torsions:
REMARK  status: ('A' for Active; 'I' for Inactive)
ROOT
ATOM      1  C   UNL d   1       1.336   4.963  -2.336  0.00  0.00     0.078 C 
ATOM      2  C1  UNL d   1       0.686   3.969  -1.421  0.00  0.00    -0.077 A 
ATOM      3  C2  UNL d   1       1.151   2.650  -1.341  0.00  0.00    -0.001 A 
ATOM      4  C3  UNL d   1       0.530   1.733  -0.492  0.00  0.00     0.003 A 
ATOM      5  C4  UNL d   1      -0.561   2.123   0.282  0.00  0.00    -0.005 A 
ATOM      6  C5  UNL d   1      -1.032   3.432   0.207  0.00  0.00     0.003 A 
ATOM      7  C6  UNL d   1      -0.412   4.351  -0.641  0.00  0.00    -0.001 A 
ENDROOT
TORSDOF 0
ENDMDL
