MODEL 1
REMARK minimizedAffinity 9.211092
REMARK minimizedRMSD -1
REMARK  0 active torsions:
REMARK  status: ('A' for Active; 'I' for Inactive)
ROOT
ATOM      1  C   UNL d   1      -0.460   2.486   0.235  0.00  0.00     0.078 C 
ATOM      2  C1  UNL d   1      -1.776   2.051  -0.337  0.00  0.00    -0.077 A 
ATOM      3  C2  UNL d   1      -2.153   0.703  -0.334  0.00  0.00    -0.001 A 
ATOM      4  C3  UNL d   1      -3.377   0.311  -0.879  0.00  0.00     0.003 A 
ATOM      5  C4  UNL d   1      -4.233   1.261  -1.431  0.00  0.00    -0.005 A 
ATOM      6  C5  UNL d   1      -3.866   2.605  -1.441  0.00  0.00     0.003 A 
ATOM      7  C6  UNL d   1      -2.642   2.999  -0.896  0.00  0.00    -0.001 A 
ENDROOT
TORSDOF 0
ENDMDL
