MODEL 1
REMARK minimizedAffinity 7.70339632
REMARK minimizedRMSD -1
REMARK  0 active torsions:
REMARK  status: ('A' for Active; 'I' for Inactive)
ROOT
ATOM      1  C   UNL d   1       2.595   2.390   2.067  0.00  0.00     0.078 C 
ATOM      2  C1  UNL d   1       1.480   2.639   1.095  0.00  0.00    -0.077 A 
ATOM      3  C2  UNL d   1       1.722   3.263  -0.135  0.00  0.00    -0.001 A 
ATOM      4  C3  UNL d   1       0.673   3.498  -1.026  0.00  0.00     0.003 A 
ATOM      5  C4  UNL d   1      -0.625   3.113  -0.696  0.00  0.00    -0.005 A 
ATOM      6  C5  UNL d   1      -0.875   2.493   0.527  0.00  0.00     0.003 A 
ATOM      7  C6  UNL d   1       0.172   2.258   1.419  0.00  0.00    -0.001 A 
ENDROOT
TORSDOF 0
ENDMDL
