MODEL 1
REMARK minimizedAffinity -2.25755262
REMARK minimizedRMSD -1
REMARK  0 active torsions:
REMARK  status: ('A' for Active; 'I' for Inactive)
ROOT
ATOM      1  C4' PXY d   1      -0.381  -2.678  -0.799  0.00  0.00     0.077 C 
ATOM      2  C1' PXY d   1      -0.532   2.973   0.405  0.00  0.00     0.077 C 
ATOM      3  C1  PXY d   1      -0.479   1.491   0.090  0.00  0.00    -0.082 A 
ATOM      4  C2  PXY d   1      -1.475   0.928  -0.574  0.00  0.00     0.003 A 
ATOM      5  C3  PXY d   1      -1.459  -0.417  -0.840  0.00  0.00     0.003 A 
ATOM      6  C4  PXY d   1      -0.387  -1.184  -0.467  0.00  0.00    -0.082 A 
ATOM      7  C5  PXY d   1       0.638  -0.614   0.202  0.00  0.00     0.003 A 
ATOM      8  C6  PXY d   1       0.583   0.745   0.498  0.00  0.00     0.003 A 
ENDROOT
TORSDOF 0
ENDMDL
