MODEL 1
REMARK minimizedAffinity -1.02148676
REMARK minimizedRMSD -1
REMARK  0 active torsions:
REMARK  status: ('A' for Active; 'I' for Inactive)
ROOT
ATOM      1  C4' PXY d   1      -0.025  -2.351  -0.176  0.00  0.00     0.077 C 
ATOM      2  C1' PXY d   1       0.335   3.343   0.751  0.00  0.00     0.077 C 
ATOM      3  C1  PXY d   1       0.253   1.850   0.505  0.00  0.00    -0.082 A 
ATOM      4  C2  PXY d   1      -0.916   1.296   0.224  0.00  0.00     0.003 A 
ATOM      5  C3  PXY d   1      -1.013  -0.058   0.030  0.00  0.00     0.003 A 
ATOM      6  C4  PXY d   1       0.106  -0.846   0.071  0.00  0.00    -0.082 A 
ATOM      7  C5  PXY d   1       1.304  -0.287   0.346  0.00  0.00     0.003 A 
ATOM      8  C6  PXY d   1       1.375   1.083   0.580  0.00  0.00     0.003 A 
ENDROOT
TORSDOF 0
ENDMDL
