MODEL 1
REMARK minimizedAffinity -5.83299875
REMARK minimizedRMSD -1
REMARK  0 active torsions:
REMARK  status: ('A' for Active; 'I' for Inactive)
ROOT
ATOM      1  C4' PXY d   1      -0.197  -2.859  -0.769  0.00  0.00     0.077 C 
ATOM      2  C1' PXY d   1      -0.019   2.878  -0.079  0.00  0.00     0.077 C 
ATOM      3  C1  PXY d   1      -0.077   1.374  -0.265  0.00  0.00    -0.082 A 
ATOM      4  C2  PXY d   1       0.663   0.591   0.502  0.00  0.00     0.003 A 
ATOM      5  C3  PXY d   1       0.646  -0.769   0.326  0.00  0.00     0.003 A 
ATOM      6  C4  PXY d   1      -0.177  -1.336  -0.610  0.00  0.00    -0.082 A 
ATOM      7  C5  PXY d   1      -0.943  -0.544  -1.389  0.00  0.00     0.003 A 
ATOM      8  C6  PXY d   1      -0.881   0.836  -1.223  0.00  0.00     0.003 A 
ENDROOT
TORSDOF 0
ENDMDL
