MODEL 1
REMARK minimizedAffinity -5.02814007
REMARK minimizedRMSD -1
REMARK  0 active torsions:
REMARK  status: ('A' for Active; 'I' for Inactive)
ROOT
ATOM      1  C4' PXY d   1      -0.153  -1.658  -0.427  0.00  0.00     0.077 C 
ATOM      2  C1' PXY d   1       1.480   3.769   0.709  0.00  0.00     0.077 C 
ATOM      3  C1  PXY d   1       1.064   2.343   0.409  0.00  0.00    -0.082 A 
ATOM      4  C2  PXY d   1      -0.169   2.093  -0.000  0.00  0.00     0.003 A 
ATOM      5  C3  PXY d   1      -0.571   0.805  -0.246  0.00  0.00     0.003 A 
ATOM      6  C4  PXY d   1       0.313  -0.232  -0.121  0.00  0.00    -0.082 A 
ATOM      7  C5  PXY d   1       1.576   0.015   0.286  0.00  0.00     0.003 A 
ATOM      8  C6  PXY d   1       1.953   1.325   0.570  0.00  0.00     0.003 A 
ENDROOT
TORSDOF 0
ENDMDL
