MODEL 1
REMARK minimizedAffinity -3.90369344
REMARK minimizedRMSD -1
REMARK  0 active torsions:
REMARK  status: ('A' for Active; 'I' for Inactive)
ROOT
ATOM      1  C4' PXY d   1      -0.712  -2.859  -0.248  0.00  0.00     0.077 C 
ATOM      2  C1' PXY d   1      -0.493   2.850   0.635  0.00  0.00     0.077 C 
ATOM      3  C1  PXY d   1      -0.541   1.354   0.394  0.00  0.00    -0.082 A 
ATOM      4  C2  PXY d   1      -1.632   0.676   0.709  0.00  0.00     0.003 A 
ATOM      5  C3  PXY d   1      -1.681  -0.683   0.528  0.00  0.00     0.003 A 
ATOM      6  C4  PXY d   1      -0.622  -1.346  -0.031  0.00  0.00    -0.082 A 
ATOM      7  C5  PXY d   1       0.491  -0.659  -0.365  0.00  0.00     0.003 A 
ATOM      8  C6  PXY d   1       0.537   0.713  -0.135  0.00  0.00     0.003 A 
ENDROOT
TORSDOF 0
ENDMDL
