MODEL 1
REMARK minimizedAffinity -4.83089066
REMARK minimizedRMSD -1
REMARK  0 active torsions:
REMARK  status: ('A' for Active; 'I' for Inactive)
ROOT
ATOM      1  C4' PXY d   1      -0.133  -2.605  -1.307  0.00  0.00     0.077 C 
ATOM      2  C1' PXY d   1      -0.131   2.933   0.351  0.00  0.00     0.077 C 
ATOM      3  C1  PXY d   1      -0.119   1.480  -0.081  0.00  0.00    -0.082 A 
ATOM      4  C2  PXY d   1      -1.033   1.042  -0.931  0.00  0.00     0.003 A 
ATOM      5  C3  PXY d   1      -1.056  -0.276  -1.307  0.00  0.00     0.003 A 
ATOM      6  C4  PXY d   1      -0.101  -1.144  -0.851  0.00  0.00    -0.082 A 
ATOM      7  C5  PXY d   1       0.842  -0.703   0.009  0.00  0.00     0.003 A 
ATOM      8  C6  PXY d   1       0.823   0.630   0.411  0.00  0.00     0.003 A 
ENDROOT
TORSDOF 0
ENDMDL
