MODEL 1
REMARK minimizedAffinity -4.03630447
REMARK minimizedRMSD -1
REMARK  0 active torsions:
REMARK  status: ('A' for Active; 'I' for Inactive)
ROOT
ATOM      1  C4' PXY d   1      -3.565   0.788   0.691  0.00  0.00     0.077 C 
ATOM      2  C1' PXY d   1       2.125  -0.126   0.236  0.00  0.00     0.077 C 
ATOM      3  C1  PXY d   1       0.635   0.125   0.361  0.00  0.00    -0.082 A 
ATOM      4  C2  PXY d   1      -0.204  -0.899   0.358  0.00  0.00     0.003 A 
ATOM      5  C3  PXY d   1      -1.556  -0.687   0.438  0.00  0.00     0.003 A 
ATOM      6  C4  PXY d   1      -2.052   0.581   0.577  0.00  0.00    -0.082 A 
ATOM      7  C5  PXY d   1      -1.202   1.630   0.591  0.00  0.00     0.003 A 
ATOM      8  C6  PXY d   1       0.164   1.397   0.467  0.00  0.00     0.003 A 
ENDROOT
TORSDOF 0
ENDMDL
