MODEL 1
REMARK minimizedAffinity -3.04399157
REMARK minimizedRMSD -1
REMARK  0 active torsions:
REMARK  status: ('A' for Active; 'I' for Inactive)
ROOT
ATOM      1  C4' PXY d   1      -0.080   1.694  -0.271  0.00  0.00     0.077 C 
ATOM      2  C1' PXY d   1      -1.036  -3.756  -1.944  0.00  0.00     0.077 C 
ATOM      3  C1  PXY d   1      -0.787  -2.330  -1.493  0.00  0.00    -0.082 A 
ATOM      4  C2  PXY d   1      -0.962  -1.334  -2.346  0.00  0.00     0.003 A 
ATOM      5  C3  PXY d   1      -0.711  -0.041  -1.964  0.00  0.00     0.003 A 
ATOM      6  C4  PXY d   1      -0.328   0.240  -0.680  0.00  0.00    -0.082 A 
ATOM      7  C5  PXY d   1      -0.158  -0.770   0.200  0.00  0.00     0.003 A 
ATOM      8  C6  PXY d   1      -0.378  -2.079  -0.220  0.00  0.00     0.003 A 
ENDROOT
TORSDOF 0
ENDMDL
