MODEL 1
REMARK minimizedAffinity -3.99307895
REMARK minimizedRMSD -1
REMARK  0 active torsions:
REMARK  status: ('A' for Active; 'I' for Inactive)
ROOT
ATOM      1  C4' PXY d   1      -0.778  -1.626   0.141  0.00  0.00     0.077 C 
ATOM      2  C1' PXY d   1       0.426   4.028   0.111  0.00  0.00     0.077 C 
ATOM      3  C1  PXY d   1       0.103   2.547   0.130  0.00  0.00    -0.082 A 
ATOM      4  C2  PXY d   1       0.895   1.697  -0.504  0.00  0.00     0.003 A 
ATOM      5  C3  PXY d   1       0.600   0.358  -0.524  0.00  0.00     0.003 A 
ATOM      6  C4  PXY d   1      -0.486  -0.123   0.157  0.00  0.00    -0.082 A 
ATOM      7  C5  PXY d   1      -1.292   0.737   0.815  0.00  0.00     0.003 A 
ATOM      8  C6  PXY d   1      -0.999   2.097   0.789  0.00  0.00     0.003 A 
ENDROOT
TORSDOF 0
ENDMDL
