MODEL 1
REMARK minimizedAffinity -3.84083676
REMARK minimizedRMSD -1
REMARK  0 active torsions:
REMARK  status: ('A' for Active; 'I' for Inactive)
ROOT
ATOM      1  C4' PXY d   1      -0.303  -2.582  -1.621  0.00  0.00     0.077 C 
ATOM      2  C1' PXY d   1      -0.924   2.510   1.045  0.00  0.00     0.077 C 
ATOM      3  C1  PXY d   1      -0.759   1.169   0.357  0.00  0.00    -0.082 A 
ATOM      4  C2  PXY d   1      -0.447   1.127  -0.928  0.00  0.00     0.003 A 
ATOM      5  C3  PXY d   1      -0.325  -0.077  -1.573  0.00  0.00     0.003 A 
ATOM      6  C4  PXY d   1      -0.471  -1.250  -0.883  0.00  0.00    -0.082 A 
ATOM      7  C5  PXY d   1      -0.778  -1.216   0.431  0.00  0.00     0.003 A 
ATOM      8  C6  PXY d   1      -0.938   0.017   1.058  0.00  0.00     0.003 A 
ENDROOT
TORSDOF 0
ENDMDL
