MODEL 1
REMARK minimizedAffinity -4.75227451
REMARK minimizedRMSD -1
REMARK  0 active torsions:
REMARK  status: ('A' for Active; 'I' for Inactive)
ROOT
ATOM      1  C4' PXY d   1      -0.415  -1.875   0.042  0.00  0.00     0.077 C 
ATOM      2  C1' PXY d   1       0.611   3.802  -0.325  0.00  0.00     0.077 C 
ATOM      3  C1  PXY d   1       0.330   2.315  -0.224  0.00  0.00    -0.082 A 
ATOM      4  C2  PXY d   1       1.339   1.464  -0.126  0.00  0.00     0.003 A 
ATOM      5  C3  PXY d   1       1.103   0.115  -0.066  0.00  0.00     0.003 A 
ATOM      6  C4  PXY d   1      -0.179  -0.365  -0.053  0.00  0.00    -0.082 A 
ATOM      7  C5  PXY d   1      -1.213   0.497  -0.143  0.00  0.00     0.003 A 
ATOM      8  C6  PXY d   1      -0.952   1.861  -0.244  0.00  0.00     0.003 A 
ENDROOT
TORSDOF 0
ENDMDL
