MODEL 1
REMARK minimizedAffinity -4.8736887
REMARK minimizedRMSD -1
REMARK  0 active torsions:
REMARK  status: ('A' for Active; 'I' for Inactive)
ROOT
ATOM      1  C4' PXY d   1      -0.184  -2.016  -0.110  0.00  0.00     0.077 C 
ATOM      2  C1' PXY d   1       1.453   3.440   0.873  0.00  0.00     0.077 C 
ATOM      3  C1  PXY d   1       1.012   2.011   0.621  0.00  0.00    -0.082 A 
ATOM      4  C2  PXY d   1       1.923   1.066   0.454  0.00  0.00     0.003 A 
ATOM      5  C3  PXY d   1       1.542  -0.225   0.193  0.00  0.00     0.003 A 
ATOM      6  C4  PXY d   1       0.215  -0.562   0.156  0.00  0.00    -0.082 A 
ATOM      7  C5  PXY d   1      -0.720   0.395   0.336  0.00  0.00     0.003 A 
ATOM      8  C6  PXY d   1      -0.312   1.707   0.559  0.00  0.00     0.003 A 
ENDROOT
TORSDOF 0
ENDMDL
