MODEL 1
REMARK minimizedAffinity -3.10395908
REMARK minimizedRMSD -1
REMARK  0 active torsions:
REMARK  status: ('A' for Active; 'I' for Inactive)
ROOT
ATOM      1  C4' PXY d   1      -0.118  -3.320  -1.655  0.00  0.00     0.077 C 
ATOM      2  C1' PXY d   1      -0.307   1.765   1.087  0.00  0.00     0.077 C 
ATOM      3  C1  PXY d   1      -0.248   0.428   0.376  0.00  0.00    -0.082 A 
ATOM      4  C2  PXY d   1      -0.715   0.322  -0.858  0.00  0.00     0.003 A 
ATOM      5  C3  PXY d   1      -0.698  -0.887  -1.504  0.00  0.00     0.003 A 
ATOM      6  C4  PXY d   1      -0.149  -1.987  -0.901  0.00  0.00    -0.082 A 
ATOM      7  C5  PXY d   1       0.339  -1.885   0.353  0.00  0.00     0.003 A 
ATOM      8  C6  PXY d   1       0.275  -0.658   1.007  0.00  0.00     0.003 A 
ENDROOT
TORSDOF 0
ENDMDL
