MODEL 1
REMARK minimizedAffinity -3.17120409
REMARK minimizedRMSD -1
REMARK  0 active torsions:
REMARK  status: ('A' for Active; 'I' for Inactive)
ROOT
ATOM      1  C4' PXY d   1      -0.322  -1.668  -0.795  0.00  0.00     0.077 C 
ATOM      2  C1' PXY d   1       0.962   3.872   0.241  0.00  0.00     0.077 C 
ATOM      3  C1  PXY d   1       0.638   2.416  -0.033  0.00  0.00    -0.082 A 
ATOM      4  C2  PXY d   1      -0.565   2.085  -0.471  0.00  0.00     0.003 A 
ATOM      5  C3  PXY d   1      -0.886   0.771  -0.693  0.00  0.00     0.003 A 
ATOM      6  C4  PXY d   1       0.052  -0.210  -0.514  0.00  0.00    -0.082 A 
ATOM      7  C5  PXY d   1       1.286   0.120  -0.077  0.00  0.00     0.003 A 
ATOM      8  C6  PXY d   1       1.578   1.456   0.182  0.00  0.00     0.003 A 
ENDROOT
TORSDOF 0
ENDMDL
