MODEL 1
REMARK minimizedAffinity -5.10877514
REMARK minimizedRMSD -1
REMARK  0 active torsions:
REMARK  status: ('A' for Active; 'I' for Inactive)
ROOT
ATOM      1  C4' PXY d   1      -0.416  -1.349  -0.226  0.00  0.00     0.077 C 
ATOM      2  C1' PXY d   1       2.145   3.697   0.953  0.00  0.00     0.077 C 
ATOM      3  C1  PXY d   1       1.461   2.379   0.646  0.00  0.00    -0.082 A 
ATOM      4  C2  PXY d   1       2.130   1.247   0.789  0.00  0.00     0.003 A 
ATOM      5  C3  PXY d   1       1.538   0.048   0.485  0.00  0.00     0.003 A 
ATOM      6  C4  PXY d   1       0.230   0.004   0.082  0.00  0.00    -0.082 A 
ATOM      7  C5  PXY d   1      -0.462   1.155  -0.056  0.00  0.00     0.003 A 
ATOM      8  C6  PXY d   1       0.170   2.364   0.218  0.00  0.00     0.003 A 
ENDROOT
TORSDOF 0
ENDMDL
