MODEL 1
REMARK minimizedAffinity 0.704889774
REMARK minimizedRMSD -1
REMARK  0 active torsions:
REMARK  status: ('A' for Active; 'I' for Inactive)
ROOT
ATOM      1  C4' PXY d   1      -0.600  -2.320  -0.333  0.00  0.00     0.077 C 
ATOM      2  C1' PXY d   1      -0.078   3.319   0.823  0.00  0.00     0.077 C 
ATOM      3  C1  PXY d   1      -0.220   1.839   0.532  0.00  0.00    -0.082 A 
ATOM      4  C2  PXY d   1       0.535   1.280  -0.400  0.00  0.00     0.003 A 
ATOM      5  C3  PXY d   1       0.398  -0.051  -0.698  0.00  0.00     0.003 A 
ATOM      6  C4  PXY d   1      -0.485  -0.830   0.001  0.00  0.00    -0.082 A 
ATOM      7  C5  PXY d   1      -1.251  -0.270   0.960  0.00  0.00     0.003 A 
ATOM      8  C6  PXY d   1      -1.126   1.092   1.220  0.00  0.00     0.003 A 
ENDROOT
TORSDOF 0
ENDMDL
