MODEL 1
REMARK minimizedAffinity -1.07793415
REMARK minimizedRMSD -1
REMARK  0 active torsions:
REMARK  status: ('A' for Active; 'I' for Inactive)
ROOT
ATOM      1  C4' PXY d   1       0.225  -2.797  -0.597  0.00  0.00     0.077 C 
ATOM      2  C1' PXY d   1      -0.125   2.802   0.800  0.00  0.00     0.077 C 
ATOM      3  C1  PXY d   1      -0.020   1.335   0.433  0.00  0.00    -0.082 A 
ATOM      4  C2  PXY d   1      -1.066   0.714  -0.088  0.00  0.00     0.003 A 
ATOM      5  C3  PXY d   1      -0.999  -0.620  -0.396  0.00  0.00     0.003 A 
ATOM      6  C4  PXY d   1       0.168  -1.314  -0.219  0.00  0.00    -0.082 A 
ATOM      7  C5  PXY d   1       1.243  -0.685   0.301  0.00  0.00     0.003 A 
ATOM      8  C6  PXY d   1       1.142   0.659   0.646  0.00  0.00     0.003 A 
ENDROOT
TORSDOF 0
ENDMDL
