MODEL 1
REMARK minimizedAffinity 6.29501963
REMARK minimizedRMSD -1
REMARK  0 active torsions:
REMARK  status: ('A' for Active; 'I' for Inactive)
ROOT
ATOM      1  C4' PXY d   1       1.601  -0.946   0.032  0.00  0.00     0.077 C 
ATOM      2  C1' PXY d   1      -2.193  -4.454  -2.558  0.00  0.00     0.077 C 
ATOM      3  C1  PXY d   1      -1.207  -3.531  -1.869  0.00  0.00    -0.082 A 
ATOM      4  C2  PXY d   1      -0.202  -3.016  -2.559  0.00  0.00     0.003 A 
ATOM      5  C3  PXY d   1       0.717  -2.205  -1.945  0.00  0.00     0.003 A 
ATOM      6  C4  PXY d   1       0.576  -1.875  -0.624  0.00  0.00    -0.082 A 
ATOM      7  C5  PXY d   1      -0.452  -2.387   0.084  0.00  0.00     0.003 A 
ATOM      8  C6  PXY d   1      -1.351  -3.242  -0.548  0.00  0.00     0.003 A 
ENDROOT
TORSDOF 0
ENDMDL
