MODEL 1
REMARK minimizedAffinity 7.23233891
REMARK minimizedRMSD -1
REMARK  0 active torsions:
REMARK  status: ('A' for Active; 'I' for Inactive)
ROOT
ATOM      1  C4' PXY d   1       1.874  -0.810   0.397  0.00  0.00     0.077 C 
ATOM      2  C1' PXY d   1      -0.843  -4.430  -3.198  0.00  0.00     0.077 C 
ATOM      3  C1  PXY d   1      -0.142  -3.478  -2.250  0.00  0.00    -0.082 A 
ATOM      4  C2  PXY d   1       1.036  -2.974  -2.581  0.00  0.00     0.003 A 
ATOM      5  C3  PXY d   1       1.699  -2.136  -1.721  0.00  0.00     0.003 A 
ATOM      6  C4  PXY d   1       1.126  -1.768  -0.533  0.00  0.00    -0.082 A 
ATOM      7  C5  PXY d   1      -0.081  -2.269  -0.193  0.00  0.00     0.003 A 
ATOM      8  C6  PXY d   1      -0.718  -3.150  -1.061  0.00  0.00     0.003 A 
ENDROOT
TORSDOF 0
ENDMDL
