MODEL 1
REMARK minimizedAffinity -1.04206383
REMARK minimizedRMSD -1
REMARK  0 active torsions:
REMARK  status: ('A' for Active; 'I' for Inactive)
ROOT
ATOM      1  C4' PXY d   1      -0.210  -2.482  -0.405  0.00  0.00     0.077 C 
ATOM      2  C1' PXY d   1      -0.762   3.231   0.285  0.00  0.00     0.077 C 
ATOM      3  C1  PXY d   1      -0.629   1.732   0.100  0.00  0.00    -0.082 A 
ATOM      4  C2  PXY d   1       0.282   1.066   0.790  0.00  0.00     0.003 A 
ATOM      5  C3  PXY d   1       0.437  -0.285   0.611  0.00  0.00     0.003 A 
ATOM      6  C4  PXY d   1      -0.385  -0.969  -0.243  0.00  0.00    -0.082 A 
ATOM      7  C5  PXY d   1      -1.325  -0.298  -0.943  0.00  0.00     0.003 A 
ATOM      8  C6  PXY d   1      -1.438   1.079  -0.778  0.00  0.00     0.003 A 
ENDROOT
TORSDOF 0
ENDMDL
