MODEL 1
REMARK minimizedAffinity -5.57006502
REMARK minimizedRMSD -1
REMARK  0 active torsions:
REMARK  status: ('A' for Active; 'I' for Inactive)
ROOT
ATOM      1  C   UNL d   1      -0.133   1.113  -0.006  0.00  0.00     0.078 C 
ATOM      2  C1  UNL d   1      -0.258  -0.375  -0.141  0.00  0.00    -0.077 A 
ATOM      3  C2  UNL d   1       0.187  -1.035  -1.294  0.00  0.00    -0.001 A 
ATOM      4  C3  UNL d   1       0.055  -2.419  -1.410  0.00  0.00     0.003 A 
ATOM      5  C4  UNL d   1      -0.523  -3.156  -0.378  0.00  0.00    -0.005 A 
ATOM      6  C5  UNL d   1      -0.971  -2.509   0.771  0.00  0.00     0.003 A 
ATOM      7  C6  UNL d   1      -0.840  -1.124   0.889  0.00  0.00    -0.001 A 
ENDROOT
TORSDOF 0
ENDMDL
