MODEL 1
REMARK minimizedAffinity -4.85783386
REMARK minimizedRMSD -1
REMARK  0 active torsions:
REMARK  status: ('A' for Active; 'I' for Inactive)
ROOT
ATOM      1  C   UNL d   1       0.331  -3.274   0.507  0.00  0.00     0.078 C 
ATOM      2  C1  UNL d   1      -0.054  -1.829   0.399  0.00  0.00    -0.077 A 
ATOM      3  C2  UNL d   1       0.527  -0.997  -0.565  0.00  0.00    -0.001 A 
ATOM      4  C3  UNL d   1       0.166   0.349  -0.647  0.00  0.00     0.003 A 
ATOM      5  C4  UNL d   1      -0.777   0.875   0.233  0.00  0.00    -0.005 A 
ATOM      6  C5  UNL d   1      -1.359   0.056   1.198  0.00  0.00     0.003 A 
ATOM      7  C6  UNL d   1      -0.999  -1.290   1.282  0.00  0.00    -0.001 A 
ENDROOT
TORSDOF 0
ENDMDL
