MODEL 1
REMARK minimizedAffinity -4.8927598
REMARK minimizedRMSD -1
REMARK  0 active torsions:
REMARK  status: ('A' for Active; 'I' for Inactive)
ROOT
ATOM      1  C   UNL d   1      -0.107  -3.277  -0.012  0.00  0.00     0.078 C 
ATOM      2  C1  UNL d   1      -0.174  -1.784  -0.129  0.00  0.00    -0.077 A 
ATOM      3  C2  UNL d   1      -0.786  -1.009   0.865  0.00  0.00    -0.001 A 
ATOM      4  C3  UNL d   1      -0.849   0.379   0.738  0.00  0.00     0.003 A 
ATOM      5  C4  UNL d   1      -0.304   1.006  -0.381  0.00  0.00    -0.005 A 
ATOM      6  C5  UNL d   1       0.305   0.243  -1.375  0.00  0.00     0.003 A 
ATOM      7  C6  UNL d   1       0.370  -1.145  -1.251  0.00  0.00    -0.001 A 
ENDROOT
TORSDOF 0
ENDMDL
