MODEL 1
REMARK minimizedAffinity -2.91937041
REMARK minimizedRMSD -1
REMARK  0 active torsions:
REMARK  status: ('A' for Active; 'I' for Inactive)
ROOT
ATOM      1  C   UNL d   1       0.225   1.487  -0.559  0.00  0.00     0.078 C 
ATOM      2  C1  UNL d   1      -0.230   0.135  -0.096  0.00  0.00    -0.077 A 
ATOM      3  C2  UNL d   1      -0.004  -1.007  -0.874  0.00  0.00    -0.001 A 
ATOM      4  C3  UNL d   1      -0.441  -2.258  -0.435  0.00  0.00     0.003 A 
ATOM      5  C4  UNL d   1      -1.108  -2.379   0.783  0.00  0.00    -0.005 A 
ATOM      6  C5  UNL d   1      -1.338  -1.247   1.563  0.00  0.00     0.003 A 
ATOM      7  C6  UNL d   1      -0.902   0.004   1.126  0.00  0.00    -0.001 A 
ENDROOT
TORSDOF 0
ENDMDL
