MODEL 1
REMARK minimizedAffinity -3.9226253
REMARK minimizedRMSD -1
REMARK  0 active torsions:
REMARK  status: ('A' for Active; 'I' for Inactive)
ROOT
ATOM      1  C   UNL d   1      -0.416  -2.868   0.959  0.00  0.00     0.078 C 
ATOM      2  C1  UNL d   1      -0.271  -1.415   0.615  0.00  0.00    -0.077 A 
ATOM      3  C2  UNL d   1       0.425  -1.012  -0.531  0.00  0.00    -0.001 A 
ATOM      4  C3  UNL d   1       0.561   0.344  -0.834  0.00  0.00     0.003 A 
ATOM      5  C4  UNL d   1       0.005   1.307   0.006  0.00  0.00    -0.005 A 
ATOM      6  C5  UNL d   1      -0.687   0.915   1.150  0.00  0.00     0.003 A 
ATOM      7  C6  UNL d   1      -0.824  -0.440   1.454  0.00  0.00    -0.001 A 
ENDROOT
TORSDOF 0
ENDMDL
