MODEL 1
REMARK minimizedAffinity -3.77987456
REMARK minimizedRMSD -1
REMARK  0 active torsions:
REMARK  status: ('A' for Active; 'I' for Inactive)
ROOT
ATOM      1  C   UNL d   1      -0.695   0.364   0.845  0.00  0.00     0.078 C 
ATOM      2  C1  UNL d   1       0.098   1.610   0.589  0.00  0.00    -0.077 A 
ATOM      3  C2  UNL d   1       0.159   2.634   1.542  0.00  0.00    -0.001 A 
ATOM      4  C3  UNL d   1       0.894   3.793   1.286  0.00  0.00     0.003 A 
ATOM      5  C4  UNL d   1       1.572   3.940   0.078  0.00  0.00    -0.005 A 
ATOM      6  C5  UNL d   1       1.515   2.927  -0.878  0.00  0.00     0.003 A 
ATOM      7  C6  UNL d   1       0.781   1.767  -0.624  0.00  0.00    -0.001 A 
ENDROOT
TORSDOF 0
ENDMDL
