MODEL 1
REMARK minimizedAffinity -3.61157084
REMARK minimizedRMSD -1
REMARK  0 active torsions:
REMARK  status: ('A' for Active; 'I' for Inactive)
ROOT
ATOM      1  C   UNL d   1       0.079  -3.626   0.651  0.00  0.00     0.078 C 
ATOM      2  C1  UNL d   1      -0.080  -2.153   0.418  0.00  0.00    -0.077 A 
ATOM      3  C2  UNL d   1      -0.930  -1.384   1.220  0.00  0.00    -0.001 A 
ATOM      4  C3  UNL d   1      -1.076  -0.016   0.986  0.00  0.00     0.003 A 
ATOM      5  C4  UNL d   1      -0.376   0.595  -0.053  0.00  0.00    -0.005 A 
ATOM      6  C5  UNL d   1       0.471  -0.163  -0.859  0.00  0.00     0.003 A 
ATOM      7  C6  UNL d   1       0.619  -1.532  -0.625  0.00  0.00    -0.001 A 
ENDROOT
TORSDOF 0
ENDMDL
