MODEL 1
REMARK minimizedAffinity -2.98039055
REMARK minimizedRMSD -1
REMARK  0 active torsions:
REMARK  status: ('A' for Active; 'I' for Inactive)
ROOT
ATOM      1  C   UNL d   1      -0.388  -0.477   1.089  0.00  0.00     0.078 C 
ATOM      2  C1  UNL d   1       0.172   0.849   0.671  0.00  0.00    -0.077 A 
ATOM      3  C2  UNL d   1      -0.510   1.666  -0.239  0.00  0.00    -0.001 A 
ATOM      4  C3  UNL d   1       0.028   2.894  -0.627  0.00  0.00     0.003 A 
ATOM      5  C4  UNL d   1       1.252   3.316  -0.111  0.00  0.00    -0.005 A 
ATOM      6  C5  UNL d   1       1.939   2.509   0.793  0.00  0.00     0.003 A 
ATOM      7  C6  UNL d   1       1.403   1.281   1.182  0.00  0.00    -0.001 A 
ENDROOT
TORSDOF 0
ENDMDL
