MODEL 1
REMARK minimizedAffinity -5.04081535
REMARK minimizedRMSD -1
REMARK  0 active torsions:
REMARK  status: ('A' for Active; 'I' for Inactive)
ROOT
ATOM      1  C   UNL d   1      -0.358   1.038   0.045  0.00  0.00     0.078 C 
ATOM      2  C1  UNL d   1      -0.325  -0.433   0.332  0.00  0.00    -0.077 A 
ATOM      3  C2  UNL d   1       0.456  -1.301  -0.441  0.00  0.00    -0.001 A 
ATOM      4  C3  UNL d   1       0.470  -2.670  -0.169  0.00  0.00     0.003 A 
ATOM      5  C4  UNL d   1      -0.297  -3.183   0.875  0.00  0.00    -0.005 A 
ATOM      6  C5  UNL d   1      -1.080  -2.328   1.648  0.00  0.00     0.003 A 
ATOM      7  C6  UNL d   1      -1.095  -0.959   1.377  0.00  0.00    -0.001 A 
ENDROOT
TORSDOF 0
ENDMDL
