MODEL 1
REMARK minimizedAffinity -1.83696318
REMARK minimizedRMSD -1
REMARK  0 active torsions:
REMARK  status: ('A' for Active; 'I' for Inactive)
ROOT
ATOM      1  C   UNL d   1      -0.402   0.964   0.009  0.00  0.00     0.078 C 
ATOM      2  C1  UNL d   1       0.375   2.218   0.276  0.00  0.00    -0.077 A 
ATOM      3  C2  UNL d   1      -0.173   3.258   1.037  0.00  0.00    -0.001 A 
ATOM      4  C3  UNL d   1       0.559   4.424   1.269  0.00  0.00     0.003 A 
ATOM      5  C4  UNL d   1       1.842   4.562   0.743  0.00  0.00    -0.005 A 
ATOM      6  C5  UNL d   1       2.395   3.533  -0.017  0.00  0.00     0.003 A 
ATOM      7  C6  UNL d   1       1.665   2.366  -0.251  0.00  0.00    -0.001 A 
ENDROOT
TORSDOF 0
ENDMDL
