MODEL 1
REMARK minimizedAffinity -5.77211237
REMARK minimizedRMSD -1
REMARK  0 active torsions:
REMARK  status: ('A' for Active; 'I' for Inactive)
ROOT
ATOM      1  C   UNL d   1       0.281   1.090  -0.410  0.00  0.00     0.078 C 
ATOM      2  C1  UNL d   1       0.164  -0.404  -0.453  0.00  0.00    -0.077 A 
ATOM      3  C2  UNL d   1      -0.537  -1.101   0.539  0.00  0.00    -0.001 A 
ATOM      4  C3  UNL d   1      -0.630  -2.493   0.491  0.00  0.00     0.003 A 
ATOM      5  C4  UNL d   1      -0.023  -3.200  -0.546  0.00  0.00    -0.005 A 
ATOM      6  C5  UNL d   1       0.678  -2.515  -1.536  0.00  0.00     0.003 A 
ATOM      7  C6  UNL d   1       0.772  -1.123  -1.490  0.00  0.00    -0.001 A 
ENDROOT
TORSDOF 0
ENDMDL
