MODEL 1
REMARK minimizedAffinity -4.73843718
REMARK minimizedRMSD -1
REMARK  0 active torsions:
REMARK  status: ('A' for Active; 'I' for Inactive)
ROOT
ATOM      1  C   UNL d   1       0.297   0.460  -0.222  0.00  0.00     0.078 C 
ATOM      2  C1  UNL d   1       0.212  -1.036  -0.271  0.00  0.00    -0.077 A 
ATOM      3  C2  UNL d   1       0.648  -1.747  -1.395  0.00  0.00    -0.001 A 
ATOM      4  C3  UNL d   1       0.553  -3.140  -1.430  0.00  0.00     0.003 A 
ATOM      5  C4  UNL d   1       0.022  -3.832  -0.344  0.00  0.00    -0.005 A 
ATOM      6  C5  UNL d   1      -0.417  -3.133   0.778  0.00  0.00     0.003 A 
ATOM      7  C6  UNL d   1      -0.323  -1.741   0.815  0.00  0.00    -0.001 A 
ENDROOT
TORSDOF 0
ENDMDL
