MODEL 1
REMARK minimizedAffinity -5.04353428
REMARK minimizedRMSD -1
REMARK  0 active torsions:
REMARK  status: ('A' for Active; 'I' for Inactive)
ROOT
ATOM      1  C   UNL d   1       0.156  -3.438   0.235  0.00  0.00     0.078 C 
ATOM      2  C1  UNL d   1      -0.123  -1.980   0.443  0.00  0.00    -0.077 A 
ATOM      3  C2  UNL d   1      -0.881  -1.539   1.535  0.00  0.00    -0.001 A 
ATOM      4  C3  UNL d   1      -1.141  -0.179   1.711  0.00  0.00     0.003 A 
ATOM      5  C4  UNL d   1      -0.648   0.751   0.798  0.00  0.00    -0.005 A 
ATOM      6  C5  UNL d   1       0.106   0.322  -0.292  0.00  0.00     0.003 A 
ATOM      7  C6  UNL d   1       0.367  -1.038  -0.470  0.00  0.00    -0.001 A 
ENDROOT
TORSDOF 0
ENDMDL
