MODEL 1
REMARK minimizedAffinity -4.27571583
REMARK minimizedRMSD -1
REMARK  0 active torsions:
REMARK  status: ('A' for Active; 'I' for Inactive)
ROOT
ATOM      1  C   UNL d   1       0.466   2.228  -0.337  0.00  0.00     0.078 C 
ATOM      2  C1  UNL d   1       0.132   0.810   0.018  0.00  0.00    -0.077 A 
ATOM      3  C2  UNL d   1      -0.772   0.518   1.047  0.00  0.00    -0.001 A 
ATOM      4  C3  UNL d   1      -1.066  -0.807   1.373  0.00  0.00     0.003 A 
ATOM      5  C4  UNL d   1      -0.460  -1.850   0.676  0.00  0.00    -0.005 A 
ATOM      6  C5  UNL d   1       0.442  -1.569  -0.348  0.00  0.00     0.003 A 
ATOM      7  C6  UNL d   1       0.737  -0.245  -0.676  0.00  0.00    -0.001 A 
ENDROOT
TORSDOF 0
ENDMDL
