MODEL 1
REMARK minimizedAffinity 1.32312083
REMARK minimizedRMSD -1
REMARK  0 active torsions:
REMARK  status: ('A' for Active; 'I' for Inactive)
ROOT
ATOM      1  C   UNL d   1      -2.580   0.926  -2.270  0.00  0.00     0.023 A 
ATOM      2  C1  UNL d   1      -2.573   1.265  -3.623  0.00  0.00     0.003 A 
ATOM      3  C2  UNL d   1      -1.602   2.137  -4.121  0.00  0.00     0.048 A 
ATOM      4  C3  UNL d   1      -0.642   2.667  -3.260  0.00  0.00     0.023 A 
ATOM      5  C4  UNL d   1      -0.644   2.330  -1.906  0.00  0.00     0.048 A 
ATOM      6  C5  UNL d   1      -1.617   1.458  -1.412  0.00  0.00     0.003 A 
ATOM      7  I   UNL d   1       0.803   3.965  -3.999  0.00  0.00    -0.146 I 
ENDROOT
TORSDOF 0
ENDMDL
