MODEL 1
REMARK minimizedAffinity -1.49745452
REMARK minimizedRMSD -1
REMARK  0 active torsions:
REMARK  status: ('A' for Active; 'I' for Inactive)
ROOT
ATOM      1  C   UNL d   1      -2.760   2.301  -3.111  0.00  0.00     0.023 A 
ATOM      2  C1  UNL d   1      -3.209   1.248  -2.313  0.00  0.00     0.003 A 
ATOM      3  C2  UNL d   1      -2.365   0.692  -1.349  0.00  0.00     0.048 A 
ATOM      4  C3  UNL d   1      -1.074   1.194  -1.188  0.00  0.00     0.023 A 
ATOM      5  C4  UNL d   1      -0.621   2.247  -1.983  0.00  0.00     0.048 A 
ATOM      6  C5  UNL d   1      -1.468   2.800  -2.946  0.00  0.00     0.003 A 
ATOM      7  I   UNL d   1       0.183   0.368   0.246  0.00  0.00    -0.146 I 
ENDROOT
TORSDOF 0
ENDMDL
