MODEL 1
REMARK minimizedAffinity -2.97116375
REMARK minimizedRMSD -1
REMARK  0 active torsions:
REMARK  status: ('A' for Active; 'I' for Inactive)
ROOT
ATOM      1  C   UNL d   1      -2.763   1.896  -1.635  0.00  0.00     0.023 A 
ATOM      2  C1  UNL d   1      -2.004   1.113  -2.504  0.00  0.00     0.003 A 
ATOM      3  C2  UNL d   1      -0.819   0.522  -2.060  0.00  0.00     0.048 A 
ATOM      4  C3  UNL d   1      -0.401   0.717  -0.744  0.00  0.00     0.023 A 
ATOM      5  C4  UNL d   1      -1.158   1.499   0.130  0.00  0.00     0.048 A 
ATOM      6  C5  UNL d   1      -2.341   2.089  -0.319  0.00  0.00     0.003 A 
ATOM      7  I   UNL d   1       1.362  -0.162  -0.080  0.00  0.00    -0.146 I 
ENDROOT
TORSDOF 0
ENDMDL
