MODEL 1
REMARK minimizedAffinity -1.4792583
REMARK minimizedRMSD -1
REMARK  0 active torsions:
REMARK  status: ('A' for Active; 'I' for Inactive)
ROOT
ATOM      1  C   UNL d   1       2.495  -1.067   0.741  0.00  0.00     0.023 A 
ATOM      2  C1  UNL d   1       1.187  -1.247   1.192  0.00  0.00     0.003 A 
ATOM      3  C2  UNL d   1       0.138  -0.547   0.592  0.00  0.00     0.048 A 
ATOM      4  C3  UNL d   1       0.403   0.331  -0.458  0.00  0.00     0.023 A 
ATOM      5  C4  UNL d   1       1.710   0.514  -0.912  0.00  0.00     0.048 A 
ATOM      6  C5  UNL d   1       2.756  -0.187  -0.309  0.00  0.00     0.003 A 
ATOM      7  I   UNL d   1      -1.156   1.374  -1.352  0.00  0.00    -0.146 I 
ENDROOT
TORSDOF 0
ENDMDL
