MODEL 1
REMARK minimizedAffinity -2.53825808
REMARK minimizedRMSD -1
REMARK  0 active torsions:
REMARK  status: ('A' for Active; 'I' for Inactive)
ROOT
ATOM      1  C   UNL d   1       1.189  -0.875   0.785  0.00  0.00     0.023 A 
ATOM      2  C1  UNL d   1       1.434  -0.828  -0.587  0.00  0.00     0.003 A 
ATOM      3  C2  UNL d   1       0.513  -0.216  -1.441  0.00  0.00     0.048 A 
ATOM      4  C3  UNL d   1      -0.648   0.348  -0.915  0.00  0.00     0.023 A 
ATOM      5  C4  UNL d   1      -0.896   0.305   0.458  0.00  0.00     0.048 A 
ATOM      6  C5  UNL d   1       0.026  -0.309   1.307  0.00  0.00     0.003 A 
ATOM      7  I   UNL d   1      -2.019   1.260  -2.184  0.00  0.00    -0.146 I 
ENDROOT
TORSDOF 0
ENDMDL
