MODEL 1
REMARK minimizedAffinity -0.327655315
REMARK minimizedRMSD -1
REMARK  0 active torsions:
REMARK  status: ('A' for Active; 'I' for Inactive)
ROOT
ATOM      1  C   UNL d   1      -2.741   2.332  -3.457  0.00  0.00     0.023 A 
ATOM      2  C1  UNL d   1      -1.520   2.905  -3.101  0.00  0.00     0.003 A 
ATOM      3  C2  UNL d   1      -0.789   2.385  -2.031  0.00  0.00     0.048 A 
ATOM      4  C3  UNL d   1      -1.284   1.292  -1.322  0.00  0.00     0.023 A 
ATOM      5  C4  UNL d   1      -2.505   0.714  -1.675  0.00  0.00     0.048 A 
ATOM      6  C5  UNL d   1      -3.233   1.238  -2.745  0.00  0.00     0.003 A 
ATOM      7  I   UNL d   1      -0.198   0.516   0.271  0.00  0.00    -0.146 I 
ENDROOT
TORSDOF 0
ENDMDL
