MODEL 1
REMARK minimizedAffinity 1.62751579
REMARK minimizedRMSD -1
REMARK  0 active torsions:
REMARK  status: ('A' for Active; 'I' for Inactive)
ROOT
ATOM      1  C   UNL d   1       2.490  -0.932   1.086  0.00  0.00     0.023 A 
ATOM      2  C1  UNL d   1       1.200  -1.450   1.207  0.00  0.00     0.003 A 
ATOM      3  C2  UNL d   1       0.134  -0.832   0.551  0.00  0.00     0.048 A 
ATOM      4  C3  UNL d   1       0.364   0.304  -0.225  0.00  0.00     0.023 A 
ATOM      5  C4  UNL d   1       1.653   0.825  -0.349  0.00  0.00     0.048 A 
ATOM      6  C5  UNL d   1       2.716   0.204   0.309  0.00  0.00     0.003 A 
ATOM      7  I   UNL d   1      -1.221   1.225  -1.203  0.00  0.00    -0.146 I 
ENDROOT
TORSDOF 0
ENDMDL
