MODEL 1
REMARK minimizedAffinity -3.0971694
REMARK minimizedRMSD -1
REMARK  0 active torsions:
REMARK  status: ('A' for Active; 'I' for Inactive)
ROOT
ATOM      1  C   UNL d   1       2.674  -0.673  -0.034  0.00  0.00     0.023 A 
ATOM      2  C1  UNL d   1       2.108  -1.765   0.624  0.00  0.00     0.003 A 
ATOM      3  C2  UNL d   1       0.771  -1.724   1.025  0.00  0.00     0.048 A 
ATOM      4  C3  UNL d   1       0.005  -0.589   0.763  0.00  0.00     0.023 A 
ATOM      5  C4  UNL d   1       0.566   0.506   0.103  0.00  0.00     0.048 A 
ATOM      6  C5  UNL d   1       1.904   0.461  -0.294  0.00  0.00     0.003 A 
ATOM      7  I   UNL d   1      -1.985  -0.526   1.358  0.00  0.00    -0.146 I 
ENDROOT
TORSDOF 0
ENDMDL
