MODEL 1
REMARK minimizedAffinity -0.332809567
REMARK minimizedRMSD -1
REMARK  0 active torsions:
REMARK  status: ('A' for Active; 'I' for Inactive)
ROOT
ATOM      1  C   UNL d   1       3.825   0.447  -1.144  0.00  0.00     0.023 A 
ATOM      2  C1  UNL d   1       3.263   1.638  -0.685  0.00  0.00     0.003 A 
ATOM      3  C2  UNL d   1       1.928   1.670  -0.277  0.00  0.00     0.048 A 
ATOM      4  C3  UNL d   1       1.161   0.507  -0.329  0.00  0.00     0.023 A 
ATOM      5  C4  UNL d   1       1.719  -0.688  -0.787  0.00  0.00     0.048 A 
ATOM      6  C5  UNL d   1       3.054  -0.715  -1.195  0.00  0.00     0.003 A 
ATOM      7  I   UNL d   1      -0.826   0.552   0.278  0.00  0.00    -0.146 I 
ENDROOT
TORSDOF 0
ENDMDL
