MODEL 1
REMARK minimizedAffinity 2.29135537
REMARK minimizedRMSD -1
REMARK  0 active torsions:
REMARK  status: ('A' for Active; 'I' for Inactive)
ROOT
ATOM      1  C   UNL d   1       3.124  -1.032  -0.637  0.00  0.00     0.023 A 
ATOM      2  C1  UNL d   1       2.775  -1.653   0.563  0.00  0.00     0.003 A 
ATOM      3  C2  UNL d   1       1.555  -1.360   1.173  0.00  0.00     0.048 A 
ATOM      4  C3  UNL d   1       0.686  -0.445   0.579  0.00  0.00     0.023 A 
ATOM      5  C4  UNL d   1       1.030   0.178  -0.622  0.00  0.00     0.048 A 
ATOM      6  C5  UNL d   1       2.252  -0.118  -1.229  0.00  0.00     0.003 A 
ATOM      7  I   UNL d   1      -1.132  -0.007   1.486  0.00  0.00    -0.146 I 
ENDROOT
TORSDOF 0
ENDMDL
