MODEL 1
REMARK minimizedAffinity 2.14803028
REMARK minimizedRMSD -1
REMARK  0 active torsions:
REMARK  status: ('A' for Active; 'I' for Inactive)
ROOT
ATOM      1  C   UNL d   1       4.056   1.114  -0.103  0.00  0.00     0.023 A 
ATOM      2  C1  UNL d   1       3.589   1.775  -1.239  0.00  0.00     0.003 A 
ATOM      3  C2  UNL d   1       2.233   1.726  -1.569  0.00  0.00     0.048 A 
ATOM      4  C3  UNL d   1       1.349   1.015  -0.758  0.00  0.00     0.023 A 
ATOM      5  C4  UNL d   1       1.811   0.353   0.380  0.00  0.00     0.048 A 
ATOM      6  C5  UNL d   1       3.168   0.404   0.706  0.00  0.00     0.003 A 
ATOM      7  I   UNL d   1      -0.670   0.940  -1.248  0.00  0.00    -0.146 I 
ENDROOT
TORSDOF 0
ENDMDL
