MODEL 1
REMARK minimizedAffinity -2.8154397
REMARK minimizedRMSD -1
REMARK  0 active torsions:
REMARK  status: ('A' for Active; 'I' for Inactive)
ROOT
ATOM      1  C   UNL d   1      -1.779  -0.094   1.885  0.00  0.00     0.023 A 
ATOM      2  C1  UNL d   1      -1.141   0.519   0.806  0.00  0.00     0.003 A 
ATOM      3  C2  UNL d   1       0.104   0.057   0.376  0.00  0.00     0.048 A 
ATOM      4  C3  UNL d   1       0.707  -1.018   1.029  0.00  0.00     0.023 A 
ATOM      5  C4  UNL d   1       0.072  -1.634   2.108  0.00  0.00     0.048 A 
ATOM      6  C5  UNL d   1      -1.173  -1.169   2.535  0.00  0.00     0.003 A 
ATOM      7  I   UNL d   1       2.561  -1.707   0.390  0.00  0.00    -0.146 I 
ENDROOT
TORSDOF 0
ENDMDL
