MODEL 1
REMARK minimizedAffinity 0.333739609
REMARK minimizedRMSD -1
REMARK  0 active torsions:
REMARK  status: ('A' for Active; 'I' for Inactive)
ROOT
ATOM      1  C   UNL d   1       2.208  -0.399  -0.095  0.00  0.00     0.023 A 
ATOM      2  C1  UNL d   1       1.159   0.357  -0.619  0.00  0.00     0.003 A 
ATOM      3  C2  UNL d   1      -0.059   0.428   0.061  0.00  0.00     0.048 A 
ATOM      4  C3  UNL d   1      -0.220  -0.257   1.265  0.00  0.00     0.023 A 
ATOM      5  C4  UNL d   1       0.828  -1.013   1.793  0.00  0.00     0.048 A 
ATOM      6  C5  UNL d   1       2.043  -1.083   1.109  0.00  0.00     0.003 A 
ATOM      7  I   UNL d   1      -2.031  -0.152   2.278  0.00  0.00    -0.146 I 
ENDROOT
TORSDOF 0
ENDMDL
