MODEL 1
REMARK minimizedAffinity 1.47325897
REMARK minimizedRMSD -1
REMARK  0 active torsions:
REMARK  status: ('A' for Active; 'I' for Inactive)
ROOT
ATOM      1  C   UNL d   1      -1.646   0.362  -0.068  0.00  0.00     0.023 A 
ATOM      2  C1  UNL d   1      -0.760  -0.042   0.930  0.00  0.00     0.003 A 
ATOM      3  C2  UNL d   1       0.617  -0.000   0.703  0.00  0.00     0.048 A 
ATOM      4  C3  UNL d   1       1.102   0.448  -0.526  0.00  0.00     0.023 A 
ATOM      5  C4  UNL d   1       0.219   0.855  -1.527  0.00  0.00     0.048 A 
ATOM      6  C5  UNL d   1      -1.157   0.810  -1.296  0.00  0.00     0.003 A 
ATOM      7  I   UNL d   1       3.151   0.512  -0.867  0.00  0.00    -0.146 I 
ENDROOT
TORSDOF 0
ENDMDL
