MODEL 1
REMARK minimizedAffinity 1.83436561
REMARK minimizedRMSD -1
REMARK  0 active torsions:
REMARK  status: ('A' for Active; 'I' for Inactive)
ROOT
ATOM      1  C   UNL d   1      -1.574   1.295  -1.822  0.00  0.00     0.023 A 
ATOM      2  C1  UNL d   1      -1.320  -0.061  -2.029  0.00  0.00     0.003 A 
ATOM      3  C2  UNL d   1      -0.435  -0.743  -1.191  0.00  0.00     0.048 A 
ATOM      4  C3  UNL d   1       0.192  -0.063  -0.148  0.00  0.00     0.023 A 
ATOM      5  C4  UNL d   1      -0.060   1.294   0.064  0.00  0.00     0.048 A 
ATOM      6  C5  UNL d   1      -0.945   1.971  -0.777  0.00  0.00     0.003 A 
ATOM      7  I   UNL d   1       1.509  -1.076   1.101  0.00  0.00    -0.146 I 
ENDROOT
TORSDOF 0
ENDMDL
