MODEL 1
REMARK minimizedAffinity -5.69577074
REMARK minimizedRMSD -1
REMARK  0 active torsions:
REMARK  status: ('A' for Active; 'I' for Inactive)
ROOT
ATOM      1  N1  IND d   1      -1.001  -0.708   2.294  0.00  0.00    -0.196 N 
ATOM      2  C2  IND d   1      -0.755  -1.722   3.176  0.00  0.00     0.054 A 
ATOM      3  C3  IND d   1       0.317  -2.444   2.776  0.00  0.00    -0.031 A 
ATOM      4  C4  IND d   1       1.876  -2.076   0.762  0.00  0.00     0.051 A 
ATOM      5  C5  IND d   1       2.033  -1.300  -0.352  0.00  0.00    -0.031 A 
ATOM      6  C6  IND d   1       1.170  -0.263  -0.645  0.00  0.00     0.015 A 
ATOM      7  C7  IND d   1       0.121   0.043   0.174  0.00  0.00    -0.016 A 
ATOM      8  C8  IND d   1      -0.045  -0.748   1.302  0.00  0.00    -0.047 A 
ATOM      9  C9  IND d   1       0.802  -1.827   1.582  0.00  0.00    -0.096 A 
ATOM     10  HN1 IND d   1      -1.645  -0.141   2.348  0.00  0.00     0.298 HD
ENDROOT
TORSDOF 0
ENDMDL
