MODEL 1
REMARK minimizedAffinity -1.45074415
REMARK minimizedRMSD -1
REMARK  0 active torsions:
REMARK  status: ('A' for Active; 'I' for Inactive)
ROOT
ATOM      1  N1  IND d   1      -0.627   0.178   0.414  0.00  0.00    -0.196 N 
ATOM      2  C2  IND d   1       0.673  -0.027   0.043  0.00  0.00     0.054 A 
ATOM      3  C3  IND d   1       0.890   0.460  -1.199  0.00  0.00    -0.031 A 
ATOM      4  C4  IND d   1      -0.717   1.723  -2.764  0.00  0.00     0.051 A 
ATOM      5  C5  IND d   1      -2.020   2.119  -2.879  0.00  0.00    -0.031 A 
ATOM      6  C6  IND d   1      -2.943   1.886  -1.880  0.00  0.00     0.015 A 
ATOM      7  C7  IND d   1      -2.593   1.255  -0.720  0.00  0.00    -0.016 A 
ATOM      8  C8  IND d   1      -1.273   0.846  -0.603  0.00  0.00    -0.047 A 
ATOM      9  C9  IND d   1      -0.341   1.042  -1.631  0.00  0.00    -0.096 A 
ATOM     10  HN1 IND d   1      -0.981  -0.068   1.158  0.00  0.00     0.298 HD
ENDROOT
TORSDOF 0
ENDMDL
