MODEL 1
REMARK minimizedAffinity -2.46686196
REMARK minimizedRMSD -1
REMARK  0 active torsions:
REMARK  status: ('A' for Active; 'I' for Inactive)
ROOT
ATOM      1  N1  IND d   1      -0.558   3.462  -5.186  0.00  0.00    -0.196 N 
ATOM      2  C2  IND d   1       0.007   4.523  -4.535  0.00  0.00     0.054 A 
ATOM      3  C3  IND d   1      -0.330   4.504  -3.225  0.00  0.00    -0.031 A 
ATOM      4  C4  IND d   1      -1.713   2.773  -1.916  0.00  0.00     0.051 A 
ATOM      5  C5  IND d   1      -2.469   1.647  -2.086  0.00  0.00    -0.031 A 
ATOM      6  C6  IND d   1      -2.628   1.055  -3.323  0.00  0.00     0.015 A 
ATOM      7  C7  IND d   1      -2.024   1.563  -4.438  0.00  0.00    -0.016 A 
ATOM      8  C8  IND d   1      -1.262   2.710  -4.270  0.00  0.00    -0.047 A 
ATOM      9  C9  IND d   1      -1.132   3.339  -3.026  0.00  0.00    -0.096 A 
ATOM     10  HN1 IND d   1      -0.486   3.293  -6.026  0.00  0.00     0.298 HD
ENDROOT
TORSDOF 0
ENDMDL
