MODEL 1
REMARK minimizedAffinity -0.681361377
REMARK minimizedRMSD -1
REMARK  0 active torsions:
REMARK  status: ('A' for Active; 'I' for Inactive)
ROOT
ATOM      1  N1  IND d   1      -1.369  -0.654   2.884  0.00  0.00    -0.196 N 
ATOM      2  C2  IND d   1      -0.687  -1.472   3.742  0.00  0.00     0.054 A 
ATOM      3  C3  IND d   1       0.498  -1.837   3.202  0.00  0.00    -0.031 A 
ATOM      4  C4  IND d   1       1.565  -1.129   0.969  0.00  0.00     0.051 A 
ATOM      5  C5  IND d   1       1.307  -0.423  -0.172  0.00  0.00    -0.031 A 
ATOM      6  C6  IND d   1       0.121   0.258  -0.356  0.00  0.00     0.015 A 
ATOM      7  C7  IND d   1      -0.851   0.268   0.605  0.00  0.00    -0.016 A 
ATOM      8  C8  IND d   1      -0.595  -0.454   1.762  0.00  0.00    -0.047 A 
ATOM      9  C9  IND d   1       0.589  -1.182   1.936  0.00  0.00    -0.096 A 
ATOM     10  HN1 IND d   1      -2.149  -0.322   3.022  0.00  0.00     0.298 HD
ENDROOT
TORSDOF 0
ENDMDL
