MODEL 1
REMARK minimizedAffinity -2.57081199
REMARK minimizedRMSD -1
REMARK  0 active torsions:
REMARK  status: ('A' for Active; 'I' for Inactive)
ROOT
ATOM      1  N1  IND d   1       2.053  -1.550   0.902  0.00  0.00    -0.196 N 
ATOM      2  C2  IND d   1       2.523  -0.926  -0.220  0.00  0.00     0.054 A 
ATOM      3  C3  IND d   1       1.723   0.112  -0.551  0.00  0.00    -0.031 A 
ATOM      4  C4  IND d   1      -0.353   1.030   0.665  0.00  0.00     0.051 A 
ATOM      5  C5  IND d   1      -1.189   0.771   1.714  0.00  0.00    -0.031 A 
ATOM      6  C6  IND d   1      -0.982  -0.296   2.566  0.00  0.00     0.015 A 
ATOM      7  C7  IND d   1       0.081  -1.139   2.405  0.00  0.00    -0.016 A 
ATOM      8  C8  IND d   1       0.928  -0.883   1.336  0.00  0.00    -0.047 A 
ATOM      9  C9  IND d   1       0.699   0.172   0.444  0.00  0.00    -0.096 A 
ATOM     10  HN1 IND d   1       2.401  -2.243   1.274  0.00  0.00     0.298 HD
ENDROOT
TORSDOF 0
ENDMDL
