MODEL 1
REMARK minimizedAffinity -0.975833833
REMARK minimizedRMSD -1
REMARK  0 active torsions:
REMARK  status: ('A' for Active; 'I' for Inactive)
ROOT
ATOM      1  N1  IND d   1      -1.134  -0.098   1.296  0.00  0.00    -0.196 N 
ATOM      2  C2  IND d   1      -1.528   0.937   0.495  0.00  0.00     0.054 A 
ATOM      3  C3  IND d   1      -0.525   1.296  -0.338  0.00  0.00    -0.031 A 
ATOM      4  C4  IND d   1       1.811   0.255  -0.628  0.00  0.00     0.051 A 
ATOM      5  C5  IND d   1       2.644  -0.689  -0.096  0.00  0.00    -0.031 A 
ATOM      6  C6  IND d   1       2.251  -1.503   0.947  0.00  0.00     0.015 A 
ATOM      7  C7  IND d   1       1.001  -1.410   1.491  0.00  0.00    -0.016 A 
ATOM      8  C8  IND d   1       0.155  -0.447   0.957  0.00  0.00    -0.047 A 
ATOM      9  C9  IND d   1       0.563   0.410  -0.072  0.00  0.00    -0.096 A 
ATOM     10  HN1 IND d   1      -1.611  -0.469   1.908  0.00  0.00     0.298 HD
ENDROOT
TORSDOF 0
ENDMDL
