MODEL 1
REMARK minimizedAffinity -0.739951611
REMARK minimizedRMSD -1
REMARK  0 active torsions:
REMARK  status: ('A' for Active; 'I' for Inactive)
ROOT
ATOM      1  N1  IND d   1      -1.250   0.617   0.190  0.00  0.00    -0.196 N 
ATOM      2  C2  IND d   1      -1.219   1.652  -0.702  0.00  0.00     0.054 A 
ATOM      3  C3  IND d   1       0.015   1.771  -1.242  0.00  0.00    -0.031 A 
ATOM      4  C4  IND d   1       2.105   0.313  -0.881  0.00  0.00     0.051 A 
ATOM      5  C5  IND d   1       2.576  -0.729  -0.131  0.00  0.00    -0.031 A 
ATOM      6  C6  IND d   1       1.779  -1.390   0.781  0.00  0.00     0.015 A 
ATOM      7  C7  IND d   1       0.472  -1.040   0.969  0.00  0.00    -0.016 A 
ATOM      8  C8  IND d   1      -0.008   0.022   0.215  0.00  0.00    -0.047 A 
ATOM      9  C9  IND d   1       0.809   0.724  -0.681  0.00  0.00    -0.096 A 
ATOM     10  HN1 IND d   1      -1.931   0.378   0.658  0.00  0.00     0.298 HD
ENDROOT
TORSDOF 0
ENDMDL
