MODEL 1
REMARK minimizedAffinity -3.68150091
REMARK minimizedRMSD -1
REMARK  0 active torsions:
REMARK  status: ('A' for Active; 'I' for Inactive)
ROOT
ATOM      1  N1  IND d   1      -1.018   1.265   0.172  0.00  0.00    -0.196 N 
ATOM      2  C2  IND d   1      -0.007   1.452  -0.729  0.00  0.00     0.054 A 
ATOM      3  C3  IND d   1       1.006   0.591  -0.483  0.00  0.00    -0.031 A 
ATOM      4  C4  IND d   1       1.175  -1.276   1.281  0.00  0.00     0.051 A 
ATOM      5  C5  IND d   1       0.515  -1.808   2.353  0.00  0.00    -0.031 A 
ATOM      6  C6  IND d   1      -0.716  -1.334   2.760  0.00  0.00     0.015 A 
ATOM      7  C7  IND d   1      -1.340  -0.315   2.099  0.00  0.00    -0.016 A 
ATOM      8  C8  IND d   1      -0.670   0.232   1.014  0.00  0.00    -0.047 A 
ATOM      9  C9  IND d   1       0.598  -0.216   0.623  0.00  0.00    -0.096 A 
ATOM     10  HN1 IND d   1      -1.749   1.717   0.206  0.00  0.00     0.298 HD
ENDROOT
TORSDOF 0
ENDMDL
