MODEL 1
REMARK minimizedAffinity -4.88395405
REMARK minimizedRMSD -1
REMARK  0 active torsions:
REMARK  status: ('A' for Active; 'I' for Inactive)
ROOT
ATOM      1  N1  IND d   1      -1.495  -0.033   2.215  0.00  0.00    -0.196 N 
ATOM      2  C2  IND d   1      -1.755   1.063   1.441  0.00  0.00     0.054 A 
ATOM      3  C3  IND d   1      -0.817   1.191   0.476  0.00  0.00    -0.031 A 
ATOM      4  C4  IND d   1       1.176  -0.341  -0.081  0.00  0.00     0.051 A 
ATOM      5  C5  IND d   1       1.843  -1.446   0.367  0.00  0.00    -0.031 A 
ATOM      6  C6  IND d   1       1.422  -2.152   1.476  0.00  0.00     0.015 A 
ATOM      7  C7  IND d   1       0.306  -1.785   2.173  0.00  0.00    -0.016 A 
ATOM      8  C8  IND d   1      -0.370  -0.659   1.724  0.00  0.00    -0.047 A 
ATOM      9  C9  IND d   1       0.076   0.086   0.626  0.00  0.00    -0.096 A 
ATOM     10  HN1 IND d   1      -1.957  -0.289   2.894  0.00  0.00     0.298 HD
ENDROOT
TORSDOF 0
ENDMDL
