MODEL 1
REMARK minimizedAffinity -4.66066599
REMARK minimizedRMSD -1
REMARK  0 active torsions:
REMARK  status: ('A' for Active; 'I' for Inactive)
ROOT
ATOM      1  N1  IND d   1       0.921  -1.464   1.506  0.00  0.00    -0.196 N 
ATOM      2  C2  IND d   1       1.876  -1.278   0.546  0.00  0.00     0.054 A 
ATOM      3  C3  IND d   1       1.477  -0.336  -0.338  0.00  0.00    -0.031 A 
ATOM      4  C4  IND d   1      -0.660   1.101  -0.344  0.00  0.00     0.051 A 
ATOM      5  C5  IND d   1      -1.848   1.267   0.311  0.00  0.00    -0.031 A 
ATOM      6  C6  IND d   1      -2.179   0.518   1.422  0.00  0.00     0.015 A 
ATOM      7  C7  IND d   1      -1.326  -0.421   1.928  0.00  0.00    -0.016 A 
ATOM      8  C8  IND d   1      -0.121  -0.598   1.261  0.00  0.00    -0.047 A 
ATOM      9  C9  IND d   1       0.202   0.130   0.109  0.00  0.00    -0.096 A 
ATOM     10  HN1 IND d   1       0.965  -2.027   2.154  0.00  0.00     0.298 HD
ENDROOT
TORSDOF 0
ENDMDL
