MODEL 1
REMARK minimizedAffinity -2.707968
REMARK minimizedRMSD -1
REMARK  0 active torsions:
REMARK  status: ('A' for Active; 'I' for Inactive)
ROOT
ATOM      1  N1  IND d   1      -0.739   3.887  -5.460  0.00  0.00    -0.196 N 
ATOM      2  C2  IND d   1       0.227   4.707  -4.946  0.00  0.00     0.054 A 
ATOM      3  C3  IND d   1       0.365   4.495  -3.618  0.00  0.00    -0.031 A 
ATOM      4  C4  IND d   1      -0.817   2.783  -2.103  0.00  0.00     0.051 A 
ATOM      5  C5  IND d   1      -1.805   1.839  -2.110  0.00  0.00    -0.031 A 
ATOM      6  C6  IND d   1      -2.501   1.521  -3.259  0.00  0.00     0.015 A 
ATOM      7  C7  IND d   1      -2.225   2.130  -4.450  0.00  0.00    -0.016 A 
ATOM      8  C8  IND d   1      -1.227   3.094  -4.445  0.00  0.00    -0.047 A 
ATOM      9  C9  IND d   1      -0.546   3.451  -3.273  0.00  0.00    -0.096 A 
ATOM     10  HN1 IND d   1      -0.998   3.869  -6.280  0.00  0.00     0.298 HD
ENDROOT
TORSDOF 0
ENDMDL
