MODEL 1
REMARK minimizedAffinity -4.68904257
REMARK minimizedRMSD -1
REMARK  0 active torsions:
REMARK  status: ('A' for Active; 'I' for Inactive)
ROOT
ATOM      1  N1  IND d   1      -0.759   0.222   0.355  0.00  0.00    -0.196 N 
ATOM      2  C2  IND d   1       0.071   0.463  -0.705  0.00  0.00     0.054 A 
ATOM      3  C3  IND d   1       1.161  -0.333  -0.639  0.00  0.00    -0.031 A 
ATOM      4  C4  IND d   1       1.741  -2.176   1.063  0.00  0.00     0.051 A 
ATOM      5  C5  IND d   1       1.308  -2.738   2.230  0.00  0.00    -0.031 A 
ATOM      6  C6  IND d   1       0.138  -2.337   2.844  0.00  0.00     0.015 A 
ATOM      7  C7  IND d   1      -0.650  -1.361   2.303  0.00  0.00    -0.016 A 
ATOM      8  C8  IND d   1      -0.210  -0.782   1.121  0.00  0.00    -0.047 A 
ATOM      9  C9  IND d   1       0.997  -1.156   0.517  0.00  0.00    -0.096 A 
ATOM     10  HN1 IND d   1      -1.498   0.630   0.516  0.00  0.00     0.298 HD
ENDROOT
TORSDOF 0
ENDMDL
