MODEL 1
REMARK minimizedAffinity -0.431849241
REMARK minimizedRMSD -1
REMARK  0 active torsions:
REMARK  status: ('A' for Active; 'I' for Inactive)
ROOT
ATOM      1  N1  IND d   1      -1.037  -0.960   2.806  0.00  0.00    -0.196 N 
ATOM      2  C2  IND d   1      -0.535  -1.833   3.730  0.00  0.00     0.054 A 
ATOM      3  C3  IND d   1       0.696  -2.252   3.361  0.00  0.00    -0.031 A 
ATOM      4  C4  IND d   1       2.121  -1.557   1.333  0.00  0.00     0.051 A 
ATOM      5  C5  IND d   1       2.074  -0.813   0.188  0.00  0.00    -0.031 A 
ATOM      6  C6  IND d   1       0.967  -0.062  -0.149  0.00  0.00     0.015 A 
ATOM      7  C7  IND d   1      -0.136  -0.018   0.657  0.00  0.00    -0.016 A 
ATOM      8  C8  IND d   1      -0.095  -0.779   1.817  0.00  0.00    -0.047 A 
ATOM      9  C9  IND d   1       1.010  -1.576   2.142  0.00  0.00    -0.096 A 
ATOM     10  HN1 IND d   1      -1.811  -0.586   2.836  0.00  0.00     0.298 HD
ENDROOT
TORSDOF 0
ENDMDL
