MODEL 1
REMARK minimizedAffinity 1.94440329
REMARK minimizedRMSD -1
REMARK  0 active torsions:
REMARK  status: ('A' for Active; 'I' for Inactive)
ROOT
ATOM      1  N1  IND d   1      -1.564  -0.125   1.606  0.00  0.00    -0.196 N 
ATOM      2  C2  IND d   1      -1.779  -0.808   2.770  0.00  0.00     0.054 A 
ATOM      3  C3  IND d   1      -0.670  -1.494   3.125  0.00  0.00    -0.031 A 
ATOM      4  C4  IND d   1       1.644  -1.559   1.999  0.00  0.00     0.051 A 
ATOM      5  C5  IND d   1       2.315  -1.125   0.889  0.00  0.00    -0.031 A 
ATOM      6  C6  IND d   1       1.715  -0.317  -0.055  0.00  0.00     0.015 A 
ATOM      7  C7  IND d   1       0.421   0.098   0.080  0.00  0.00    -0.016 A 
ATOM      8  C8  IND d   1      -0.265  -0.346   1.202  0.00  0.00    -0.047 A 
ATOM      9  C9  IND d   1       0.324  -1.201   2.142  0.00  0.00    -0.096 A 
ATOM     10  HN1 IND d   1      -2.142   0.361   1.195  0.00  0.00     0.298 HD
ENDROOT
TORSDOF 0
ENDMDL
