MODEL 1
REMARK minimizedAffinity 4.79907799
REMARK minimizedRMSD -1
REMARK  0 active torsions:
REMARK  status: ('A' for Active; 'I' for Inactive)
ROOT
ATOM      1  C4' PXY d   1      -1.102  -2.788  -0.225  0.00  0.00     0.077 C 
ATOM      2  C1' PXY d   1       3.167  -2.197   3.628  0.00  0.00     0.077 C 
ATOM      3  C1  PXY d   1       2.055  -2.361   2.611  0.00  0.00    -0.082 A 
ATOM      4  C2  PXY d   1       1.154  -1.402   2.466  0.00  0.00     0.003 A 
ATOM      5  C3  PXY d   1       0.124  -1.547   1.574  0.00  0.00     0.003 A 
ATOM      6  C4  PXY d   1       0.044  -2.662   0.783  0.00  0.00    -0.082 A 
ATOM      7  C5  PXY d   1       0.965  -3.640   0.917  0.00  0.00     0.003 A 
ATOM      8  C6  PXY d   1       1.980  -3.492   1.857  0.00  0.00     0.003 A 
ENDROOT
TORSDOF 0
ENDMDL
