MODEL 1
REMARK minimizedAffinity 2.06485724
REMARK minimizedRMSD -1
REMARK  0 active torsions:
REMARK  status: ('A' for Active; 'I' for Inactive)
ROOT
ATOM      1  C4' PXY d   1       1.955   5.162  -0.989  0.00  0.00     0.077 C 
ATOM      2  C1' PXY d   1       1.986   0.109   1.818  0.00  0.00     0.077 C 
ATOM      3  C1  PXY d   1       1.965   1.432   1.079  0.00  0.00    -0.082 A 
ATOM      4  C2  PXY d   1       3.097   1.946   0.625  0.00  0.00     0.003 A 
ATOM      5  C3  PXY d   1       3.101   3.157  -0.017  0.00  0.00     0.003 A 
ATOM      6  C4  PXY d   1       1.927   3.824  -0.245  0.00  0.00    -0.082 A 
ATOM      7  C5  PXY d   1       0.767   3.302   0.205  0.00  0.00     0.003 A 
ATOM      8  C6  PXY d   1       0.789   2.091   0.891  0.00  0.00     0.003 A 
ENDROOT
TORSDOF 0
ENDMDL
