MODEL 1
REMARK minimizedAffinity 10.4688492
REMARK minimizedRMSD -1
REMARK  0 active torsions:
REMARK  status: ('A' for Active; 'I' for Inactive)
ROOT
ATOM      1  C4' PXY d   1       2.348  -0.752   2.166  0.00  0.00     0.077 C 
ATOM      2  C1' PXY d   1      -2.108  -2.223  -1.210  0.00  0.00     0.077 C 
ATOM      3  C1  PXY d   1      -0.933  -1.849  -0.328  0.00  0.00    -0.082 A 
ATOM      4  C2  PXY d   1      -1.118  -1.030   0.694  0.00  0.00     0.003 A 
ATOM      5  C3  PXY d   1      -0.061  -0.655   1.483  0.00  0.00     0.003 A 
ATOM      6  C4  PXY d   1       1.189  -1.166   1.255  0.00  0.00    -0.082 A 
ATOM      7  C5  PXY d   1       1.384  -2.010   0.220  0.00  0.00     0.003 A 
ATOM      8  C6  PXY d   1       0.305  -2.346  -0.594  0.00  0.00     0.003 A 
ENDROOT
TORSDOF 0
ENDMDL
