MODEL 1
REMARK minimizedAffinity 6.4158864
REMARK minimizedRMSD -1
REMARK  0 active torsions:
REMARK  status: ('A' for Active; 'I' for Inactive)
ROOT
ATOM      1  C4' PXY d   1       2.026  -0.406   3.225  0.00  0.00     0.077 C 
ATOM      2  C1' PXY d   1       2.628  -5.480   5.927  0.00  0.00     0.077 C 
ATOM      3  C1  PXY d   1       2.477  -4.144   5.228  0.00  0.00    -0.082 A 
ATOM      4  C2  PXY d   1       1.446  -3.938   4.424  0.00  0.00     0.003 A 
ATOM      5  C3  PXY d   1       1.312  -2.747   3.759  0.00  0.00     0.003 A 
ATOM      6  C4  PXY d   1       2.213  -1.736   3.959  0.00  0.00    -0.082 A 
ATOM      7  C5  PXY d   1       3.262  -1.934   4.785  0.00  0.00     0.003 A 
ATOM      8  C6  PXY d   1       3.403  -3.165   5.419  0.00  0.00     0.003 A 
ENDROOT
TORSDOF 0
ENDMDL
