MODEL 1
REMARK minimizedAffinity 6.7274065
REMARK minimizedRMSD -1
REMARK  0 active torsions:
REMARK  status: ('A' for Active; 'I' for Inactive)
ROOT
ATOM      1  C4' PXY d   1       2.137  -3.001   4.680  0.00  0.00     0.077 C 
ATOM      2  C1' PXY d   1       2.440   2.391   2.620  0.00  0.00     0.077 C 
ATOM      3  C1  PXY d   1       2.367   0.981   3.171  0.00  0.00    -0.082 A 
ATOM      4  C2  PXY d   1       2.251  -0.042   2.339  0.00  0.00     0.003 A 
ATOM      5  C3  PXY d   1       2.151  -1.321   2.822  0.00  0.00     0.003 A 
ATOM      6  C4  PXY d   1       2.224  -1.561   4.168  0.00  0.00    -0.082 A 
ATOM      7  C5  PXY d   1       2.354  -0.524   5.023  0.00  0.00     0.003 A 
ATOM      8  C6  PXY d   1       2.412   0.770   4.515  0.00  0.00     0.003 A 
ENDROOT
TORSDOF 0
ENDMDL
