MODEL 1
REMARK minimizedAffinity 5.73430872
REMARK minimizedRMSD -1
REMARK  0 active torsions:
REMARK  status: ('A' for Active; 'I' for Inactive)
ROOT
ATOM      1  C4' PXY d   1       6.000  -1.873   3.464  0.00  0.00     0.077 C 
ATOM      2  C1' PXY d   1       0.689  -0.449   1.679  0.00  0.00     0.077 C 
ATOM      3  C1  PXY d   1       2.087  -0.816   2.137  0.00  0.00    -0.082 A 
ATOM      4  C2  PXY d   1       2.270  -1.896   2.879  0.00  0.00     0.003 A 
ATOM      5  C3  PXY d   1       3.523  -2.224   3.329  0.00  0.00     0.003 A 
ATOM      6  C4  PXY d   1       4.607  -1.469   2.971  0.00  0.00    -0.082 A 
ATOM      7  C5  PXY d   1       4.430  -0.372   2.205  0.00  0.00     0.003 A 
ATOM      8  C6  PXY d   1       3.145  -0.032   1.793  0.00  0.00     0.003 A 
ENDROOT
TORSDOF 0
ENDMDL
