MODEL 1
REMARK minimizedAffinity 5.20542049
REMARK minimizedRMSD -1
REMARK  0 active torsions:
REMARK  status: ('A' for Active; 'I' for Inactive)
ROOT
ATOM      1  C4' PXY d   1       4.222  -2.752   5.996  0.00  0.00     0.077 C 
ATOM      2  C1' PXY d   1       0.695  -0.934   1.792  0.00  0.00     0.077 C 
ATOM      3  C1  PXY d   1       1.610  -1.418   2.899  0.00  0.00    -0.082 A 
ATOM      4  C2  PXY d   1       2.644  -0.677   3.265  0.00  0.00     0.003 A 
ATOM      5  C3  PXY d   1       3.500  -1.114   4.242  0.00  0.00     0.003 A 
ATOM      6  C4  PXY d   1       3.266  -2.298   4.889  0.00  0.00    -0.082 A 
ATOM      7  C5  PXY d   1       2.208  -3.055   4.530  0.00  0.00     0.003 A 
ATOM      8  C6  PXY d   1       1.374  -2.613   3.507  0.00  0.00     0.003 A 
ENDROOT
TORSDOF 0
ENDMDL
