MODEL 1
REMARK minimizedAffinity 3.49080443
REMARK minimizedRMSD -1
REMARK  0 active torsions:
REMARK  status: ('A' for Active; 'I' for Inactive)
ROOT
ATOM      1  C4' PXY d   1       6.000  -2.649   6.000  0.00  0.00     0.077 C 
ATOM      2  C1' PXY d   1       1.710  -1.108   2.445  0.00  0.00     0.077 C 
ATOM      3  C1  PXY d   1       2.844  -1.509   3.367  0.00  0.00    -0.082 A 
ATOM      4  C2  PXY d   1       2.604  -2.323   4.383  0.00  0.00     0.003 A 
ATOM      5  C3  PXY d   1       3.611  -2.670   5.246  0.00  0.00     0.003 A 
ATOM      6  C4  PXY d   1       4.888  -2.224   5.037  0.00  0.00    -0.082 A 
ATOM      7  C5  PXY d   1       5.143  -1.403   3.996  0.00  0.00     0.003 A 
ATOM      8  C6  PXY d   1       4.099  -1.028   3.156  0.00  0.00     0.003 A 
ENDROOT
TORSDOF 0
ENDMDL
