MODEL 1
REMARK minimizedAffinity -1.30443847
REMARK minimizedRMSD -1
REMARK  0 active torsions:
REMARK  status: ('A' for Active; 'I' for Inactive)
ROOT
ATOM      1  C4' PXY d   1       1.808  -0.943   2.364  0.00  0.00     0.077 C 
ATOM      2  C1' PXY d   1       5.997  -2.571   6.000  0.00  0.00     0.077 C 
ATOM      3  C1  PXY d   1       4.906  -2.135   5.041  0.00  0.00    -0.082 A 
ATOM      4  C2  PXY d   1       3.638  -2.338   5.357  0.00  0.00     0.003 A 
ATOM      5  C3  PXY d   1       2.640  -1.980   4.488  0.00  0.00     0.003 A 
ATOM      6  C4  PXY d   1       2.942  -1.358   3.306  0.00  0.00    -0.082 A 
ATOM      7  C5  PXY d   1       4.233  -1.138   2.980  0.00  0.00     0.003 A 
ATOM      8  C6  PXY d   1       5.233  -1.547   3.858  0.00  0.00     0.003 A 
ENDROOT
TORSDOF 0
ENDMDL
