MODEL 1
REMARK minimizedAffinity 0.379683733
REMARK minimizedRMSD -1
REMARK  0 active torsions:
REMARK  status: ('A' for Active; 'I' for Inactive)
ROOT
ATOM      1  C4' PXY d   1       5.642  -1.941   4.902  0.00  0.00     0.077 C 
ATOM      2  C1' PXY d   1       0.936  -0.914   1.706  0.00  0.00     0.077 C 
ATOM      3  C1  PXY d   1       2.163  -1.189   2.553  0.00  0.00    -0.082 A 
ATOM      4  C2  PXY d   1       3.243  -0.440   2.402  0.00  0.00     0.003 A 
ATOM      5  C3  PXY d   1       4.372  -0.696   3.137  0.00  0.00     0.003 A 
ATOM      6  C4  PXY d   1       4.377  -1.693   4.075  0.00  0.00    -0.082 A 
ATOM      7  C5  PXY d   1       3.275  -2.455   4.243  0.00  0.00     0.003 A 
ATOM      8  C6  PXY d   1       2.153  -2.206   3.457  0.00  0.00     0.003 A 
ENDROOT
TORSDOF 0
ENDMDL
