MODEL 1
REMARK minimizedAffinity -0.941609383
REMARK minimizedRMSD -1
REMARK  0 active torsions:
REMARK  status: ('A' for Active; 'I' for Inactive)
ROOT
ATOM      1  C4' PXY d   1       6.000  -2.721   6.000  0.00  0.00     0.077 C 
ATOM      2  C1' PXY d   1       1.676  -0.805   2.675  0.00  0.00     0.077 C 
ATOM      3  C1  PXY d   1       2.805  -1.301   3.557  0.00  0.00    -0.082 A 
ATOM      4  C2  PXY d   1       3.966  -1.629   3.013  0.00  0.00     0.003 A 
ATOM      5  C3  PXY d   1       4.986  -2.110   3.792  0.00  0.00     0.003 A 
ATOM      6  C4  PXY d   1       4.836  -2.206   5.149  0.00  0.00    -0.082 A 
ATOM      7  C5  PXY d   1       3.658  -1.864   5.714  0.00  0.00     0.003 A 
ATOM      8  C6  PXY d   1       2.621  -1.417   4.901  0.00  0.00     0.003 A 
ENDROOT
TORSDOF 0
ENDMDL
