MODEL 1
REMARK minimizedAffinity 2.62510061
REMARK minimizedRMSD -1
REMARK  0 active torsions:
REMARK  status: ('A' for Active; 'I' for Inactive)
ROOT
ATOM      1  C4' PXY d   1       6.000  -3.269   6.000  0.00  0.00     0.077 C 
ATOM      2  C1' PXY d   1       2.170  -1.173   2.211  0.00  0.00     0.077 C 
ATOM      3  C1  PXY d   1       3.183  -1.725   3.195  0.00  0.00    -0.082 A 
ATOM      4  C2  PXY d   1       2.775  -2.167   4.374  0.00  0.00     0.003 A 
ATOM      5  C3  PXY d   1       3.681  -2.640   5.288  0.00  0.00     0.003 A 
ATOM      6  C4  PXY d   1       5.012  -2.711   4.971  0.00  0.00    -0.082 A 
ATOM      7  C5  PXY d   1       5.434  -2.272   3.767  0.00  0.00     0.003 A 
ATOM      8  C6  PXY d   1       4.503  -1.757   2.869  0.00  0.00     0.003 A 
ENDROOT
TORSDOF 0
ENDMDL
