MODEL 1
REMARK minimizedAffinity 6.27453041
REMARK minimizedRMSD -1
REMARK  0 active torsions:
REMARK  status: ('A' for Active; 'I' for Inactive)
ROOT
ATOM      1  C4' PXY d   1       1.112  -1.758   3.008  0.00  0.00     0.077 C 
ATOM      2  C1' PXY d   1       6.000  -2.517   6.000  0.00  0.00     0.077 C 
ATOM      3  C1  PXY d   1       4.713  -2.328   5.221  0.00  0.00    -0.082 A 
ATOM      4  C2  PXY d   1       4.736  -1.686   4.065  0.00  0.00     0.003 A 
ATOM      5  C3  PXY d   1       3.576  -1.478   3.363  0.00  0.00     0.003 A 
ATOM      6  C4  PXY d   1       2.389  -1.980   3.824  0.00  0.00    -0.082 A 
ATOM      7  C5  PXY d   1       2.359  -2.646   4.998  0.00  0.00     0.003 A 
ATOM      8  C6  PXY d   1       3.540  -2.810   5.715  0.00  0.00     0.003 A 
ENDROOT
TORSDOF 0
ENDMDL
