MODEL 1
REMARK minimizedAffinity 11.3578959
REMARK minimizedRMSD -1
REMARK  0 active torsions:
REMARK  status: ('A' for Active; 'I' for Inactive)
ROOT
ATOM      1  C2' OXE d   1       1.928  -2.155   5.037  0.00  0.00     0.078 C 
ATOM      2  C1' OXE d   1       4.512  -2.690   4.081  0.00  0.00     0.078 C 
ATOM      3  C1  OXE d   1       3.669  -1.702   3.314  0.00  0.00    -0.078 A 
ATOM      4  C2  OXE d   1       2.389  -1.481   3.763  0.00  0.00    -0.078 A 
ATOM      5  C3  OXE d   1       1.588  -0.538   3.124  0.00  0.00     0.003 A 
ATOM      6  C4  OXE d   1       2.019   0.073   1.941  0.00  0.00    -0.002 A 
ATOM      7  C5  OXE d   1       3.305  -0.168   1.444  0.00  0.00    -0.002 A 
ATOM      8  C6  OXE d   1       4.156  -1.018   2.141  0.00  0.00     0.003 A 
ENDROOT
TORSDOF 0
ENDMDL
