MODEL 1
REMARK minimizedAffinity 7.78722
REMARK minimizedRMSD -1
REMARK  0 active torsions:
REMARK  status: ('A' for Active; 'I' for Inactive)
ROOT
ATOM      1  C2' OXE d   1       0.686  -0.591   1.963  0.00  0.00     0.078 C 
ATOM      2  C1' OXE d   1       3.197   0.657   2.084  0.00  0.00     0.078 C 
ATOM      3  C1  OXE d   1       2.964  -0.541   2.969  0.00  0.00    -0.078 A 
ATOM      4  C2  OXE d   1       1.717  -1.117   2.938  0.00  0.00    -0.078 A 
ATOM      5  C3  OXE d   1       1.466  -2.259   3.694  0.00  0.00     0.003 A 
ATOM      6  C4  OXE d   1       2.421  -2.733   4.600  0.00  0.00    -0.002 A 
ATOM      7  C5  OXE d   1       3.684  -2.137   4.677  0.00  0.00    -0.002 A 
ATOM      8  C6  OXE d   1       3.986  -1.069   3.839  0.00  0.00     0.003 A 
ENDROOT
TORSDOF 0
ENDMDL
