MODEL 1
REMARK minimizedAffinity 5.60105896
REMARK minimizedRMSD -1
REMARK  0 active torsions:
REMARK  status: ('A' for Active; 'I' for Inactive)
ROOT
ATOM      1  C2' OXE d   1       1.470  -1.242   0.465  0.00  0.00     0.078 C 
ATOM      2  C1' OXE d   1       2.759   0.934   1.683  0.00  0.00     0.078 C 
ATOM      3  C1  OXE d   1       2.351  -0.223   2.560  0.00  0.00    -0.078 A 
ATOM      4  C2  OXE d   1       1.680  -1.263   1.964  0.00  0.00    -0.078 A 
ATOM      5  C3  OXE d   1       1.329  -2.380   2.717  0.00  0.00     0.003 A 
ATOM      6  C4  OXE d   1       1.517  -2.387   4.104  0.00  0.00    -0.002 A 
ATOM      7  C5  OXE d   1       2.164  -1.320   4.738  0.00  0.00    -0.002 A 
ATOM      8  C6  OXE d   1       2.624  -0.252   3.976  0.00  0.00     0.003 A 
ENDROOT
TORSDOF 0
ENDMDL
