MODEL 1
REMARK minimizedAffinity 12.8661842
REMARK minimizedRMSD -1
REMARK  0 active torsions:
REMARK  status: ('A' for Active; 'I' for Inactive)
ROOT
ATOM      1  C2' OXE d   1      -1.655  -0.912  -1.205  0.00  0.00     0.078 C 
ATOM      2  C1' OXE d   1      -1.873   0.494   1.215  0.00  0.00     0.078 C 
ATOM      3  C1  OXE d   1      -0.585  -0.243   0.942  0.00  0.00    -0.078 A 
ATOM      4  C2  OXE d   1      -0.505  -0.966  -0.223  0.00  0.00    -0.078 A 
ATOM      5  C3  OXE d   1       0.680  -1.619  -0.549  0.00  0.00     0.003 A 
ATOM      6  C4  OXE d   1       1.736  -1.673   0.369  0.00  0.00    -0.002 A 
ATOM      7  C5  OXE d   1       1.660  -0.976   1.579  0.00  0.00    -0.002 A 
ATOM      8  C6  OXE d   1       0.526  -0.223   1.862  0.00  0.00     0.003 A 
ENDROOT
TORSDOF 0
ENDMDL
