MODEL 1
REMARK minimizedAffinity 16.7568493
REMARK minimizedRMSD -1
REMARK  0 active torsions:
REMARK  status: ('A' for Active; 'I' for Inactive)
ROOT
ATOM      1  C2' OXE d   1       2.633  -4.192   2.811  0.00  0.00     0.078 C 
ATOM      2  C1' OXE d   1       1.491  -2.012   4.160  0.00  0.00     0.078 C 
ATOM      3  C1  OXE d   1       1.091  -3.398   4.598  0.00  0.00    -0.078 A 
ATOM      4  C2  OXE d   1       1.619  -4.459   3.902  0.00  0.00    -0.078 A 
ATOM      5  C3  OXE d   1       1.325  -5.760   4.300  0.00  0.00     0.003 A 
ATOM      6  C4  OXE d   1       0.379  -5.997   5.304  0.00  0.00    -0.002 A 
ATOM      7  C5  OXE d   1      -0.201  -4.931   6.000  0.00  0.00    -0.002 A 
ATOM      8  C6  OXE d   1       0.176  -3.629   5.689  0.00  0.00     0.003 A 
ENDROOT
TORSDOF 0
ENDMDL
