MODEL 1
REMARK minimizedAffinity 4.41047812
REMARK minimizedRMSD -1
REMARK  0 active torsions:
REMARK  status: ('A' for Active; 'I' for Inactive)
ROOT
ATOM      1  C2' OXE d   1       5.619  -2.789   6.000  0.00  0.00     0.078 C 
ATOM      2  C1' OXE d   1       6.000  -2.537   3.230  0.00  0.00     0.078 C 
ATOM      3  C1  OXE d   1       4.617  -2.281   3.776  0.00  0.00    -0.078 A 
ATOM      4  C2  OXE d   1       4.429  -2.452   5.126  0.00  0.00    -0.078 A 
ATOM      5  C3  OXE d   1       3.187  -2.175   5.690  0.00  0.00     0.003 A 
ATOM      6  C4  OXE d   1       2.090  -1.874   4.874  0.00  0.00    -0.002 A 
ATOM      7  C5  OXE d   1       2.250  -1.734   3.491  0.00  0.00    -0.002 A 
ATOM      8  C6  OXE d   1       3.514  -1.892   2.933  0.00  0.00     0.003 A 
ENDROOT
TORSDOF 0
ENDMDL
