MODEL 1
REMARK minimizedAffinity 11.0512972
REMARK minimizedRMSD -1
REMARK  0 active torsions:
REMARK  status: ('A' for Active; 'I' for Inactive)
ROOT
ATOM      1  C2' OXE d   1       2.796  -4.130   4.516  0.00  0.00     0.078 C 
ATOM      2  C1' OXE d   1       4.730  -2.387   5.566  0.00  0.00     0.078 C 
ATOM      3  C1  OXE d   1       3.757  -1.832   4.556  0.00  0.00    -0.078 A 
ATOM      4  C2  OXE d   1       2.844  -2.704   4.013  0.00  0.00    -0.078 A 
ATOM      5  C3  OXE d   1       1.888  -2.232   3.118  0.00  0.00     0.003 A 
ATOM      6  C4  OXE d   1       1.946  -0.913   2.650  0.00  0.00    -0.002 A 
ATOM      7  C5  OXE d   1       2.893  -0.019   3.161  0.00  0.00    -0.002 A 
ATOM      8  C6  OXE d   1       3.776  -0.451   4.144  0.00  0.00     0.003 A 
ENDROOT
TORSDOF 0
ENDMDL
