MODEL 1
REMARK minimizedAffinity 16.9962597
REMARK minimizedRMSD -1
REMARK  0 active torsions:
REMARK  status: ('A' for Active; 'I' for Inactive)
ROOT
ATOM      1  C2' OXE d   1      -1.254  -0.982  -1.205  0.00  0.00     0.078 C 
ATOM      2  C1' OXE d   1      -1.592   1.133   0.609  0.00  0.00     0.078 C 
ATOM      3  C1  OXE d   1      -0.259   0.427   0.592  0.00  0.00    -0.078 A 
ATOM      4  C2  OXE d   1      -0.119  -0.637  -0.266  0.00  0.00    -0.078 A 
ATOM      5  C3  OXE d   1       1.108  -1.289  -0.361  0.00  0.00     0.003 A 
ATOM      6  C4  OXE d   1       2.149  -0.970   0.519  0.00  0.00    -0.002 A 
ATOM      7  C5  OXE d   1       2.013   0.084   1.428  0.00  0.00    -0.002 A 
ATOM      8  C6  OXE d   1       0.833   0.819   1.448  0.00  0.00     0.003 A 
ENDROOT
TORSDOF 0
ENDMDL
