MODEL 1
REMARK minimizedAffinity 0.491889536
REMARK minimizedRMSD -1
REMARK  0 active torsions:
REMARK  status: ('A' for Active; 'I' for Inactive)
ROOT
ATOM      1  C2' OXE d   1       5.913  -2.745   5.999  0.00  0.00     0.078 C 
ATOM      2  C1' OXE d   1       5.944  -1.850   3.339  0.00  0.00     0.078 C 
ATOM      3  C1  OXE d   1       4.605  -1.985   4.020  0.00  0.00    -0.078 A 
ATOM      4  C2  OXE d   1       4.596  -2.468   5.307  0.00  0.00    -0.078 A 
ATOM      5  C3  OXE d   1       3.393  -2.560   6.000  0.00  0.00     0.003 A 
ATOM      6  C4  OXE d   1       2.179  -2.312   5.349  0.00  0.00    -0.002 A 
ATOM      7  C5  OXE d   1       2.163  -1.857   4.026  0.00  0.00    -0.002 A 
ATOM      8  C6  OXE d   1       3.367  -1.648   3.363  0.00  0.00     0.003 A 
ENDROOT
TORSDOF 0
ENDMDL
