MODEL 1
REMARK minimizedAffinity 14.3043556
REMARK minimizedRMSD -1
REMARK  0 active torsions:
REMARK  status: ('A' for Active; 'I' for Inactive)
ROOT
ATOM      1  C2' OXE d   1       1.205  -2.320   4.788  0.00  0.00     0.078 C 
ATOM      2  C1' OXE d   1       2.381  -1.491   2.378  0.00  0.00     0.078 C 
ATOM      3  C1  OXE d   1       3.296  -1.947   3.487  0.00  0.00    -0.078 A 
ATOM      4  C2  OXE d   1       2.715  -2.306   4.679  0.00  0.00    -0.078 A 
ATOM      5  C3  OXE d   1       3.509  -2.786   5.716  0.00  0.00     0.003 A 
ATOM      6  C4  OXE d   1       4.905  -2.761   5.611  0.00  0.00    -0.002 A 
ATOM      7  C5  OXE d   1       5.519  -2.361   4.419  0.00  0.00    -0.002 A 
ATOM      8  C6  OXE d   1       4.730  -1.993   3.336  0.00  0.00     0.003 A 
ENDROOT
TORSDOF 0
ENDMDL
