MODEL 1
REMARK minimizedAffinity 7.93314123
REMARK minimizedRMSD -1
REMARK  0 active torsions:
REMARK  status: ('A' for Active; 'I' for Inactive)
ROOT
ATOM      1  C2' OXE d   1       1.352  -2.776  -0.358  0.00  0.00     0.078 C 
ATOM      2  C1' OXE d   1       2.759  -4.878   0.858  0.00  0.00     0.078 C 
ATOM      3  C1  OXE d   1       2.447  -3.664   1.696  0.00  0.00    -0.078 A 
ATOM      4  C2  OXE d   1       1.798  -2.620   1.080  0.00  0.00    -0.078 A 
ATOM      5  C3  OXE d   1       1.437  -1.499   1.821  0.00  0.00     0.003 A 
ATOM      6  C4  OXE d   1       1.863  -1.359   3.148  0.00  0.00    -0.002 A 
ATOM      7  C5  OXE d   1       2.559  -2.393   3.783  0.00  0.00    -0.002 A 
ATOM      8  C6  OXE d   1       2.821  -3.567   3.085  0.00  0.00     0.003 A 
ENDROOT
TORSDOF 0
ENDMDL
