MODEL 1
REMARK minimizedAffinity 14.0242891
REMARK minimizedRMSD -1
REMARK  0 active torsions:
REMARK  status: ('A' for Active; 'I' for Inactive)
ROOT
ATOM      1  C2' OXE d   1       2.147  -4.506   5.081  0.00  0.00     0.078 C 
ATOM      2  C1' OXE d   1       3.297  -4.524   2.520  0.00  0.00     0.078 C 
ATOM      3  C1  OXE d   1       2.867  -3.195   3.089  0.00  0.00    -0.078 A 
ATOM      4  C2  OXE d   1       2.262  -3.201   4.323  0.00  0.00    -0.078 A 
ATOM      5  C3  OXE d   1       1.895  -1.997   4.917  0.00  0.00     0.003 A 
ATOM      6  C4  OXE d   1       1.996  -0.796   4.205  0.00  0.00    -0.002 A 
ATOM      7  C5  OXE d   1       2.573  -0.772   2.930  0.00  0.00    -0.002 A 
ATOM      8  C6  OXE d   1       3.051  -1.954   2.377  0.00  0.00     0.003 A 
ENDROOT
TORSDOF 0
ENDMDL
