MODEL 1
REMARK minimizedAffinity -1.77202284
REMARK minimizedRMSD -1
REMARK  1 active torsions:
REMARK  status: ('A' for Active; 'I' for Inactive)
REMARK    1  A    between atoms: C1_2  and  C2_3 
ROOT
ATOM      1  C2  UNL d   1       4.808  -1.838   4.444  0.00  0.00    -0.073 A 
ATOM      2  C3  UNL d   1       5.937  -2.106   5.225  0.00  0.00    -0.002 A 
ATOM      3  C4  UNL d   1       6.000  -3.265   6.000  0.00  0.00     0.004 A 
ATOM      4  C5  UNL d   1       4.939  -4.170   5.996  0.00  0.00    -0.004 A 
ATOM      5  C6  UNL d   1       3.806  -3.926   5.212  0.00  0.00    -0.075 A 
ATOM      6  C7  UNL d   1       2.655  -4.888   5.199  0.00  0.00     0.076 C 
ATOM      7  C8  UNL d   1       3.750  -2.758   4.439  0.00  0.00     0.001 A 
ENDROOT
BRANCH   1   8
ATOM      8  C1  UNL d   1       4.738  -0.591   3.601  0.00  0.00     0.053 C 
ATOM      9  C   UNL d   1       4.892  -0.895   2.119  0.00  0.00     0.018 C 
ENDBRANCH   1   8
TORSDOF 1
ENDMDL
