MODEL 1
REMARK minimizedAffinity 3.42168832
REMARK minimizedRMSD -1
REMARK  1 active torsions:
REMARK  status: ('A' for Active; 'I' for Inactive)
REMARK    1  A    between atoms: C1_2  and  C2_3 
ROOT
ATOM      1  C2  UNL d   1       1.788   1.952  -1.232  0.00  0.00    -0.073 A 
ATOM      2  C3  UNL d   1       1.610   3.303  -1.554  0.00  0.00    -0.002 A 
ATOM      3  C4  UNL d   1       1.982   4.298  -0.649  0.00  0.00     0.004 A 
ATOM      4  C5  UNL d   1       2.540   3.954   0.582  0.00  0.00    -0.004 A 
ATOM      5  C6  UNL d   1       2.737   2.611   0.917  0.00  0.00    -0.075 A 
ATOM      6  C7  UNL d   1       3.334   2.225   2.239  0.00  0.00     0.076 C 
ATOM      7  C8  UNL d   1       2.359   1.617   0.005  0.00  0.00     0.001 A 
ENDROOT
BRANCH   1   8
ATOM      8  C1  UNL d   1       1.394   0.874  -2.208  0.00  0.00     0.053 C 
ATOM      9  C   UNL d   1       0.282   1.328  -3.140  0.00  0.00     0.018 C 
ENDBRANCH   1   8
TORSDOF 1
ENDMDL
