MODEL 1
REMARK minimizedAffinity 1.22985876
REMARK minimizedRMSD -1
REMARK  1 active torsions:
REMARK  status: ('A' for Active; 'I' for Inactive)
REMARK    1  A    between atoms: C1_2  and  C2_3 
ROOT
ATOM      1  C2  UNL d   1      -4.702   2.036   5.302  0.00  0.00    -0.073 A 
ATOM      2  C3  UNL d   1      -5.810   1.263   5.665  0.00  0.00    -0.002 A 
ATOM      3  C4  UNL d   1      -6.000  -0.003   5.108  0.00  0.00     0.004 A 
ATOM      4  C5  UNL d   1      -5.081  -0.509   4.189  0.00  0.00    -0.004 A 
ATOM      5  C6  UNL d   1      -3.961   0.244   3.822  0.00  0.00    -0.075 A 
ATOM      6  C7  UNL d   1      -2.965  -0.286   2.833  0.00  0.00     0.076 C 
ATOM      7  C8  UNL d   1      -3.779   1.515   4.384  0.00  0.00     0.001 A 
ENDROOT
BRANCH   1   8
ATOM      8  C1  UNL d   1      -4.490   3.400   5.906  0.00  0.00     0.053 C 
ATOM      9  C   UNL d   1      -4.080   4.428   4.864  0.00  0.00     0.018 C 
ENDBRANCH   1   8
TORSDOF 1
ENDMDL
