MODEL 1
REMARK minimizedAffinity -0.675975621
REMARK minimizedRMSD -1
REMARK  1 active torsions:
REMARK  status: ('A' for Active; 'I' for Inactive)
REMARK    1  A    between atoms: C1_2  and  C2_3 
ROOT
ATOM      1  C2  UNL d   1      -2.986   5.892   2.162  0.00  0.00    -0.073 A 
ATOM      2  C3  UNL d   1      -4.346   5.758   1.857  0.00  0.00    -0.002 A 
ATOM      3  C4  UNL d   1      -5.294   5.694   2.879  0.00  0.00     0.004 A 
ATOM      4  C5  UNL d   1      -4.895   5.771   4.213  0.00  0.00    -0.004 A 
ATOM      5  C6  UNL d   1      -3.543   5.916   4.537  0.00  0.00    -0.075 A 
ATOM      6  C7  UNL d   1      -3.097   5.998   5.968  0.00  0.00     0.076 C 
ATOM      7  C8  UNL d   1      -2.596   5.977   3.506  0.00  0.00     0.001 A 
ENDROOT
BRANCH   1   8
ATOM      8  C1  UNL d   1      -1.959   5.968   1.062  0.00  0.00     0.053 C 
ATOM      9  C   UNL d   1      -2.113   4.835   0.060  0.00  0.00     0.018 C 
ENDBRANCH   1   8
TORSDOF 1
ENDMDL
