MODEL 1
REMARK minimizedAffinity 15.0510874
REMARK minimizedRMSD -1
REMARK  1 active torsions:
REMARK  status: ('A' for Active; 'I' for Inactive)
REMARK    1  A    between atoms: C1_2  and  C2_3 
ROOT
ATOM      1  C2  UNL d   1       2.651   3.406  -1.881  0.00  0.00    -0.073 A 
ATOM      2  C3  UNL d   1       1.871   3.958  -2.903  0.00  0.00    -0.002 A 
ATOM      3  C4  UNL d   1       0.951   3.168  -3.594  0.00  0.00     0.004 A 
ATOM      4  C5  UNL d   1       0.797   1.821  -3.267  0.00  0.00    -0.004 A 
ATOM      5  C6  UNL d   1       1.559   1.253  -2.240  0.00  0.00    -0.075 A 
ATOM      6  C7  UNL d   1       1.407  -0.195  -1.877  0.00  0.00     0.076 C 
ATOM      7  C8  UNL d   1       2.483   2.053  -1.553  0.00  0.00     0.001 A 
ENDROOT
BRANCH   1   8
ATOM      8  C1  UNL d   1       3.640   4.257  -1.128  0.00  0.00     0.053 C 
ATOM      9  C   UNL d   1       3.341   4.295   0.362  0.00  0.00     0.018 C 
ENDBRANCH   1   8
TORSDOF 1
ENDMDL
