MODEL 1
REMARK minimizedAffinity 5.38480806
REMARK minimizedRMSD -1
REMARK  1 active torsions:
REMARK  status: ('A' for Active; 'I' for Inactive)
REMARK    1  A    between atoms: C1_2  and  C2_3 
ROOT
ATOM      1  C2  UNL d   1      -3.733   5.989   2.618  0.00  0.00    -0.073 A 
ATOM      2  C3  UNL d   1      -5.076   5.995   3.011  0.00  0.00    -0.002 A 
ATOM      3  C4  UNL d   1      -5.414   5.994   4.365  0.00  0.00     0.004 A 
ATOM      4  C5  UNL d   1      -4.415   5.994   5.338  0.00  0.00    -0.004 A 
ATOM      5  C6  UNL d   1      -3.067   6.000   4.965  0.00  0.00    -0.075 A 
ATOM      6  C7  UNL d   1      -1.980   5.997   6.000  0.00  0.00     0.076 C 
ATOM      7  C8  UNL d   1      -2.736   5.998   3.604  0.00  0.00     0.001 A 
ENDROOT
BRANCH   1   8
ATOM      8  C1  UNL d   1      -3.363   5.997   1.158  0.00  0.00     0.053 C 
ATOM      9  C   UNL d   1      -1.867   5.823   0.947  0.00  0.00     0.018 C 
ENDBRANCH   1   8
TORSDOF 1
ENDMDL
