MODEL 1
REMARK minimizedAffinity 5.89517975
REMARK minimizedRMSD -1
REMARK  1 active torsions:
REMARK  status: ('A' for Active; 'I' for Inactive)
REMARK    1  A    between atoms: C1_2  and  C2_3 
ROOT
ATOM      1  C2  UNL d   1      -4.090   5.952   4.271  0.00  0.00    -0.073 A 
ATOM      2  C3  UNL d   1      -5.420   5.950   3.836  0.00  0.00    -0.002 A 
ATOM      3  C4  UNL d   1      -5.716   5.911   2.473  0.00  0.00     0.004 A 
ATOM      4  C5  UNL d   1      -4.687   5.867   1.532  0.00  0.00    -0.004 A 
ATOM      5  C6  UNL d   1      -3.352   5.857   1.947  0.00  0.00    -0.075 A 
ATOM      6  C7  UNL d   1      -2.233   5.813   0.948  0.00  0.00     0.076 C 
ATOM      7  C8  UNL d   1      -3.063   5.899   3.318  0.00  0.00     0.001 A 
ENDROOT
BRANCH   1   8
ATOM      8  C1  UNL d   1      -3.766   5.987   5.742  0.00  0.00     0.053 C 
ATOM      9  C   UNL d   1      -2.273   5.858   6.000  0.00  0.00     0.018 C 
ENDBRANCH   1   8
TORSDOF 1
ENDMDL
