MODEL 1
REMARK minimizedAffinity -1.66235662
REMARK minimizedRMSD -1
REMARK  1 active torsions:
REMARK  status: ('A' for Active; 'I' for Inactive)
REMARK    1  A    between atoms: C1_2  and  C2_3 
ROOT
ATOM      1  C2  UNL d   1       1.073  -0.455  -3.365  0.00  0.00    -0.073 A 
ATOM      2  C3  UNL d   1       1.881  -0.176  -2.257  0.00  0.00    -0.002 A 
ATOM      3  C4  UNL d   1       2.391   1.108  -2.061  0.00  0.00     0.004 A 
ATOM      4  C5  UNL d   1       2.093   2.127  -2.966  0.00  0.00    -0.004 A 
ATOM      5  C6  UNL d   1       1.278   1.871  -4.074  0.00  0.00    -0.075 A 
ATOM      6  C7  UNL d   1       0.950   2.955  -5.058  0.00  0.00     0.076 C 
ATOM      7  C8  UNL d   1       0.772   0.578  -4.265  0.00  0.00     0.001 A 
ENDROOT
BRANCH   1   8
ATOM      8  C1  UNL d   1       0.515  -1.839  -3.577  0.00  0.00     0.053 C 
ATOM      9  C   UNL d   1       1.349  -2.902  -2.881  0.00  0.00     0.018 C 
ENDBRANCH   1   8
TORSDOF 1
ENDMDL
