MODEL 1
REMARK minimizedAffinity 12.9731941
REMARK minimizedRMSD -1
REMARK  1 active torsions:
REMARK  status: ('A' for Active; 'I' for Inactive)
REMARK    1  A    between atoms: C1_2  and  C2_3 
ROOT
ATOM      1  C2  UNL d   1      -2.957   5.625   3.757  0.00  0.00    -0.073 A 
ATOM      2  C3  UNL d   1      -3.849   6.000   4.769  0.00  0.00    -0.002 A 
ATOM      3  C4  UNL d   1      -5.225   5.992   4.534  0.00  0.00     0.004 A 
ATOM      4  C5  UNL d   1      -5.723   5.603   3.291  0.00  0.00    -0.004 A 
ATOM      5  C6  UNL d   1      -4.848   5.213   2.271  0.00  0.00    -0.075 A 
ATOM      6  C7  UNL d   1      -5.368   4.794   0.927  0.00  0.00     0.076 C 
ATOM      7  C8  UNL d   1      -3.468   5.227   2.514  0.00  0.00     0.001 A 
ENDROOT
BRANCH   1   8
ATOM      8  C1  UNL d   1      -1.472   5.626   4.008  0.00  0.00     0.053 C 
ATOM      9  C   UNL d   1      -1.136   5.999   5.443  0.00  0.00     0.018 C 
ENDBRANCH   1   8
TORSDOF 1
ENDMDL
