MODEL 1
REMARK minimizedAffinity 1.3910377
REMARK minimizedRMSD -1
REMARK  1 active torsions:
REMARK  status: ('A' for Active; 'I' for Inactive)
REMARK    1  A    between atoms: C1_2  and  C2_3 
ROOT
ATOM      1  C2  UNL d   1      -3.663   2.416  -5.269  0.00  0.00    -0.081 A 
ATOM      2  C3  UNL d   1      -3.045   3.672  -5.307  0.00  0.00     0.006 A 
ATOM      3  C4  UNL d   1      -3.796   4.824  -5.554  0.00  0.00     0.002 A 
ATOM      4  C5  UNL d   1      -5.177   4.740  -5.761  0.00  0.00    -0.080 A 
ATOM      5  C6  UNL d   1      -5.999   5.971  -5.998  0.00  0.00     0.076 C 
ATOM      6  C7  UNL d   1      -5.791   3.483  -5.741  0.00  0.00     0.002 A 
ATOM      7  C8  UNL d   1      -5.041   2.331  -5.494  0.00  0.00     0.006 A 
ENDROOT
BRANCH   1   8
ATOM      8  C1  UNL d   1      -2.867   1.180  -4.938  0.00  0.00     0.054 C 
ATOM      9  C   UNL d   1      -1.456   1.534  -4.490  0.00  0.00     0.018 C 
ENDBRANCH   1   8
TORSDOF 1
ENDMDL
