MODEL 1
REMARK minimizedAffinity 1.54981792
REMARK minimizedRMSD -1
REMARK  1 active torsions:
REMARK  status: ('A' for Active; 'I' for Inactive)
REMARK    1  A    between atoms: C1_2  and  C2_3 
ROOT
ATOM      1  C2  UNL d   1       0.274   0.831   1.593  0.00  0.00    -0.081 A 
ATOM      2  C3  UNL d   1      -0.440  -0.296   1.167  0.00  0.00     0.006 A 
ATOM      3  C4  UNL d   1      -0.243  -0.816  -0.114  0.00  0.00     0.002 A 
ATOM      4  C5  UNL d   1       0.677  -0.225  -0.987  0.00  0.00    -0.080 A 
ATOM      5  C6  UNL d   1       0.921  -0.792  -2.354  0.00  0.00     0.076 C 
ATOM      6  C7  UNL d   1       1.378   0.911  -0.567  0.00  0.00     0.002 A 
ATOM      7  C8  UNL d   1       1.180   1.433   0.713  0.00  0.00     0.006 A 
ENDROOT
BRANCH   1   8
ATOM      8  C1  UNL d   1       0.110   1.356   2.997  0.00  0.00     0.054 C 
ATOM      9  C   UNL d   1       1.450   1.759   3.596  0.00  0.00     0.018 C 
ENDBRANCH   1   8
TORSDOF 1
ENDMDL
