MODEL 1
REMARK minimizedAffinity -1.10654151
REMARK minimizedRMSD -1
REMARK  1 active torsions:
REMARK  status: ('A' for Active; 'I' for Inactive)
REMARK    1  A    between atoms: C1_2  and  C2_3 
ROOT
ATOM      1  C2  UNL d   1      -1.680   0.053   1.504  0.00  0.00    -0.081 A 
ATOM      2  C3  UNL d   1      -3.011   0.342   1.183  0.00  0.00     0.006 A 
ATOM      3  C4  UNL d   1      -3.769   1.186   1.997  0.00  0.00     0.002 A 
ATOM      4  C5  UNL d   1      -3.207   1.761   3.142  0.00  0.00    -0.080 A 
ATOM      5  C6  UNL d   1      -4.000   2.693   4.009  0.00  0.00     0.076 C 
ATOM      6  C7  UNL d   1      -1.882   1.458   3.473  0.00  0.00     0.002 A 
ATOM      7  C8  UNL d   1      -1.124   0.614   2.659  0.00  0.00     0.006 A 
ENDROOT
BRANCH   1   8
ATOM      8  C1  UNL d   1      -0.840  -0.805   0.593  0.00  0.00     0.054 C 
ATOM      9  C   UNL d   1      -0.099   0.039  -0.434  0.00  0.00     0.018 C 
ENDBRANCH   1   8
TORSDOF 1
ENDMDL
