MODEL 1
REMARK minimizedAffinity 0.14869599
REMARK minimizedRMSD -1
REMARK  1 active torsions:
REMARK  status: ('A' for Active; 'I' for Inactive)
REMARK    1  A    between atoms: C1_2  and  C2_3 
ROOT
ATOM      1  C2  UNL d   1       0.828   1.147   1.454  0.00  0.00    -0.081 A 
ATOM      2  C3  UNL d   1       0.070   0.156   0.817  0.00  0.00     0.006 A 
ATOM      3  C4  UNL d   1       0.198  -0.060  -0.557  0.00  0.00     0.002 A 
ATOM      4  C5  UNL d   1       1.090   0.705  -1.315  0.00  0.00    -0.080 A 
ATOM      5  C6  UNL d   1       1.259   0.463  -2.786  0.00  0.00     0.076 C 
ATOM      6  C7  UNL d   1       1.835   1.706  -0.683  0.00  0.00     0.002 A 
ATOM      7  C8  UNL d   1       1.707   1.923   0.691  0.00  0.00     0.006 A 
ENDROOT
BRANCH   1   8
ATOM      8  C1  UNL d   1       0.740   1.338   2.946  0.00  0.00     0.054 C 
ATOM      9  C   UNL d   1       2.111   1.599   3.553  0.00  0.00     0.018 C 
ENDBRANCH   1   8
TORSDOF 1
ENDMDL
