MODEL 1
REMARK minimizedAffinity -3.45612311
REMARK minimizedRMSD -1
REMARK  1 active torsions:
REMARK  status: ('A' for Active; 'I' for Inactive)
REMARK    1  A    between atoms: C1_2  and  C2_3 
ROOT
ATOM      1  C2  UNL d   1      -1.444  -0.099   1.930  0.00  0.00    -0.081 A 
ATOM      2  C3  UNL d   1      -2.818  -0.028   1.671  0.00  0.00     0.006 A 
ATOM      3  C4  UNL d   1      -3.624   0.880   2.363  0.00  0.00     0.002 A 
ATOM      4  C5  UNL d   1      -3.068   1.736   3.320  0.00  0.00    -0.080 A 
ATOM      5  C6  UNL d   1      -3.915   2.736   4.048  0.00  0.00     0.076 C 
ATOM      6  C7  UNL d   1      -1.698   1.652   3.592  0.00  0.00     0.002 A 
ATOM      7  C8  UNL d   1      -0.892   0.744   2.900  0.00  0.00     0.006 A 
ENDROOT
BRANCH   1   8
ATOM      8  C1  UNL d   1      -0.563  -1.032   1.140  0.00  0.00     0.054 C 
ATOM      9  C   UNL d   1       0.124  -0.304  -0.008  0.00  0.00     0.018 C 
ENDBRANCH   1   8
TORSDOF 1
ENDMDL
