MODEL 1
REMARK minimizedAffinity 0.237416729
REMARK minimizedRMSD -1
REMARK  1 active torsions:
REMARK  status: ('A' for Active; 'I' for Inactive)
REMARK    1  A    between atoms: C1_2  and  C2_3 
ROOT
ATOM      1  C2  UNL d   1      -4.119   0.635   1.966  0.00  0.00    -0.081 A 
ATOM      2  C3  UNL d   1      -2.813   0.768   2.453  0.00  0.00     0.006 A 
ATOM      3  C4  UNL d   1      -2.500   1.767   3.378  0.00  0.00     0.002 A 
ATOM      4  C5  UNL d   1      -3.489   2.644   3.837  0.00  0.00    -0.080 A 
ATOM      5  C6  UNL d   1      -3.173   3.702   4.853  0.00  0.00     0.076 C 
ATOM      6  C7  UNL d   1      -4.790   2.523   3.338  0.00  0.00     0.002 A 
ATOM      7  C8  UNL d   1      -5.103   1.525   2.413  0.00  0.00     0.006 A 
ENDROOT
BRANCH   1   8
ATOM      8  C1  UNL d   1      -4.474  -0.482   1.018  0.00  0.00     0.054 C 
ATOM      9  C   UNL d   1      -4.454  -1.831   1.721  0.00  0.00     0.018 C 
ENDBRANCH   1   8
TORSDOF 1
ENDMDL
