MODEL 1
REMARK minimizedAffinity -1.64842904
REMARK minimizedRMSD -1
REMARK  1 active torsions:
REMARK  status: ('A' for Active; 'I' for Inactive)
REMARK    1  A    between atoms: C1_2  and  C2_3 
ROOT
ATOM      1  C2  UNL d   1      -1.192   0.144  -0.320  0.00  0.00    -0.081 A 
ATOM      2  C3  UNL d   1      -0.818   1.245  -1.101  0.00  0.00     0.006 A 
ATOM      3  C4  UNL d   1       0.510   1.413  -1.499  0.00  0.00     0.002 A 
ATOM      4  C5  UNL d   1       1.484   0.479  -1.131  0.00  0.00    -0.080 A 
ATOM      5  C6  UNL d   1       2.908   0.631  -1.578  0.00  0.00     0.076 C 
ATOM      6  C7  UNL d   1       1.115  -0.612  -0.337  0.00  0.00     0.002 A 
ATOM      7  C8  UNL d   1      -0.213  -0.780   0.062  0.00  0.00     0.006 A 
ENDROOT
BRANCH   1   8
ATOM      8  C1  UNL d   1      -2.635  -0.074   0.057  0.00  0.00     0.054 C 
ATOM      9  C   UNL d   1      -3.159   1.065   0.920  0.00  0.00     0.018 C 
ENDBRANCH   1   8
TORSDOF 1
ENDMDL
