MODEL 1
REMARK minimizedAffinity -5.17184448
REMARK minimizedRMSD -1
REMARK  1 active torsions:
REMARK  status: ('A' for Active; 'I' for Inactive)
REMARK    1  A    between atoms: C1_2  and  C2_3 
ROOT
ATOM      1  C2  UNL d   1      -0.423  -0.326   0.483  0.00  0.00    -0.081 A 
ATOM      2  C3  UNL d   1      -0.061   0.905  -0.079  0.00  0.00     0.006 A 
ATOM      3  C4  UNL d   1       0.740   0.953  -1.222  0.00  0.00     0.002 A 
ATOM      4  C5  UNL d   1       1.187  -0.227  -1.827  0.00  0.00    -0.080 A 
ATOM      5  C6  UNL d   1       2.022  -0.189  -3.071  0.00  0.00     0.076 C 
ATOM      6  C7  UNL d   1       0.840  -1.456  -1.255  0.00  0.00     0.002 A 
ATOM      7  C8  UNL d   1       0.040  -1.505  -0.112  0.00  0.00     0.006 A 
ENDROOT
BRANCH   1   8
ATOM      8  C1  UNL d   1      -1.340  -0.383   1.678  0.00  0.00     0.054 C 
ATOM      9  C   UNL d   1      -2.716   0.178   1.346  0.00  0.00     0.018 C 
ENDBRANCH   1   8
TORSDOF 1
ENDMDL
