MODEL 1
REMARK minimizedAffinity -5.5617218
REMARK minimizedRMSD -1
REMARK  1 active torsions:
REMARK  status: ('A' for Active; 'I' for Inactive)
REMARK    1  A    between atoms: C1_2  and  C2_3 
ROOT
ATOM      1  C2  UNL d   1      -1.864   0.301   1.741  0.00  0.00    -0.081 A 
ATOM      2  C3  UNL d   1      -1.662   0.716   3.063  0.00  0.00     0.006 A 
ATOM      3  C4  UNL d   1      -0.393   1.109   3.495  0.00  0.00     0.002 A 
ATOM      4  C5  UNL d   1       0.692   1.101   2.611  0.00  0.00    -0.080 A 
ATOM      5  C6  UNL d   1       2.053   1.550   3.054  0.00  0.00     0.076 C 
ATOM      6  C7  UNL d   1       0.493   0.670   1.296  0.00  0.00     0.002 A 
ATOM      7  C8  UNL d   1      -0.775   0.276   0.863  0.00  0.00     0.006 A 
ENDROOT
BRANCH   1   8
ATOM      8  C1  UNL d   1      -3.244  -0.062   1.255  0.00  0.00     0.054 C 
ATOM      9  C   UNL d   1      -4.235   1.064   1.512  0.00  0.00     0.018 C 
ENDBRANCH   1   8
TORSDOF 1
ENDMDL
