MODEL 1
REMARK minimizedAffinity 0.146179825
REMARK minimizedRMSD -1
REMARK  1 active torsions:
REMARK  status: ('A' for Active; 'I' for Inactive)
REMARK    1  A    between atoms: C1_2  and  C2_3 
ROOT
ATOM      1  C2  UNL d   1      -4.060  -2.629  -4.058  0.00  0.00    -0.081 A 
ATOM      2  C3  UNL d   1      -5.168  -1.897  -3.616  0.00  0.00     0.006 A 
ATOM      3  C4  UNL d   1      -5.270  -1.501  -2.280  0.00  0.00     0.002 A 
ATOM      4  C5  UNL d   1      -4.261  -1.825  -1.366  0.00  0.00    -0.080 A 
ATOM      5  C6  UNL d   1      -4.343  -1.380   0.064  0.00  0.00     0.076 C 
ATOM      6  C7  UNL d   1      -3.162  -2.571  -1.803  0.00  0.00     0.002 A 
ATOM      7  C8  UNL d   1      -3.060  -2.967  -3.139  0.00  0.00     0.006 A 
ENDROOT
BRANCH   1   8
ATOM      8  C1  UNL d   1      -3.916  -3.001  -5.512  0.00  0.00     0.054 C 
ATOM      9  C   UNL d   1      -2.692  -3.875  -5.741  0.00  0.00     0.018 C 
ENDBRANCH   1   8
TORSDOF 1
ENDMDL
