MODEL 1
REMARK minimizedAffinity -3.87824988
REMARK minimizedRMSD -1
REMARK  3 active torsions:
REMARK  status: ('A' for Active; 'I' for Inactive)
REMARK    1  A    between atoms: C3'_2  and  C2'_3 
REMARK    2  A    between atoms: C2'_3  and  C1'_4 
REMARK    3  A    between atoms: C1'_4  and  C1_5 
ROOT
ATOM      1  C1  N4B d   1      -0.601   0.366   0.132  0.00  0.00    -0.075 A 
ATOM      2  C2  N4B d   1       0.604  -0.053   0.737  0.00  0.00     0.002 A 
ATOM      3  C3  N4B d   1       0.711  -0.079   2.106  0.00  0.00     0.002 A 
ATOM      4  C4  N4B d   1      -0.362   0.325   2.886  0.00  0.00    -0.004 A 
ATOM      5  C5  N4B d   1      -1.531   0.705   2.294  0.00  0.00     0.002 A 
ATOM      6  C6  N4B d   1      -1.654   0.732   0.919  0.00  0.00     0.002 A 
ENDROOT
BRANCH   1   7
ATOM      7  C1' N4B d   1      -0.738   0.493  -1.361  0.00  0.00     0.057 C 
BRANCH   7   8
ATOM      8  C2' N4B d   1       0.343  -0.346  -2.036  0.00  0.00     0.009 C 
BRANCH   8   9
ATOM      9  C3' N4B d   1       0.585   0.086  -3.472  0.00  0.00     0.004 C 
ATOM     10  C4' N4B d   1       1.901   0.780  -3.656  0.00  0.00     0.003 C 
ENDBRANCH   8   9
ENDBRANCH   7   8
ENDBRANCH   1   7
TORSDOF 3
ENDMDL
