MODEL 1
REMARK minimizedAffinity -1.02555168
REMARK minimizedRMSD -1
REMARK  3 active torsions:
REMARK  status: ('A' for Active; 'I' for Inactive)
REMARK    1  A    between atoms: C3'_2  and  C2'_3 
REMARK    2  A    between atoms: C2'_3  and  C1'_4 
REMARK    3  A    between atoms: C1'_4  and  C1_5 
ROOT
ATOM      1  C1  N4B d   1      -0.021  -0.164   0.400  0.00  0.00    -0.075 A 
ATOM      2  C2  N4B d   1      -1.304   0.426   0.426  0.00  0.00     0.002 A 
ATOM      3  C3  N4B d   1      -1.869   0.789   1.624  0.00  0.00     0.002 A 
ATOM      4  C4  N4B d   1      -1.181   0.554   2.805  0.00  0.00    -0.004 A 
ATOM      5  C5  N4B d   1       0.069   0.007   2.770  0.00  0.00     0.002 A 
ATOM      6  C6  N4B d   1       0.650  -0.358   1.572  0.00  0.00     0.002 A 
ENDROOT
BRANCH   1   7
ATOM      7  C1' N4B d   1       0.601  -0.656  -0.878  0.00  0.00     0.057 C 
BRANCH   7   8
ATOM      8  C2' N4B d   1      -0.126  -0.026  -2.063  0.00  0.00     0.009 C 
BRANCH   8   9
ATOM      9  C3' N4B d   1       0.679  -0.136  -3.347  0.00  0.00     0.004 C 
ATOM     10  C4' N4B d   1       1.432   1.121  -3.669  0.00  0.00     0.003 C 
ENDBRANCH   8   9
ENDBRANCH   7   8
ENDBRANCH   1   7
TORSDOF 3
ENDMDL
