MODEL 1
REMARK minimizedAffinity -2.4387722
REMARK minimizedRMSD -1
REMARK  3 active torsions:
REMARK  status: ('A' for Active; 'I' for Inactive)
REMARK    1  A    between atoms: C3'_2  and  C2'_3 
REMARK    2  A    between atoms: C2'_3  and  C1'_4 
REMARK    3  A    between atoms: C1'_4  and  C1_5 
ROOT
ATOM      1  C1  N4B d   1       0.781  -0.125  -1.796  0.00  0.00    -0.075 A 
ATOM      2  C2  N4B d   1       0.001  -0.551  -2.894  0.00  0.00     0.002 A 
ATOM      3  C3  N4B d   1       0.362  -0.197  -4.171  0.00  0.00     0.002 A 
ATOM      4  C4  N4B d   1       1.483   0.595  -4.372  0.00  0.00    -0.004 A 
ATOM      5  C5  N4B d   1       2.245   0.981  -3.309  0.00  0.00     0.002 A 
ATOM      6  C6  N4B d   1       1.896   0.629  -2.020  0.00  0.00     0.002 A 
ENDROOT
BRANCH   1   7
ATOM      7  C1' N4B d   1       0.378  -0.415  -0.376  0.00  0.00     0.057 C 
BRANCH   7   8
ATOM      8  C2' N4B d   1      -1.113  -0.736  -0.334  0.00  0.00     0.009 C 
BRANCH   8   9
ATOM      9  C3' N4B d   1      -1.929   0.425   0.209  0.00  0.00     0.004 C 
ATOM     10  C4' N4B d   1      -1.783   0.594   1.692  0.00  0.00     0.003 C 
ENDBRANCH   8   9
ENDBRANCH   7   8
ENDBRANCH   1   7
TORSDOF 3
ENDMDL
