MODEL 1
REMARK minimizedAffinity 1.68209207
REMARK minimizedRMSD -1
REMARK  0 active torsions:
REMARK  status: ('A' for Active; 'I' for Inactive)
ROOT
ATOM      1  C   UNL d   1       1.526   0.752  -3.643  0.00  0.00     0.124 A 
ATOM      2  C1  UNL d   1       1.632  -0.619  -3.456  0.00  0.00     0.062 A 
ATOM      3  C2  UNL d   1       0.774  -1.485  -4.127  0.00  0.00     0.162 A 
ATOM      4  C3  UNL d   1      -0.198  -0.982  -4.993  0.00  0.00    -0.034 A 
ATOM      5  C4  UNL d   1      -0.299   0.398  -5.175  0.00  0.00     0.162 A 
ATOM      6  C5  UNL d   1       0.561   1.259  -4.502  0.00  0.00     0.062 A 
ATOM      7  F   UNL d   1       0.458   2.584  -4.683  0.00  0.00    -0.097 F 
ATOM      8  F1  UNL d   1      -1.221   0.915  -6.000  0.00  0.00    -0.096 F 
ATOM      9  I   UNL d   1      -1.483  -2.274  -5.999  0.00  0.00    -0.060 I 
ATOM     10  F2  UNL d   1       0.899  -2.806  -3.928  0.00  0.00    -0.096 F 
ATOM     11  F3  UNL d   1       2.563  -1.111  -2.626  0.00  0.00    -0.097 F 
ATOM     12  F4  UNL d   1       2.353   1.583  -2.995  0.00  0.00    -0.092 F 
ENDROOT
TORSDOF 0
ENDMDL
