MODEL 1
REMARK minimizedAffinity 3.41835022
REMARK minimizedRMSD -1
REMARK  0 active torsions:
REMARK  status: ('A' for Active; 'I' for Inactive)
ROOT
ATOM      1  C   UNL d   1       1.450   0.010  -2.010  0.00  0.00     0.124 A 
ATOM      2  C1  UNL d   1       0.143  -0.442  -1.898  0.00  0.00     0.062 A 
ATOM      3  C2  UNL d   1      -0.644  -0.598  -3.036  0.00  0.00     0.162 A 
ATOM      4  C3  UNL d   1      -0.124  -0.303  -4.296  0.00  0.00    -0.034 A 
ATOM      5  C4  UNL d   1       1.191   0.152  -4.401  0.00  0.00     0.162 A 
ATOM      6  C5  UNL d   1       1.973   0.306  -3.261  0.00  0.00     0.062 A 
ATOM      7  F   UNL d   1       3.236   0.743  -3.371  0.00  0.00    -0.097 F 
ATOM      8  F1  UNL d   1       1.722   0.445  -5.597  0.00  0.00    -0.096 F 
ATOM      9  I   UNL d   1      -1.297  -0.535  -6.000  0.00  0.00    -0.060 I 
ATOM     10  F2  UNL d   1      -1.904  -1.036  -2.898  0.00  0.00    -0.096 F 
ATOM     11  F3  UNL d   1      -0.365  -0.728  -0.691  0.00  0.00    -0.097 F 
ATOM     12  F4  UNL d   1       2.204   0.160  -0.914  0.00  0.00    -0.092 F 
ENDROOT
TORSDOF 0
ENDMDL
