MODEL 1
REMARK minimizedAffinity -2.80189371
REMARK minimizedRMSD -1
REMARK  0 active torsions:
REMARK  status: ('A' for Active; 'I' for Inactive)
ROOT
ATOM      1  C   UNL d   1      -0.112   0.120   3.027  0.00  0.00     0.124 A 
ATOM      2  C1  UNL d   1       1.068  -0.480   2.610  0.00  0.00     0.062 A 
ATOM      3  C2  UNL d   1       1.269  -0.767   1.262  0.00  0.00     0.162 A 
ATOM      4  C3  UNL d   1       0.288  -0.452   0.322  0.00  0.00    -0.034 A 
ATOM      5  C4  UNL d   1      -0.896   0.150   0.750  0.00  0.00     0.162 A 
ATOM      6  C5  UNL d   1      -1.093   0.434   2.097  0.00  0.00     0.062 A 
ATOM      7  F   UNL d   1      -2.233   1.014   2.499  0.00  0.00    -0.097 F 
ATOM      8  F1  UNL d   1      -1.861   0.466  -0.128  0.00  0.00    -0.096 F 
ATOM      9  I   UNL d   1       0.585  -0.878  -1.693  0.00  0.00    -0.060 I 
ATOM     10  F2  UNL d   1       2.419  -1.347   0.887  0.00  0.00    -0.096 F 
ATOM     11  F3  UNL d   1       2.017  -0.786   3.506  0.00  0.00    -0.097 F 
ATOM     12  F4  UNL d   1      -0.303   0.393   4.324  0.00  0.00    -0.092 F 
ENDROOT
TORSDOF 0
ENDMDL
