MODEL 1
REMARK minimizedAffinity 1.44598389
REMARK minimizedRMSD -1
REMARK  0 active torsions:
REMARK  status: ('A' for Active; 'I' for Inactive)
ROOT
ATOM      1  C   UNL d   1      -0.274   0.248   1.980  0.00  0.00     0.124 A 
ATOM      2  C1  UNL d   1      -1.396   0.241   1.164  0.00  0.00     0.062 A 
ATOM      3  C2  UNL d   1      -1.282  -0.104  -0.180  0.00  0.00     0.162 A 
ATOM      4  C3  UNL d   1      -0.041  -0.447  -0.716  0.00  0.00    -0.034 A 
ATOM      5  C4  UNL d   1       1.084  -0.437   0.111  0.00  0.00     0.162 A 
ATOM      6  C5  UNL d   1       0.965  -0.091   1.453  0.00  0.00     0.062 A 
ATOM      7  F   UNL d   1       2.050  -0.085   2.241  0.00  0.00    -0.097 F 
ATOM      8  F1  UNL d   1       2.292  -0.761  -0.371  0.00  0.00    -0.096 F 
ATOM      9  I   UNL d   1       0.133  -0.963  -2.724  0.00  0.00    -0.060 I 
ATOM     10  F2  UNL d   1      -2.384  -0.102  -0.945  0.00  0.00    -0.096 F 
ATOM     11  F3  UNL d   1      -2.594   0.569   1.670  0.00  0.00    -0.097 F 
ATOM     12  F4  UNL d   1      -0.386   0.581   3.272  0.00  0.00    -0.092 F 
ENDROOT
TORSDOF 0
ENDMDL
