MODEL 1
REMARK minimizedAffinity -1.76190805
REMARK minimizedRMSD -1
REMARK  0 active torsions:
REMARK  status: ('A' for Active; 'I' for Inactive)
ROOT
ATOM      1  C   UNL d   1       1.282  -0.432   2.299  0.00  0.00     0.124 A 
ATOM      2  C1  UNL d   1       1.254  -0.819   0.967  0.00  0.00     0.062 A 
ATOM      3  C2  UNL d   1       0.212  -0.408   0.140  0.00  0.00     0.162 A 
ATOM      4  C3  UNL d   1      -0.810   0.396   0.643  0.00  0.00    -0.034 A 
ATOM      5  C4  UNL d   1      -0.775   0.781   1.985  0.00  0.00     0.162 A 
ATOM      6  C5  UNL d   1       0.268   0.367   2.807  0.00  0.00     0.062 A 
ATOM      7  F   UNL d   1       0.293   0.742   4.094  0.00  0.00    -0.097 F 
ATOM      8  F1  UNL d   1      -1.742   1.554   2.501  0.00  0.00    -0.096 F 
ATOM      9  I   UNL d   1      -2.369   1.013  -0.589  0.00  0.00    -0.060 I 
ATOM     10  F2  UNL d   1       0.211  -0.798  -1.143  0.00  0.00    -0.096 F 
ATOM     11  F3  UNL d   1       2.232  -1.593   0.474  0.00  0.00    -0.097 F 
ATOM     12  F4  UNL d   1       2.285  -0.830   3.093  0.00  0.00    -0.092 F 
ENDROOT
TORSDOF 0
ENDMDL
