MODEL 1
REMARK minimizedAffinity 5.89447641
REMARK minimizedRMSD -1
REMARK  0 active torsions:
REMARK  status: ('A' for Active; 'I' for Inactive)
ROOT
ATOM      1  C   UNL d   1      -1.004   0.492  -0.459  0.00  0.00     0.124 A 
ATOM      2  C1  UNL d   1       0.374   0.473  -0.293  0.00  0.00     0.062 A 
ATOM      3  C2  UNL d   1       0.924   0.199   0.956  0.00  0.00     0.162 A 
ATOM      4  C3  UNL d   1       0.097  -0.059   2.049  0.00  0.00    -0.034 A 
ATOM      5  C4  UNL d   1      -1.288  -0.037   1.874  0.00  0.00     0.162 A 
ATOM      6  C5  UNL d   1      -1.834   0.237   0.624  0.00  0.00     0.062 A 
ATOM      7  F   UNL d   1      -3.165   0.256   0.465  0.00  0.00    -0.097 F 
ATOM      8  F1  UNL d   1      -2.113  -0.280   2.904  0.00  0.00    -0.096 F 
ATOM      9  I   UNL d   1       0.916  -0.469   3.918  0.00  0.00    -0.060 I 
ATOM     10  F2  UNL d   1       2.259   0.187   1.088  0.00  0.00    -0.096 F 
ATOM     11  F3  UNL d   1       1.177   0.720  -1.337  0.00  0.00    -0.097 F 
ATOM     12  F4  UNL d   1      -1.531   0.757  -1.661  0.00  0.00    -0.092 F 
ENDROOT
TORSDOF 0
ENDMDL
