MODEL 1
REMARK minimizedAffinity 0.502839208
REMARK minimizedRMSD -1
REMARK  0 active torsions:
REMARK  status: ('A' for Active; 'I' for Inactive)
ROOT
ATOM      1  C   UNL d   1       1.015   0.321  -3.824  0.00  0.00     0.124 A 
ATOM      2  C1  UNL d   1       0.265  -0.705  -3.265  0.00  0.00     0.062 A 
ATOM      3  C2  UNL d   1       0.193  -0.846  -1.882  0.00  0.00     0.162 A 
ATOM      4  C3  UNL d   1       0.872   0.042  -1.048  0.00  0.00    -0.034 A 
ATOM      5  C4  UNL d   1       1.624   1.070  -1.617  0.00  0.00     0.162 A 
ATOM      6  C5  UNL d   1       1.693   1.208  -3.000  0.00  0.00     0.062 A 
ATOM      7  F   UNL d   1       2.418   2.199  -3.537  0.00  0.00    -0.097 F 
ATOM      8  F1  UNL d   1       2.290   1.942  -0.844  0.00  0.00    -0.096 F 
ATOM      9  I   UNL d   1       0.767  -0.166   1.020  0.00  0.00    -0.060 I 
ATOM     10  F2  UNL d   1      -0.539  -1.847  -1.370  0.00  0.00    -0.096 F 
ATOM     11  F3  UNL d   1      -0.391  -1.563  -4.059  0.00  0.00    -0.097 F 
ATOM     12  F4  UNL d   1       1.083   0.454  -5.155  0.00  0.00    -0.092 F 
ENDROOT
TORSDOF 0
ENDMDL
