MODEL 1
REMARK minimizedAffinity -0.143697217
REMARK minimizedRMSD -1
REMARK  0 active torsions:
REMARK  status: ('A' for Active; 'I' for Inactive)
ROOT
ATOM      1  C   UNL d   1      -0.453   0.283   2.813  0.00  0.00     0.124 A 
ATOM      2  C1  UNL d   1      -1.366   0.496   1.789  0.00  0.00     0.062 A 
ATOM      3  C2  UNL d   1      -1.054   0.125   0.485  0.00  0.00     0.162 A 
ATOM      4  C3  UNL d   1       0.177  -0.463   0.195  0.00  0.00    -0.034 A 
ATOM      5  C4  UNL d   1       1.091  -0.673   1.230  0.00  0.00     0.162 A 
ATOM      6  C5  UNL d   1       0.774  -0.301   2.532  0.00  0.00     0.062 A 
ATOM      7  F   UNL d   1       1.658  -0.508   3.520  0.00  0.00    -0.097 F 
ATOM      8  F1  UNL d   1       2.283  -1.237   0.987  0.00  0.00    -0.096 F 
ATOM      9  I   UNL d   1       0.647  -1.019  -1.754  0.00  0.00    -0.060 I 
ATOM     10  F2  UNL d   1      -1.956   0.343  -0.484  0.00  0.00    -0.096 F 
ATOM     11  F3  UNL d   1      -2.552   1.061   2.058  0.00  0.00    -0.097 F 
ATOM     12  F4  UNL d   1      -0.755   0.641   4.067  0.00  0.00    -0.092 F 
ENDROOT
TORSDOF 0
ENDMDL
