MODEL 1
REMARK minimizedAffinity -0.581351578
REMARK minimizedRMSD -1
REMARK  0 active torsions:
REMARK  status: ('A' for Active; 'I' for Inactive)
ROOT
ATOM      1  C   UNL d   1      -0.676   0.251   1.980  0.00  0.00     0.124 A 
ATOM      2  C1  UNL d   1      -1.720   0.588   1.131  0.00  0.00     0.062 A 
ATOM      3  C2  UNL d   1      -1.568   0.468  -0.248  0.00  0.00     0.162 A 
ATOM      4  C3  UNL d   1      -0.366   0.008  -0.785  0.00  0.00    -0.034 A 
ATOM      5  C4  UNL d   1       0.681  -0.328   0.076  0.00  0.00     0.162 A 
ATOM      6  C5  UNL d   1       0.523  -0.207   1.452  0.00  0.00     0.062 A 
ATOM      7  F   UNL d   1       1.533  -0.533   2.272  0.00  0.00    -0.097 F 
ATOM      8  F1  UNL d   1       1.850  -0.774  -0.408  0.00  0.00    -0.096 F 
ATOM      9  I   UNL d   1      -0.134  -0.173  -2.846  0.00  0.00    -0.060 I 
ATOM     10  F2  UNL d   1      -2.593   0.801  -1.045  0.00  0.00    -0.096 F 
ATOM     11  F3  UNL d   1      -2.879   1.032   1.638  0.00  0.00    -0.097 F 
ATOM     12  F4  UNL d   1      -0.825   0.368   3.306  0.00  0.00    -0.092 F 
ENDROOT
TORSDOF 0
ENDMDL
