MODEL 1
REMARK minimizedAffinity -4.5280652
REMARK minimizedRMSD -1
REMARK  1 active torsions:
REMARK  status: ('A' for Active; 'I' for Inactive)
REMARK    1  A    between atoms: C1_2  and  C2_3 
ROOT
ATOM      1  C2  UNL d   1       0.043  -0.556  -1.232  0.00  0.00    -0.073 A 
ATOM      2  C3  UNL d   1      -0.237   0.782  -0.932  0.00  0.00    -0.002 A 
ATOM      3  C4  UNL d   1       0.471   1.442   0.073  0.00  0.00     0.004 A 
ATOM      4  C5  UNL d   1       1.470   0.775   0.782  0.00  0.00    -0.004 A 
ATOM      5  C6  UNL d   1       1.773  -0.558   0.488  0.00  0.00    -0.075 A 
ATOM      6  C7  UNL d   1       2.844  -1.290   1.243  0.00  0.00     0.076 C 
ATOM      7  C8  UNL d   1       1.056  -1.215  -0.520  0.00  0.00     0.001 A 
ENDROOT
BRANCH   1   8
ATOM      8  C1  UNL d   1      -0.714  -1.271  -2.321  0.00  0.00     0.053 C 
ATOM      9  C   UNL d   1      -1.025  -0.356  -3.495  0.00  0.00     0.018 C 
ENDBRANCH   1   8
TORSDOF 1
ENDMDL
