MODEL 1
REMARK minimizedAffinity -4.75939989
REMARK minimizedRMSD -1
REMARK  1 active torsions:
REMARK  status: ('A' for Active; 'I' for Inactive)
REMARK    1  A    between atoms: C1_2  and  C2_3 
ROOT
ATOM      1  C2  UNL d   1       1.229  -0.684  -0.590  0.00  0.00    -0.073 A 
ATOM      2  C3  UNL d   1       0.877   0.666  -0.483  0.00  0.00    -0.002 A 
ATOM      3  C4  UNL d   1      -0.140   1.195  -1.280  0.00  0.00     0.004 A 
ATOM      4  C5  UNL d   1      -0.818   0.379  -2.186  0.00  0.00    -0.004 A 
ATOM      5  C6  UNL d   1      -0.488  -0.976  -2.299  0.00  0.00    -0.075 A 
ATOM      6  C7  UNL d   1      -1.206  -1.867  -3.269  0.00  0.00     0.076 C 
ATOM      7  C8  UNL d   1       0.536  -1.498  -1.497  0.00  0.00     0.001 A 
ENDROOT
BRANCH   1   8
ATOM      8  C1  UNL d   1       2.322  -1.260   0.273  0.00  0.00     0.053 C 
ATOM      9  C   UNL d   1       2.384  -0.590   1.636  0.00  0.00     0.018 C 
ENDBRANCH   1   8
TORSDOF 1
ENDMDL
