MODEL 1
REMARK minimizedAffinity -2.70598841
REMARK minimizedRMSD -1
REMARK  1 active torsions:
REMARK  status: ('A' for Active; 'I' for Inactive)
REMARK    1  A    between atoms: C1_2  and  C2_3 
ROOT
ATOM      1  C2  UNL d   1       2.617  -1.267  -0.736  0.00  0.00    -0.073 A 
ATOM      2  C3  UNL d   1       3.345  -0.383   0.069  0.00  0.00    -0.002 A 
ATOM      3  C4  UNL d   1       2.684   0.549   0.869  0.00  0.00     0.004 A 
ATOM      4  C5  UNL d   1       1.290   0.603   0.879  0.00  0.00    -0.004 A 
ATOM      5  C6  UNL d   1       0.545  -0.279   0.091  0.00  0.00    -0.075 A 
ATOM      6  C7  UNL d   1      -0.955  -0.233   0.089  0.00  0.00     0.076 C 
ATOM      7  C8  UNL d   1       1.216  -1.211  -0.713  0.00  0.00     0.001 A 
ENDROOT
BRANCH   1   8
ATOM      8  C1  UNL d   1       3.326  -2.279  -1.598  0.00  0.00     0.053 C 
ATOM      9  C   UNL d   1       3.943  -1.644  -2.834  0.00  0.00     0.018 C 
ENDBRANCH   1   8
TORSDOF 1
ENDMDL
