MODEL 1
REMARK minimizedAffinity -1.02747512
REMARK minimizedRMSD -1
REMARK  1 active torsions:
REMARK  status: ('A' for Active; 'I' for Inactive)
REMARK    1  A    between atoms: C1_2  and  C2_3 
ROOT
ATOM      1  C2  UNL d   1       1.239  -0.108   0.323  0.00  0.00    -0.073 A 
ATOM      2  C3  UNL d   1       1.576   1.241   0.166  0.00  0.00    -0.002 A 
ATOM      3  C4  UNL d   1       0.581   2.219   0.152  0.00  0.00     0.004 A 
ATOM      4  C5  UNL d   1      -0.759   1.860   0.300  0.00  0.00    -0.004 A 
ATOM      5  C6  UNL d   1      -1.115   0.518   0.470  0.00  0.00    -0.075 A 
ATOM      6  C7  UNL d   1      -2.551   0.115   0.628  0.00  0.00     0.076 C 
ATOM      7  C8  UNL d   1      -0.110  -0.459   0.481  0.00  0.00     0.001 A 
ENDROOT
BRANCH   1   8
ATOM      8  C1  UNL d   1       2.310  -1.168   0.346  0.00  0.00     0.053 C 
ATOM      9  C   UNL d   1       2.703  -1.611  -1.054  0.00  0.00     0.018 C 
ENDBRANCH   1   8
TORSDOF 1
ENDMDL
