MODEL 1
REMARK minimizedAffinity -0.205256656
REMARK minimizedRMSD -1
REMARK  1 active torsions:
REMARK  status: ('A' for Active; 'I' for Inactive)
REMARK    1  A    between atoms: C1_2  and  C2_3 
ROOT
ATOM      1  C2  UNL d   1       1.537  -0.808  -0.279  0.00  0.00    -0.073 A 
ATOM      2  C3  UNL d   1       2.343  -1.217   0.789  0.00  0.00    -0.002 A 
ATOM      3  C4  UNL d   1       2.896  -0.273   1.656  0.00  0.00     0.004 A 
ATOM      4  C5  UNL d   1       2.642   1.085   1.469  0.00  0.00    -0.004 A 
ATOM      5  C6  UNL d   1       1.829   1.513   0.414  0.00  0.00    -0.075 A 
ATOM      6  C7  UNL d   1       1.549   2.971   0.197  0.00  0.00     0.076 C 
ATOM      7  C8  UNL d   1       1.280   0.559  -0.454  0.00  0.00     0.001 A 
ENDROOT
BRANCH   1   8
ATOM      8  C1  UNL d   1       0.933  -1.824  -1.214  0.00  0.00     0.053 C 
ATOM      9  C   UNL d   1      -0.039  -1.188  -2.196  0.00  0.00     0.018 C 
ENDBRANCH   1   8
TORSDOF 1
ENDMDL
