MODEL 1
REMARK minimizedAffinity 0.960301101
REMARK minimizedRMSD -1
REMARK  1 active torsions:
REMARK  status: ('A' for Active; 'I' for Inactive)
REMARK    1  A    between atoms: C1_2  and  C2_3 
ROOT
ATOM      1  C2  UNL d   1      -0.055   0.131   1.755  0.00  0.00    -0.077 A 
ATOM      2  C3  UNL d   1      -0.011  -0.690   2.890  0.00  0.00     0.002 A 
ATOM      3  C4  UNL d   1      -1.186  -1.020   3.570  0.00  0.00     0.002 A 
ATOM      4  C5  UNL d   1      -2.412  -0.537   3.119  0.00  0.00    -0.004 A 
ATOM      5  C6  UNL d   1      -2.467   0.281   1.991  0.00  0.00     0.002 A 
ATOM      6  C7  UNL d   1      -1.294   0.613   1.312  0.00  0.00     0.002 A 
ENDROOT
BRANCH   1   7
ATOM      7  C1  UNL d   1       1.204   0.447   0.992  0.00  0.00     0.055 C 
ATOM      8  C   UNL d   1       1.227  -0.257  -0.357  0.00  0.00     0.019 C 
ENDBRANCH   1   7
TORSDOF 1
ENDMDL
