MODEL 1
REMARK minimizedAffinity 14.0749712
REMARK minimizedRMSD -1
REMARK  1 active torsions:
REMARK  status: ('A' for Active; 'I' for Inactive)
REMARK    1  A    between atoms: C1_2  and  C2_3 
ROOT
ATOM      1  C2  UNL d   1       1.814   1.064  -0.106  0.00  0.00    -0.077 A 
ATOM      2  C3  UNL d   1       2.103   2.045   0.854  0.00  0.00     0.002 A 
ATOM      3  C4  UNL d   1       3.077   3.013   0.603  0.00  0.00     0.002 A 
ATOM      4  C5  UNL d   1       3.767   3.012  -0.608  0.00  0.00    -0.004 A 
ATOM      5  C6  UNL d   1       3.488   2.040  -1.568  0.00  0.00     0.002 A 
ATOM      6  C7  UNL d   1       2.515   1.071  -1.318  0.00  0.00     0.002 A 
ENDROOT
BRANCH   1   7
ATOM      7  C1  UNL d   1       0.729   0.049   0.142  0.00  0.00     0.055 C 
ATOM      8  C   UNL d   1      -0.541   0.398  -0.621  0.00  0.00     0.019 C 
ENDBRANCH   1   7
TORSDOF 1
ENDMDL
