MODEL 1
REMARK minimizedAffinity 4.53637934
REMARK minimizedRMSD -1
REMARK  1 active torsions:
REMARK  status: ('A' for Active; 'I' for Inactive)
REMARK    1  A    between atoms: C1_2  and  C2_3 
ROOT
ATOM      1  C2  UNL d   1       0.427   0.032   1.601  0.00  0.00    -0.077 A 
ATOM      2  C3  UNL d   1       0.632  -0.535   2.867  0.00  0.00     0.002 A 
ATOM      3  C4  UNL d   1      -0.393  -0.536   3.815  0.00  0.00     0.002 A 
ATOM      4  C5  UNL d   1      -1.630   0.025   3.506  0.00  0.00    -0.004 A 
ATOM      5  C6  UNL d   1      -1.843   0.594   2.251  0.00  0.00     0.002 A 
ATOM      6  C7  UNL d   1      -0.820   0.597   1.302  0.00  0.00     0.002 A 
ENDROOT
BRANCH   1   7
ATOM      7  C1  UNL d   1       1.515  -0.010   0.560  0.00  0.00     0.055 C 
ATOM      8  C   UNL d   1       2.537   1.095   0.783  0.00  0.00     0.019 C 
ENDBRANCH   1   7
TORSDOF 1
ENDMDL
