MODEL 1
REMARK minimizedAffinity 0.448605329
REMARK minimizedRMSD -1
REMARK  0 active torsions:
REMARK  status: ('A' for Active; 'I' for Inactive)
ROOT
ATOM      1  C   UNL d   1       0.683   0.305  -1.810  0.00  0.00    -0.002 A 
ATOM      2  C1  UNL d   1       0.857   1.341  -2.717  0.00  0.00     0.010 A 
ATOM      3  C2  UNL d   1       1.088   2.644  -2.271  0.00  0.00     0.041 A 
ATOM      4  C3  UNL d   1       1.144   2.890  -0.885  0.00  0.00    -0.075 A 
ATOM      5  S   UNL d   1       1.417   4.405  -0.108  0.00  0.00     0.015 SA
ATOM      6  C4  UNL d   1       1.309   3.713   1.445  0.00  0.00     0.022 A 
ATOM      7  C5  UNL d   1       1.071   2.360   1.392  0.00  0.00     0.026 A 
ATOM      8  C6  UNL d   1       0.973   1.863   0.048  0.00  0.00    -0.082 A 
ATOM      9  C7  UNL d   1       0.739   0.554  -0.436  0.00  0.00     0.045 A 
ENDROOT
TORSDOF 0
ENDMDL
