MODEL 1
REMARK minimizedAffinity 2.04460359
REMARK minimizedRMSD -1
REMARK  0 active torsions:
REMARK  status: ('A' for Active; 'I' for Inactive)
ROOT
ATOM      1  C   UNL d   1       1.813  -0.304  -0.708  0.00  0.00    -0.002 A 
ATOM      2  C1  UNL d   1       1.116  -0.229  -1.906  0.00  0.00     0.010 A 
ATOM      3  C2  UNL d   1       0.604   0.990  -2.354  0.00  0.00     0.041 A 
ATOM      4  C3  UNL d   1       0.807   2.144  -1.571  0.00  0.00    -0.075 A 
ATOM      5  S   UNL d   1       0.272   3.745  -1.921  0.00  0.00     0.015 SA
ATOM      6  C4  UNL d   1       0.956   4.367  -0.489  0.00  0.00     0.022 A 
ATOM      7  C5  UNL d   1       1.582   3.390   0.250  0.00  0.00     0.026 A 
ATOM      8  C6  UNL d   1       1.507   2.093  -0.362  0.00  0.00    -0.082 A 
ATOM      9  C7  UNL d   1       2.013   0.842   0.065  0.00  0.00     0.045 A 
ENDROOT
TORSDOF 0
ENDMDL
