MODEL 1
REMARK minimizedAffinity -1.2981478
REMARK minimizedRMSD -1
REMARK  0 active torsions:
REMARK  status: ('A' for Active; 'I' for Inactive)
ROOT
ATOM      1  C   UNL d   1       0.873  -0.434  -0.667  0.00  0.00    -0.002 A 
ATOM      2  C1  UNL d   1       1.219   0.160  -1.872  0.00  0.00     0.010 A 
ATOM      3  C2  UNL d   1       1.331   1.548  -1.974  0.00  0.00     0.041 A 
ATOM      4  C3  UNL d   1       1.090   2.336  -0.832  0.00  0.00    -0.075 A 
ATOM      5  S   UNL d   1       1.170   4.055  -0.719  0.00  0.00     0.015 SA
ATOM      6  C4  UNL d   1       0.748   4.041   0.932  0.00  0.00     0.022 A 
ATOM      7  C5  UNL d   1       0.547   2.765   1.402  0.00  0.00     0.026 A 
ATOM      8  C6  UNL d   1       0.742   1.761   0.394  0.00  0.00    -0.082 A 
ATOM      9  C7  UNL d   1       0.635   0.351   0.464  0.00  0.00     0.045 A 
ENDROOT
TORSDOF 0
ENDMDL
