MODEL 1
REMARK minimizedAffinity 2.60522294
REMARK minimizedRMSD -1
REMARK  0 active torsions:
REMARK  status: ('A' for Active; 'I' for Inactive)
ROOT
ATOM      1  C   UNL d   1       1.292   0.622  -1.622  0.00  0.00    -0.002 A 
ATOM      2  C1  UNL d   1       1.400   0.288  -0.279  0.00  0.00     0.010 A 
ATOM      3  C2  UNL d   1       1.496   1.284   0.694  0.00  0.00     0.041 A 
ATOM      4  C3  UNL d   1       1.481   2.634   0.292  0.00  0.00    -0.075 A 
ATOM      5  S   UNL d   1       1.585   4.023   1.308  0.00  0.00     0.015 SA
ATOM      6  C4  UNL d   1       1.488   5.092  -0.016  0.00  0.00     0.022 A 
ATOM      7  C5  UNL d   1       1.379   4.422  -1.212  0.00  0.00     0.026 A 
ATOM      8  C6  UNL d   1       1.372   2.995  -1.054  0.00  0.00    -0.082 A 
ATOM      9  C7  UNL d   1       1.277   1.962  -2.017  0.00  0.00     0.045 A 
ENDROOT
TORSDOF 0
ENDMDL
