MODEL 1
REMARK minimizedAffinity -1.52577841
REMARK minimizedRMSD -1
REMARK  0 active torsions:
REMARK  status: ('A' for Active; 'I' for Inactive)
ROOT
ATOM      1  C   UNL d   1       1.017   0.155  -1.465  0.00  0.00    -0.002 A 
ATOM      2  C1  UNL d   1       0.870  -0.099  -0.108  0.00  0.00     0.010 A 
ATOM      3  C2  UNL d   1       1.014   0.929   0.826  0.00  0.00     0.041 A 
ATOM      4  C3  UNL d   1       1.308   2.229   0.370  0.00  0.00    -0.075 A 
ATOM      5  S   UNL d   1       1.527   3.643   1.332  0.00  0.00     0.015 SA
ATOM      6  C4  UNL d   1       1.819   4.618  -0.035  0.00  0.00     0.022 A 
ATOM      7  C5  UNL d   1       1.755   3.898  -1.205  0.00  0.00     0.026 A 
ATOM      8  C6  UNL d   1       1.459   2.510  -0.991  0.00  0.00    -0.082 A 
ATOM      9  C7  UNL d   1       1.308   1.446  -1.913  0.00  0.00     0.045 A 
ENDROOT
TORSDOF 0
ENDMDL
