MODEL 1
REMARK minimizedAffinity -0.903046608
REMARK minimizedRMSD -1
REMARK  0 active torsions:
REMARK  status: ('A' for Active; 'I' for Inactive)
ROOT
ATOM      1  C   UNL d   1       1.360   0.990  -2.329  0.00  0.00    -0.002 A 
ATOM      2  C1  UNL d   1       1.555   0.400  -1.088  0.00  0.00     0.010 A 
ATOM      3  C2  UNL d   1       1.732   1.186   0.052  0.00  0.00     0.041 A 
ATOM      4  C3  UNL d   1       1.707   2.589  -0.077  0.00  0.00    -0.075 A 
ATOM      5  S   UNL d   1       1.900   3.752   1.182  0.00  0.00     0.015 SA
ATOM      6  C4  UNL d   1       1.727   5.059   0.102  0.00  0.00     0.022 A 
ATOM      7  C5  UNL d   1       1.526   4.637  -1.191  0.00  0.00     0.026 A 
ATOM      8  C6  UNL d   1       1.511   3.206  -1.315  0.00  0.00    -0.082 A 
ATOM      9  C7  UNL d   1       1.336   2.382  -2.453  0.00  0.00     0.045 A 
ENDROOT
TORSDOF 0
ENDMDL
