MODEL 1
REMARK minimizedAffinity 3.73744273
REMARK minimizedRMSD -1
REMARK  0 active torsions:
REMARK  status: ('A' for Active; 'I' for Inactive)
ROOT
ATOM      1  C   UNL d   1       0.579   1.073  -1.567  0.00  0.00    -0.002 A 
ATOM      2  C1  UNL d   1       0.637   1.070  -0.181  0.00  0.00     0.010 A 
ATOM      3  C2  UNL d   1       0.962   2.234   0.519  0.00  0.00     0.041 A 
ATOM      4  C3  UNL d   1       1.228   3.412  -0.205  0.00  0.00    -0.075 A 
ATOM      5  S   UNL d   1       1.646   4.956   0.439  0.00  0.00     0.015 SA
ATOM      6  C4  UNL d   1       1.757   5.656  -1.111  0.00  0.00     0.022 A 
ATOM      7  C5  UNL d   1       1.485   4.748  -2.108  0.00  0.00     0.026 A 
ATOM      8  C6  UNL d   1       1.176   3.440  -1.602  0.00  0.00    -0.082 A 
ATOM      9  C7  UNL d   1       0.844   2.244  -2.282  0.00  0.00     0.045 A 
ENDROOT
TORSDOF 0
ENDMDL
