MODEL 1
REMARK minimizedAffinity 9.36841774
REMARK minimizedRMSD -1
REMARK  0 active torsions:
REMARK  status: ('A' for Active; 'I' for Inactive)
ROOT
ATOM      1  C   UNL d   1       1.939  -0.701  -1.483  0.00  0.00    -0.002 A 
ATOM      2  C1  UNL d   1       2.776  -0.080  -0.566  0.00  0.00     0.010 A 
ATOM      3  C2  UNL d   1       2.744   1.306  -0.401  0.00  0.00     0.041 A 
ATOM      4  C3  UNL d   1       1.847   2.065  -1.178  0.00  0.00    -0.075 A 
ATOM      5  S   UNL d   1       1.633   3.775  -1.145  0.00  0.00     0.015 SA
ATOM      6  C4  UNL d   1       0.424   3.722  -2.346  0.00  0.00     0.022 A 
ATOM      7  C5  UNL d   1       0.178   2.439  -2.773  0.00  0.00     0.026 A 
ATOM      8  C6  UNL d   1       0.993   1.462  -2.107  0.00  0.00    -0.082 A 
ATOM      9  C7  UNL d   1       1.050   0.055  -2.252  0.00  0.00     0.045 A 
ENDROOT
TORSDOF 0
ENDMDL
