MODEL 1
REMARK minimizedAffinity 8.47935009
REMARK minimizedRMSD -1
REMARK  0 active torsions:
REMARK  status: ('A' for Active; 'I' for Inactive)
ROOT
ATOM      1  C   UNL d   1       1.136   1.502  -0.961  0.00  0.00    -0.002 A 
ATOM      2  C1  UNL d   1       1.162   1.857   0.380  0.00  0.00     0.010 A 
ATOM      3  C2  UNL d   1       1.521   3.150   0.765  0.00  0.00     0.041 A 
ATOM      4  C3  UNL d   1       1.855   4.090  -0.230  0.00  0.00    -0.075 A 
ATOM      5  S   UNL d   1       2.325   5.732   0.006  0.00  0.00     0.015 SA
ATOM      6  C4  UNL d   1       2.502   6.000  -1.668  0.00  0.00     0.022 A 
ATOM      7  C5  UNL d   1       2.214   4.875  -2.404  0.00  0.00     0.026 A 
ATOM      8  C6  UNL d   1       1.836   3.756  -1.587  0.00  0.00    -0.082 A 
ATOM      9  C7  UNL d   1       1.468   2.436  -1.945  0.00  0.00     0.045 A 
ENDROOT
TORSDOF 0
ENDMDL
