MODEL 1
REMARK minimizedAffinity 5.38511992
REMARK minimizedRMSD -1
REMARK  0 active torsions:
REMARK  status: ('A' for Active; 'I' for Inactive)
ROOT
ATOM      1  C   UNL d   1       1.227   4.195  -1.972  0.00  0.00    -0.002 A 
ATOM      2  C1  UNL d   1       1.685   3.004  -2.517  0.00  0.00     0.010 A 
ATOM      3  C2  UNL d   1       2.095   1.956  -1.691  0.00  0.00     0.041 A 
ATOM      4  C3  UNL d   1       2.034   2.125  -0.294  0.00  0.00    -0.075 A 
ATOM      5  S   UNL d   1       2.481   0.978   0.913  0.00  0.00     0.015 SA
ATOM      6  C4  UNL d   1       2.074   2.042   2.181  0.00  0.00     0.022 A 
ATOM      7  C5  UNL d   1       1.606   3.247   1.713  0.00  0.00     0.026 A 
ATOM      8  C6  UNL d   1       1.575   3.315   0.279  0.00  0.00    -0.082 A 
ATOM      9  C7  UNL d   1       1.168   4.359  -0.585  0.00  0.00     0.045 A 
ENDROOT
TORSDOF 0
ENDMDL
