MODEL 1
REMARK minimizedAffinity 3.94092679
REMARK minimizedRMSD -1
REMARK  0 active torsions:
REMARK  status: ('A' for Active; 'I' for Inactive)
ROOT
ATOM      1  C   UNL d   1       1.423   0.041  -2.059  0.00  0.00    -0.002 A 
ATOM      2  C1  UNL d   1       0.672   1.202  -2.172  0.00  0.00     0.010 A 
ATOM      3  C2  UNL d   1       0.695   2.163  -1.159  0.00  0.00     0.041 A 
ATOM      4  C3  UNL d   1       1.493   1.935  -0.021  0.00  0.00    -0.075 A 
ATOM      5  S   UNL d   1       1.677   2.971   1.345  0.00  0.00     0.015 SA
ATOM      6  C4  UNL d   1       2.756   1.897   2.109  0.00  0.00     0.022 A 
ATOM      7  C5  UNL d   1       2.982   0.770   1.355  0.00  0.00     0.026 A 
ATOM      8  C6  UNL d   1       2.258   0.773   0.115  0.00  0.00    -0.082 A 
ATOM      9  C7  UNL d   1       2.214  -0.182  -0.929  0.00  0.00     0.045 A 
ENDROOT
TORSDOF 0
ENDMDL
