MODEL 1
REMARK minimizedAffinity 8.75638485
REMARK minimizedRMSD -1
REMARK  0 active torsions:
REMARK  status: ('A' for Active; 'I' for Inactive)
ROOT
ATOM      1  C   UNL d   1       1.272   0.615  -2.321  0.00  0.00    -0.002 A 
ATOM      2  C1  UNL d   1       1.489   0.251  -1.000  0.00  0.00     0.010 A 
ATOM      3  C2  UNL d   1       1.750   1.221  -0.030  0.00  0.00     0.041 A 
ATOM      4  C3  UNL d   1       1.787   2.576  -0.413  0.00  0.00    -0.075 A 
ATOM      5  S   UNL d   1       2.087   3.936   0.603  0.00  0.00     0.015 SA
ATOM      6  C4  UNL d   1       1.933   5.032  -0.693  0.00  0.00     0.022 A 
ATOM      7  C5  UNL d   1       1.660   4.393  -1.880  0.00  0.00     0.026 A 
ATOM      8  C6  UNL d   1       1.571   2.967  -1.738  0.00  0.00    -0.082 A 
ATOM      9  C7  UNL d   1       1.310   1.960  -2.698  0.00  0.00     0.045 A 
ENDROOT
TORSDOF 0
ENDMDL
