MODEL 1
REMARK minimizedAffinity -2.9517951
REMARK minimizedRMSD -1
REMARK  0 active torsions:
REMARK  status: ('A' for Active; 'I' for Inactive)
ROOT
ATOM      1  C   UNL d   1       0.999   4.844   0.367  0.00  0.00    -0.002 A 
ATOM      2  C1  UNL d   1       0.692   3.957   1.389  0.00  0.00     0.010 A 
ATOM      3  C2  UNL d   1       0.808   2.580   1.193  0.00  0.00     0.041 A 
ATOM      4  C3  UNL d   1       1.243   2.104  -0.060  0.00  0.00    -0.075 A 
ATOM      5  S   UNL d   1       1.460   0.459  -0.528  0.00  0.00     0.015 SA
ATOM      6  C4  UNL d   1       1.966   0.894  -2.096  0.00  0.00     0.022 A 
ATOM      7  C5  UNL d   1       1.975   2.258  -2.275  0.00  0.00     0.026 A 
ATOM      8  C6  UNL d   1       1.559   2.977  -1.104  0.00  0.00    -0.082 A 
ATOM      9  C7  UNL d   1       1.430   4.368  -0.874  0.00  0.00     0.045 A 
ENDROOT
TORSDOF 0
ENDMDL
