MODEL 1
REMARK minimizedAffinity 5.54730129
REMARK minimizedRMSD -1
REMARK  0 active torsions:
REMARK  status: ('A' for Active; 'I' for Inactive)
ROOT
ATOM      1  C4' PXY d   1       1.673   5.024  -1.360  0.00  0.00     0.077 C 
ATOM      2  C1' PXY d   1       1.279  -0.743  -1.403  0.00  0.00     0.077 C 
ATOM      3  C1  PXY d   1       1.378   0.769  -1.404  0.00  0.00    -0.082 A 
ATOM      4  C2  PXY d   1       2.175   1.373  -0.538  0.00  0.00     0.003 A 
ATOM      5  C3  PXY d   1       2.253   2.742  -0.504  0.00  0.00     0.003 A 
ATOM      6  C4  PXY d   1       1.548   3.498  -1.401  0.00  0.00    -0.082 A 
ATOM      7  C5  PXY d   1       0.741   2.889  -2.295  0.00  0.00     0.003 A 
ATOM      8  C6  PXY d   1       0.645   1.501  -2.286  0.00  0.00     0.003 A 
ENDROOT
TORSDOF 0
ENDMDL
