MODEL 1
REMARK minimizedAffinity -0.792908311
REMARK minimizedRMSD -1
REMARK  0 active torsions:
REMARK  status: ('A' for Active; 'I' for Inactive)
ROOT
ATOM      1  C4' PXY d   1       0.899  -0.353  -2.428  0.00  0.00     0.077 C 
ATOM      2  C1' PXY d   1       1.689   5.022  -0.454  0.00  0.00     0.077 C 
ATOM      3  C1  PXY d   1       1.492   3.608  -0.965  0.00  0.00    -0.082 A 
ATOM      4  C2  PXY d   1       0.830   3.407  -2.092  0.00  0.00     0.003 A 
ATOM      5  C3  PXY d   1       0.615   2.133  -2.552  0.00  0.00     0.003 A 
ATOM      6  C4  PXY d   1       1.130   1.057  -1.879  0.00  0.00    -0.082 A 
ATOM      7  C5  PXY d   1       1.816   1.256  -0.734  0.00  0.00     0.003 A 
ATOM      8  C6  PXY d   1       1.988   2.554  -0.262  0.00  0.00     0.003 A 
ENDROOT
TORSDOF 0
ENDMDL
