MODEL 1
REMARK minimizedAffinity 3.03747082
REMARK minimizedRMSD -1
REMARK  0 active torsions:
REMARK  status: ('A' for Active; 'I' for Inactive)
ROOT
ATOM      1  C4' PXY d   1       0.836   0.673  -3.943  0.00  0.00     0.077 C 
ATOM      2  C1' PXY d   1       2.157   5.461  -0.985  0.00  0.00     0.077 C 
ATOM      3  C1  PXY d   1       1.799   4.211  -1.764  0.00  0.00    -0.082 A 
ATOM      4  C2  PXY d   1       2.349   3.054  -1.433  0.00  0.00     0.003 A 
ATOM      5  C3  PXY d   1       2.061   1.919  -2.147  0.00  0.00     0.003 A 
ATOM      6  C4  PXY d   1       1.161   1.959  -3.178  0.00  0.00    -0.082 A 
ATOM      7  C5  PXY d   1       0.588   3.134  -3.515  0.00  0.00     0.003 A 
ATOM      8  C6  PXY d   1       0.924   4.282  -2.804  0.00  0.00     0.003 A 
ENDROOT
TORSDOF 0
ENDMDL
