MODEL 1
REMARK minimizedAffinity 2.10255551
REMARK minimizedRMSD -1
REMARK  0 active torsions:
REMARK  status: ('A' for Active; 'I' for Inactive)
ROOT
ATOM      1  C4' PXY d   1      -0.144  -3.005   1.964  0.00  0.00     0.077 C 
ATOM      2  C1' PXY d   1      -4.147  -4.058   6.000  0.00  0.00     0.077 C 
ATOM      3  C1  PXY d   1      -3.097  -3.769   4.945  0.00  0.00    -0.082 A 
ATOM      4  C2  PXY d   1      -3.010  -4.548   3.879  0.00  0.00     0.003 A 
ATOM      5  C3  PXY d   1      -2.045  -4.321   2.931  0.00  0.00     0.003 A 
ATOM      6  C4  PXY d   1      -1.195  -3.253   3.050  0.00  0.00    -0.082 A 
ATOM      7  C5  PXY d   1      -1.285  -2.448   4.129  0.00  0.00     0.003 A 
ATOM      8  C6  PXY d   1      -2.244  -2.720   5.101  0.00  0.00     0.003 A 
ENDROOT
TORSDOF 0
ENDMDL
