MODEL 1
REMARK minimizedAffinity -3.18491101
REMARK minimizedRMSD -1
REMARK  0 active torsions:
REMARK  status: ('A' for Active; 'I' for Inactive)
ROOT
ATOM      1  C4' PXY d   1       1.352   5.357   0.348  0.00  0.00     0.077 C 
ATOM      2  C1' PXY d   1       1.359  -0.028  -1.753  0.00  0.00     0.077 C 
ATOM      3  C1  PXY d   1       1.355   1.379  -1.190  0.00  0.00    -0.082 A 
ATOM      4  C2  PXY d   1       1.118   2.404  -1.993  0.00  0.00     0.003 A 
ATOM      5  C3  PXY d   1       1.142   3.686  -1.507  0.00  0.00     0.003 A 
ATOM      6  C4  PXY d   1       1.358   3.918  -0.175  0.00  0.00    -0.082 A 
ATOM      7  C5  PXY d   1       1.589   2.877   0.653  0.00  0.00     0.003 A 
ATOM      8  C6  PXY d   1       1.602   1.586   0.132  0.00  0.00     0.003 A 
ENDROOT
TORSDOF 0
ENDMDL
