MODEL 1
REMARK minimizedAffinity -3.11610961
REMARK minimizedRMSD -1
REMARK  0 active torsions:
REMARK  status: ('A' for Active; 'I' for Inactive)
ROOT
ATOM      1  C4' PXY d   1       2.219   4.115   3.657  0.00  0.00     0.077 C 
ATOM      2  C1' PXY d   1       1.014   1.334  -1.265  0.00  0.00     0.077 C 
ATOM      3  C1  PXY d   1       1.327   2.052   0.032  0.00  0.00    -0.082 A 
ATOM      4  C2  PXY d   1       1.253   3.373   0.083  0.00  0.00     0.003 A 
ATOM      5  C3  PXY d   1       1.564   4.041   1.240  0.00  0.00     0.003 A 
ATOM      6  C4  PXY d   1       1.902   3.347   2.371  0.00  0.00    -0.082 A 
ATOM      7  C5  PXY d   1       1.969   2.000   2.330  0.00  0.00     0.003 A 
ATOM      8  C6  PXY d   1       1.690   1.343   1.135  0.00  0.00     0.003 A 
ENDROOT
TORSDOF 0
ENDMDL
