MODEL 1
REMARK minimizedAffinity 2.09886169
REMARK minimizedRMSD -1
REMARK  0 active torsions:
REMARK  status: ('A' for Active; 'I' for Inactive)
ROOT
ATOM      1  C4' PXY d   1       0.861   0.304  -2.874  0.00  0.00     0.077 C 
ATOM      2  C1' PXY d   1       1.600   5.498  -0.446  0.00  0.00     0.077 C 
ATOM      3  C1  PXY d   1       1.394   4.137  -1.082  0.00  0.00    -0.082 A 
ATOM      4  C2  PXY d   1       2.349   3.225  -1.001  0.00  0.00     0.003 A 
ATOM      5  C3  PXY d   1       2.191   2.001  -1.598  0.00  0.00     0.003 A 
ATOM      6  C4  PXY d   1       1.023   1.688  -2.239  0.00  0.00    -0.082 A 
ATOM      7  C5  PXY d   1       0.039   2.609  -2.317  0.00  0.00     0.003 A 
ATOM      8  C6  PXY d   1       0.235   3.861  -1.740  0.00  0.00     0.003 A 
ENDROOT
TORSDOF 0
ENDMDL
