MODEL 1
REMARK minimizedAffinity -4.14938736
REMARK minimizedRMSD -1
REMARK  0 active torsions:
REMARK  status: ('A' for Active; 'I' for Inactive)
ROOT
ATOM      1  C4' PXY d   1       1.181  -1.272  -0.760  0.00  0.00     0.077 C 
ATOM      2  C1' PXY d   1       1.360   4.496  -0.409  0.00  0.00     0.077 C 
ATOM      3  C1  PXY d   1       1.311   2.984  -0.514  0.00  0.00    -0.082 A 
ATOM      4  C2  PXY d   1       0.978   2.265   0.546  0.00  0.00     0.003 A 
ATOM      5  C3  PXY d   1       0.960   0.896   0.478  0.00  0.00     0.003 A 
ATOM      6  C4  PXY d   1       1.234   0.257  -0.702  0.00  0.00    -0.082 A 
ATOM      7  C5  PXY d   1       1.564   0.984  -1.791  0.00  0.00     0.003 A 
ATOM      8  C6  PXY d   1       1.616   2.371  -1.690  0.00  0.00     0.003 A 
ENDROOT
TORSDOF 0
ENDMDL
