MODEL 1
REMARK minimizedAffinity -6.9344058
REMARK minimizedRMSD -1
REMARK  0 active torsions:
REMARK  status: ('A' for Active; 'I' for Inactive)
ROOT
ATOM      1  C4' PXY d   1       1.237   4.810   0.019  0.00  0.00     0.077 C 
ATOM      2  C1' PXY d   1       1.375  -0.876  -1.016  0.00  0.00     0.077 C 
ATOM      3  C1  PXY d   1       1.330   0.613  -0.734  0.00  0.00    -0.082 A 
ATOM      4  C2  PXY d   1       1.615   1.470  -1.701  0.00  0.00     0.003 A 
ATOM      5  C3  PXY d   1       1.610   2.819  -1.456  0.00  0.00     0.003 A 
ATOM      6  C4  PXY d   1       1.260   3.298  -0.222  0.00  0.00    -0.082 A 
ATOM      7  C5  PXY d   1       0.958   2.430   0.767  0.00  0.00     0.003 A 
ATOM      8  C6  PXY d   1       1.008   1.063   0.508  0.00  0.00     0.003 A 
ENDROOT
TORSDOF 0
ENDMDL
