MODEL 1
REMARK minimizedAffinity -4.42348957
REMARK minimizedRMSD -1
REMARK  0 active torsions:
REMARK  status: ('A' for Active; 'I' for Inactive)
ROOT
ATOM      1  C4' PXY d   1       1.687   5.991  -0.172  0.00  0.00     0.077 C 
ATOM      2  C1' PXY d   1       1.035   0.375  -1.379  0.00  0.00     0.077 C 
ATOM      3  C1  PXY d   1       1.200   1.846  -1.051  0.00  0.00    -0.082 A 
ATOM      4  C2  PXY d   1       1.308   2.727  -2.032  0.00  0.00     0.003 A 
ATOM      5  C3  PXY d   1       1.490   4.057  -1.753  0.00  0.00     0.003 A 
ATOM      6  C4  PXY d   1       1.509   4.497  -0.457  0.00  0.00    -0.082 A 
ATOM      7  C5  PXY d   1       1.389   3.605   0.550  0.00  0.00     0.003 A 
ATOM      8  C6  PXY d   1       1.247   2.254   0.246  0.00  0.00     0.003 A 
ENDROOT
TORSDOF 0
ENDMDL
