MODEL 1
REMARK minimizedAffinity 0.536770344
REMARK minimizedRMSD -1
REMARK  0 active torsions:
REMARK  status: ('A' for Active; 'I' for Inactive)
ROOT
ATOM      1  C4' PXY d   1      -6.000  -1.805   3.341  0.00  0.00     0.077 C 
ATOM      2  C1' PXY d   1      -3.494   3.396   3.644  0.00  0.00     0.077 C 
ATOM      3  C1  PXY d   1      -4.159   2.035   3.575  0.00  0.00    -0.082 A 
ATOM      4  C2  PXY d   1      -3.536   1.033   2.975  0.00  0.00     0.003 A 
ATOM      5  C3  PXY d   1      -4.136  -0.196   2.876  0.00  0.00     0.003 A 
ATOM      6  C4  PXY d   1      -5.363  -0.416   3.443  0.00  0.00    -0.082 A 
ATOM      7  C5  PXY d   1      -6.000   0.599   4.065  0.00  0.00     0.003 A 
ATOM      8  C6  PXY d   1      -5.392   1.849   4.120  0.00  0.00     0.003 A 
ENDROOT
TORSDOF 0
ENDMDL
