MODEL 1
REMARK minimizedAffinity -0.793339789
REMARK minimizedRMSD -1
REMARK  0 active torsions:
REMARK  status: ('A' for Active; 'I' for Inactive)
ROOT
ATOM      1  C4' PXY d   1       1.793  -0.415  -1.116  0.00  0.00     0.077 C 
ATOM      2  C1' PXY d   1       1.416   5.349  -0.916  0.00  0.00     0.077 C 
ATOM      3  C1  PXY d   1       1.522   3.838  -0.957  0.00  0.00    -0.082 A 
ATOM      4  C2  PXY d   1       1.467   3.209  -2.120  0.00  0.00     0.003 A 
ATOM      5  C3  PXY d   1       1.528   1.841  -2.173  0.00  0.00     0.003 A 
ATOM      6  C4  PXY d   1       1.701   1.110  -1.027  0.00  0.00    -0.082 A 
ATOM      7  C5  PXY d   1       1.768   1.745   0.162  0.00  0.00     0.003 A 
ATOM      8  C6  PXY d   1       1.662   3.132   0.198  0.00  0.00     0.003 A 
ENDROOT
TORSDOF 0
ENDMDL
