MODEL 1
REMARK minimizedAffinity 0.451697946
REMARK minimizedRMSD -1
REMARK  0 active torsions:
REMARK  status: ('A' for Active; 'I' for Inactive)
ROOT
ATOM      1  C4' PXY d   1       1.312  -2.638   0.424  0.00  0.00     0.077 C 
ATOM      2  C1' PXY d   1       1.406   2.675  -1.851  0.00  0.00     0.077 C 
ATOM      3  C1  PXY d   1       1.393   1.284  -1.249  0.00  0.00    -0.082 A 
ATOM      4  C2  PXY d   1       0.675   0.330  -1.820  0.00  0.00     0.003 A 
ATOM      5  C3  PXY d   1       0.627  -0.925  -1.271  0.00  0.00     0.003 A 
ATOM      6  C4  PXY d   1       1.362  -1.221  -0.155  0.00  0.00    -0.082 A 
ATOM      7  C5  PXY d   1       2.105  -0.257   0.428  0.00  0.00     0.003 A 
ATOM      8  C6  PXY d   1       2.108   1.022  -0.121  0.00  0.00     0.003 A 
ENDROOT
TORSDOF 0
ENDMDL
