MODEL 1
REMARK minimizedAffinity -2.8570013
REMARK minimizedRMSD -1
REMARK  0 active torsions:
REMARK  status: ('A' for Active; 'I' for Inactive)
ROOT
ATOM      1  C4' PXY d   1       1.729   4.847   0.007  0.00  0.00     0.077 C 
ATOM      2  C1' PXY d   1       0.834  -0.859  -0.220  0.00  0.00     0.077 C 
ATOM      3  C1  PXY d   1       1.063   0.638  -0.149  0.00  0.00    -0.082 A 
ATOM      4  C2  PXY d   1       1.199   1.333  -1.267  0.00  0.00     0.003 A 
ATOM      5  C3  PXY d   1       1.439   2.682  -1.220  0.00  0.00     0.003 A 
ATOM      6  C4  PXY d   1       1.487   3.335  -0.017  0.00  0.00    -0.082 A 
ATOM      7  C5  PXY d   1       1.339   2.635   1.127  0.00  0.00     0.003 A 
ATOM      8  C6  PXY d   1       1.137   1.260   1.059  0.00  0.00     0.003 A 
ENDROOT
TORSDOF 0
ENDMDL
