MODEL 1
REMARK minimizedAffinity -4.40009928
REMARK minimizedRMSD -1
REMARK  0 active torsions:
REMARK  status: ('A' for Active; 'I' for Inactive)
ROOT
ATOM      1  C4' PXY d   1       1.722   5.155  -0.874  0.00  0.00     0.077 C 
ATOM      2  C1' PXY d   1       1.095  -0.582  -0.542  0.00  0.00     0.077 C 
ATOM      3  C1  PXY d   1       1.253   0.924  -0.618  0.00  0.00    -0.082 A 
ATOM      4  C2  PXY d   1       1.397   1.508  -1.796  0.00  0.00     0.003 A 
ATOM      5  C3  PXY d   1       1.573   2.865  -1.881  0.00  0.00     0.003 A 
ATOM      6  C4  PXY d   1       1.549   3.638  -0.751  0.00  0.00    -0.082 A 
ATOM      7  C5  PXY d   1       1.393   3.051   0.454  0.00  0.00     0.003 A 
ATOM      8  C6  PXY d   1       1.257   1.667   0.522  0.00  0.00     0.003 A 
ENDROOT
TORSDOF 0
ENDMDL
