MODEL 1
REMARK minimizedAffinity -5.28869581
REMARK minimizedRMSD -1
REMARK  0 active torsions:
REMARK  status: ('A' for Active; 'I' for Inactive)
ROOT
ATOM      1  C4' PXY d   1       0.673  -0.536  -0.717  0.00  0.00     0.077 C 
ATOM      2  C1' PXY d   1       1.771   5.139  -0.794  0.00  0.00     0.077 C 
ATOM      3  C1  PXY d   1       1.486   3.651  -0.761  0.00  0.00    -0.082 A 
ATOM      4  C2  PXY d   1       1.538   2.950  -1.882  0.00  0.00     0.003 A 
ATOM      5  C3  PXY d   1       1.252   1.609  -1.876  0.00  0.00     0.003 A 
ATOM      6  C4  PXY d   1       0.963   0.968  -0.701  0.00  0.00    -0.082 A 
ATOM      7  C5  PXY d   1       0.919   1.674   0.449  0.00  0.00     0.003 A 
ATOM      8  C6  PXY d   1       1.172   3.042   0.414  0.00  0.00     0.003 A 
ENDROOT
TORSDOF 0
ENDMDL
