MODEL 1
REMARK minimizedAffinity -0.326522321
REMARK minimizedRMSD -1
REMARK  0 active torsions:
REMARK  status: ('A' for Active; 'I' for Inactive)
ROOT
ATOM      1  C4' PXY d   1       0.613  -1.068  -1.247  0.00  0.00     0.077 C 
ATOM      2  C1' PXY d   1       1.703   4.605  -1.020  0.00  0.00     0.077 C 
ATOM      3  C1  PXY d   1       1.424   3.115  -1.069  0.00  0.00    -0.082 A 
ATOM      4  C2  PXY d   1       1.105   2.547  -2.220  0.00  0.00     0.003 A 
ATOM      5  C3  PXY d   1       0.818   1.207  -2.277  0.00  0.00     0.003 A 
ATOM      6  C4  PXY d   1       0.912   0.431  -1.153  0.00  0.00    -0.082 A 
ATOM      7  C5  PXY d   1       1.248   1.001   0.024  0.00  0.00     0.003 A 
ATOM      8  C6  PXY d   1       1.494   2.371   0.068  0.00  0.00     0.003 A 
ENDROOT
TORSDOF 0
ENDMDL
