MODEL 1
REMARK minimizedAffinity -2.37216425
REMARK minimizedRMSD -1
REMARK  0 active torsions:
REMARK  status: ('A' for Active; 'I' for Inactive)
ROOT
ATOM      1  C4' PXY d   1       1.015  -0.324   0.002  0.00  0.00     0.077 C 
ATOM      2  C1' PXY d   1       1.677   5.339  -0.952  0.00  0.00     0.077 C 
ATOM      3  C1  PXY d   1       1.507   3.856  -0.689  0.00  0.00    -0.082 A 
ATOM      4  C2  PXY d   1       1.553   3.003  -1.700  0.00  0.00     0.003 A 
ATOM      5  C3  PXY d   1       1.370   1.662  -1.485  0.00  0.00     0.003 A 
ATOM      6  C4  PXY d   1       1.191   1.182  -0.215  0.00  0.00    -0.082 A 
ATOM      7  C5  PXY d   1       1.154   2.044   0.823  0.00  0.00     0.003 A 
ATOM      8  C6  PXY d   1       1.301   3.407   0.578  0.00  0.00     0.003 A 
ENDROOT
TORSDOF 0
ENDMDL
