MODEL 1
REMARK minimizedAffinity 7.61988163
REMARK minimizedRMSD -1
REMARK  0 active torsions:
REMARK  status: ('A' for Active; 'I' for Inactive)
ROOT
ATOM      1  C4' PXY d   1       1.903   5.418  -0.536  0.00  0.00     0.077 C 
ATOM      2  C1' PXY d   1       0.809  -0.084  -1.931  0.00  0.00     0.077 C 
ATOM      3  C1  PXY d   1       1.093   1.356  -1.553  0.00  0.00    -0.082 A 
ATOM      4  C2  PXY d   1       1.054   2.296  -2.483  0.00  0.00     0.003 A 
ATOM      5  C3  PXY d   1       1.339   3.599  -2.165  0.00  0.00     0.003 A 
ATOM      6  C4  PXY d   1       1.614   3.952  -0.871  0.00  0.00    -0.082 A 
ATOM      7  C5  PXY d   1       1.645   3.000   0.086  0.00  0.00     0.003 A 
ATOM      8  C6  PXY d   1       1.393   1.677  -0.265  0.00  0.00     0.003 A 
ENDROOT
TORSDOF 0
ENDMDL
