MODEL 1
REMARK minimizedAffinity 10.7886724
REMARK minimizedRMSD -1
REMARK  0 active torsions:
REMARK  status: ('A' for Active; 'I' for Inactive)
ROOT
ATOM      1  C1  DEN d   1       5.117   4.091   4.170  0.00  0.00     0.130 A 
ATOM      2  C2  DEN d   1       4.298   4.187   2.965  0.00  0.00    -0.031 A 
ATOM      3  C3  DEN d   1       3.948   2.816   2.541  0.00  0.00     0.027 A 
ATOM      4  C4  DEN d   1       4.586   0.568   3.632  0.00  0.00     0.027 A 
ATOM      5  C5  DEN d   1       5.279  -0.021   4.666  0.00  0.00    -0.003 A 
ATOM      6  C6  DEN d   1       5.990   0.711   5.580  0.00  0.00     0.001 A 
ATOM      7  C7  DEN d   1       5.985   2.079   5.504  0.00  0.00     0.017 A 
ATOM      8  C8  DEN d   1       5.295   2.680   4.460  0.00  0.00    -0.094 A 
ATOM      9  C9  DEN d   1       4.573   1.923   3.553  0.00  0.00    -0.072 A 
ENDROOT
TORSDOF 0
ENDMDL
