MODEL 1
REMARK minimizedAffinity 6.63396549
REMARK minimizedRMSD -1
REMARK  0 active torsions:
REMARK  status: ('A' for Active; 'I' for Inactive)
ROOT
ATOM      1  C1  DEN d   1       4.367   3.053   3.076  0.00  0.00     0.130 A 
ATOM      2  C2  DEN d   1       3.607   2.744   1.869  0.00  0.00    -0.031 A 
ATOM      3  C3  DEN d   1       3.630   1.280   1.677  0.00  0.00     0.027 A 
ATOM      4  C4  DEN d   1       4.760  -0.529   3.127  0.00  0.00     0.027 A 
ATOM      5  C5  DEN d   1       5.530  -0.750   4.248  0.00  0.00    -0.003 A 
ATOM      6  C6  DEN d   1       5.992   0.275   5.030  0.00  0.00     0.001 A 
ATOM      7  C7  DEN d   1       5.649   1.567   4.729  0.00  0.00     0.017 A 
ATOM      8  C8  DEN d   1       4.878   1.798   3.597  0.00  0.00    -0.094 A 
ATOM      9  C9  DEN d   1       4.411   0.747   2.825  0.00  0.00    -0.072 A 
ENDROOT
TORSDOF 0
ENDMDL
