MODEL 1
REMARK minimizedAffinity -3.36580992
REMARK minimizedRMSD -1
REMARK  0 active torsions:
REMARK  status: ('A' for Active; 'I' for Inactive)
ROOT
ATOM      1  C1  DEN d   1      -3.350   2.427  -0.649  0.00  0.00     0.130 A 
ATOM      2  C2  DEN d   1      -3.329   3.673   0.111  0.00  0.00    -0.031 A 
ATOM      3  C3  DEN d   1      -2.945   3.354   1.501  0.00  0.00     0.027 A 
ATOM      4  C4  DEN d   1      -2.379   1.063   2.542  0.00  0.00     0.027 A 
ATOM      5  C5  DEN d   1      -2.272  -0.287   2.294  0.00  0.00    -0.003 A 
ATOM      6  C6  DEN d   1      -2.547  -0.828   1.066  0.00  0.00     0.001 A 
ATOM      7  C7  DEN d   1      -2.900  -0.007   0.027  0.00  0.00     0.017 A 
ATOM      8  C8  DEN d   1      -3.017   1.354   0.272  0.00  0.00    -0.094 A 
ATOM      9  C9  DEN d   1      -2.723   1.883   1.517  0.00  0.00    -0.072 A 
ENDROOT
TORSDOF 0
ENDMDL
