MODEL 1
REMARK minimizedAffinity 3.91231608
REMARK minimizedRMSD -1
REMARK  0 active torsions:
REMARK  status: ('A' for Active; 'I' for Inactive)
ROOT
ATOM      1  C1  DEN d   1      -0.525   3.979  -0.742  0.00  0.00     0.130 A 
ATOM      2  C2  DEN d   1       0.229   2.774  -1.078  0.00  0.00    -0.031 A 
ATOM      3  C3  DEN d   1      -0.665   1.612  -0.900  0.00  0.00     0.027 A 
ATOM      4  C4  DEN d   1      -3.131   1.563  -0.145  0.00  0.00     0.027 A 
ATOM      5  C5  DEN d   1      -4.196   2.336   0.263  0.00  0.00    -0.003 A 
ATOM      6  C6  DEN d   1      -4.102   3.696   0.395  0.00  0.00     0.001 A 
ATOM      7  C7  DEN d   1      -2.932   4.330   0.074  0.00  0.00     0.017 A 
ATOM      8  C8  DEN d   1      -1.851   3.557  -0.330  0.00  0.00    -0.094 A 
ATOM      9  C9  DEN d   1      -1.969   2.185  -0.469  0.00  0.00    -0.072 A 
ENDROOT
TORSDOF 0
ENDMDL
