MODEL 1
REMARK minimizedAffinity -3.92164755
REMARK minimizedRMSD -1
REMARK  0 active torsions:
REMARK  status: ('A' for Active; 'I' for Inactive)
ROOT
ATOM      1  C1  DEN d   1      -3.567   2.409  -0.701  0.00  0.00     0.130 A 
ATOM      2  C2  DEN d   1      -2.995   3.587  -0.054  0.00  0.00    -0.031 A 
ATOM      3  C3  DEN d   1      -2.332   3.148   1.190  0.00  0.00     0.027 A 
ATOM      4  C4  DEN d   1      -2.132   0.771   2.171  0.00  0.00     0.027 A 
ATOM      5  C5  DEN d   1      -2.468  -0.551   1.985  0.00  0.00    -0.003 A 
ATOM      6  C6  DEN d   1      -3.217  -0.972   0.918  0.00  0.00     0.001 A 
ATOM      7  C7  DEN d   1      -3.616  -0.067  -0.029  0.00  0.00     0.017 A 
ATOM      8  C8  DEN d   1      -3.288   1.270   0.155  0.00  0.00    -0.094 A 
ATOM      9  C9  DEN d   1      -2.520   1.673   1.234  0.00  0.00    -0.072 A 
ENDROOT
TORSDOF 0
ENDMDL
