MODEL 1
REMARK minimizedAffinity -1.11567032
REMARK minimizedRMSD -1
REMARK  0 active torsions:
REMARK  status: ('A' for Active; 'I' for Inactive)
ROOT
ATOM      1  C1  DEN d   1      -3.210   2.521   1.311  0.00  0.00     0.130 A 
ATOM      2  C2  DEN d   1      -2.655   2.591  -0.038  0.00  0.00    -0.031 A 
ATOM      3  C3  DEN d   1      -1.977   1.309  -0.318  0.00  0.00     0.027 A 
ATOM      4  C4  DEN d   1      -1.738  -0.766   1.195  0.00  0.00     0.027 A 
ATOM      5  C5  DEN d   1      -2.033  -1.293   2.432  0.00  0.00    -0.003 A 
ATOM      6  C6  DEN d   1      -2.707  -0.579   3.388  0.00  0.00     0.001 A 
ATOM      7  C7  DEN d   1      -3.147   0.687   3.105  0.00  0.00     0.017 A 
ATOM      8  C8  DEN d   1      -2.846   1.228   1.861  0.00  0.00    -0.094 A 
ATOM      9  C9  DEN d   1      -2.175   0.486   0.905  0.00  0.00    -0.072 A 
ENDROOT
TORSDOF 0
ENDMDL
