MODEL 1
REMARK minimizedAffinity -2.81061602
REMARK minimizedRMSD -1
REMARK  0 active torsions:
REMARK  status: ('A' for Active; 'I' for Inactive)
ROOT
ATOM      1  C1  DEN d   1      -2.987   0.584   2.993  0.00  0.00     0.130 A 
ATOM      2  C2  DEN d   1      -2.474  -0.681   2.474  0.00  0.00    -0.031 A 
ATOM      3  C3  DEN d   1      -2.303  -0.540   1.014  0.00  0.00     0.027 A 
ATOM      4  C4  DEN d   1      -2.776   1.505  -0.485  0.00  0.00     0.027 A 
ATOM      5  C5  DEN d   1      -3.232   2.805  -0.499  0.00  0.00    -0.003 A 
ATOM      6  C6  DEN d   1      -3.666   3.439   0.634  0.00  0.00     0.001 A 
ATOM      7  C7  DEN d   1      -3.612   2.788   1.839  0.00  0.00     0.017 A 
ATOM      8  C8  DEN d   1      -3.160   1.475   1.860  0.00  0.00    -0.094 A 
ATOM      9  C9  DEN d   1      -2.714   0.856   0.705  0.00  0.00    -0.072 A 
ENDROOT
TORSDOF 0
ENDMDL
