MODEL 1
REMARK minimizedAffinity 2.86078739
REMARK minimizedRMSD -1
REMARK  0 active torsions:
REMARK  status: ('A' for Active; 'I' for Inactive)
ROOT
ATOM      1  C1  DEN d   1       3.775  -0.368   4.145  0.00  0.00     0.130 A 
ATOM      2  C2  DEN d   1       4.415   0.819   3.586  0.00  0.00    -0.031 A 
ATOM      3  C3  DEN d   1       4.284   0.759   2.116  0.00  0.00     0.027 A 
ATOM      4  C4  DEN d   1       3.152  -1.045   0.661  0.00  0.00     0.027 A 
ATOM      5  C5  DEN d   1       2.480  -2.247   0.684  0.00  0.00    -0.003 A 
ATOM      6  C6  DEN d   1       2.225  -2.918   1.850  0.00  0.00     0.001 A 
ATOM      7  C7  DEN d   1       2.604  -2.370   3.046  0.00  0.00     0.017 A 
ATOM      8  C8  DEN d   1       3.289  -1.161   3.031  0.00  0.00    -0.094 A 
ATOM      9  C9  DEN d   1       3.527  -0.492   1.842  0.00  0.00    -0.072 A 
ENDROOT
TORSDOF 0
ENDMDL
