MODEL 1
REMARK minimizedAffinity -1.16342413
REMARK minimizedRMSD -1
REMARK  0 active torsions:
REMARK  status: ('A' for Active; 'I' for Inactive)
ROOT
ATOM      1  C1  DEN d   1      -2.442   1.118   3.058  0.00  0.00     0.130 A 
ATOM      2  C2  DEN d   1      -2.403  -0.275   2.622  0.00  0.00    -0.031 A 
ATOM      3  C3  DEN d   1      -2.877  -0.329   1.224  0.00  0.00     0.027 A 
ATOM      4  C4  DEN d   1      -3.657   1.600  -0.300  0.00  0.00     0.027 A 
ATOM      5  C5  DEN d   1      -3.876   2.958  -0.369  0.00  0.00    -0.003 A 
ATOM      6  C6  DEN d   1      -3.666   3.786   0.702  0.00  0.00     0.001 A 
ATOM      7  C7  DEN d   1      -3.181   3.271   1.875  0.00  0.00     0.017 A 
ATOM      8  C8  DEN d   1      -2.965   1.901   1.954  0.00  0.00    -0.094 A 
ATOM      9  C9  DEN d   1      -3.171   1.082   0.857  0.00  0.00    -0.072 A 
ENDROOT
TORSDOF 0
ENDMDL
