MODEL 1
REMARK minimizedAffinity 2.28864121
REMARK minimizedRMSD -1
REMARK  0 active torsions:
REMARK  status: ('A' for Active; 'I' for Inactive)
ROOT
ATOM      1  C1  DEN d   1      -3.007  -0.626   0.087  0.00  0.00     0.130 A 
ATOM      2  C2  DEN d   1      -4.283  -0.144  -0.436  0.00  0.00    -0.031 A 
ATOM      3  C3  DEN d   1      -5.203   0.042   0.704  0.00  0.00     0.027 A 
ATOM      4  C4  DEN d   1      -4.778  -0.362   3.215  0.00  0.00     0.027 A 
ATOM      5  C5  DEN d   1      -3.851  -0.782   4.143  0.00  0.00    -0.003 A 
ATOM      6  C6  DEN d   1      -2.600  -1.209   3.785  0.00  0.00     0.001 A 
ATOM      7  C7  DEN d   1      -2.225  -1.182   2.467  0.00  0.00     0.017 A 
ATOM      8  C8  DEN d   1      -3.157  -0.766   1.525  0.00  0.00    -0.094 A 
ATOM      9  C9  DEN d   1      -4.413  -0.327   1.909  0.00  0.00    -0.072 A 
ENDROOT
TORSDOF 0
ENDMDL
