MODEL 1
REMARK minimizedAffinity 17.9531479
REMARK minimizedRMSD -1
REMARK  0 active torsions:
REMARK  status: ('A' for Active; 'I' for Inactive)
ROOT
ATOM      1  C1  DEN d   1       1.592   3.524  -1.532  0.00  0.00     0.130 A 
ATOM      2  C2  DEN d   1       0.514   2.596  -1.204  0.00  0.00    -0.031 A 
ATOM      3  C3  DEN d   1       0.045   1.978  -2.460  0.00  0.00     0.027 A 
ATOM      4  C4  DEN d   1       0.884   2.362  -4.869  0.00  0.00     0.027 A 
ATOM      5  C5  DEN d   1       1.775   3.065  -5.649  0.00  0.00    -0.003 A 
ATOM      6  C6  DEN d   1       2.638   3.988  -5.119  0.00  0.00     0.001 A 
ATOM      7  C7  DEN d   1       2.659   4.200  -3.766  0.00  0.00     0.017 A 
ATOM      8  C8  DEN d   1       1.758   3.500  -2.974  0.00  0.00    -0.094 A 
ATOM      9  C9  DEN d   1       0.902   2.562  -3.527  0.00  0.00    -0.072 A 
ENDROOT
TORSDOF 0
ENDMDL
