MODEL 1
REMARK minimizedAffinity 4.66852951
REMARK minimizedRMSD -1
REMARK  0 active torsions:
REMARK  status: ('A' for Active; 'I' for Inactive)
ROOT
ATOM      1  C1  DEN d   1       3.898   0.672   1.383  0.00  0.00     0.130 A 
ATOM      2  C2  DEN d   1       3.370   1.952   0.918  0.00  0.00    -0.031 A 
ATOM      3  C3  DEN d   1       3.836   3.002   1.847  0.00  0.00     0.027 A 
ATOM      4  C4  DEN d   1       5.318   2.772   3.945  0.00  0.00     0.027 A 
ATOM      5  C5  DEN d   1       6.000   1.882   4.746  0.00  0.00    -0.003 A 
ATOM      6  C6  DEN d   1       6.000   0.534   4.504  0.00  0.00     0.001 A 
ATOM      7  C7  DEN d   1       5.342   0.041   3.408  0.00  0.00     0.017 A 
ATOM      8  C8  DEN d   1       4.647   0.931   2.600  0.00  0.00    -0.094 A 
ATOM      9  C9  DEN d   1       4.669   2.292   2.854  0.00  0.00    -0.072 A 
ENDROOT
TORSDOF 0
ENDMDL
