MODEL 1
REMARK minimizedAffinity 0.812559783
REMARK minimizedRMSD -1
REMARK  0 active torsions:
REMARK  status: ('A' for Active; 'I' for Inactive)
ROOT
ATOM      1  C1  DEN d   1       5.467   5.290   3.763  0.00  0.00     0.130 A 
ATOM      2  C2  DEN d   1       5.876   5.698   5.104  0.00  0.00    -0.031 A 
ATOM      3  C3  DEN d   1       6.000   4.483   5.933  0.00  0.00     0.027 A 
ATOM      4  C4  DEN d   1       5.604   2.021   5.273  0.00  0.00     0.027 A 
ATOM      5  C5  DEN d   1       5.234   1.179   4.248  0.00  0.00    -0.003 A 
ATOM      6  C6  DEN d   1       4.885   1.648   3.009  0.00  0.00     0.001 A 
ATOM      7  C7  DEN d   1       4.943   2.992   2.750  0.00  0.00     0.017 A 
ATOM      8  C8  DEN d   1       5.309   3.847   3.781  0.00  0.00    -0.094 A 
ATOM      9  C9  DEN d   1       5.670   3.353   5.023  0.00  0.00    -0.072 A 
ENDROOT
TORSDOF 0
ENDMDL
