MODEL 1
REMARK minimizedAffinity 6.14758253
REMARK minimizedRMSD -1
REMARK  0 active torsions:
REMARK  status: ('A' for Active; 'I' for Inactive)
ROOT
ATOM      1  C1  DEN d   1       5.210   4.506   2.640  0.00  0.00     0.130 A 
ATOM      2  C2  DEN d   1       5.619   5.310   3.789  0.00  0.00    -0.031 A 
ATOM      3  C3  DEN d   1       6.000   4.388   4.878  0.00  0.00     0.027 A 
ATOM      4  C4  DEN d   1       6.000   1.809   4.896  0.00  0.00     0.027 A 
ATOM      5  C5  DEN d   1       5.721   0.682   4.155  0.00  0.00    -0.003 A 
ATOM      6  C6  DEN d   1       5.225   0.749   2.881  0.00  0.00     0.001 A 
ATOM      7  C7  DEN d   1       5.034   1.971   2.291  0.00  0.00     0.017 A 
ATOM      8  C8  DEN d   1       5.305   3.112   3.034  0.00  0.00    -0.094 A 
ATOM      9  C9  DEN d   1       5.818   3.023   4.316  0.00  0.00    -0.072 A 
ENDROOT
TORSDOF 0
ENDMDL
