MODEL 1
REMARK minimizedAffinity -1.19603336
REMARK minimizedRMSD -1
REMARK  0 active torsions:
REMARK  status: ('A' for Active; 'I' for Inactive)
ROOT
ATOM      1  C1  DEN d   1       1.755  -0.635   0.647  0.00  0.00     0.130 A 
ATOM      2  C2  DEN d   1       1.928  -2.077   0.500  0.00  0.00    -0.031 A 
ATOM      3  C3  DEN d   1       3.114  -2.477   1.283  0.00  0.00     0.027 A 
ATOM      4  C4  DEN d   1       4.689  -1.011   2.706  0.00  0.00     0.027 A 
ATOM      5  C5  DEN d   1       4.952   0.275   3.125  0.00  0.00    -0.003 A 
ATOM      6  C6  DEN d   1       4.194   1.343   2.724  0.00  0.00     0.001 A 
ATOM      7  C7  DEN d   1       3.109   1.139   1.913  0.00  0.00     0.017 A 
ATOM      8  C8  DEN d   1       2.842  -0.153   1.481  0.00  0.00    -0.094 A 
ATOM      9  C9  DEN d   1       3.612  -1.221   1.908  0.00  0.00    -0.072 A 
ENDROOT
TORSDOF 0
ENDMDL
