MODEL 1
REMARK minimizedAffinity 3.93755937
REMARK minimizedRMSD -1
REMARK  0 active torsions:
REMARK  status: ('A' for Active; 'I' for Inactive)
ROOT
ATOM      1  C1  DEN d   1       4.060  -2.077   4.498  0.00  0.00     0.130 A 
ATOM      2  C2  DEN d   1       2.872  -2.262   3.669  0.00  0.00    -0.031 A 
ATOM      3  C3  DEN d   1       2.691  -1.044   2.853  0.00  0.00     0.027 A 
ATOM      4  C4  DEN d   1       4.130   1.095   2.789  0.00  0.00     0.027 A 
ATOM      5  C5  DEN d   1       5.235   1.721   3.323  0.00  0.00    -0.003 A 
ATOM      6  C6  DEN d   1       5.999   1.144   4.302  0.00  0.00     0.001 A 
ATOM      7  C7  DEN d   1       5.695  -0.116   4.746  0.00  0.00     0.017 A 
ATOM      8  C8  DEN d   1       4.579  -0.750   4.218  0.00  0.00    -0.094 A 
ATOM      9  C9  DEN d   1       3.826  -0.155   3.220  0.00  0.00    -0.072 A 
ENDROOT
TORSDOF 0
ENDMDL
