MODEL 1
REMARK minimizedAffinity 15.589529
REMARK minimizedRMSD -1
REMARK  0 active torsions:
REMARK  status: ('A' for Active; 'I' for Inactive)
ROOT
ATOM      1  C1  DEN d   1       6.000   1.118   4.798  0.00  0.00     0.130 A 
ATOM      2  C2  DEN d   1       5.802  -0.282   4.434  0.00  0.00    -0.031 A 
ATOM      3  C3  DEN d   1       4.930  -0.325   3.243  0.00  0.00     0.027 A 
ATOM      4  C4  DEN d   1       3.876   1.631   1.932  0.00  0.00     0.027 A 
ATOM      5  C5  DEN d   1       3.748   3.001   1.870  0.00  0.00    -0.003 A 
ATOM      6  C6  DEN d   1       4.329   3.831   2.792  0.00  0.00     0.001 A 
ATOM      7  C7  DEN d   1       5.103   3.301   3.791  0.00  0.00     0.017 A 
ATOM      8  C8  DEN d   1       5.230   1.920   3.864  0.00  0.00    -0.094 A 
ATOM      9  C9  DEN d   1       4.645   1.098   2.915  0.00  0.00    -0.072 A 
ENDROOT
TORSDOF 0
ENDMDL
