MODEL 1
REMARK minimizedAffinity 0.623083115
REMARK minimizedRMSD -1
REMARK  0 active torsions:
REMARK  status: ('A' for Active; 'I' for Inactive)
ROOT
ATOM      1  C1  DEN d   1      -1.409  -0.409   2.947  0.00  0.00     0.130 A 
ATOM      2  C2  DEN d   1      -1.908  -0.206   4.304  0.00  0.00    -0.031 A 
ATOM      3  C3  DEN d   1      -3.371  -0.405   4.288  0.00  0.00     0.027 A 
ATOM      4  C4  DEN d   1      -4.903  -1.012   2.303  0.00  0.00     0.027 A 
ATOM      5  C5  DEN d   1      -4.938  -1.275   0.952  0.00  0.00    -0.003 A 
ATOM      6  C6  DEN d   1      -3.814  -1.235   0.171  0.00  0.00     0.001 A 
ATOM      7  C7  DEN d   1      -2.598  -0.969   0.744  0.00  0.00     0.017 A 
ATOM      8  C8  DEN d   1      -2.556  -0.696   2.105  0.00  0.00    -0.094 A 
ATOM      9  C9  DEN d   1      -3.702  -0.753   2.879  0.00  0.00    -0.072 A 
ENDROOT
TORSDOF 0
ENDMDL
