MODEL 1
REMARK minimizedAffinity -5.04214859
REMARK minimizedRMSD -1
REMARK  1 active torsions:
REMARK  status: ('A' for Active; 'I' for Inactive)
REMARK    1  A    between atoms: C1_2  and  C2_3 
ROOT
ATOM      1  C2  UNL d   1       0.671   0.367   0.417  0.00  0.00    -0.081 A 
ATOM      2  C3  UNL d   1       0.142   1.135  -0.628  0.00  0.00     0.006 A 
ATOM      3  C4  UNL d   1      -0.592   2.291  -0.356  0.00  0.00     0.002 A 
ATOM      4  C5  UNL d   1      -0.803   2.704   0.964  0.00  0.00    -0.080 A 
ATOM      5  C6  UNL d   1      -1.564   3.960   1.270  0.00  0.00     0.076 C 
ATOM      6  C7  UNL d   1      -0.290   1.928   2.009  0.00  0.00     0.002 A 
ATOM      7  C8  UNL d   1       0.444   0.771   1.737  0.00  0.00     0.006 A 
ENDROOT
BRANCH   1   8
ATOM      8  C1  UNL d   1       1.518  -0.845   0.125  0.00  0.00     0.054 C 
ATOM      9  C   UNL d   1       2.982  -0.590   0.454  0.00  0.00     0.018 C 
ENDBRANCH   1   8
TORSDOF 1
ENDMDL
