MODEL 1
REMARK minimizedAffinity -2.53667259
REMARK minimizedRMSD -1
REMARK  1 active torsions:
REMARK  status: ('A' for Active; 'I' for Inactive)
REMARK    1  A    between atoms: C1_2  and  C2_3 
ROOT
ATOM      1  C2  UNL d   1      -0.415   0.060  -1.519  0.00  0.00    -0.081 A 
ATOM      2  C3  UNL d   1      -0.445  -0.462  -0.220  0.00  0.00     0.006 A 
ATOM      3  C4  UNL d   1      -0.242   0.371   0.882  0.00  0.00     0.002 A 
ATOM      4  C5  UNL d   1      -0.013   1.740   0.706  0.00  0.00    -0.080 A 
ATOM      5  C6  UNL d   1       0.176   2.650   1.882  0.00  0.00     0.076 C 
ATOM      6  C7  UNL d   1       0.034   2.259  -0.593  0.00  0.00     0.002 A 
ATOM      7  C8  UNL d   1      -0.168   1.426  -1.696  0.00  0.00     0.006 A 
ENDROOT
BRANCH   1   8
ATOM      8  C1  UNL d   1      -0.697  -0.824  -2.707  0.00  0.00     0.054 C 
ATOM      9  C   UNL d   1      -1.264  -2.168  -2.274  0.00  0.00     0.018 C 
ENDBRANCH   1   8
TORSDOF 1
ENDMDL
