MODEL 1
REMARK minimizedAffinity -2.00132084
REMARK minimizedRMSD -1
REMARK  1 active torsions:
REMARK  status: ('A' for Active; 'I' for Inactive)
REMARK    1  A    between atoms: C1_2  and  C2_3 
ROOT
ATOM      1  C2  UNL d   1       0.095  -0.320  -0.181  0.00  0.00    -0.081 A 
ATOM      2  C3  UNL d   1       0.287  -0.075   1.185  0.00  0.00     0.006 A 
ATOM      3  C4  UNL d   1      -0.229   1.080   1.776  0.00  0.00     0.002 A 
ATOM      4  C5  UNL d   1      -0.952   2.006   1.016  0.00  0.00    -0.080 A 
ATOM      5  C6  UNL d   1      -1.537   3.235   1.645  0.00  0.00     0.076 C 
ATOM      6  C7  UNL d   1      -1.129   1.770  -0.352  0.00  0.00     0.002 A 
ATOM      7  C8  UNL d   1      -0.612   0.615  -0.944  0.00  0.00     0.006 A 
ENDROOT
BRANCH   1   8
ATOM      8  C1  UNL d   1       0.595  -1.596  -0.808  0.00  0.00     0.054 C 
ATOM      9  C   UNL d   1      -0.548  -2.564  -1.079  0.00  0.00     0.018 C 
ENDBRANCH   1   8
TORSDOF 1
ENDMDL
