MODEL 1
REMARK minimizedAffinity -3.45215416
REMARK minimizedRMSD -1
REMARK  1 active torsions:
REMARK  status: ('A' for Active; 'I' for Inactive)
REMARK    1  A    between atoms: C1_2  and  C2_3 
ROOT
ATOM      1  C2  UNL d   1       1.843  -0.580   0.579  0.00  0.00    -0.081 A 
ATOM      2  C3  UNL d   1       1.081  -0.445  -0.588  0.00  0.00     0.006 A 
ATOM      3  C4  UNL d   1      -0.029   0.403  -0.614  0.00  0.00     0.002 A 
ATOM      4  C5  UNL d   1      -0.391   1.133   0.523  0.00  0.00    -0.080 A 
ATOM      5  C6  UNL d   1      -1.563   2.069   0.499  0.00  0.00     0.076 C 
ATOM      6  C7  UNL d   1       0.359   0.984   1.694  0.00  0.00     0.002 A 
ATOM      7  C8  UNL d   1       1.469   0.137   1.721  0.00  0.00     0.006 A 
ENDROOT
BRANCH   1   8
ATOM      8  C1  UNL d   1       3.079  -1.443   0.591  0.00  0.00     0.054 C 
ATOM      9  C   UNL d   1       3.957  -1.135   1.795  0.00  0.00     0.018 C 
ENDBRANCH   1   8
TORSDOF 1
ENDMDL
