MODEL 1
REMARK minimizedAffinity -4.03658533
REMARK minimizedRMSD -1
REMARK  1 active torsions:
REMARK  status: ('A' for Active; 'I' for Inactive)
REMARK    1  A    between atoms: C1_2  and  C2_3 
ROOT
ATOM      1  C2  UNL d   1       1.445  -0.326   0.780  0.00  0.00    -0.081 A 
ATOM      2  C3  UNL d   1       0.588   0.142  -0.225  0.00  0.00     0.006 A 
ATOM      3  C4  UNL d   1      -0.469   1.000   0.089  0.00  0.00     0.002 A 
ATOM      4  C5  UNL d   1      -0.682   1.410   1.409  0.00  0.00    -0.080 A 
ATOM      5  C6  UNL d   1      -1.795   2.354   1.754  0.00  0.00     0.076 C 
ATOM      6  C7  UNL d   1       0.162   0.929   2.415  0.00  0.00     0.002 A 
ATOM      7  C8  UNL d   1       1.219   0.071   2.102  0.00  0.00     0.006 A 
ENDROOT
BRANCH   1   8
ATOM      8  C1  UNL d   1       2.624  -1.199   0.436  0.00  0.00     0.054 C 
ATOM      9  C   UNL d   1       3.897  -0.697   1.103  0.00  0.00     0.018 C 
ENDBRANCH   1   8
TORSDOF 1
ENDMDL
