MODEL 1
REMARK minimizedAffinity -2.14414859
REMARK minimizedRMSD -1
REMARK  2 active torsions:
REMARK  status: ('A' for Active; 'I' for Inactive)
REMARK    1  A    between atoms: C2'_3  and  C1'_4 
REMARK    2  A    between atoms: C1'_4  and  C1_5 
ROOT
ATOM      1  C1  I4B d   1       0.135   1.402   0.608  0.00  0.00    -0.075 A 
ATOM      2  C2  I4B d   1      -0.059   0.424  -0.334  0.00  0.00     0.003 A 
ATOM      3  C3  I4B d   1      -0.542  -0.851   0.050  0.00  0.00     0.002 A 
ATOM      4  C4  I4B d   1      -0.767  -1.118   1.385  0.00  0.00    -0.004 A 
ATOM      5  C5  I4B d   1      -0.591  -0.118   2.337  0.00  0.00     0.002 A 
ATOM      6  C6  I4B d   1      -0.149   1.154   1.945  0.00  0.00     0.003 A 
ENDROOT
BRANCH   1   7
ATOM      7  C1' I4B d   1       0.677   2.726   0.172  0.00  0.00     0.060 C 
BRANCH   7   8
ATOM      8  C2' I4B d   1       2.187   2.674   0.288  0.00  0.00    -0.013 C 
ATOM      9  C4' I4B d   1       2.845   2.938  -1.040  0.00  0.00     0.013 C 
ATOM     10  C3' I4B d   1       2.608   3.686   1.312  0.00  0.00     0.013 C 
ENDBRANCH   7   8
ENDBRANCH   1   7
TORSDOF 2
ENDMDL
