MODEL 1
REMARK minimizedAffinity -2.16185141
REMARK minimizedRMSD -1
REMARK  2 active torsions:
REMARK  status: ('A' for Active; 'I' for Inactive)
REMARK    1  A    between atoms: C2'_3  and  C1'_4 
REMARK    2  A    between atoms: C1'_4  and  C1_5 
ROOT
ATOM      1  C1  I4B d   1      -0.209   0.900   0.378  0.00  0.00    -0.075 A 
ATOM      2  C2  I4B d   1       0.186   0.009  -0.588  0.00  0.00     0.003 A 
ATOM      3  C3  I4B d   1      -0.131  -1.365  -0.462  0.00  0.00     0.002 A 
ATOM      4  C4  I4B d   1      -0.796  -1.809   0.662  0.00  0.00    -0.004 A 
ATOM      5  C5  I4B d   1      -1.216  -0.901   1.630  0.00  0.00     0.002 A 
ATOM      6  C6  I4B d   1      -0.932   0.464   1.481  0.00  0.00     0.003 A 
ENDROOT
BRANCH   1   7
ATOM      7  C1' I4B d   1       0.171   2.339   0.230  0.00  0.00     0.060 C 
BRANCH   7   8
ATOM      8  C2' I4B d   1       1.448   2.568   1.013  0.00  0.00    -0.013 C 
ATOM      9  C4' I4B d   1       2.640   2.662   0.097  0.00  0.00     0.013 C 
ATOM     10  C3' I4B d   1       1.281   3.823   1.815  0.00  0.00     0.013 C 
ENDBRANCH   7   8
ENDBRANCH   1   7
TORSDOF 2
ENDMDL
