MODEL 1
REMARK minimizedAffinity -4.77633905
REMARK minimizedRMSD -1
REMARK  2 active torsions:
REMARK  status: ('A' for Active; 'I' for Inactive)
REMARK    1  A    between atoms: C2'_3  and  C1'_4 
REMARK    2  A    between atoms: C1'_4  and  C1_5 
ROOT
ATOM      1  C1  I4B d   1      -0.040   0.856   0.075  0.00  0.00    -0.075 A 
ATOM      2  C2  I4B d   1       0.497  -0.206  -0.610  0.00  0.00     0.003 A 
ATOM      3  C3  I4B d   1       0.228  -1.532  -0.193  0.00  0.00     0.002 A 
ATOM      4  C4  I4B d   1      -0.536  -1.748   0.935  0.00  0.00    -0.004 A 
ATOM      5  C5  I4B d   1      -1.099  -0.671   1.615  0.00  0.00     0.002 A 
ATOM      6  C6  I4B d   1      -0.860   0.639   1.175  0.00  0.00     0.003 A 
ENDROOT
BRANCH   1   7
ATOM      7  C1' I4B d   1       0.291   2.244  -0.373  0.00  0.00     0.060 C 
BRANCH   7   8
ATOM      8  C2' I4B d   1       1.752   2.499  -0.063  0.00  0.00    -0.013 C 
ATOM      9  C4' I4B d   1       2.524   2.835  -1.311  0.00  0.00     0.013 C 
ATOM     10  C3' I4B d   1       1.826   3.615   0.936  0.00  0.00     0.013 C 
ENDBRANCH   7   8
ENDBRANCH   1   7
TORSDOF 2
ENDMDL
