MODEL 1
REMARK minimizedAffinity -5.17691994
REMARK minimizedRMSD -1
REMARK  2 active torsions:
REMARK  status: ('A' for Active; 'I' for Inactive)
REMARK    1  A    between atoms: C2'_3  and  C1'_4 
REMARK    2  A    between atoms: C1'_4  and  C1_5 
ROOT
ATOM      1  C1  I4B d   1      -0.301   0.765   0.970  0.00  0.00    -0.075 A 
ATOM      2  C2  I4B d   1      -0.136   0.145   2.184  0.00  0.00     0.003 A 
ATOM      3  C3  I4B d   1      -0.492  -1.216   2.343  0.00  0.00     0.002 A 
ATOM      4  C4  I4B d   1      -1.054  -1.900   1.284  0.00  0.00    -0.004 A 
ATOM      5  C5  I4B d   1      -1.199  -1.276   0.048  0.00  0.00     0.002 A 
ATOM      6  C6  I4B d   1      -0.809   0.061  -0.114  0.00  0.00     0.003 A 
ENDROOT
BRANCH   1   7
ATOM      7  C1' I4B d   1       0.055   2.213   0.846  0.00  0.00     0.060 C 
BRANCH   7   8
ATOM      8  C2' I4B d   1       1.566   2.320   0.807  0.00  0.00    -0.013 C 
ATOM      9  C4' I4B d   1       2.027   3.083  -0.407  0.00  0.00     0.013 C 
ATOM     10  C3' I4B d   1       2.015   2.990   2.071  0.00  0.00     0.013 C 
ENDBRANCH   7   8
ENDBRANCH   1   7
TORSDOF 2
ENDMDL
