MODEL 1
REMARK minimizedAffinity -2.42693496
REMARK minimizedRMSD -1
REMARK  2 active torsions:
REMARK  status: ('A' for Active; 'I' for Inactive)
REMARK    1  A    between atoms: C2'_3  and  C1'_4 
REMARK    2  A    between atoms: C1'_4  and  C1_5 
ROOT
ATOM      1  C1  I4B d   1       0.100   1.224   0.021  0.00  0.00    -0.075 A 
ATOM      2  C2  I4B d   1       0.156   0.512  -1.151  0.00  0.00     0.003 A 
ATOM      3  C3  I4B d   1      -0.272  -0.837  -1.187  0.00  0.00     0.002 A 
ATOM      4  C4  I4B d   1      -0.700  -1.446  -0.025  0.00  0.00    -0.004 A 
ATOM      5  C5  I4B d   1      -0.779  -0.716   1.158  0.00  0.00     0.002 A 
ATOM      6  C6  I4B d   1      -0.388   0.631   1.179  0.00  0.00     0.003 A 
ENDROOT
BRANCH   1   7
ATOM      7  C1' I4B d   1       0.591   2.636   0.031  0.00  0.00     0.060 C 
BRANCH   7   8
ATOM      8  C2' I4B d   1       1.996   2.638   0.597  0.00  0.00    -0.013 C 
ATOM      9  C4' I4B d   1       3.024   2.785  -0.494  0.00  0.00     0.013 C 
ATOM     10  C3' I4B d   1       2.095   3.758   1.589  0.00  0.00     0.013 C 
ENDBRANCH   7   8
ENDBRANCH   1   7
TORSDOF 2
ENDMDL
