MODEL 1
REMARK minimizedAffinity -0.818805277
REMARK minimizedRMSD -1
REMARK  2 active torsions:
REMARK  status: ('A' for Active; 'I' for Inactive)
REMARK    1  A    between atoms: C2'_3  and  C1'_4 
REMARK    2  A    between atoms: C1'_4  and  C1_5 
ROOT
ATOM      1  C1  I4B d   1       0.049   0.333   0.401  0.00  0.00    -0.075 A 
ATOM      2  C2  I4B d   1      -0.526  -0.340   1.450  0.00  0.00     0.003 A 
ATOM      3  C3  I4B d   1      -0.728  -1.739   1.374  0.00  0.00     0.002 A 
ATOM      4  C4  I4B d   1      -0.388  -2.414   0.219  0.00  0.00    -0.004 A 
ATOM      5  C5  I4B d   1       0.216  -1.733  -0.834  0.00  0.00     0.002 A 
ATOM      6  C6  I4B d   1       0.448  -0.354  -0.739  0.00  0.00     0.003 A 
ENDROOT
BRANCH   1   7
ATOM      7  C1' I4B d   1       0.217   1.816   0.501  0.00  0.00     0.060 C 
BRANCH   7   8
ATOM      8  C2' I4B d   1       1.605   2.093   1.043  0.00  0.00    -0.013 C 
ATOM      9  C4' I4B d   1       2.609   2.223  -0.071  0.00  0.00     0.013 C 
ATOM     10  C3' I4B d   1       1.540   3.347   1.863  0.00  0.00     0.013 C 
ENDBRANCH   7   8
ENDBRANCH   1   7
TORSDOF 2
ENDMDL
