MODEL 1
REMARK minimizedAffinity -3.19088387
REMARK minimizedRMSD -1
REMARK  2 active torsions:
REMARK  status: ('A' for Active; 'I' for Inactive)
REMARK    1  A    between atoms: C2'_3  and  C1'_4 
REMARK    2  A    between atoms: C1'_4  and  C1_5 
ROOT
ATOM      1  C1  I4B d   1      -0.106  -0.908  -0.037  0.00  0.00    -0.075 A 
ATOM      2  C2  I4B d   1      -0.796  -1.918   0.586  0.00  0.00     0.003 A 
ATOM      3  C3  I4B d   1      -1.083  -3.118  -0.108  0.00  0.00     0.002 A 
ATOM      4  C4  I4B d   1      -0.709  -3.246  -1.430  0.00  0.00    -0.004 A 
ATOM      5  C5  I4B d   1       0.011  -2.230  -2.053  0.00  0.00     0.002 A 
ATOM      6  C6  I4B d   1       0.325  -1.058  -1.349  0.00  0.00     0.003 A 
ENDROOT
BRANCH   1   7
ATOM      7  C1' I4B d   1       0.151   0.359   0.715  0.00  0.00     0.060 C 
BRANCH   7   8
ATOM      8  C2' I4B d   1       0.466   1.445  -0.295  0.00  0.00    -0.013 C 
ATOM      9  C4' I4B d   1      -0.794   2.073  -0.830  0.00  0.00     0.013 C 
ATOM     10  C3' I4B d   1       1.336   2.465   0.379  0.00  0.00     0.013 C 
ENDBRANCH   7   8
ENDBRANCH   1   7
TORSDOF 2
ENDMDL
