MODEL 1
REMARK minimizedAffinity -3.34339738
REMARK minimizedRMSD -1
REMARK  2 active torsions:
REMARK  status: ('A' for Active; 'I' for Inactive)
REMARK    1  A    between atoms: C2'_3  and  C1'_4 
REMARK    2  A    between atoms: C1'_4  and  C1_5 
ROOT
ATOM      1  C1  I4B d   1      -0.202   0.783   0.225  0.00  0.00    -0.075 A 
ATOM      2  C2  I4B d   1       0.357  -0.258  -0.473  0.00  0.00     0.003 A 
ATOM      3  C3  I4B d   1      -0.051  -1.589  -0.217  0.00  0.00     0.002 A 
ATOM      4  C4  I4B d   1      -0.978  -1.836   0.776  0.00  0.00    -0.004 A 
ATOM      5  C5  I4B d   1      -1.560  -0.778   1.467  0.00  0.00     0.002 A 
ATOM      6  C6  I4B d   1      -1.179   0.541   1.182  0.00  0.00     0.003 A 
ENDROOT
BRANCH   1   7
ATOM      7  C1' I4B d   1       0.277   2.174  -0.048  0.00  0.00     0.060 C 
BRANCH   7   8
ATOM      8  C2' I4B d   1       1.710   2.277   0.433  0.00  0.00    -0.013 C 
ATOM      9  C4' I4B d   1       2.661   2.452  -0.722  0.00  0.00     0.013 C 
ATOM     10  C3' I4B d   1       1.797   3.433   1.385  0.00  0.00     0.013 C 
ENDBRANCH   7   8
ENDBRANCH   1   7
TORSDOF 2
ENDMDL
