MODEL 1
REMARK minimizedAffinity 0.281907886
REMARK minimizedRMSD -1
REMARK  2 active torsions:
REMARK  status: ('A' for Active; 'I' for Inactive)
REMARK    1  A    between atoms: C2'_3  and  C1'_4 
REMARK    2  A    between atoms: C1'_4  and  C1_5 
ROOT
ATOM      1  C1  I4B d   1       0.798   2.190   0.126  0.00  0.00    -0.075 A 
ATOM      2  C2  I4B d   1       0.179   2.929   1.103  0.00  0.00     0.003 A 
ATOM      3  C3  I4B d   1       0.945   3.737   1.979  0.00  0.00     0.002 A 
ATOM      4  C4  I4B d   1       2.321   3.736   1.875  0.00  0.00    -0.004 A 
ATOM      5  C5  I4B d   1       2.945   3.004   0.868  0.00  0.00     0.002 A 
ATOM      6  C6  I4B d   1       2.178   2.236  -0.019  0.00  0.00     0.003 A 
ENDROOT
BRANCH   1   7
ATOM      7  C1' I4B d   1      -0.039   1.323  -0.760  0.00  0.00     0.060 C 
BRANCH   7   8
ATOM      8  C2' I4B d   1      -0.073  -0.066  -0.156  0.00  0.00    -0.013 C 
ATOM      9  C4' I4B d   1      -1.293  -0.257   0.705  0.00  0.00     0.013 C 
ATOM     10  C3' I4B d   1      -0.043  -1.060  -1.279  0.00  0.00     0.013 C 
ENDBRANCH   7   8
ENDBRANCH   1   7
TORSDOF 2
ENDMDL
