MODEL 1
REMARK minimizedAffinity 1.15969944
REMARK minimizedRMSD -1
REMARK  2 active torsions:
REMARK  status: ('A' for Active; 'I' for Inactive)
REMARK    1  A    between atoms: C2'_3  and  C1'_4 
REMARK    2  A    between atoms: C1'_4  and  C1_5 
ROOT
ATOM      1  C1  I4B d   1       0.152  -1.129  -1.167  0.00  0.00    -0.075 A 
ATOM      2  C2  I4B d   1      -0.407  -1.941  -0.212  0.00  0.00     0.003 A 
ATOM      3  C3  I4B d   1      -0.910  -3.216  -0.567  0.00  0.00     0.002 A 
ATOM      4  C4  I4B d   1      -0.879  -3.616  -1.887  0.00  0.00    -0.004 A 
ATOM      5  C5  I4B d   1      -0.291  -2.801  -2.850  0.00  0.00     0.002 A 
ATOM      6  C6  I4B d   1       0.240  -1.554  -2.486  0.00  0.00     0.003 A 
ENDROOT
BRANCH   1   7
ATOM      7  C1' I4B d   1       0.644   0.225  -0.763  0.00  0.00     0.060 C 
BRANCH   7   8
ATOM      8  C2' I4B d   1       0.374   0.397   0.718  0.00  0.00    -0.013 C 
ATOM      9  C4' I4B d   1       1.272   1.447   1.317  0.00  0.00     0.013 C 
ATOM     10  C3' I4B d   1      -1.071   0.761   0.886  0.00  0.00     0.013 C 
ENDBRANCH   7   8
ENDBRANCH   1   7
TORSDOF 2
ENDMDL
