MODEL 1
REMARK minimizedAffinity 1.10967505
REMARK minimizedRMSD -1
REMARK  0 active torsions:
REMARK  status: ('A' for Active; 'I' for Inactive)
ROOT
ATOM      1  C   UNL d   1      -0.444  -1.169   2.475  0.00  0.00     0.124 A 
ATOM      2  C1  UNL d   1      -1.042  -0.462   1.441  0.00  0.00     0.062 A 
ATOM      3  C2  UNL d   1      -0.270   0.037   0.395  0.00  0.00     0.162 A 
ATOM      4  C3  UNL d   1       1.109  -0.170   0.378  0.00  0.00    -0.034 A 
ATOM      5  C4  UNL d   1       1.704  -0.881   1.422  0.00  0.00     0.162 A 
ATOM      6  C5  UNL d   1       0.928  -1.378   2.464  0.00  0.00     0.062 A 
ATOM      7  F   UNL d   1       1.508  -2.060   3.463  0.00  0.00    -0.097 F 
ATOM      8  F1  UNL d   1       3.027  -1.098   1.437  0.00  0.00    -0.096 F 
ATOM      9  I   UNL d   1       2.267   0.574  -1.183  0.00  0.00    -0.060 I 
ATOM     10  F2  UNL d   1      -0.875   0.716  -0.591  0.00  0.00    -0.096 F 
ATOM     11  F3  UNL d   1      -2.367  -0.258   1.449  0.00  0.00    -0.097 F 
ATOM     12  F4  UNL d   1      -1.189  -1.647   3.480  0.00  0.00    -0.092 F 
ENDROOT
TORSDOF 0
ENDMDL
