MODEL 1
REMARK minimizedAffinity -0.84454155
REMARK minimizedRMSD -1
REMARK  0 active torsions:
REMARK  status: ('A' for Active; 'I' for Inactive)
ROOT
ATOM      1  C   UNL d   1      -0.341  -0.593   1.761  0.00  0.00     0.124 A 
ATOM      2  C1  UNL d   1      -1.349  -0.356   0.836  0.00  0.00     0.062 A 
ATOM      3  C2  UNL d   1      -1.070   0.332  -0.342  0.00  0.00     0.162 A 
ATOM      4  C3  UNL d   1       0.222   0.788  -0.601  0.00  0.00    -0.034 A 
ATOM      5  C4  UNL d   1       1.230   0.548   0.334  0.00  0.00     0.162 A 
ATOM      6  C5  UNL d   1       0.946  -0.141   1.509  0.00  0.00     0.062 A 
ATOM      7  F   UNL d   1       1.921  -0.368   2.402  0.00  0.00    -0.097 F 
ATOM      8  F1  UNL d   1       2.483   0.973   0.116  0.00  0.00    -0.096 F 
ATOM      9  I   UNL d   1       0.642   1.818  -2.361  0.00  0.00    -0.060 I 
ATOM     10  F2  UNL d   1      -2.063   0.546  -1.218  0.00  0.00    -0.096 F 
ATOM     11  F3  UNL d   1      -2.594  -0.791   1.077  0.00  0.00    -0.097 F 
ATOM     12  F4  UNL d   1      -0.612  -1.254   2.893  0.00  0.00    -0.092 F 
ENDROOT
TORSDOF 0
ENDMDL
