MODEL 1
REMARK minimizedAffinity -4.05946255
REMARK minimizedRMSD -1
REMARK  0 active torsions:
REMARK  status: ('A' for Active; 'I' for Inactive)
ROOT
ATOM      1  C   UNL d   1       1.905  -1.150   1.616  0.00  0.00     0.124 A 
ATOM      2  C1  UNL d   1       0.719  -0.578   2.055  0.00  0.00     0.062 A 
ATOM      3  C2  UNL d   1      -0.189  -0.058   1.137  0.00  0.00     0.162 A 
ATOM      4  C3  UNL d   1       0.085  -0.107  -0.229  0.00  0.00    -0.034 A 
ATOM      5  C4  UNL d   1       1.280  -0.683  -0.663  0.00  0.00     0.162 A 
ATOM      6  C5  UNL d   1       2.185  -1.202   0.258  0.00  0.00     0.062 A 
ATOM      7  F   UNL d   1       3.330  -1.754  -0.169  0.00  0.00    -0.097 F 
ATOM      8  F1  UNL d   1       1.575  -0.747  -1.970  0.00  0.00    -0.096 F 
ATOM      9  I   UNL d   1      -1.270   0.670  -1.605  0.00  0.00    -0.060 I 
ATOM     10  F2  UNL d   1      -1.327   0.489   1.590  0.00  0.00    -0.096 F 
ATOM     11  F3  UNL d   1       0.447  -0.526   3.367  0.00  0.00    -0.097 F 
ATOM     12  F4  UNL d   1       2.777  -1.650   2.501  0.00  0.00    -0.092 F 
ENDROOT
TORSDOF 0
ENDMDL
