MODEL 1
REMARK minimizedAffinity 0.530016899
REMARK minimizedRMSD -1
REMARK  0 active torsions:
REMARK  status: ('A' for Active; 'I' for Inactive)
ROOT
ATOM      1  C   UNL d   1      -1.233   1.716  -2.066  0.00  0.00     0.124 A 
ATOM      2  C1  UNL d   1       0.064   1.669  -1.573  0.00  0.00     0.062 A 
ATOM      3  C2  UNL d   1       0.414   0.727  -0.610  0.00  0.00     0.162 A 
ATOM      4  C3  UNL d   1      -0.535  -0.178  -0.134  0.00  0.00    -0.034 A 
ATOM      5  C4  UNL d   1      -1.838  -0.124  -0.634  0.00  0.00     0.162 A 
ATOM      6  C5  UNL d   1      -2.182   0.820  -1.596  0.00  0.00     0.062 A 
ATOM      7  F   UNL d   1      -3.436   0.863  -2.070  0.00  0.00    -0.097 F 
ATOM      8  F1  UNL d   1      -2.775  -0.979  -0.198  0.00  0.00    -0.096 F 
ATOM      9  I   UNL d   1      -0.017  -1.589   1.305  0.00  0.00    -0.060 I 
ATOM     10  F2  UNL d   1       1.674   0.704  -0.152  0.00  0.00    -0.096 F 
ATOM     11  F3  UNL d   1       0.983   2.535  -2.025  0.00  0.00    -0.097 F 
ATOM     12  F4  UNL d   1      -1.567   2.625  -2.991  0.00  0.00    -0.092 F 
ENDROOT
TORSDOF 0
ENDMDL
