MODEL 1
REMARK minimizedAffinity -3.38865709
REMARK minimizedRMSD -1
REMARK  0 active torsions:
REMARK  status: ('A' for Active; 'I' for Inactive)
ROOT
ATOM      1  C   UNL d   1       1.474  -1.704   1.613  0.00  0.00     0.124 A 
ATOM      2  C1  UNL d   1       1.753  -2.016   0.290  0.00  0.00     0.062 A 
ATOM      3  C2  UNL d   1       1.033  -1.416  -0.738  0.00  0.00     0.162 A 
ATOM      4  C3  UNL d   1       0.026  -0.494  -0.447  0.00  0.00    -0.034 A 
ATOM      5  C4  UNL d   1      -0.249  -0.186   0.886  0.00  0.00     0.162 A 
ATOM      6  C5  UNL d   1       0.473  -0.789   1.910  0.00  0.00     0.062 A 
ATOM      7  F   UNL d   1       0.202  -0.485   3.188  0.00  0.00    -0.097 F 
ATOM      8  F1  UNL d   1      -1.210   0.696   1.201  0.00  0.00    -0.096 F 
ATOM      9  I   UNL d   1      -1.053   0.406  -1.982  0.00  0.00    -0.060 I 
ATOM     10  F2  UNL d   1       1.324  -1.737  -2.008  0.00  0.00    -0.096 F 
ATOM     11  F3  UNL d   1       2.719  -2.901   0.001  0.00  0.00    -0.097 F 
ATOM     12  F4  UNL d   1       2.168  -2.284   2.601  0.00  0.00    -0.092 F 
ENDROOT
TORSDOF 0
ENDMDL
