MODEL 1
REMARK minimizedAffinity 0.2232434
REMARK minimizedRMSD -1
REMARK  0 active torsions:
REMARK  status: ('A' for Active; 'I' for Inactive)
ROOT
ATOM      1  C   UNL d   1       2.174  -1.342   0.855  0.00  0.00     0.124 A 
ATOM      2  C1  UNL d   1       1.453  -1.546   2.024  0.00  0.00     0.062 A 
ATOM      3  C2  UNL d   1       0.076  -1.344   2.041  0.00  0.00     0.162 A 
ATOM      4  C3  UNL d   1      -0.590  -0.937   0.885  0.00  0.00    -0.034 A 
ATOM      5  C4  UNL d   1       0.142  -0.732  -0.286  0.00  0.00     0.162 A 
ATOM      6  C5  UNL d   1       1.518  -0.936  -0.298  0.00  0.00     0.062 A 
ATOM      7  F   UNL d   1       2.213  -0.738  -1.428  0.00  0.00    -0.097 F 
ATOM      8  F1  UNL d   1      -0.467  -0.340  -1.415  0.00  0.00    -0.096 F 
ATOM      9  I   UNL d   1      -2.649  -0.633   0.907  0.00  0.00    -0.060 I 
ATOM     10  F2  UNL d   1      -0.595  -1.549   3.184  0.00  0.00    -0.096 F 
ATOM     11  F3  UNL d   1       2.084  -1.938   3.140  0.00  0.00    -0.097 F 
ATOM     12  F4  UNL d   1       3.499  -1.537   0.842  0.00  0.00    -0.092 F 
ENDROOT
TORSDOF 0
ENDMDL
