MODEL 1
REMARK minimizedAffinity 1.78869045
REMARK minimizedRMSD -1
REMARK  0 active torsions:
REMARK  status: ('A' for Active; 'I' for Inactive)
ROOT
ATOM      1  C   UNL d   1      -0.338  -1.154   2.393  0.00  0.00     0.124 A 
ATOM      2  C1  UNL d   1       1.043  -1.281   2.462  0.00  0.00     0.062 A 
ATOM      3  C2  UNL d   1       1.816  -1.142   1.313  0.00  0.00     0.162 A 
ATOM      4  C3  UNL d   1       1.212  -0.874   0.085  0.00  0.00    -0.034 A 
ATOM      5  C4  UNL d   1      -0.177  -0.749   0.024  0.00  0.00     0.162 A 
ATOM      6  C5  UNL d   1      -0.946  -0.888   1.175  0.00  0.00     0.062 A 
ATOM      7  F   UNL d   1      -2.280  -0.765   1.106  0.00  0.00    -0.097 F 
ATOM      8  F1  UNL d   1      -0.792  -0.491  -1.141  0.00  0.00    -0.096 F 
ATOM      9  I   UNL d   1       2.365  -0.666  -1.635  0.00  0.00    -0.060 I 
ATOM     10  F2  UNL d   1       3.148  -1.270   1.409  0.00  0.00    -0.096 F 
ATOM     11  F3  UNL d   1       1.633  -1.538   3.638  0.00  0.00    -0.097 F 
ATOM     12  F4  UNL d   1      -1.080  -1.288   3.500  0.00  0.00    -0.092 F 
ENDROOT
TORSDOF 0
ENDMDL
