MODEL 1
REMARK minimizedAffinity 5.28311396
REMARK minimizedRMSD -1
REMARK  0 active torsions:
REMARK  status: ('A' for Active; 'I' for Inactive)
ROOT
ATOM      1  C   UNL d   1       1.003  -1.551   2.402  0.00  0.00     0.124 A 
ATOM      2  C1  UNL d   1      -0.380  -1.461   2.328  0.00  0.00     0.062 A 
ATOM      3  C2  UNL d   1      -0.978  -0.650   1.367  0.00  0.00     0.162 A 
ATOM      4  C3  UNL d   1      -0.192   0.077   0.472  0.00  0.00    -0.034 A 
ATOM      5  C4  UNL d   1       1.198  -0.019   0.554  0.00  0.00     0.162 A 
ATOM      6  C5  UNL d   1       1.790  -0.830   1.516  0.00  0.00     0.062 A 
ATOM      7  F   UNL d   1       3.127  -0.916   1.587  0.00  0.00    -0.097 F 
ATOM      8  F1  UNL d   1       1.983   0.666  -0.291  0.00  0.00    -0.096 F 
ATOM      9  I   UNL d   1      -1.082   1.290  -0.966  0.00  0.00    -0.060 I 
ATOM     10  F2  UNL d   1      -2.317  -0.582   1.318  0.00  0.00    -0.096 F 
ATOM     11  F3  UNL d   1      -1.143  -2.155   3.184  0.00  0.00    -0.097 F 
ATOM     12  F4  UNL d   1       1.575  -2.331   3.328  0.00  0.00    -0.092 F 
ENDROOT
TORSDOF 0
ENDMDL
