MODEL 1
REMARK minimizedAffinity 1.96113825
REMARK minimizedRMSD -1
REMARK  0 active torsions:
REMARK  status: ('A' for Active; 'I' for Inactive)
ROOT
ATOM      1  C   UNL d   1       0.152  -0.116  -1.822  0.00  0.00     0.124 A 
ATOM      2  C1  UNL d   1       1.241  -0.913  -1.498  0.00  0.00     0.062 A 
ATOM      3  C2  UNL d   1       1.403  -1.383  -0.198  0.00  0.00     0.162 A 
ATOM      4  C3  UNL d   1       0.472  -1.058   0.789  0.00  0.00    -0.034 A 
ATOM      5  C4  UNL d   1      -0.620  -0.255   0.456  0.00  0.00     0.162 A 
ATOM      6  C5  UNL d   1      -0.778   0.212  -0.845  0.00  0.00     0.062 A 
ATOM      7  F   UNL d   1      -1.831   0.981  -1.156  0.00  0.00    -0.097 F 
ATOM      8  F1  UNL d   1      -1.534   0.076   1.380  0.00  0.00    -0.096 F 
ATOM      9  I   UNL d   1       0.711  -1.758   2.734  0.00  0.00    -0.060 I 
ATOM     10  F2  UNL d   1       2.466  -2.150   0.087  0.00  0.00    -0.096 F 
ATOM     11  F3  UNL d   1       2.141  -1.230  -2.440  0.00  0.00    -0.097 F 
ATOM     12  F4  UNL d   1      -0.001   0.335  -3.073  0.00  0.00    -0.092 F 
ENDROOT
TORSDOF 0
ENDMDL
