MODEL 1
REMARK minimizedAffinity 2.16306829
REMARK minimizedRMSD -1
REMARK  0 active torsions:
REMARK  status: ('A' for Active; 'I' for Inactive)
ROOT
ATOM      1  C   UNL d   1      -2.374   2.652  -2.708  0.00  0.00     0.172 C 
ATOM      2  N   UNL d   1      -1.002   2.214  -2.603  0.00  0.00    -0.070 N 
ATOM      3  C1  UNL d   1      -0.525   1.292  -1.710  0.00  0.00    -0.004 A 
ATOM      4  C2  UNL d   1       0.828   1.151  -1.932  0.00  0.00    -0.047 A 
ATOM      5  C3  UNL d   1       1.176   2.019  -2.993  0.00  0.00    -0.047 A 
ATOM      6  C4  UNL d   1       0.024   2.665  -3.390  0.00  0.00    -0.004 A 
ENDROOT
TORSDOF 0
ENDMDL
