MODEL 1
REMARK minimizedAffinity -0.0162920114
REMARK minimizedRMSD -1
REMARK  0 active torsions:
REMARK  status: ('A' for Active; 'I' for Inactive)
ROOT
ATOM      1  C   UNL d   1       0.422  -2.636   2.455  0.00  0.00     0.172 C 
ATOM      2  N   UNL d   1       1.410  -3.441   1.776  0.00  0.00    -0.070 N 
ATOM      3  C1  UNL d   1       1.410  -4.808   1.700  0.00  0.00    -0.004 A 
ATOM      4  C2  UNL d   1       2.515  -5.191   0.970  0.00  0.00    -0.047 A 
ATOM      5  C3  UNL d   1       3.203  -4.012   0.596  0.00  0.00    -0.047 A 
ATOM      6  C4  UNL d   1       2.498  -2.944   1.108  0.00  0.00    -0.004 A 
ENDROOT
TORSDOF 0
ENDMDL
