MODEL 1
REMARK minimizedAffinity 3.08104753
REMARK minimizedRMSD -1
REMARK  0 active torsions:
REMARK  status: ('A' for Active; 'I' for Inactive)
ROOT
ATOM      1  C   UNL d   1       0.953  -1.523   1.840  0.00  0.00     0.172 C 
ATOM      2  N   UNL d   1       1.760  -2.717   1.936  0.00  0.00    -0.070 N 
ATOM      3  C1  UNL d   1       2.804  -2.906   2.802  0.00  0.00    -0.004 A 
ATOM      4  C2  UNL d   1       3.311  -4.169   2.582  0.00  0.00    -0.047 A 
ATOM      5  C3  UNL d   1       2.545  -4.758   1.548  0.00  0.00    -0.047 A 
ATOM      6  C4  UNL d   1       1.592  -3.837   1.167  0.00  0.00    -0.004 A 
ENDROOT
TORSDOF 0
ENDMDL
