MODEL 1
REMARK minimizedAffinity 1.1693325
REMARK minimizedRMSD -1
REMARK  0 active torsions:
REMARK  status: ('A' for Active; 'I' for Inactive)
ROOT
ATOM      1  C   UNL d   1       5.970   2.313  -4.097  0.00  0.00     0.172 C 
ATOM      2  N   UNL d   1       5.982   0.872  -4.196  0.00  0.00    -0.070 N 
ATOM      3  C1  UNL d   1       5.989   0.152  -5.361  0.00  0.00    -0.004 A 
ATOM      4  C2  UNL d   1       6.000  -1.186  -5.030  0.00  0.00    -0.047 A 
ATOM      5  C3  UNL d   1       5.999  -1.273  -3.618  0.00  0.00    -0.047 A 
ATOM      6  C4  UNL d   1       5.988   0.016  -3.127  0.00  0.00    -0.004 A 
ENDROOT
TORSDOF 0
ENDMDL
