MODEL 1
REMARK minimizedAffinity 3.27336383
REMARK minimizedRMSD -1
REMARK  0 active torsions:
REMARK  status: ('A' for Active; 'I' for Inactive)
ROOT
ATOM      1  C   UNL d   1      -1.144   2.821  -2.932  0.00  0.00     0.172 C 
ATOM      2  N   UNL d   1       0.069   2.058  -2.757  0.00  0.00    -0.070 N 
ATOM      3  C1  UNL d   1       1.075   1.936  -3.678  0.00  0.00    -0.004 A 
ATOM      4  C2  UNL d   1       2.051   1.130  -3.132  0.00  0.00    -0.047 A 
ATOM      5  C3  UNL d   1       1.616   0.754  -1.839  0.00  0.00    -0.047 A 
ATOM      6  C4  UNL d   1       0.386   1.342  -1.633  0.00  0.00    -0.004 A 
ENDROOT
TORSDOF 0
ENDMDL
