MODEL 1
REMARK minimizedAffinity 1.46490264
REMARK minimizedRMSD -1
REMARK  0 active torsions:
REMARK  status: ('A' for Active; 'I' for Inactive)
ROOT
ATOM      1  C   UNL d   1       1.767  -2.145   0.651  0.00  0.00     0.172 C 
ATOM      2  N   UNL d   1       0.751  -1.759   1.602  0.00  0.00    -0.070 N 
ATOM      3  C1  UNL d   1       0.840  -1.888   2.962  0.00  0.00    -0.004 A 
ATOM      4  C2  UNL d   1      -0.330  -1.406   3.510  0.00  0.00    -0.047 A 
ATOM      5  C3  UNL d   1      -1.151  -0.974   2.441  0.00  0.00    -0.047 A 
ATOM      6  C4  UNL d   1      -0.457  -1.204   1.272  0.00  0.00    -0.004 A 
ENDROOT
TORSDOF 0
ENDMDL
