MODEL 1
REMARK minimizedAffinity 2.62180734
REMARK minimizedRMSD -1
REMARK  0 active torsions:
REMARK  status: ('A' for Active; 'I' for Inactive)
ROOT
ATOM      1  C   UNL d   1      -3.314   2.473  -2.939  0.00  0.00     0.172 C 
ATOM      2  N   UNL d   1      -4.090   3.302  -3.832  0.00  0.00    -0.070 N 
ATOM      3  C1  UNL d   1      -5.159   4.079  -3.472  0.00  0.00    -0.004 A 
ATOM      4  C2  UNL d   1      -5.621   4.712  -4.606  0.00  0.00    -0.047 A 
ATOM      5  C3  UNL d   1      -4.802   4.299  -5.684  0.00  0.00    -0.047 A 
ATOM      6  C4  UNL d   1      -3.863   3.427  -5.177  0.00  0.00    -0.004 A 
ENDROOT
TORSDOF 0
ENDMDL
