MODEL 1
REMARK minimizedAffinity -1.74358034
REMARK minimizedRMSD -1
REMARK  0 active torsions:
REMARK  status: ('A' for Active; 'I' for Inactive)
ROOT
ATOM      1  C   UNL d   1       0.925  -1.522   0.101  0.00  0.00     0.172 C 
ATOM      2  N   UNL d   1       1.173  -0.488  -0.876  0.00  0.00    -0.070 N 
ATOM      3  C1  UNL d   1       1.726   0.738  -0.618  0.00  0.00    -0.004 A 
ATOM      4  C2  UNL d   1       1.793   1.430  -1.809  0.00  0.00    -0.047 A 
ATOM      5  C3  UNL d   1       1.262   0.590  -2.817  0.00  0.00    -0.047 A 
ATOM      6  C4  UNL d   1       0.886  -0.590  -2.212  0.00  0.00    -0.004 A 
ENDROOT
TORSDOF 0
ENDMDL
