MODEL 1
REMARK minimizedAffinity -0.306983709
REMARK minimizedRMSD -1
REMARK  1 active torsions:
REMARK  status: ('A' for Active; 'I' for Inactive)
REMARK    1  A    between atoms: C3_4  and  O_7 
ROOT
ATOM      1  C   UNL d   1       0.422  -0.514   0.009  0.00  0.00    -0.033 A 
ATOM      2  C1  UNL d   1       0.295  -0.219  -1.350  0.00  0.00     0.039 A 
ATOM      3  C2  UNL d   1       0.937   0.898  -1.887  0.00  0.00    -0.080 A 
ATOM      4  C3  UNL d   1       1.702   1.712  -1.055  0.00  0.00     0.150 A 
ATOM      5  C4  UNL d   1       1.836   1.422   0.298  0.00  0.00    -0.007 A 
ATOM      6  C5  UNL d   1       1.194   0.306   0.833  0.00  0.00     0.039 A 
ENDROOT
BRANCH   4   7
ATOM      7  O   UNL d   1       2.343   2.816  -1.533  0.00  0.00    -0.526 OA
ATOM      8  H5  UNL d   1       2.137   2.907  -2.478  0.00  0.00     0.418 HD
ENDBRANCH   4   7
TORSDOF 1
ENDMDL
