MODEL 1
REMARK minimizedAffinity 3.98729682
REMARK minimizedRMSD -1
REMARK  1 active torsions:
REMARK  status: ('A' for Active; 'I' for Inactive)
REMARK    1  A    between atoms: C3_4  and  O_7 
ROOT
ATOM      1  C   UNL d   1       4.629  -0.675  -0.907  0.00  0.00    -0.033 A 
ATOM      2  C1  UNL d   1       3.370  -0.501  -1.484  0.00  0.00     0.039 A 
ATOM      3  C2  UNL d   1       2.221  -0.578  -0.694  0.00  0.00    -0.080 A 
ATOM      4  C3  UNL d   1       2.345  -0.828   0.670  0.00  0.00     0.150 A 
ATOM      5  C4  UNL d   1       3.597  -0.999   1.252  0.00  0.00    -0.007 A 
ATOM      6  C5  UNL d   1       4.743  -0.922   0.462  0.00  0.00     0.039 A 
ENDROOT
BRANCH   4   7
ATOM      7  O   UNL d   1       1.253  -0.917   1.481  0.00  0.00    -0.526 OA
ATOM      8  H5  UNL d   1       0.456  -0.807   0.936  0.00  0.00     0.418 HD
ENDBRANCH   4   7
TORSDOF 1
ENDMDL
