MODEL 1
REMARK minimizedAffinity 5.56776571
REMARK minimizedRMSD -1
REMARK  1 active torsions:
REMARK  status: ('A' for Active; 'I' for Inactive)
REMARK    1  A    between atoms: C3_4  and  O_7 
ROOT
ATOM      1  C   UNL d   1       2.074   0.104   2.111  0.00  0.00    -0.033 A 
ATOM      2  C1  UNL d   1       1.461   1.016   2.972  0.00  0.00     0.039 A 
ATOM      3  C2  UNL d   1       0.081   1.218   2.911  0.00  0.00    -0.080 A 
ATOM      4  C3  UNL d   1      -0.674   0.502   1.985  0.00  0.00     0.150 A 
ATOM      5  C4  UNL d   1      -0.070  -0.410   1.127  0.00  0.00    -0.007 A 
ATOM      6  C5  UNL d   1       1.308  -0.610   1.189  0.00  0.00     0.039 A 
ENDROOT
BRANCH   4   7
ATOM      7  O   UNL d   1      -2.023   0.669   1.885  0.00  0.00    -0.526 OA
ATOM      8  H5  UNL d   1      -2.297   1.352   2.520  0.00  0.00     0.418 HD
ENDBRANCH   4   7
TORSDOF 1
ENDMDL
