MODEL 1
REMARK minimizedAffinity 8.91669273
REMARK minimizedRMSD -1
REMARK  1 active torsions:
REMARK  status: ('A' for Active; 'I' for Inactive)
REMARK    1  A    between atoms: C3_4  and  O_7 
ROOT
ATOM      1  C   UNL d   1       0.089   1.183   2.587  0.00  0.00    -0.033 A 
ATOM      2  C1  UNL d   1      -0.465  -0.014   2.131  0.00  0.00     0.039 A 
ATOM      3  C2  UNL d   1       0.115  -1.234   2.486  0.00  0.00    -0.080 A 
ATOM      4  C3  UNL d   1       1.246  -1.242   3.298  0.00  0.00     0.150 A 
ATOM      5  C4  UNL d   1       1.801  -0.052   3.759  0.00  0.00    -0.007 A 
ATOM      6  C5  UNL d   1       1.221   1.164   3.402  0.00  0.00     0.039 A 
ENDROOT
BRANCH   4   7
ATOM      7  O   UNL d   1       1.850  -2.407   3.667  0.00  0.00    -0.526 OA
ATOM      8  H5  UNL d   1       1.374  -3.145   3.251  0.00  0.00     0.418 HD
ENDBRANCH   4   7
TORSDOF 1
ENDMDL
