MODEL 1
REMARK minimizedAffinity 6.15467596
REMARK minimizedRMSD -1
REMARK  1 active torsions:
REMARK  status: ('A' for Active; 'I' for Inactive)
REMARK    1  A    between atoms: C3_4  and  O_7 
ROOT
ATOM      1  C   UNL d   1       0.406  -0.511   2.174  0.00  0.00    -0.033 A 
ATOM      2  C1  UNL d   1      -0.891  -0.460   2.688  0.00  0.00     0.039 A 
ATOM      3  C2  UNL d   1      -1.354   0.703   3.305  0.00  0.00    -0.080 A 
ATOM      4  C3  UNL d   1      -0.512   1.808   3.401  0.00  0.00     0.150 A 
ATOM      5  C4  UNL d   1       0.780   1.766   2.888  0.00  0.00    -0.007 A 
ATOM      6  C5  UNL d   1       1.241   0.602   2.273  0.00  0.00     0.039 A 
ENDROOT
BRANCH   4   7
ATOM      7  O   UNL d   1      -0.919   2.964   3.999  0.00  0.00    -0.526 OA
ATOM      8  H5  UNL d   1      -1.823   2.837   4.331  0.00  0.00     0.418 HD
ENDBRANCH   4   7
TORSDOF 1
ENDMDL
