MODEL 1
REMARK minimizedAffinity 4.65421438
REMARK minimizedRMSD -1
REMARK  1 active torsions:
REMARK  status: ('A' for Active; 'I' for Inactive)
REMARK    1  A    between atoms: C3_4  and  O_7 
ROOT
ATOM      1  C   UNL d   1       3.036  -0.889   0.628  0.00  0.00    -0.033 A 
ATOM      2  C1  UNL d   1       2.065  -0.108   1.258  0.00  0.00     0.039 A 
ATOM      3  C2  UNL d   1       1.724   1.141   0.735  0.00  0.00    -0.080 A 
ATOM      4  C3  UNL d   1       2.359   1.595  -0.418  0.00  0.00     0.150 A 
ATOM      5  C4  UNL d   1       3.324   0.820  -1.053  0.00  0.00    -0.007 A 
ATOM      6  C5  UNL d   1       3.664  -0.426  -0.528  0.00  0.00     0.039 A 
ENDROOT
BRANCH   4   7
ATOM      7  O   UNL d   1       2.063   2.809  -0.963  0.00  0.00    -0.526 OA
ATOM      8  H5  UNL d   1       1.400   3.245  -0.402  0.00  0.00     0.418 HD
ENDBRANCH   4   7
TORSDOF 1
ENDMDL
