MODEL 1
REMARK minimizedAffinity 3.22672629
REMARK minimizedRMSD -1
REMARK  0 active torsions:
REMARK  status: ('A' for Active; 'I' for Inactive)
ROOT
ATOM      1  C   UNL d   1      -0.316  -0.840   2.915  0.00  0.00     0.172 C 
ATOM      2  N   UNL d   1      -0.917  -0.501   1.647  0.00  0.00    -0.070 N 
ATOM      3  C1  UNL d   1      -0.321  -0.627   0.421  0.00  0.00    -0.004 A 
ATOM      4  C2  UNL d   1      -1.220  -0.200  -0.532  0.00  0.00    -0.047 A 
ATOM      5  C3  UNL d   1      -2.397   0.197   0.145  0.00  0.00    -0.047 A 
ATOM      6  C4  UNL d   1      -2.183   0.001   1.493  0.00  0.00    -0.004 A 
ENDROOT
TORSDOF 0
ENDMDL
