MODEL 1
REMARK minimizedAffinity -1.45701218
REMARK minimizedRMSD -1
REMARK  0 active torsions:
REMARK  status: ('A' for Active; 'I' for Inactive)
ROOT
ATOM      1  C   UNL d   1       1.485  -3.952   1.835  0.00  0.00     0.172 C 
ATOM      2  N   UNL d   1       0.618  -2.799   1.910  0.00  0.00    -0.070 N 
ATOM      3  C1  UNL d   1      -0.239  -2.510   2.938  0.00  0.00    -0.004 A 
ATOM      4  C2  UNL d   1      -0.883  -1.331   2.632  0.00  0.00    -0.047 A 
ATOM      5  C3  UNL d   1      -0.397  -0.897   1.376  0.00  0.00    -0.047 A 
ATOM      6  C4  UNL d   1       0.531  -1.824   0.952  0.00  0.00    -0.004 A 
ENDROOT
TORSDOF 0
ENDMDL
