MODEL 1
REMARK minimizedAffinity -1.26789927
REMARK minimizedRMSD -1
REMARK  0 active torsions:
REMARK  status: ('A' for Active; 'I' for Inactive)
ROOT
ATOM      1  C   UNL d   1       3.745   5.985   5.996  0.00  0.00     0.172 C 
ATOM      2  N   UNL d   1       2.475   5.379   5.672  0.00  0.00    -0.070 N 
ATOM      3  C1  UNL d   1       2.091   4.106   6.000  0.00  0.00    -0.004 A 
ATOM      4  C2  UNL d   1       0.817   3.911   5.514  0.00  0.00    -0.047 A 
ATOM      5  C3  UNL d   1       0.421   5.108   4.871  0.00  0.00    -0.047 A 
ATOM      6  C4  UNL d   1       1.467   6.000   4.983  0.00  0.00    -0.004 A 
ENDROOT
TORSDOF 0
ENDMDL
