MODEL 1
REMARK minimizedAffinity 0.53472203
REMARK minimizedRMSD -1
REMARK  0 active torsions:
REMARK  status: ('A' for Active; 'I' for Inactive)
ROOT
ATOM      1  C   UNL d   1       4.716  -5.703   1.508  0.00  0.00     0.172 C 
ATOM      2  N   UNL d   1       3.391  -5.226   1.824  0.00  0.00    -0.070 N 
ATOM      3  C1  UNL d   1       2.624  -5.641   2.880  0.00  0.00    -0.004 A 
ATOM      4  C2  UNL d   1       1.432  -4.951   2.834  0.00  0.00    -0.047 A 
ATOM      5  C3  UNL d   1       1.484  -4.092   1.711  0.00  0.00    -0.047 A 
ATOM      6  C4  UNL d   1       2.707  -4.283   1.104  0.00  0.00    -0.004 A 
ENDROOT
TORSDOF 0
ENDMDL
