MODEL 1
REMARK minimizedAffinity -2.57016921
REMARK minimizedRMSD -1
REMARK  0 active torsions:
REMARK  status: ('A' for Active; 'I' for Inactive)
ROOT
ATOM      1  C   UNL d   1      -1.751  -3.936   3.255  0.00  0.00     0.172 C 
ATOM      2  N   UNL d   1      -0.431  -3.786   2.690  0.00  0.00    -0.070 N 
ATOM      3  C1  UNL d   1       0.639  -4.605   2.932  0.00  0.00    -0.004 A 
ATOM      4  C2  UNL d   1       1.710  -4.126   2.208  0.00  0.00    -0.047 A 
ATOM      5  C3  UNL d   1       1.268  -2.979   1.507  0.00  0.00    -0.047 A 
ATOM      6  C4  UNL d   1      -0.061  -2.791   1.824  0.00  0.00    -0.004 A 
ENDROOT
TORSDOF 0
ENDMDL
