MODEL 1
REMARK minimizedAffinity 1.09583867
REMARK minimizedRMSD -1
REMARK  0 active torsions:
REMARK  status: ('A' for Active; 'I' for Inactive)
ROOT
ATOM      1  C   UNL d   1       0.442   3.710  -3.482  0.00  0.00     0.172 C 
ATOM      2  N   UNL d   1       1.646   2.939  -3.275  0.00  0.00    -0.070 N 
ATOM      3  C1  UNL d   1       2.709   3.312  -2.497  0.00  0.00    -0.004 A 
ATOM      4  C2  UNL d   1       3.651   2.308  -2.561  0.00  0.00    -0.047 A 
ATOM      5  C3  UNL d   1       3.137   1.298  -3.408  0.00  0.00    -0.047 A 
ATOM      6  C4  UNL d   1       1.894   1.714  -3.837  0.00  0.00    -0.004 A 
ENDROOT
TORSDOF 0
ENDMDL
