MODEL 1
REMARK minimizedAffinity -0.260136902
REMARK minimizedRMSD -1
REMARK  0 active torsions:
REMARK  status: ('A' for Active; 'I' for Inactive)
ROOT
ATOM      1  C   UNL d   1      -0.740  -2.055   3.018  0.00  0.00     0.172 C 
ATOM      2  N   UNL d   1      -1.024  -1.100   1.972  0.00  0.00    -0.070 N 
ATOM      3  C1  UNL d   1      -0.117  -0.246   1.404  0.00  0.00    -0.004 A 
ATOM      4  C2  UNL d   1      -0.778   0.497   0.450  0.00  0.00    -0.047 A 
ATOM      5  C3  UNL d   1      -2.129   0.075   0.445  0.00  0.00    -0.047 A 
ATOM      6  C4  UNL d   1      -2.253  -0.915   1.397  0.00  0.00    -0.004 A 
ENDROOT
TORSDOF 0
ENDMDL
