MODEL 1
REMARK minimizedAffinity -0.668053508
REMARK minimizedRMSD -1
REMARK  0 active torsions:
REMARK  status: ('A' for Active; 'I' for Inactive)
ROOT
ATOM      1  C   UNL d   1      -0.258   0.132  -0.625  0.00  0.00     0.172 C 
ATOM      2  N   UNL d   1       0.371   1.108  -1.484  0.00  0.00    -0.070 N 
ATOM      3  C1  UNL d   1      -0.237   2.213  -2.016  0.00  0.00    -0.004 A 
ATOM      4  C2  UNL d   1       0.698   2.885  -2.774  0.00  0.00    -0.047 A 
ATOM      5  C3  UNL d   1       1.909   2.158  -2.695  0.00  0.00    -0.047 A 
ATOM      6  C4  UNL d   1       1.678   1.062  -1.890  0.00  0.00    -0.004 A 
ENDROOT
TORSDOF 0
ENDMDL
