MODEL 1
REMARK minimizedAffinity 0.38957119
REMARK minimizedRMSD -1
REMARK  0 active torsions:
REMARK  status: ('A' for Active; 'I' for Inactive)
ROOT
ATOM      1  C   UNL d   1      -3.493  -0.194  -5.603  0.00  0.00     0.077 C 
ATOM      2  C1  UNL d   1      -3.012   0.883  -4.677  0.00  0.00    -0.074 A 
ATOM      3  C2  UNL d   1      -3.748   1.236  -3.541  0.00  0.00    -0.005 A 
ATOM      4  C3  UNL d   1      -3.283   2.234  -2.685  0.00  0.00     0.006 A 
ATOM      5  C4  UNL d   1      -2.081   2.888  -2.954  0.00  0.00    -0.005 A 
ATOM      6  C5  UNL d   1      -1.331   2.548  -4.085  0.00  0.00    -0.074 A 
ATOM      7  C6  UNL d   1      -0.031   3.234  -4.384  0.00  0.00     0.077 C 
ATOM      8  C7  UNL d   1      -1.801   1.540  -4.937  0.00  0.00    -0.001 A 
ENDROOT
TORSDOF 0
ENDMDL
