MODEL 1
REMARK minimizedAffinity 1.01915133
REMARK minimizedRMSD -1
REMARK  0 active torsions:
REMARK  status: ('A' for Active; 'I' for Inactive)
ROOT
ATOM      1  C   UNL d   1       2.167  -2.925   0.754  0.00  0.00     0.077 C 
ATOM      2  C1  UNL d   1       1.011  -2.227   1.407  0.00  0.00    -0.074 A 
ATOM      3  C2  UNL d   1       0.790  -0.861   1.207  0.00  0.00    -0.005 A 
ATOM      4  C3  UNL d   1      -0.294  -0.227   1.813  0.00  0.00     0.006 A 
ATOM      5  C4  UNL d   1      -1.167  -0.952   2.625  0.00  0.00    -0.005 A 
ATOM      6  C5  UNL d   1      -0.963  -2.320   2.836  0.00  0.00    -0.074 A 
ATOM      7  C6  UNL d   1      -1.898  -3.116   3.697  0.00  0.00     0.077 C 
ATOM      8  C7  UNL d   1       0.125  -2.951   2.217  0.00  0.00    -0.001 A 
ENDROOT
TORSDOF 0
ENDMDL
