MODEL 1
REMARK minimizedAffinity 6.91810656
REMARK minimizedRMSD -1
REMARK  0 active torsions:
REMARK  status: ('A' for Active; 'I' for Inactive)
ROOT
ATOM      1  C   UNL d   1      -1.057   0.571  -0.285  0.00  0.00     0.077 C 
ATOM      2  C1  UNL d   1      -0.935  -0.188   1.003  0.00  0.00    -0.074 A 
ATOM      3  C2  UNL d   1      -1.669   0.190   2.132  0.00  0.00    -0.005 A 
ATOM      4  C3  UNL d   1      -1.551  -0.531   3.320  0.00  0.00     0.006 A 
ATOM      5  C4  UNL d   1      -0.701  -1.635   3.392  0.00  0.00    -0.005 A 
ATOM      6  C5  UNL d   1       0.041  -2.028   2.273  0.00  0.00    -0.074 A 
ATOM      7  C6  UNL d   1       0.952  -3.217   2.329  0.00  0.00     0.077 C 
ATOM      8  C7  UNL d   1      -0.088  -1.302   1.080  0.00  0.00    -0.001 A 
ENDROOT
TORSDOF 0
ENDMDL
