MODEL 1
REMARK minimizedAffinity 6.10194778
REMARK minimizedRMSD -1
REMARK  0 active torsions:
REMARK  status: ('A' for Active; 'I' for Inactive)
ROOT
ATOM      1  C   UNL d   1       5.999   0.310   0.728  0.00  0.00     0.077 C 
ATOM      2  C1  UNL d   1       5.223   1.500   0.247  0.00  0.00    -0.074 A 
ATOM      3  C2  UNL d   1       4.568   1.479  -0.989  0.00  0.00    -0.005 A 
ATOM      4  C3  UNL d   1       3.842   2.589  -1.419  0.00  0.00     0.006 A 
ATOM      5  C4  UNL d   1       3.763   3.730  -0.619  0.00  0.00    -0.005 A 
ATOM      6  C5  UNL d   1       4.411   3.769   0.620  0.00  0.00    -0.074 A 
ATOM      7  C6  UNL d   1       4.329   4.984   1.496  0.00  0.00     0.077 C 
ATOM      8  C7  UNL d   1       5.133   2.647   1.048  0.00  0.00    -0.001 A 
ENDROOT
TORSDOF 0
ENDMDL
