MODEL 1
REMARK minimizedAffinity -0.209317923
REMARK minimizedRMSD -1
REMARK  0 active torsions:
REMARK  status: ('A' for Active; 'I' for Inactive)
ROOT
ATOM      1  C   UNL d   1       5.476  -6.000  -0.592  0.00  0.00     0.077 C 
ATOM      2  C1  UNL d   1       4.761  -5.380   0.572  0.00  0.00    -0.074 A 
ATOM      3  C2  UNL d   1       5.263  -5.502   1.872  0.00  0.00    -0.005 A 
ATOM      4  C3  UNL d   1       4.592  -4.912   2.943  0.00  0.00     0.006 A 
ATOM      5  C4  UNL d   1       3.415  -4.195   2.725  0.00  0.00    -0.005 A 
ATOM      6  C5  UNL d   1       2.899  -4.061   1.433  0.00  0.00    -0.074 A 
ATOM      7  C6  UNL d   1       1.640  -3.285   1.180  0.00  0.00     0.077 C 
ATOM      8  C7  UNL d   1       3.582  -4.651   0.361  0.00  0.00    -0.001 A 
ENDROOT
TORSDOF 0
ENDMDL
