MODEL 1
REMARK minimizedAffinity 1.16764808
REMARK minimizedRMSD -1
REMARK  0 active torsions:
REMARK  status: ('A' for Active; 'I' for Inactive)
ROOT
ATOM      1  C   UNL d   1       0.400  -2.104   3.541  0.00  0.00     0.077 C 
ATOM      2  C1  UNL d   1      -0.323  -1.481   2.384  0.00  0.00    -0.074 A 
ATOM      3  C2  UNL d   1       0.223  -1.510   1.096  0.00  0.00    -0.005 A 
ATOM      4  C3  UNL d   1      -0.466  -0.934   0.028  0.00  0.00     0.006 A 
ATOM      5  C4  UNL d   1      -1.704  -0.326   0.236  0.00  0.00    -0.005 A 
ATOM      6  C5  UNL d   1      -2.265  -0.288   1.517  0.00  0.00    -0.074 A 
ATOM      7  C6  UNL d   1      -3.600   0.353   1.756  0.00  0.00     0.077 C 
ATOM      8  C7  UNL d   1      -1.571  -0.875   2.584  0.00  0.00    -0.001 A 
ENDROOT
TORSDOF 0
ENDMDL
