MODEL 1
REMARK minimizedAffinity -2.08687568
REMARK minimizedRMSD -1
REMARK  0 active torsions:
REMARK  status: ('A' for Active; 'I' for Inactive)
ROOT
ATOM      1  C   UNL d   1       0.967  -2.245   2.804  0.00  0.00     0.077 C 
ATOM      2  C1  UNL d   1       0.115  -1.560   1.777  0.00  0.00    -0.074 A 
ATOM      3  C2  UNL d   1       0.616  -1.272   0.504  0.00  0.00    -0.005 A 
ATOM      4  C3  UNL d   1      -0.191  -0.643  -0.444  0.00  0.00     0.006 A 
ATOM      5  C4  UNL d   1      -1.505  -0.296  -0.128  0.00  0.00    -0.005 A 
ATOM      6  C5  UNL d   1      -2.024  -0.577   1.140  0.00  0.00    -0.074 A 
ATOM      7  C6  UNL d   1      -3.438  -0.219   1.492  0.00  0.00     0.077 C 
ATOM      8  C7  UNL d   1      -1.209  -1.215   2.084  0.00  0.00    -0.001 A 
ENDROOT
TORSDOF 0
ENDMDL
