MODEL 1
REMARK minimizedAffinity -2.668293
REMARK minimizedRMSD -1
REMARK  0 active torsions:
REMARK  status: ('A' for Active; 'I' for Inactive)
ROOT
ATOM      1  C   UNL d   1      -0.598  -1.288   2.938  0.00  0.00     0.077 C 
ATOM      2  C1  UNL d   1      -0.253  -2.721   2.659  0.00  0.00    -0.074 A 
ATOM      3  C2  UNL d   1      -1.146  -3.750   2.975  0.00  0.00    -0.005 A 
ATOM      4  C3  UNL d   1      -0.816  -5.077   2.701  0.00  0.00     0.006 A 
ATOM      5  C4  UNL d   1       0.409  -5.388   2.109  0.00  0.00    -0.005 A 
ATOM      6  C5  UNL d   1       1.315  -4.373   1.786  0.00  0.00    -0.074 A 
ATOM      7  C6  UNL d   1       2.631  -4.689   1.141  0.00  0.00     0.077 C 
ATOM      8  C7  UNL d   1       0.972  -3.041   2.058  0.00  0.00    -0.001 A 
ENDROOT
TORSDOF 0
ENDMDL
