MODEL 1
REMARK minimizedAffinity 8.42427731
REMARK minimizedRMSD -1
REMARK  2 active torsions:
REMARK  status: ('A' for Active; 'I' for Inactive)
REMARK    1  A    between atoms: C2'_3  and  C1'_4 
REMARK    2  A    between atoms: C1'_4  and  C1_5 
ROOT
ATOM      1  C1  I4B d   1      -1.917   0.598   1.734  0.00  0.00    -0.075 A 
ATOM      2  C2  I4B d   1      -0.787   0.453   0.969  0.00  0.00     0.003 A 
ATOM      3  C3  I4B d   1      -0.893   0.231  -0.425  0.00  0.00     0.002 A 
ATOM      4  C4  I4B d   1      -2.142   0.110  -1.001  0.00  0.00    -0.004 A 
ATOM      5  C5  I4B d   1      -3.286   0.280  -0.227  0.00  0.00     0.002 A 
ATOM      6  C6  I4B d   1      -3.174   0.538   1.147  0.00  0.00     0.003 A 
ENDROOT
BRANCH   1   7
ATOM      7  C1' I4B d   1      -1.768   0.799   3.209  0.00  0.00     0.060 C 
BRANCH   7   8
ATOM      8  C2' I4B d   1      -1.717  -0.566   3.864  0.00  0.00    -0.013 C 
ATOM      9  C4' I4B d   1      -2.738  -1.497   3.265  0.00  0.00     0.013 C 
ATOM     10  C3' I4B d   1      -0.328  -1.107   3.697  0.00  0.00     0.013 C 
ENDBRANCH   7   8
ENDBRANCH   1   7
TORSDOF 2
ENDMDL
