MODEL 1
REMARK minimizedAffinity 5.90816641
REMARK minimizedRMSD -1
REMARK  2 active torsions:
REMARK  status: ('A' for Active; 'I' for Inactive)
REMARK    1  A    between atoms: C2'_3  and  C1'_4 
REMARK    2  A    between atoms: C1'_4  and  C1_5 
ROOT
ATOM      1  C1  I4B d   1      -0.894  -0.358   1.096  0.00  0.00    -0.075 A 
ATOM      2  C2  I4B d   1       0.471  -0.499   1.126  0.00  0.00     0.003 A 
ATOM      3  C3  I4B d   1       1.163  -0.969  -0.017  0.00  0.00     0.002 A 
ATOM      4  C4  I4B d   1       0.451  -1.332  -1.142  0.00  0.00    -0.004 A 
ATOM      5  C5  I4B d   1      -0.930  -1.166  -1.177  0.00  0.00     0.002 A 
ATOM      6  C6  I4B d   1      -1.607  -0.664  -0.056  0.00  0.00     0.003 A 
ENDROOT
BRANCH   1   7
ATOM      7  C1' I4B d   1      -1.597   0.110   2.331  0.00  0.00     0.060 C 
BRANCH   7   8
ATOM      8  C2' I4B d   1      -1.744  -1.076   3.262  0.00  0.00    -0.013 C 
ATOM      9  C4' I4B d   1      -1.057  -0.825   4.578  0.00  0.00     0.013 C 
ATOM     10  C3' I4B d   1      -3.209  -1.333   3.457  0.00  0.00     0.013 C 
ENDBRANCH   7   8
ENDBRANCH   1   7
TORSDOF 2
ENDMDL
