MODEL 1
REMARK minimizedAffinity 5.41554594
REMARK minimizedRMSD -1
REMARK  2 active torsions:
REMARK  status: ('A' for Active; 'I' for Inactive)
REMARK    1  A    between atoms: C2'_3  and  C1'_4 
REMARK    2  A    between atoms: C1'_4  and  C1_5 
ROOT
ATOM      1  C1  I4B d   1       0.224   0.147   1.231  0.00  0.00    -0.075 A 
ATOM      2  C2  I4B d   1      -0.216  -0.020   2.520  0.00  0.00     0.003 A 
ATOM      3  C3  I4B d   1      -1.596   0.080   2.821  0.00  0.00     0.002 A 
ATOM      4  C4  I4B d   1      -2.489   0.397   1.818  0.00  0.00    -0.004 A 
ATOM      5  C5  I4B d   1      -2.044   0.544   0.507  0.00  0.00     0.002 A 
ATOM      6  C6  I4B d   1      -0.681   0.406   0.209  0.00  0.00     0.003 A 
ENDROOT
BRANCH   1   7
ATOM      7  C1' I4B d   1       1.692   0.067   0.954  0.00  0.00     0.060 C 
BRANCH   7   8
ATOM      8  C2' I4B d   1       2.266   1.464   1.073  0.00  0.00    -0.013 C 
ATOM      9  C4' I4B d   1       3.142   1.591   2.291  0.00  0.00     0.013 C 
ATOM     10  C3' I4B d   1       3.036   1.757  -0.180  0.00  0.00     0.013 C 
ENDBRANCH   7   8
ENDBRANCH   1   7
TORSDOF 2
ENDMDL
