MODEL 1
REMARK minimizedAffinity 1.6727047
REMARK minimizedRMSD -1
REMARK  2 active torsions:
REMARK  status: ('A' for Active; 'I' for Inactive)
REMARK    1  A    between atoms: C2'_3  and  C1'_4 
REMARK    2  A    between atoms: C1'_4  and  C1_5 
ROOT
ATOM      1  C1  I4B d   1       0.047  -0.218   2.210  0.00  0.00    -0.075 A 
ATOM      2  C2  I4B d   1       0.316  -0.416   0.879  0.00  0.00     0.003 A 
ATOM      3  C3  I4B d   1      -0.680  -0.160  -0.095  0.00  0.00     0.002 A 
ATOM      4  C4  I4B d   1      -1.938   0.240   0.308  0.00  0.00    -0.004 A 
ATOM      5  C5  I4B d   1      -2.201   0.461   1.657  0.00  0.00     0.002 A 
ATOM      6  C6  I4B d   1      -1.199   0.243   2.613  0.00  0.00     0.003 A 
ENDROOT
BRANCH   1   7
ATOM      7  C1' I4B d   1       1.112  -0.529   3.214  0.00  0.00     0.060 C 
BRANCH   7   8
ATOM      8  C2' I4B d   1       0.431  -0.919   4.511  0.00  0.00    -0.013 C 
ATOM      9  C4' I4B d   1      -0.167  -2.298   4.420  0.00  0.00     0.013 C 
ATOM     10  C3' I4B d   1       1.449  -0.842   5.609  0.00  0.00     0.013 C 
ENDBRANCH   7   8
ENDBRANCH   1   7
TORSDOF 2
ENDMDL
