MODEL 1
REMARK minimizedAffinity 4.55511761
REMARK minimizedRMSD -1
REMARK  2 active torsions:
REMARK  status: ('A' for Active; 'I' for Inactive)
REMARK    1  A    between atoms: C2'_3  and  C1'_4 
REMARK    2  A    between atoms: C1'_4  and  C1_5 
ROOT
ATOM      1  C1  I4B d   1      -1.262   0.498   1.888  0.00  0.00    -0.075 A 
ATOM      2  C2  I4B d   1      -2.293   0.351   2.783  0.00  0.00     0.003 A 
ATOM      3  C3  I4B d   1      -2.067  -0.270   4.035  0.00  0.00     0.002 A 
ATOM      4  C4  I4B d   1      -0.815  -0.772   4.328  0.00  0.00    -0.004 A 
ATOM      5  C5  I4B d   1       0.234  -0.603   3.429  0.00  0.00     0.002 A 
ATOM      6  C6  I4B d   1       0.012   0.047   2.206  0.00  0.00     0.003 A 
ENDROOT
BRANCH   1   7
ATOM      7  C1' I4B d   1      -1.544   1.129   0.562  0.00  0.00     0.060 C 
BRANCH   7   8
ATOM      8  C2' I4B d   1      -2.423   0.181  -0.229  0.00  0.00    -0.013 C 
ATOM      9  C4' I4B d   1      -3.490   0.929  -0.984  0.00  0.00     0.013 C 
ATOM     10  C3' I4B d   1      -1.543  -0.595  -1.163  0.00  0.00     0.013 C 
ENDBRANCH   7   8
ENDBRANCH   1   7
TORSDOF 2
ENDMDL
