MODEL 1
REMARK minimizedAffinity -4.75664091
REMARK minimizedRMSD -1
REMARK  0 active torsions:
REMARK  status: ('A' for Active; 'I' for Inactive)
ROOT
ATOM      1  C2' OXE d   1       1.451  -1.517  -0.772  0.00  0.00     0.078 C 
ATOM      2  C1' OXE d   1       0.648  -0.350  -3.195  0.00  0.00     0.078 C 
ATOM      3  C1  OXE d   1      -0.028   0.118  -1.931  0.00  0.00    -0.078 A 
ATOM      4  C2  OXE d   1       0.337  -0.491  -0.755  0.00  0.00    -0.078 A 
ATOM      5  C3  OXE d   1      -0.216  -0.059   0.446  0.00  0.00     0.003 A 
ATOM      6  C4  OXE d   1      -1.253   0.882   0.451  0.00  0.00    -0.002 A 
ATOM      7  C5  OXE d   1      -1.668   1.487  -0.740  0.00  0.00    -0.002 A 
ATOM      8  C6  OXE d   1      -1.038   1.148  -1.932  0.00  0.00     0.003 A 
ENDROOT
TORSDOF 0
ENDMDL
