MODEL 1
REMARK minimizedAffinity -2.78583002
REMARK minimizedRMSD -1
REMARK  0 active torsions:
REMARK  status: ('A' for Active; 'I' for Inactive)
ROOT
ATOM      1  C2' OXE d   1       0.430  -0.046  -1.039  0.00  0.00     0.078 C 
ATOM      2  C1' OXE d   1       1.679  -0.567   1.421  0.00  0.00     0.078 C 
ATOM      3  C1  OXE d   1       0.283   0.002   1.448  0.00  0.00    -0.078 A 
ATOM      4  C2  OXE d   1      -0.303   0.297   0.240  0.00  0.00    -0.078 A 
ATOM      5  C3  OXE d   1      -1.610   0.773   0.206  0.00  0.00     0.003 A 
ATOM      6  C4  OXE d   1      -2.278   1.098   1.394  0.00  0.00    -0.002 A 
ATOM      7  C5  OXE d   1      -1.684   0.842   2.634  0.00  0.00    -0.002 A 
ATOM      8  C6  OXE d   1      -0.424   0.255   2.679  0.00  0.00     0.003 A 
ENDROOT
TORSDOF 0
ENDMDL
