MODEL 1
REMARK minimizedAffinity -4.2028985
REMARK minimizedRMSD -1
REMARK  0 active torsions:
REMARK  status: ('A' for Active; 'I' for Inactive)
ROOT
ATOM      1  C2' OXE d   1       1.769  -1.623   0.638  0.00  0.00     0.078 C 
ATOM      2  C1' OXE d   1       0.295  -0.365  -1.394  0.00  0.00     0.078 C 
ATOM      3  C1  OXE d   1      -0.084  -0.070   0.036  0.00  0.00    -0.078 A 
ATOM      4  C2  OXE d   1       0.612  -0.726   1.023  0.00  0.00    -0.078 A 
ATOM      5  C3  OXE d   1       0.339  -0.449   2.359  0.00  0.00     0.003 A 
ATOM      6  C4  OXE d   1      -0.740   0.374   2.707  0.00  0.00    -0.002 A 
ATOM      7  C5  OXE d   1      -1.487   1.021   1.717  0.00  0.00    -0.002 A 
ATOM      8  C6  OXE d   1      -1.146   0.843   0.380  0.00  0.00     0.003 A 
ENDROOT
TORSDOF 0
ENDMDL
