MODEL 1
REMARK minimizedAffinity -1.42416251
REMARK minimizedRMSD -1
REMARK  0 active torsions:
REMARK  status: ('A' for Active; 'I' for Inactive)
ROOT
ATOM      1  C2' OXE d   1       0.162   0.579  -1.652  0.00  0.00     0.078 C 
ATOM      2  C1' OXE d   1      -1.979   2.283  -1.025  0.00  0.00     0.078 C 
ATOM      3  C1  OXE d   1      -1.480   1.355   0.054  0.00  0.00    -0.078 A 
ATOM      4  C2  OXE d   1      -0.463   0.491  -0.276  0.00  0.00    -0.078 A 
ATOM      5  C3  OXE d   1       0.072  -0.348   0.697  0.00  0.00     0.003 A 
ATOM      6  C4  OXE d   1      -0.518  -0.430   1.965  0.00  0.00    -0.002 A 
ATOM      7  C5  OXE d   1      -1.580   0.413   2.309  0.00  0.00    -0.002 A 
ATOM      8  C6  OXE d   1      -2.044   1.338   1.381  0.00  0.00     0.003 A 
ENDROOT
TORSDOF 0
ENDMDL
