MODEL 1
REMARK minimizedAffinity -3.91025734
REMARK minimizedRMSD -1
REMARK  0 active torsions:
REMARK  status: ('A' for Active; 'I' for Inactive)
ROOT
ATOM      1  C2' OXE d   1       1.285   1.021  -3.364  0.00  0.00     0.078 C 
ATOM      2  C1' OXE d   1       1.096  -1.581  -2.328  0.00  0.00     0.078 C 
ATOM      3  C1  OXE d   1       0.275  -0.501  -1.670  0.00  0.00    -0.078 A 
ATOM      4  C2  OXE d   1       0.409   0.778  -2.153  0.00  0.00    -0.078 A 
ATOM      5  C3  OXE d   1      -0.366   1.803  -1.618  0.00  0.00     0.003 A 
ATOM      6  C4  OXE d   1      -1.166   1.572  -0.492  0.00  0.00    -0.002 A 
ATOM      7  C5  OXE d   1      -1.287   0.284   0.041  0.00  0.00    -0.002 A 
ATOM      8  C6  OXE d   1      -0.608  -0.769  -0.561  0.00  0.00     0.003 A 
ENDROOT
TORSDOF 0
ENDMDL
