MODEL 1
REMARK minimizedAffinity 3.38575435
REMARK minimizedRMSD -1
REMARK  0 active torsions:
REMARK  status: ('A' for Active; 'I' for Inactive)
ROOT
ATOM      1  C2' OXE d   1      -3.915  -0.012  -0.653  0.00  0.00     0.078 C 
ATOM      2  C1' OXE d   1      -2.689   0.772   1.748  0.00  0.00     0.078 C 
ATOM      3  C1  OXE d   1      -1.812   0.193   0.666  0.00  0.00    -0.078 A 
ATOM      4  C2  OXE d   1      -2.427  -0.231  -0.487  0.00  0.00    -0.078 A 
ATOM      5  C3  OXE d   1      -1.657  -0.722  -1.538  0.00  0.00     0.003 A 
ATOM      6  C4  OXE d   1      -0.283  -0.931  -1.373  0.00  0.00    -0.002 A 
ATOM      7  C5  OXE d   1       0.358  -0.543  -0.192  0.00  0.00    -0.002 A 
ATOM      8  C6  OXE d   1      -0.384   0.059   0.819  0.00  0.00     0.003 A 
ENDROOT
TORSDOF 0
ENDMDL
