MODEL 1
REMARK minimizedAffinity -1.01199591
REMARK minimizedRMSD -1
REMARK  0 active torsions:
REMARK  status: ('A' for Active; 'I' for Inactive)
ROOT
ATOM      1  C2' OXE d   1      -0.905  -1.090  -0.880  0.00  0.00     0.078 C 
ATOM      2  C1' OXE d   1       1.490   0.009   0.088  0.00  0.00     0.078 C 
ATOM      3  C1  OXE d   1       1.233   0.079  -1.397  0.00  0.00    -0.078 A 
ATOM      4  C2  OXE d   1       0.081  -0.503  -1.867  0.00  0.00    -0.078 A 
ATOM      5  C3  OXE d   1      -0.231  -0.419  -3.221  0.00  0.00     0.003 A 
ATOM      6  C4  OXE d   1       0.691   0.117  -4.129  0.00  0.00    -0.002 A 
ATOM      7  C5  OXE d   1       1.889   0.679  -3.675  0.00  0.00    -0.002 A 
ATOM      8  C6  OXE d   1       2.155   0.706  -2.311  0.00  0.00     0.003 A 
ENDROOT
TORSDOF 0
ENDMDL
