MODEL 1
REMARK minimizedAffinity -3.63014841
REMARK minimizedRMSD -1
REMARK  0 active torsions:
REMARK  status: ('A' for Active; 'I' for Inactive)
ROOT
ATOM      1  C2' OXE d   1       1.812   0.774   2.255  0.00  0.00     0.078 C 
ATOM      2  C1' OXE d   1      -0.606   1.669   3.363  0.00  0.00     0.078 C 
ATOM      3  C1  OXE d   1      -0.653   1.029   1.998  0.00  0.00    -0.078 A 
ATOM      4  C2  OXE d   1       0.542   0.636   1.444  0.00  0.00    -0.078 A 
ATOM      5  C3  OXE d   1       0.550  -0.010   0.211  0.00  0.00     0.003 A 
ATOM      6  C4  OXE d   1      -0.628  -0.125  -0.537  0.00  0.00    -0.002 A 
ATOM      7  C5  OXE d   1      -1.850   0.305  -0.008  0.00  0.00    -0.002 A 
ATOM      8  C6  OXE d   1      -1.886   0.844   1.274  0.00  0.00     0.003 A 
ENDROOT
TORSDOF 0
ENDMDL
