MODEL 1
REMARK minimizedAffinity 7.01017094
REMARK minimizedRMSD -1
REMARK  0 active torsions:
REMARK  status: ('A' for Active; 'I' for Inactive)
ROOT
ATOM      1  C1  BNZ d   1      -5.386  -6.000  -4.721  0.00  0.00     0.000 A 
ATOM      2  C2  BNZ d   1      -4.738  -5.987  -5.928  0.00  0.00     0.000 A 
ATOM      3  C3  BNZ d   1      -3.374  -5.924  -5.989  0.00  0.00     0.000 A 
ATOM      4  C4  BNZ d   1      -2.662  -5.834  -4.847  0.00  0.00     0.000 A 
ATOM      5  C5  BNZ d   1      -3.301  -5.837  -3.623  0.00  0.00     0.000 A 
ATOM      6  C6  BNZ d   1      -4.672  -5.939  -3.564  0.00  0.00     0.000 A 
ENDROOT
TORSDOF 0
ENDMDL
