MODEL 1
REMARK minimizedAffinity 0.706983447
REMARK minimizedRMSD -1
REMARK  0 active torsions:
REMARK  status: ('A' for Active; 'I' for Inactive)
ROOT
ATOM      1  C1  BNZ d   1      -3.730   1.051  -2.492  0.00  0.00     0.000 A 
ATOM      2  C2  BNZ d   1      -3.147   2.112  -3.131  0.00  0.00     0.000 A 
ATOM      3  C3  BNZ d   1      -1.989   2.664  -2.657  0.00  0.00     0.000 A 
ATOM      4  C4  BNZ d   1      -1.439   2.180  -1.525  0.00  0.00     0.000 A 
ATOM      5  C5  BNZ d   1      -2.021   1.116  -0.864  0.00  0.00     0.000 A 
ATOM      6  C6  BNZ d   1      -3.164   0.538  -1.366  0.00  0.00     0.000 A 
ENDROOT
TORSDOF 0
ENDMDL
