MODEL 1
REMARK minimizedAffinity -2.67551565
REMARK minimizedRMSD -1
REMARK  0 active torsions:
REMARK  status: ('A' for Active; 'I' for Inactive)
ROOT
ATOM      1  C1  BNZ d   1      -0.088   2.599  -0.412  0.00  0.00     0.000 A 
ATOM      2  C2  BNZ d   1      -0.689   1.501   0.145  0.00  0.00     0.000 A 
ATOM      3  C3  BNZ d   1      -0.693   1.317   1.499  0.00  0.00     0.000 A 
ATOM      4  C4  BNZ d   1      -0.064   2.208   2.292  0.00  0.00     0.000 A 
ATOM      5  C5  BNZ d   1       0.554   3.315   1.745  0.00  0.00     0.000 A 
ATOM      6  C6  BNZ d   1       0.524   3.517   0.384  0.00  0.00     0.000 A 
ENDROOT
TORSDOF 0
ENDMDL
