MODEL 1
REMARK minimizedAffinity -3.7094233
REMARK minimizedRMSD -1
REMARK  0 active torsions:
REMARK  status: ('A' for Active; 'I' for Inactive)
ROOT
ATOM      1  C1  BNZ d   1      -0.057   2.928   0.755  0.00  0.00     0.000 A 
ATOM      2  C2  BNZ d   1      -0.222   2.196   1.900  0.00  0.00     0.000 A 
ATOM      3  C3  BNZ d   1      -0.061   0.839   1.894  0.00  0.00     0.000 A 
ATOM      4  C4  BNZ d   1       0.225   0.211   0.735  0.00  0.00     0.000 A 
ATOM      5  C5  BNZ d   1       0.386   0.934  -0.430  0.00  0.00     0.000 A 
ATOM      6  C6  BNZ d   1       0.262   2.304  -0.412  0.00  0.00     0.000 A 
ENDROOT
TORSDOF 0
ENDMDL
