MODEL 1
REMARK minimizedAffinity 5.78893852
REMARK minimizedRMSD -1
REMARK  0 active torsions:
REMARK  status: ('A' for Active; 'I' for Inactive)
ROOT
ATOM      1  C1  BNZ d   1      -0.111   4.603  -1.505  0.00  0.00     0.000 A 
ATOM      2  C2  BNZ d   1      -1.275   4.346  -0.832  0.00  0.00     0.000 A 
ATOM      3  C3  BNZ d   1      -1.351   3.320   0.069  0.00  0.00     0.000 A 
ATOM      4  C4  BNZ d   1      -0.276   2.529   0.265  0.00  0.00     0.000 A 
ATOM      5  C5  BNZ d   1       0.902   2.770  -0.413  0.00  0.00     0.000 A 
ATOM      6  C6  BNZ d   1       0.987   3.827  -1.290  0.00  0.00     0.000 A 
ENDROOT
TORSDOF 0
ENDMDL
