MODEL 1
REMARK minimizedAffinity 5.42671156
REMARK minimizedRMSD -1
REMARK  0 active torsions:
REMARK  status: ('A' for Active; 'I' for Inactive)
ROOT
ATOM      1  C1  BNZ d   1       0.114   3.857   1.386  0.00  0.00     0.000 A 
ATOM      2  C2  BNZ d   1      -1.251   3.976   1.389  0.00  0.00     0.000 A 
ATOM      3  C3  BNZ d   1      -2.015   3.240   2.252  0.00  0.00     0.000 A 
ATOM      4  C4  BNZ d   1      -1.418   2.360   3.081  0.00  0.00     0.000 A 
ATOM      5  C5  BNZ d   1      -0.044   2.222   3.083  0.00  0.00     0.000 A 
ATOM      6  C6  BNZ d   1       0.725   2.992   2.240  0.00  0.00     0.000 A 
ENDROOT
TORSDOF 0
ENDMDL
