MODEL 1
REMARK minimizedAffinity 11.2977676
REMARK minimizedRMSD -1
REMARK  0 active torsions:
REMARK  status: ('A' for Active; 'I' for Inactive)
ROOT
ATOM      1  C1  BNZ d   1      -3.269   1.009  -0.447  0.00  0.00     0.000 A 
ATOM      2  C2  BNZ d   1      -4.216   1.427  -1.344  0.00  0.00     0.000 A 
ATOM      3  C3  BNZ d   1      -4.034   2.568  -2.073  0.00  0.00     0.000 A 
ATOM      4  C4  BNZ d   1      -2.926   3.311  -1.877  0.00  0.00     0.000 A 
ATOM      5  C5  BNZ d   1      -1.967   2.909  -0.969  0.00  0.00     0.000 A 
ATOM      6  C6  BNZ d   1      -2.135   1.739  -0.265  0.00  0.00     0.000 A 
ENDROOT
TORSDOF 0
ENDMDL
