MODEL 1
REMARK minimizedAffinity 3.94535375
REMARK minimizedRMSD -1
REMARK  0 active torsions:
REMARK  status: ('A' for Active; 'I' for Inactive)
ROOT
ATOM      1  C1  BNZ d   1      -1.980  -5.977  -5.714  0.00  0.00     0.000 A 
ATOM      2  C2  BNZ d   1      -1.427  -4.878  -5.111  0.00  0.00     0.000 A 
ATOM      3  C3  BNZ d   1      -2.198  -3.799  -4.780  0.00  0.00     0.000 A 
ATOM      4  C4  BNZ d   1      -3.511  -3.803  -5.087  0.00  0.00     0.000 A 
ATOM      5  C5  BNZ d   1      -4.081  -4.899  -5.703  0.00  0.00     0.000 A 
ATOM      6  C6  BNZ d   1      -3.310  -6.000  -6.000  0.00  0.00     0.000 A 
ENDROOT
TORSDOF 0
ENDMDL
