MODEL 1
REMARK minimizedAffinity 10.9760141
REMARK minimizedRMSD -1
REMARK  0 active torsions:
REMARK  status: ('A' for Active; 'I' for Inactive)
ROOT
ATOM      1  C1  BNZ d   1       0.726   3.330   0.745  0.00  0.00     0.000 A 
ATOM      2  C2  BNZ d   1      -0.606   3.620   0.621  0.00  0.00     0.000 A 
ATOM      3  C3  BNZ d   1      -1.497   3.250   1.590  0.00  0.00     0.000 A 
ATOM      4  C4  BNZ d   1      -1.060   2.557   2.662  0.00  0.00     0.000 A 
ATOM      5  C5  BNZ d   1       0.279   2.249   2.797  0.00  0.00     0.000 A 
ATOM      6  C6  BNZ d   1       1.178   2.656   1.838  0.00  0.00     0.000 A 
ENDROOT
TORSDOF 0
ENDMDL
