MODEL 1
REMARK minimizedAffinity 1.70599246
REMARK minimizedRMSD -1
REMARK  0 active torsions:
REMARK  status: ('A' for Active; 'I' for Inactive)
ROOT
ATOM      1  O1  BZF d   1       0.734  -0.034   1.044  0.00  0.00    -0.204 OA
ATOM      2  C2  BZF d   1       0.896  -0.662  -0.176  0.00  0.00     0.174 A 
ATOM      3  C3  BZF d   1       0.009  -0.193  -1.078  0.00  0.00    -0.012 A 
ATOM      4  C3A BZF d   1      -0.694   0.855  -0.403  0.00  0.00    -0.107 A 
ATOM      5  C4  BZF d   1      -1.688   1.713  -0.780  0.00  0.00     0.055 A 
ATOM      6  C5  BZF d   1      -2.205   2.569   0.139  0.00  0.00    -0.016 A 
ATOM      7  C6  BZF d   1      -1.756   2.592   1.444  0.00  0.00     0.022 A 
ATOM      8  C7  BZF d   1      -0.768   1.765   1.863  0.00  0.00     0.029 A 
ATOM      9  C7A BZF d   1      -0.221   0.920   0.928  0.00  0.00     0.058 A 
ENDROOT
TORSDOF 0
ENDMDL
