MODEL 1
REMARK minimizedAffinity -3.88986754
REMARK minimizedRMSD -1
REMARK  0 active torsions:
REMARK  status: ('A' for Active; 'I' for Inactive)
ROOT
ATOM      1  O1  BZF d   1      -1.461   2.094  -0.294  0.00  0.00    -0.204 OA
ATOM      2  C2  BZF d   1      -2.202   2.033   0.870  0.00  0.00     0.174 A 
ATOM      3  C3  BZF d   1      -1.844   0.964   1.610  0.00  0.00    -0.012 A 
ATOM      4  C3A BZF d   1      -0.751   0.367   0.905  0.00  0.00    -0.107 A 
ATOM      5  C4  BZF d   1       0.042  -0.718   1.147  0.00  0.00     0.055 A 
ATOM      6  C5  BZF d   1       0.973  -1.075   0.224  0.00  0.00    -0.016 A 
ATOM      7  C6  BZF d   1       1.134  -0.373  -0.953  0.00  0.00     0.022 A 
ATOM      8  C7  BZF d   1       0.375   0.713  -1.235  0.00  0.00     0.029 A 
ATOM      9  C7A BZF d   1      -0.545   1.096  -0.289  0.00  0.00     0.058 A 
ENDROOT
TORSDOF 0
ENDMDL
