MODEL 1
REMARK minimizedAffinity -2.7362318
REMARK minimizedRMSD -1
REMARK  0 active torsions:
REMARK  status: ('A' for Active; 'I' for Inactive)
ROOT
ATOM      1  O1  BZF d   1      -1.267   1.173   2.191  0.00  0.00    -0.204 OA
ATOM      2  C2  BZF d   1      -1.960   2.220   1.614  0.00  0.00     0.174 A 
ATOM      3  C3  BZF d   1      -1.678   2.314   0.299  0.00  0.00    -0.012 A 
ATOM      4  C3A BZF d   1      -0.823   1.202   0.017  0.00  0.00    -0.107 A 
ATOM      5  C4  BZF d   1      -0.220   0.746  -1.120  0.00  0.00     0.055 A 
ATOM      6  C5  BZF d   1       0.612  -0.326  -1.042  0.00  0.00    -0.016 A 
ATOM      7  C6  BZF d   1       0.868  -0.961   0.156  0.00  0.00     0.022 A 
ATOM      8  C7  BZF d   1       0.289  -0.548   1.309  0.00  0.00     0.029 A 
ATOM      9  C7A BZF d   1      -0.578   0.515   1.228  0.00  0.00     0.058 A 
ENDROOT
TORSDOF 0
ENDMDL
