MODEL 1
REMARK minimizedAffinity -2.7141695
REMARK minimizedRMSD -1
REMARK  0 active torsions:
REMARK  status: ('A' for Active; 'I' for Inactive)
ROOT
ATOM      1  O1  BZF d   1      -1.027   0.962   2.475  0.00  0.00    -0.204 OA
ATOM      2  C2  BZF d   1      -1.877   1.960   2.039  0.00  0.00     0.174 A 
ATOM      3  C3  BZF d   1      -1.820   2.086   0.698  0.00  0.00    -0.012 A 
ATOM      4  C3A BZF d   1      -0.944   1.043   0.259  0.00  0.00    -0.107 A 
ATOM      5  C4  BZF d   1      -0.502   0.642  -0.970  0.00  0.00     0.055 A 
ATOM      6  C5  BZF d   1       0.406  -0.365  -1.049  0.00  0.00    -0.016 A 
ATOM      7  C6  BZF d   1       0.897  -0.990   0.078  0.00  0.00     0.022 A 
ATOM      8  C7  BZF d   1       0.485  -0.631   1.319  0.00  0.00     0.029 A 
ATOM      9  C7A BZF d   1      -0.457   0.364   1.400  0.00  0.00     0.058 A 
ENDROOT
TORSDOF 0
ENDMDL
