MODEL 1
REMARK minimizedAffinity -3.79539084
REMARK minimizedRMSD -1
REMARK  0 active torsions:
REMARK  status: ('A' for Active; 'I' for Inactive)
ROOT
ATOM      1  O1  BZF d   1      -1.558   1.217   2.257  0.00  0.00    -0.204 OA
ATOM      2  C2  BZF d   1      -2.163   2.152   1.439  0.00  0.00     0.174 A 
ATOM      3  C3  BZF d   1      -1.659   2.092   0.190  0.00  0.00    -0.012 A 
ATOM      4  C3A BZF d   1      -0.743   0.993   0.206  0.00  0.00    -0.107 A 
ATOM      5  C4  BZF d   1       0.058   0.425  -0.743  0.00  0.00     0.055 A 
ATOM      6  C5  BZF d   1       0.888  -0.590  -0.385  0.00  0.00    -0.016 A 
ATOM      7  C6  BZF d   1       0.945  -1.058   0.911  0.00  0.00     0.022 A 
ATOM      8  C7  BZF d   1       0.166  -0.530   1.886  0.00  0.00     0.029 A 
ATOM      9  C7A BZF d   1      -0.697   0.474   1.520  0.00  0.00     0.058 A 
ENDROOT
TORSDOF 0
ENDMDL
