MODEL 1
REMARK minimizedAffinity -5.18120956
REMARK minimizedRMSD -1
REMARK  0 active torsions:
REMARK  status: ('A' for Active; 'I' for Inactive)
ROOT
ATOM      1  O1  BZF d   1       0.269   0.031  -1.151  0.00  0.00    -0.204 OA
ATOM      2  C2  BZF d   1       0.865  -0.911  -0.335  0.00  0.00     0.174 A 
ATOM      3  C3  BZF d   1       0.423  -0.795   0.933  0.00  0.00    -0.012 A 
ATOM      4  C3A BZF d   1      -0.577   0.228   0.891  0.00  0.00    -0.107 A 
ATOM      5  C4  BZF d   1      -1.392   0.784   1.835  0.00  0.00     0.055 A 
ATOM      6  C5  BZF d   1      -2.205   1.814   1.482  0.00  0.00    -0.016 A 
ATOM      7  C6  BZF d   1      -2.225   2.316   0.197  0.00  0.00     0.022 A 
ATOM      8  C7  BZF d   1      -1.439   1.793  -0.775  0.00  0.00     0.029 A 
ATOM      9  C7A BZF d   1      -0.640   0.731  -0.429  0.00  0.00     0.058 A 
ENDROOT
TORSDOF 0
ENDMDL
