MODEL 1
REMARK minimizedAffinity -1.93341291
REMARK minimizedRMSD -1
REMARK  0 active torsions:
REMARK  status: ('A' for Active; 'I' for Inactive)
ROOT
ATOM      1  O1  BZF d   1      -0.615  -3.521  -1.143  0.00  0.00    -0.204 OA
ATOM      2  C2  BZF d   1      -0.572  -3.545  -2.524  0.00  0.00     0.174 A 
ATOM      3  C3  BZF d   1      -0.240  -2.332  -3.012  0.00  0.00    -0.012 A 
ATOM      4  C3A BZF d   1       0.025  -1.523  -1.863  0.00  0.00    -0.107 A 
ATOM      5  C4  BZF d   1       0.416  -0.225  -1.699  0.00  0.00     0.055 A 
ATOM      6  C5  BZF d   1       0.516   0.281  -0.442  0.00  0.00    -0.016 A 
ATOM      7  C6  BZF d   1       0.228  -0.480   0.672  0.00  0.00     0.022 A 
ATOM      8  C7  BZF d   1      -0.159  -1.774   0.560  0.00  0.00     0.029 A 
ATOM      9  C7A BZF d   1      -0.229  -2.298  -0.708  0.00  0.00     0.058 A 
ENDROOT
TORSDOF 0
ENDMDL
