MODEL 1
REMARK minimizedAffinity -5.75453663
REMARK minimizedRMSD -1
REMARK  0 active torsions:
REMARK  status: ('A' for Active; 'I' for Inactive)
ROOT
ATOM      1  O1  BZF d   1      -1.292   1.470   2.439  0.00  0.00    -0.204 OA
ATOM      2  C2  BZF d   1      -1.998   2.356   1.648  0.00  0.00     0.174 A 
ATOM      3  C3  BZF d   1      -1.718   2.160   0.344  0.00  0.00    -0.012 A 
ATOM      4  C3A BZF d   1      -0.849   1.023   0.312  0.00  0.00    -0.107 A 
ATOM      5  C4  BZF d   1      -0.242   0.334  -0.699  0.00  0.00     0.055 A 
ATOM      6  C5  BZF d   1       0.603  -0.684  -0.389  0.00  0.00    -0.016 A 
ATOM      7  C6  BZF d   1       0.868  -1.036   0.918  0.00  0.00     0.022 A 
ATOM      8  C7  BZF d   1       0.285  -0.385   1.954  0.00  0.00     0.029 A 
ATOM      9  C7A BZF d   1      -0.595   0.623   1.644  0.00  0.00     0.058 A 
ENDROOT
TORSDOF 0
ENDMDL
