MODEL 1
REMARK minimizedAffinity -3.10399818
REMARK minimizedRMSD -1
REMARK  0 active torsions:
REMARK  status: ('A' for Active; 'I' for Inactive)
ROOT
ATOM      1  O1  BZF d   1       0.982   0.399  -0.915  0.00  0.00    -0.204 OA
ATOM      2  C2  BZF d   1       1.170  -0.870  -0.403  0.00  0.00     0.174 A 
ATOM      3  C3  BZF d   1       0.374  -1.077   0.666  0.00  0.00    -0.012 A 
ATOM      4  C3A BZF d   1      -0.423   0.106   0.776  0.00  0.00    -0.107 A 
ATOM      5  C4  BZF d   1      -1.413   0.495   1.633  0.00  0.00     0.055 A 
ATOM      6  C5  BZF d   1      -1.937   1.743   1.514  0.00  0.00    -0.016 A 
ATOM      7  C6  BZF d   1      -1.492   2.629   0.555  0.00  0.00     0.022 A 
ATOM      8  C7  BZF d   1      -0.517   2.287  -0.322  0.00  0.00     0.029 A 
ATOM      9  C7A BZF d   1      -0.008   1.014  -0.225  0.00  0.00     0.058 A 
ENDROOT
TORSDOF 0
ENDMDL
