MODEL 1
REMARK minimizedAffinity -1.98684955
REMARK minimizedRMSD -1
REMARK  0 active torsions:
REMARK  status: ('A' for Active; 'I' for Inactive)
ROOT
ATOM      1  O1  BZF d   1       0.726  -0.967   0.427  0.00  0.00    -0.204 OA
ATOM      2  C2  BZF d   1       1.411  -0.953  -0.773  0.00  0.00     0.174 A 
ATOM      3  C3  BZF d   1       0.939   0.018  -1.581  0.00  0.00    -0.012 A 
ATOM      4  C3A BZF d   1      -0.043   0.710  -0.805  0.00  0.00    -0.107 A 
ATOM      5  C4  BZF d   1      -0.851   1.782  -1.053  0.00  0.00     0.055 A 
ATOM      6  C5  BZF d   1      -1.752   2.164  -0.109  0.00  0.00    -0.016 A 
ATOM      7  C6  BZF d   1      -1.874   1.493   1.090  0.00  0.00     0.022 A 
ATOM      8  C7  BZF d   1      -1.091   0.427   1.384  0.00  0.00     0.029 A 
ATOM      9  C7A BZF d   1      -0.158   0.059   0.446  0.00  0.00     0.058 A 
ENDROOT
TORSDOF 0
ENDMDL
