MODEL 1
REMARK minimizedAffinity -2.99179268
REMARK minimizedRMSD -1
REMARK  0 active torsions:
REMARK  status: ('A' for Active; 'I' for Inactive)
ROOT
ATOM      1  O1  BZF d   1      -1.663   2.115   0.015  0.00  0.00    -0.204 OA
ATOM      2  C2  BZF d   1      -2.454   2.237   1.141  0.00  0.00     0.174 A 
ATOM      3  C3  BZF d   1      -2.296   1.172   1.954  0.00  0.00    -0.012 A 
ATOM      4  C3A BZF d   1      -1.279   0.376   1.338  0.00  0.00    -0.107 A 
ATOM      5  C4  BZF d   1      -0.673  -0.800   1.677  0.00  0.00     0.055 A 
ATOM      6  C5  BZF d   1       0.231  -1.348   0.822  0.00  0.00    -0.016 A 
ATOM      7  C6  BZF d   1       0.548  -0.750  -0.380  0.00  0.00     0.022 A 
ATOM      8  C7  BZF d   1      -0.023   0.420  -0.757  0.00  0.00     0.029 A 
ATOM      9  C7A BZF d   1      -0.912   0.993   0.120  0.00  0.00     0.058 A 
ENDROOT
TORSDOF 0
ENDMDL
