MODEL 1
REMARK minimizedAffinity -3.91481972
REMARK minimizedRMSD -1
REMARK  0 active torsions:
REMARK  status: ('A' for Active; 'I' for Inactive)
ROOT
ATOM      1  O1  BZF d   1       0.551   0.535  -0.573  0.00  0.00    -0.204 OA
ATOM      2  C2  BZF d   1       0.422  -0.692   0.048  0.00  0.00     0.174 A 
ATOM      3  C3  BZF d   1      -0.435  -0.615   1.086  0.00  0.00    -0.012 A 
ATOM      4  C3A BZF d   1      -0.939   0.724   1.060  0.00  0.00    -0.107 A 
ATOM      5  C4  BZF d   1      -1.839   1.404   1.830  0.00  0.00     0.055 A 
ATOM      6  C5  BZF d   1      -2.054   2.724   1.585  0.00  0.00    -0.016 A 
ATOM      7  C6  BZF d   1      -1.384   3.394   0.583  0.00  0.00     0.022 A 
ATOM      8  C7  BZF d   1      -0.486   2.761  -0.211  0.00  0.00     0.029 A 
ATOM      9  C7A BZF d   1      -0.291   1.420   0.013  0.00  0.00     0.058 A 
ENDROOT
TORSDOF 0
ENDMDL
