MODEL 1
REMARK minimizedAffinity -6.18561316
REMARK minimizedRMSD -1
REMARK  0 active torsions:
REMARK  status: ('A' for Active; 'I' for Inactive)
ROOT
ATOM      1  O1  BZF d   1      -0.994   1.844   1.807  0.00  0.00    -0.204 OA
ATOM      2  C2  BZF d   1      -1.417   3.041   1.260  0.00  0.00     0.174 A 
ATOM      3  C3  BZF d   1      -0.981   3.168  -0.010  0.00  0.00    -0.012 A 
ATOM      4  C3A BZF d   1      -0.318   1.935  -0.305  0.00  0.00    -0.107 A 
ATOM      5  C4  BZF d   1       0.311   1.449  -1.415  0.00  0.00     0.055 A 
ATOM      6  C5  BZF d   1       0.919   0.236  -1.353  0.00  0.00    -0.016 A 
ATOM      7  C6  BZF d   1       0.923  -0.516  -0.196  0.00  0.00     0.022 A 
ATOM      8  C7  BZF d   1       0.308  -0.079   0.930  0.00  0.00     0.029 A 
ATOM      9  C7A BZF d   1      -0.336   1.133   0.860  0.00  0.00     0.058 A 
ENDROOT
TORSDOF 0
ENDMDL
