MODEL 1
REMARK minimizedAffinity -2.5720005
REMARK minimizedRMSD -1
REMARK  0 active torsions:
REMARK  status: ('A' for Active; 'I' for Inactive)
ROOT
ATOM      1  O1  BZF d   1      -0.003   0.392  -1.169  0.00  0.00    -0.204 OA
ATOM      2  C2  BZF d   1       0.673  -0.813  -1.118  0.00  0.00     0.174 A 
ATOM      3  C3  BZF d   1       0.819  -1.225   0.157  0.00  0.00    -0.012 A 
ATOM      4  C3A BZF d   1       0.116  -0.262   0.948  0.00  0.00    -0.107 A 
ATOM      5  C4  BZF d   1      -0.113  -0.135   2.288  0.00  0.00     0.055 A 
ATOM      6  C5  BZF d   1      -0.775   0.961   2.744  0.00  0.00    -0.016 A 
ATOM      7  C6  BZF d   1      -1.216   1.950   1.890  0.00  0.00     0.022 A 
ATOM      8  C7  BZF d   1      -1.017   1.865   0.552  0.00  0.00     0.029 A 
ATOM      9  C7A BZF d   1      -0.378   0.743   0.085  0.00  0.00     0.058 A 
ENDROOT
TORSDOF 0
ENDMDL
