MODEL 1
REMARK minimizedAffinity -3.67822886
REMARK minimizedRMSD -1
REMARK  0 active torsions:
REMARK  status: ('A' for Active; 'I' for Inactive)
ROOT
ATOM      1  O1  BZF d   1       0.791  -0.317   1.290  0.00  0.00    -0.204 OA
ATOM      2  C2  BZF d   1       1.102  -0.709   0.002  0.00  0.00     0.174 A 
ATOM      3  C3  BZF d   1       0.298  -0.097  -0.891  0.00  0.00    -0.012 A 
ATOM      4  C3A BZF d   1      -0.508   0.799  -0.120  0.00  0.00    -0.107 A 
ATOM      5  C4  BZF d   1      -1.488   1.695  -0.442  0.00  0.00     0.055 A 
ATOM      6  C5  BZF d   1      -2.128   2.360   0.555  0.00  0.00    -0.016 A 
ATOM      7  C6  BZF d   1      -1.818   2.151   1.883  0.00  0.00     0.022 A 
ATOM      8  C7  BZF d   1      -0.850   1.277   2.251  0.00  0.00     0.029 A 
ATOM      9  C7A BZF d   1      -0.179   0.627   1.245  0.00  0.00     0.058 A 
ENDROOT
TORSDOF 0
ENDMDL
