MODEL 1
REMARK minimizedAffinity -4.18062592
REMARK minimizedRMSD -1
REMARK  0 active torsions:
REMARK  status: ('A' for Active; 'I' for Inactive)
ROOT
ATOM      1  O1  BZF d   1       0.460  -0.188  -0.912  0.00  0.00    -0.204 OA
ATOM      2  C2  BZF d   1       0.993  -1.141  -0.065  0.00  0.00     0.174 A 
ATOM      3  C3  BZF d   1       0.555  -0.958   1.197  0.00  0.00    -0.012 A 
ATOM      4  C3A BZF d   1      -0.378   0.124   1.119  0.00  0.00    -0.107 A 
ATOM      5  C4  BZF d   1      -1.159   0.759   2.042  0.00  0.00     0.055 A 
ATOM      6  C5  BZF d   1      -1.904   1.827   1.654  0.00  0.00    -0.016 A 
ATOM      7  C6  BZF d   1      -1.889   2.289   0.355  0.00  0.00     0.022 A 
ATOM      8  C7  BZF d   1      -1.134   1.689  -0.598  0.00  0.00     0.029 A 
ATOM      9  C7A BZF d   1      -0.405   0.589  -0.216  0.00  0.00     0.058 A 
ENDROOT
TORSDOF 0
ENDMDL
