MODEL 1
REMARK minimizedAffinity 0.764287412
REMARK minimizedRMSD -1
REMARK  0 active torsions:
REMARK  status: ('A' for Active; 'I' for Inactive)
ROOT
ATOM      1  O1  BZF d   1       1.371  -2.732  -0.806  0.00  0.00    -0.204 OA
ATOM      2  C2  BZF d   1       1.813  -1.731   0.039  0.00  0.00     0.174 A 
ATOM      3  C3  BZF d   1       0.773  -1.122   0.643  0.00  0.00    -0.012 A 
ATOM      4  C3A BZF d   1      -0.387  -1.843   0.216  0.00  0.00    -0.107 A 
ATOM      5  C4  BZF d   1      -1.720  -1.725   0.489  0.00  0.00     0.055 A 
ATOM      6  C5  BZF d   1      -2.599  -2.541  -0.149  0.00  0.00    -0.016 A 
ATOM      7  C6  BZF d   1      -2.182  -3.482  -1.067  0.00  0.00     0.022 A 
ATOM      8  C7  BZF d   1      -0.870  -3.640  -1.367  0.00  0.00     0.029 A 
ATOM      9  C7A BZF d   1       0.024  -2.839  -0.700  0.00  0.00     0.058 A 
ENDROOT
TORSDOF 0
ENDMDL
