MODEL 1
REMARK minimizedAffinity 10.7579203
REMARK minimizedRMSD -1
REMARK  0 active torsions:
REMARK  status: ('A' for Active; 'I' for Inactive)
ROOT
ATOM      1  O1  BZF d   1       1.023   1.114   1.044  0.00  0.00    -0.204 OA
ATOM      2  C2  BZF d   1       1.463   0.005   0.348  0.00  0.00     0.174 A 
ATOM      3  C3  BZF d   1       2.811  -0.049   0.335  0.00  0.00    -0.012 A 
ATOM      4  C3A BZF d   1       3.239   1.048   1.147  0.00  0.00    -0.107 A 
ATOM      5  C4  BZF d   1       4.465   1.511   1.529  0.00  0.00     0.055 A 
ATOM      6  C5  BZF d   1       4.541   2.651   2.266  0.00  0.00    -0.016 A 
ATOM      7  C6  BZF d   1       3.413   3.354   2.634  0.00  0.00     0.022 A 
ATOM      8  C7  BZF d   1       2.174   2.931   2.284  0.00  0.00     0.029 A 
ATOM      9  C7A BZF d   1       2.092   1.762   1.567  0.00  0.00     0.058 A 
ENDROOT
TORSDOF 0
ENDMDL
