MODEL 1
REMARK minimizedAffinity 5.92852592
REMARK minimizedRMSD -1
REMARK  0 active torsions:
REMARK  status: ('A' for Active; 'I' for Inactive)
ROOT
ATOM      1  O1  BZF d   1       3.609   1.063   1.260  0.00  0.00    -0.204 OA
ATOM      2  C2  BZF d   1       2.248   0.912   1.074  0.00  0.00     0.174 A 
ATOM      3  C3  BZF d   1       1.572   1.930   1.645  0.00  0.00    -0.012 A 
ATOM      4  C3A BZF d   1       2.578   2.817   2.144  0.00  0.00    -0.107 A 
ATOM      5  C4  BZF d   1       2.533   4.014   2.799  0.00  0.00     0.055 A 
ATOM      6  C5  BZF d   1       3.695   4.585   3.212  0.00  0.00    -0.016 A 
ATOM      7  C6  BZF d   1       4.917   3.986   2.992  0.00  0.00     0.022 A 
ATOM      8  C7  BZF d   1       5.013   2.800   2.341  0.00  0.00     0.029 A 
ATOM      9  C7A BZF d   1       3.843   2.237   1.894  0.00  0.00     0.058 A 
ENDROOT
TORSDOF 0
ENDMDL
