MODEL 1
REMARK minimizedAffinity 10.7703876
REMARK minimizedRMSD -1
REMARK  0 active torsions:
REMARK  status: ('A' for Active; 'I' for Inactive)
ROOT
ATOM      1  O1  BZF d   1      -1.392  -3.821  -1.323  0.00  0.00    -0.204 OA
ATOM      2  C2  BZF d   1      -0.460  -3.698  -0.310  0.00  0.00     0.174 A 
ATOM      3  C3  BZF d   1      -0.724  -2.619   0.455  0.00  0.00    -0.012 A 
ATOM      4  C3A BZF d   1      -1.946  -2.083  -0.060  0.00  0.00    -0.107 A 
ATOM      5  C4  BZF d   1      -2.726  -1.018   0.292  0.00  0.00     0.055 A 
ATOM      6  C5  BZF d   1      -3.818  -0.722  -0.461  0.00  0.00    -0.016 A 
ATOM      7  C6  BZF d   1      -4.156  -1.465  -1.573  0.00  0.00     0.022 A 
ATOM      8  C7  BZF d   1      -3.416  -2.533  -1.958  0.00  0.00     0.029 A 
ATOM      9  C7A BZF d   1      -2.331  -2.855  -1.180  0.00  0.00     0.058 A 
ENDROOT
TORSDOF 0
ENDMDL
