MODEL 1
REMARK minimizedAffinity 0.386918008
REMARK minimizedRMSD -1
REMARK  0 active torsions:
REMARK  status: ('A' for Active; 'I' for Inactive)
ROOT
ATOM      1  O1  BZF d   1      -2.348  -2.658  -0.296  0.00  0.00    -0.204 OA
ATOM      2  C2  BZF d   1      -1.167  -1.979  -0.067  0.00  0.00     0.174 A 
ATOM      3  C3  BZF d   1      -0.109  -2.711  -0.470  0.00  0.00    -0.012 A 
ATOM      4  C3A BZF d   1      -0.668  -3.884  -1.068  0.00  0.00    -0.107 A 
ATOM      5  C4  BZF d   1      -0.124  -4.984  -1.668  0.00  0.00     0.055 A 
ATOM      6  C5  BZF d   1      -0.944  -5.985  -2.081  0.00  0.00    -0.016 A 
ATOM      7  C6  BZF d   1      -2.311  -5.923  -1.906  0.00  0.00     0.022 A 
ATOM      8  C7  BZF d   1      -2.898  -4.850  -1.320  0.00  0.00     0.029 A 
ATOM      9  C7A BZF d   1      -2.075  -3.822  -0.932  0.00  0.00     0.058 A 
ENDROOT
TORSDOF 0
ENDMDL
