MODEL 1
REMARK minimizedAffinity 5.830338
REMARK minimizedRMSD -1
REMARK  0 active torsions:
REMARK  status: ('A' for Active; 'I' for Inactive)
ROOT
ATOM      1  O1  BZF d   1      -1.468  -1.556   1.679  0.00  0.00    -0.204 OA
ATOM      2  C2  BZF d   1      -2.830  -1.381   1.833  0.00  0.00     0.174 A 
ATOM      3  C3  BZF d   1      -3.509  -2.045   0.875  0.00  0.00    -0.012 A 
ATOM      4  C3A BZF d   1      -2.513  -2.749   0.127  0.00  0.00    -0.107 A 
ATOM      5  C4  BZF d   1      -2.567  -3.596  -0.943  0.00  0.00     0.055 A 
ATOM      6  C5  BZF d   1      -1.407  -4.055  -1.481  0.00  0.00    -0.016 A 
ATOM      7  C6  BZF d   1      -0.177  -3.685  -0.977  0.00  0.00     0.022 A 
ATOM      8  C7  BZF d   1      -0.073  -2.851   0.086  0.00  0.00     0.029 A 
ATOM      9  C7A BZF d   1      -1.245  -2.412   0.653  0.00  0.00     0.058 A 
ENDROOT
TORSDOF 0
ENDMDL
