MODEL 1
REMARK minimizedAffinity 7.38511896
REMARK minimizedRMSD -1
REMARK  0 active torsions:
REMARK  status: ('A' for Active; 'I' for Inactive)
ROOT
ATOM      1  O1  BZF d   1       0.990  -1.375  -0.123  0.00  0.00    -0.204 OA
ATOM      2  C2  BZF d   1       2.175  -1.741  -0.732  0.00  0.00     0.174 A 
ATOM      3  C3  BZF d   1       3.166  -0.889  -0.402  0.00  0.00    -0.012 A 
ATOM      4  C3A BZF d   1       2.586   0.016   0.542  0.00  0.00    -0.107 A 
ATOM      5  C4  BZF d   1       3.075   1.080   1.245  0.00  0.00     0.055 A 
ATOM      6  C5  BZF d   1       2.228   1.799   2.028  0.00  0.00    -0.016 A 
ATOM      7  C6  BZF d   1       0.888   1.486   2.126  0.00  0.00     0.022 A 
ATOM      8  C7  BZF d   1       0.358   0.437   1.451  0.00  0.00     0.029 A 
ATOM      9  C7A BZF d   1       1.218  -0.311   0.685  0.00  0.00     0.058 A 
ENDROOT
TORSDOF 0
ENDMDL
