MODEL 1
REMARK minimizedAffinity 11.1447382
REMARK minimizedRMSD -1
REMARK  0 active torsions:
REMARK  status: ('A' for Active; 'I' for Inactive)
ROOT
ATOM      1  O1  BZF d   1       2.405   4.979   3.563  0.00  0.00    -0.204 OA
ATOM      2  C2  BZF d   1       3.499   5.750   3.907  0.00  0.00     0.174 A 
ATOM      3  C3  BZF d   1       4.648   5.120   3.588  0.00  0.00    -0.012 A 
ATOM      4  C3A BZF d   1       4.246   3.918   2.925  0.00  0.00    -0.107 A 
ATOM      5  C4  BZF d   1       4.934   2.883   2.358  0.00  0.00     0.055 A 
ATOM      6  C5  BZF d   1       4.243   1.826   1.858  0.00  0.00    -0.016 A 
ATOM      7  C6  BZF d   1       2.866   1.767   1.912  0.00  0.00     0.022 A 
ATOM      8  C7  BZF d   1       2.139   2.772   2.459  0.00  0.00     0.029 A 
ATOM      9  C7A BZF d   1       2.833   3.857   2.936  0.00  0.00     0.058 A 
ENDROOT
TORSDOF 0
ENDMDL
