MODEL 1
REMARK minimizedAffinity 8.33749294
REMARK minimizedRMSD -1
REMARK  0 active torsions:
REMARK  status: ('A' for Active; 'I' for Inactive)
ROOT
ATOM      1  O1  BZF d   1      -4.499  -3.166   4.002  0.00  0.00    -0.204 OA
ATOM      2  C2  BZF d   1      -5.808  -3.171   3.562  0.00  0.00     0.174 A 
ATOM      3  C3  BZF d   1      -5.985  -2.266   2.578  0.00  0.00    -0.012 A 
ATOM      4  C3A BZF d   1      -4.685  -1.723   2.328  0.00  0.00    -0.107 A 
ATOM      5  C4  BZF d   1      -4.211  -0.790   1.451  0.00  0.00     0.055 A 
ATOM      6  C5  BZF d   1      -2.901  -0.432   1.512  0.00  0.00    -0.016 A 
ATOM      7  C6  BZF d   1      -2.041  -0.982   2.439  0.00  0.00     0.022 A 
ATOM      8  C7  BZF d   1      -2.465  -1.915   3.327  0.00  0.00     0.029 A 
ATOM      9  C7A BZF d   1      -3.780  -2.303   3.246  0.00  0.00     0.058 A 
ENDROOT
TORSDOF 0
ENDMDL
