MODEL 1
REMARK minimizedAffinity 14.3010483
REMARK minimizedRMSD -1
REMARK  0 active torsions:
REMARK  status: ('A' for Active; 'I' for Inactive)
ROOT
ATOM      1  O1  BZF d   1      -2.696   1.003   1.191  0.00  0.00    -0.204 OA
ATOM      2  C2  BZF d   1      -2.649  -0.378   1.198  0.00  0.00     0.174 A 
ATOM      3  C3  BZF d   1      -3.628  -0.894   0.427  0.00  0.00    -0.012 A 
ATOM      4  C3A BZF d   1      -4.273   0.236  -0.168  0.00  0.00    -0.107 A 
ATOM      5  C4  BZF d   1      -5.311   0.369  -1.046  0.00  0.00     0.055 A 
ATOM      6  C5  BZF d   1      -5.744   1.616  -1.371  0.00  0.00    -0.016 A 
ATOM      7  C6  BZF d   1      -5.166   2.748  -0.836  0.00  0.00     0.022 A 
ATOM      8  C7  BZF d   1      -4.131   2.666   0.035  0.00  0.00     0.029 A 
ATOM      9  C7A BZF d   1      -3.670   1.409   0.340  0.00  0.00     0.058 A 
ENDROOT
TORSDOF 0
ENDMDL
