MODEL 1
REMARK minimizedAffinity 14.5589056
REMARK minimizedRMSD -1
REMARK  0 active torsions:
REMARK  status: ('A' for Active; 'I' for Inactive)
ROOT
ATOM      1  O1  BZF d   1       0.930   1.264   1.386  0.00  0.00    -0.204 OA
ATOM      2  C2  BZF d   1       1.304   0.034   0.882  0.00  0.00     0.174 A 
ATOM      3  C3  BZF d   1       2.645  -0.108   0.914  0.00  0.00    -0.012 A 
ATOM      4  C3A BZF d   1       3.133   1.072   1.558  0.00  0.00    -0.107 A 
ATOM      5  C4  BZF d   1       4.382   1.509   1.897  0.00  0.00     0.055 A 
ATOM      6  C5  BZF d   1       4.523   2.742   2.452  0.00  0.00    -0.016 A 
ATOM      7  C6  BZF d   1       3.439   3.565   2.676  0.00  0.00     0.022 A 
ATOM      8  C7  BZF d   1       2.180   3.174   2.362  0.00  0.00     0.029 A 
ATOM      9  C7A BZF d   1       2.031   1.915   1.832  0.00  0.00     0.058 A 
ENDROOT
TORSDOF 0
ENDMDL
