MODEL 1
REMARK minimizedAffinity 13.5569611
REMARK minimizedRMSD -1
REMARK  0 active torsions:
REMARK  status: ('A' for Active; 'I' for Inactive)
ROOT
ATOM      1  O1  BZF d   1      -2.654  -2.395   0.301  0.00  0.00    -0.204 OA
ATOM      2  C2  BZF d   1      -1.416  -1.785   0.353  0.00  0.00     0.174 A 
ATOM      3  C3  BZF d   1      -0.446  -2.635  -0.042  0.00  0.00    -0.012 A 
ATOM      4  C3A BZF d   1      -1.131  -3.823  -0.450  0.00  0.00    -0.107 A 
ATOM      5  C4  BZF d   1      -0.713  -5.021  -0.956  0.00  0.00     0.055 A 
ATOM      6  C5  BZF d   1      -1.629  -5.999  -1.181  0.00  0.00    -0.016 A 
ATOM      7  C6  BZF d   1      -2.969  -5.816  -0.907  0.00  0.00     0.022 A 
ATOM      8  C7  BZF d   1      -3.432  -4.643  -0.409  0.00  0.00     0.029 A 
ATOM      9  C7A BZF d   1      -2.513  -3.641  -0.212  0.00  0.00     0.058 A 
ENDROOT
TORSDOF 0
ENDMDL
