MODEL 1
REMARK minimizedAffinity 12.7591171
REMARK minimizedRMSD -1
REMARK  0 active torsions:
REMARK  status: ('A' for Active; 'I' for Inactive)
ROOT
ATOM      1  O1  BZF d   1      -1.130  -5.580  -2.629  0.00  0.00    -0.204 OA
ATOM      2  C2  BZF d   1       0.131  -6.000  -2.251  0.00  0.00     0.174 A 
ATOM      3  C3  BZF d   1       0.635  -5.196  -1.292  0.00  0.00    -0.012 A 
ATOM      4  C3A BZF d   1      -0.411  -4.268  -0.991  0.00  0.00    -0.107 A 
ATOM      5  C4  BZF d   1      -0.521  -3.231  -0.109  0.00  0.00     0.055 A 
ATOM      6  C5  BZF d   1      -1.651  -2.476  -0.115  0.00  0.00    -0.016 A 
ATOM      7  C6  BZF d   1      -2.687  -2.726  -0.991  0.00  0.00     0.022 A 
ATOM      8  C7  BZF d   1      -2.626  -3.746  -1.881  0.00  0.00     0.029 A 
ATOM      9  C7A BZF d   1      -1.499  -4.532  -1.855  0.00  0.00     0.058 A 
ENDROOT
TORSDOF 0
ENDMDL
