MODEL 1
REMARK minimizedAffinity 2.11291933
REMARK minimizedRMSD -1
REMARK  0 active torsions:
REMARK  status: ('A' for Active; 'I' for Inactive)
ROOT
ATOM      1  O1  BZF d   1       1.502  -5.457  -1.883  0.00  0.00    -0.204 OA
ATOM      2  C2  BZF d   1       0.231  -5.993  -1.959  0.00  0.00     0.174 A 
ATOM      3  C3  BZF d   1      -0.652  -5.230  -1.282  0.00  0.00    -0.012 A 
ATOM      4  C3A BZF d   1       0.099  -4.100  -0.827  0.00  0.00    -0.107 A 
ATOM      5  C4  BZF d   1      -0.226  -2.984  -0.111  0.00  0.00     0.055 A 
ATOM      6  C5  BZF d   1       0.756  -2.108   0.229  0.00  0.00    -0.016 A 
ATOM      7  C6  BZF d   1       2.072  -2.320  -0.125  0.00  0.00     0.022 A 
ATOM      8  C7  BZF d   1       2.443  -3.411  -0.840  0.00  0.00     0.029 A 
ATOM      9  C7A BZF d   1       1.447  -4.280  -1.213  0.00  0.00     0.058 A 
ENDROOT
TORSDOF 0
ENDMDL
