MODEL 1
REMARK minimizedAffinity 4.69927502
REMARK minimizedRMSD -1
REMARK  0 active torsions:
REMARK  status: ('A' for Active; 'I' for Inactive)
ROOT
ATOM      1  O1  BZF d   1       5.677   4.824   5.973  0.00  0.00    -0.204 OA
ATOM      2  C2  BZF d   1       4.875   5.949   5.951  0.00  0.00     0.174 A 
ATOM      3  C3  BZF d   1       4.154   6.000   4.813  0.00  0.00    -0.012 A 
ATOM      4  C3A BZF d   1       4.460   4.787   4.119  0.00  0.00    -0.107 A 
ATOM      5  C4  BZF d   1       4.042   4.252   2.934  0.00  0.00     0.055 A 
ATOM      6  C5  BZF d   1       4.589   3.083   2.507  0.00  0.00    -0.016 A 
ATOM      7  C6  BZF d   1       5.557   2.426   3.237  0.00  0.00     0.022 A 
ATOM      8  C7  BZF d   1       6.000   2.915   4.421  0.00  0.00     0.029 A 
ATOM      9  C7A BZF d   1       5.426   4.079   4.871  0.00  0.00     0.058 A 
ENDROOT
TORSDOF 0
ENDMDL
