MODEL 1
REMARK minimizedAffinity 14.0135393
REMARK minimizedRMSD -1
REMARK  0 active torsions:
REMARK  status: ('A' for Active; 'I' for Inactive)
ROOT
ATOM      1  O1  BZF d   1       2.877   4.513   1.830  0.00  0.00    -0.204 OA
ATOM      2  C2  BZF d   1       2.338   3.306   1.427  0.00  0.00     0.174 A 
ATOM      3  C3  BZF d   1       3.083   2.276   1.876  0.00  0.00    -0.012 A 
ATOM      4  C3A BZF d   1       4.103   2.872   2.682  0.00  0.00    -0.107 A 
ATOM      5  C4  BZF d   1       5.139   2.365   3.413  0.00  0.00     0.055 A 
ATOM      6  C5  BZF d   1       5.998   3.222   4.026  0.00  0.00    -0.016 A 
ATOM      7  C6  BZF d   1       5.853   4.590   3.925  0.00  0.00     0.022 A 
ATOM      8  C7  BZF d   1       4.838   5.141   3.215  0.00  0.00     0.029 A 
ATOM      9  C7A BZF d   1       3.950   4.277   2.622  0.00  0.00     0.058 A 
ENDROOT
TORSDOF 0
ENDMDL
