MODEL 1
REMARK minimizedAffinity 8.6481266
REMARK minimizedRMSD -1
REMARK  0 active torsions:
REMARK  status: ('A' for Active; 'I' for Inactive)
ROOT
ATOM      1  O1  BZF d   1      -1.079  -5.301  -1.553  0.00  0.00    -0.204 OA
ATOM      2  C2  BZF d   1       0.066  -5.323  -0.780  0.00  0.00     0.174 A 
ATOM      3  C3  BZF d   1       0.119  -4.245   0.028  0.00  0.00    -0.012 A 
ATOM      4  C3A BZF d   1      -1.113  -3.550  -0.192  0.00  0.00    -0.107 A 
ATOM      5  C4  BZF d   1      -1.654  -2.411   0.333  0.00  0.00     0.055 A 
ATOM      6  C5  BZF d   1      -2.843  -1.963  -0.149  0.00  0.00    -0.016 A 
ATOM      7  C6  BZF d   1      -3.515  -2.624  -1.156  0.00  0.00     0.022 A 
ATOM      8  C7  BZF d   1      -3.019  -3.761  -1.704  0.00  0.00     0.029 A 
ATOM      9  C7A BZF d   1      -1.834  -4.234  -1.197  0.00  0.00     0.058 A 
ENDROOT
TORSDOF 0
ENDMDL
