MODEL 1
REMARK minimizedAffinity 10.8945618
REMARK minimizedRMSD -1
REMARK  0 active torsions:
REMARK  status: ('A' for Active; 'I' for Inactive)
ROOT
ATOM      1  O1  BZF d   1       3.885   1.173   1.879  0.00  0.00    -0.204 OA
ATOM      2  C2  BZF d   1       5.230   1.488   1.853  0.00  0.00     0.174 A 
ATOM      3  C3  BZF d   1       5.426   2.776   2.201  0.00  0.00    -0.012 A 
ATOM      4  C3A BZF d   1       4.130   3.273   2.549  0.00  0.00    -0.107 A 
ATOM      5  C4  BZF d   1       3.676   4.483   2.990  0.00  0.00     0.055 A 
ATOM      6  C5  BZF d   1       2.340   4.663   3.167  0.00  0.00    -0.016 A 
ATOM      7  C6  BZF d   1       1.432   3.658   2.908  0.00  0.00     0.022 A 
ATOM      8  C7  BZF d   1       1.835   2.439   2.473  0.00  0.00     0.029 A 
ATOM      9  C7A BZF d   1       3.187   2.244   2.325  0.00  0.00     0.058 A 
ENDROOT
TORSDOF 0
ENDMDL
