MODEL 1
REMARK minimizedAffinity 4.39326382
REMARK minimizedRMSD -1
REMARK  0 active torsions:
REMARK  status: ('A' for Active; 'I' for Inactive)
ROOT
ATOM      1  O1  BZF d   1       0.949  -3.593  -0.769  0.00  0.00    -0.204 OA
ATOM      2  C2  BZF d   1       1.639  -2.681   0.006  0.00  0.00     0.174 A 
ATOM      3  C3  BZF d   1       0.794  -1.788   0.560  0.00  0.00    -0.012 A 
ATOM      4  C3A BZF d   1      -0.515  -2.221   0.177  0.00  0.00    -0.107 A 
ATOM      5  C4  BZF d   1      -1.771  -1.751   0.433  0.00  0.00     0.055 A 
ATOM      6  C5  BZF d   1      -2.836  -2.361  -0.151  0.00  0.00    -0.016 A 
ATOM      7  C6  BZF d   1      -2.681  -3.439  -0.998  0.00  0.00     0.022 A 
ATOM      8  C7  BZF d   1      -1.454  -3.943  -1.278  0.00  0.00     0.029 A 
ATOM      9  C7A BZF d   1      -0.379  -3.350  -0.664  0.00  0.00     0.058 A 
ENDROOT
TORSDOF 0
ENDMDL
