MODEL 1
REMARK minimizedAffinity 6.51229382
REMARK minimizedRMSD -1
REMARK  0 active torsions:
REMARK  status: ('A' for Active; 'I' for Inactive)
ROOT
ATOM      1  C2' OXE d   1       0.628  -0.616   1.588  0.00  0.00     0.078 C 
ATOM      2  C1' OXE d   1       3.427  -0.635   1.790  0.00  0.00     0.078 C 
ATOM      3  C1  OXE d   1       2.778   0.553   1.125  0.00  0.00    -0.078 A 
ATOM      4  C2  OXE d   1       1.411   0.532   0.988  0.00  0.00    -0.078 A 
ATOM      5  C3  OXE d   1       0.757   1.627   0.431  0.00  0.00     0.003 A 
ATOM      6  C4  OXE d   1       1.489   2.680  -0.130  0.00  0.00    -0.002 A 
ATOM      7  C5  OXE d   1       2.885   2.702  -0.037  0.00  0.00    -0.002 A 
ATOM      8  C6  OXE d   1       3.541   1.669   0.623  0.00  0.00     0.003 A 
ENDROOT
TORSDOF 0
ENDMDL
