MODEL 1
REMARK minimizedAffinity 2.10035324
REMARK minimizedRMSD -1
REMARK  0 active torsions:
REMARK  status: ('A' for Active; 'I' for Inactive)
ROOT
ATOM      1  C2' OXE d   1       0.766   3.704  -0.723  0.00  0.00     0.078 C 
ATOM      2  C1' OXE d   1      -1.023   2.170   0.803  0.00  0.00     0.078 C 
ATOM      3  C1  OXE d   1       0.432   1.773   0.815  0.00  0.00    -0.078 A 
ATOM      4  C2  OXE d   1       1.293   2.501   0.029  0.00  0.00    -0.078 A 
ATOM      5  C3  OXE d   1       2.654   2.211   0.046  0.00  0.00     0.003 A 
ATOM      6  C4  OXE d   1       3.132   1.090   0.735  0.00  0.00    -0.002 A 
ATOM      7  C5  OXE d   1       2.266   0.311   1.511  0.00  0.00    -0.002 A 
ATOM      8  C6  OXE d   1       0.924   0.664   1.595  0.00  0.00     0.003 A 
ENDROOT
TORSDOF 0
ENDMDL
