MODEL 1
REMARK minimizedAffinity 2.21497321
REMARK minimizedRMSD -1
REMARK  0 active torsions:
REMARK  status: ('A' for Active; 'I' for Inactive)
ROOT
ATOM      1  C2' OXE d   1      -0.877  -5.903  -0.948  0.00  0.00     0.078 C 
ATOM      2  C1' OXE d   1       1.288  -4.129  -1.165  0.00  0.00     0.078 C 
ATOM      3  C1  OXE d   1      -0.100  -3.574  -1.370  0.00  0.00    -0.078 A 
ATOM      4  C2  OXE d   1      -1.150  -4.458  -1.308  0.00  0.00    -0.078 A 
ATOM      5  C3  OXE d   1      -2.454  -3.989  -1.435  0.00  0.00     0.003 A 
ATOM      6  C4  OXE d   1      -2.697  -2.653  -1.778  0.00  0.00    -0.002 A 
ATOM      7  C5  OXE d   1      -1.639  -1.745  -1.885  0.00  0.00    -0.002 A 
ATOM      8  C6  OXE d   1      -0.340  -2.179  -1.643  0.00  0.00     0.003 A 
ENDROOT
TORSDOF 0
ENDMDL
