MODEL 1
REMARK minimizedAffinity 9.28326511
REMARK minimizedRMSD -1
REMARK  0 active torsions:
REMARK  status: ('A' for Active; 'I' for Inactive)
ROOT
ATOM      1  C2' OXE d   1       1.051  -2.931  -2.592  0.00  0.00     0.078 C 
ATOM      2  C1' OXE d   1      -1.664  -2.220  -2.567  0.00  0.00     0.078 C 
ATOM      3  C1  OXE d   1      -0.973  -2.404  -1.239  0.00  0.00    -0.078 A 
ATOM      4  C2  OXE d   1       0.343  -2.797  -1.261  0.00  0.00    -0.078 A 
ATOM      5  C3  OXE d   1       1.043  -2.928  -0.065  0.00  0.00     0.003 A 
ATOM      6  C4  OXE d   1       0.378  -2.813   1.162  0.00  0.00    -0.002 A 
ATOM      7  C5  OXE d   1      -0.972  -2.452   1.206  0.00  0.00    -0.002 A 
ATOM      8  C6  OXE d   1      -1.650  -2.202   0.018  0.00  0.00     0.003 A 
ENDROOT
TORSDOF 0
ENDMDL
