MODEL 1
REMARK minimizedAffinity 0.988667548
REMARK minimizedRMSD -1
REMARK  0 active torsions:
REMARK  status: ('A' for Active; 'I' for Inactive)
ROOT
ATOM      1  C2' OXE d   1      -1.266  -1.122   1.311  0.00  0.00     0.078 C 
ATOM      2  C1' OXE d   1       1.286  -2.128   1.907  0.00  0.00     0.078 C 
ATOM      3  C1  OXE d   1       1.174  -0.670   1.537  0.00  0.00    -0.078 A 
ATOM      4  C2  OXE d   1      -0.072  -0.197   1.202  0.00  0.00    -0.078 A 
ATOM      5  C3  OXE d   1      -0.241   1.152   0.906  0.00  0.00     0.003 A 
ATOM      6  C4  OXE d   1       0.870   1.998   0.797  0.00  0.00    -0.002 A 
ATOM      7  C5  OXE d   1       2.153   1.528   1.095  0.00  0.00    -0.002 A 
ATOM      8  C6  OXE d   1       2.316   0.210   1.508  0.00  0.00     0.003 A 
ENDROOT
TORSDOF 0
ENDMDL
