MODEL 1
REMARK minimizedAffinity -1.70731831
REMARK minimizedRMSD -1
REMARK  0 active torsions:
REMARK  status: ('A' for Active; 'I' for Inactive)
ROOT
ATOM      1  C2' OXE d   1       1.144  -2.055   4.289  0.00  0.00     0.078 C 
ATOM      2  C1' OXE d   1      -0.285  -2.639   1.944  0.00  0.00     0.078 C 
ATOM      3  C1  OXE d   1       0.548  -1.381   1.966  0.00  0.00    -0.078 A 
ATOM      4  C2  OXE d   1       1.206  -1.079   3.134  0.00  0.00    -0.078 A 
ATOM      5  C3  OXE d   1       2.031   0.041   3.190  0.00  0.00     0.003 A 
ATOM      6  C4  OXE d   1       2.075   0.943   2.120  0.00  0.00    -0.002 A 
ATOM      7  C5  OXE d   1       1.381   0.675   0.936  0.00  0.00    -0.002 A 
ATOM      8  C6  OXE d   1       0.648  -0.502   0.827  0.00  0.00     0.003 A 
ENDROOT
TORSDOF 0
ENDMDL
