MODEL 1
REMARK minimizedAffinity 2.75488138
REMARK minimizedRMSD -1
REMARK  0 active torsions:
REMARK  status: ('A' for Active; 'I' for Inactive)
ROOT
ATOM      1  C2' OXE d   1       2.995  -3.759   5.279  0.00  0.00     0.078 C 
ATOM      2  C1' OXE d   1       4.973  -2.970   3.451  0.00  0.00     0.078 C 
ATOM      3  C1  OXE d   1       3.567  -2.472   3.224  0.00  0.00    -0.078 A 
ATOM      4  C2  OXE d   1       2.597  -2.902   4.097  0.00  0.00    -0.078 A 
ATOM      5  C3  OXE d   1       1.294  -2.429   3.966  0.00  0.00     0.003 A 
ATOM      6  C4  OXE d   1       0.932  -1.645   2.864  0.00  0.00    -0.002 A 
ATOM      7  C5  OXE d   1       1.897  -1.229   1.941  0.00  0.00    -0.002 A 
ATOM      8  C6  OXE d   1       3.225  -1.598   2.130  0.00  0.00     0.003 A 
ENDROOT
TORSDOF 0
ENDMDL
