MODEL 1
REMARK minimizedAffinity 6.40749454
REMARK minimizedRMSD -1
REMARK  0 active torsions:
REMARK  status: ('A' for Active; 'I' for Inactive)
ROOT
ATOM      1  C2' OXE d   1       1.997   0.960   0.150  0.00  0.00     0.078 C 
ATOM      2  C1' OXE d   1       2.076   1.768   2.837  0.00  0.00     0.078 C 
ATOM      3  C1  OXE d   1       1.660   0.348   2.541  0.00  0.00    -0.078 A 
ATOM      4  C2  OXE d   1       1.579  -0.024   1.221  0.00  0.00    -0.078 A 
ATOM      5  C3  OXE d   1       1.254  -1.338   0.894  0.00  0.00     0.003 A 
ATOM      6  C4  OXE d   1       0.860  -2.239   1.890  0.00  0.00    -0.002 A 
ATOM      7  C5  OXE d   1       0.897  -1.868   3.238  0.00  0.00    -0.002 A 
ATOM      8  C6  OXE d   1       1.335  -0.594   3.583  0.00  0.00     0.003 A 
ENDROOT
TORSDOF 0
ENDMDL
