MODEL 1
REMARK minimizedAffinity -1.97014832
REMARK minimizedRMSD -1
REMARK  0 active torsions:
REMARK  status: ('A' for Active; 'I' for Inactive)
ROOT
ATOM      1  C2' OXE d   1       1.567  -1.318   3.052  0.00  0.00     0.078 C 
ATOM      2  C1' OXE d   1      -0.467  -1.455   1.122  0.00  0.00     0.078 C 
ATOM      3  C1  OXE d   1       0.477  -0.280   1.067  0.00  0.00    -0.078 A 
ATOM      4  C2  OXE d   1       1.441  -0.197   2.043  0.00  0.00    -0.078 A 
ATOM      5  C3  OXE d   1       2.371   0.838   2.007  0.00  0.00     0.003 A 
ATOM      6  C4  OXE d   1       2.241   1.876   1.076  0.00  0.00    -0.002 A 
ATOM      7  C5  OXE d   1       1.242   1.831   0.098  0.00  0.00    -0.002 A 
ATOM      8  C6  OXE d   1       0.381   0.741   0.053  0.00  0.00     0.003 A 
ENDROOT
TORSDOF 0
ENDMDL
