MODEL 1
REMARK minimizedAffinity 8.24050426
REMARK minimizedRMSD -1
REMARK  1 active torsions:
REMARK  status: ('A' for Active; 'I' for Inactive)
REMARK    1  A    between atoms: C1_2  and  C2_3 
ROOT
ATOM      1  C2  UNL d   1      -5.959  -1.916   2.977  0.00  0.00    -0.077 A 
ATOM      2  C3  UNL d   1      -5.950  -2.930   3.945  0.00  0.00     0.002 A 
ATOM      3  C4  UNL d   1      -5.965  -2.609   5.304  0.00  0.00     0.002 A 
ATOM      4  C5  UNL d   1      -5.993  -1.276   5.706  0.00  0.00    -0.004 A 
ATOM      5  C6  UNL d   1      -5.999  -0.260   4.751  0.00  0.00     0.002 A 
ATOM      6  C7  UNL d   1      -5.983  -0.579   3.393  0.00  0.00     0.002 A 
ENDROOT
BRANCH   1   7
ATOM      7  C1  UNL d   1      -5.992  -2.261   1.511  0.00  0.00     0.055 C 
ATOM      8  C   UNL d   1      -5.781  -3.751   1.287  0.00  0.00     0.019 C 
ENDBRANCH   1   7
TORSDOF 1
ENDMDL
