MODEL 1
REMARK minimizedAffinity 5.10105276
REMARK minimizedRMSD -1
REMARK  1 active torsions:
REMARK  status: ('A' for Active; 'I' for Inactive)
REMARK    1  A    between atoms: C1_2  and  C2_3 
ROOT
ATOM      1  C2  UNL d   1       2.974   0.182  -2.685  0.00  0.00    -0.077 A 
ATOM      2  C3  UNL d   1       2.911   0.530  -1.328  0.00  0.00     0.002 A 
ATOM      3  C4  UNL d   1       2.353   1.749  -0.937  0.00  0.00     0.002 A 
ATOM      4  C5  UNL d   1       1.850   2.626  -1.895  0.00  0.00    -0.004 A 
ATOM      5  C6  UNL d   1       1.910   2.291  -3.247  0.00  0.00     0.002 A 
ATOM      6  C7  UNL d   1       2.469   1.074  -3.640  0.00  0.00     0.002 A 
ENDROOT
BRANCH   1   7
ATOM      7  C1  UNL d   1       3.531  -1.153  -3.106  0.00  0.00     0.055 C 
ATOM      8  C   UNL d   1       3.053  -2.267  -2.186  0.00  0.00     0.019 C 
ENDBRANCH   1   7
TORSDOF 1
ENDMDL
