MODEL 1
REMARK minimizedAffinity 7.99415112
REMARK minimizedRMSD -1
REMARK  1 active torsions:
REMARK  status: ('A' for Active; 'I' for Inactive)
REMARK    1  A    between atoms: C1_2  and  C2_3 
ROOT
ATOM      1  C2  UNL d   1       0.039  -0.352   0.305  0.00  0.00    -0.077 A 
ATOM      2  C3  UNL d   1      -1.107  -1.127   0.079  0.00  0.00     0.002 A 
ATOM      3  C4  UNL d   1      -1.355  -2.263   0.852  0.00  0.00     0.002 A 
ATOM      4  C5  UNL d   1      -0.465  -2.631   1.858  0.00  0.00    -0.004 A 
ATOM      5  C6  UNL d   1       0.679  -1.868   2.089  0.00  0.00     0.002 A 
ATOM      6  C7  UNL d   1       0.929  -0.733   1.317  0.00  0.00     0.002 A 
ENDROOT
BRANCH   1   7
ATOM      7  C1  UNL d   1       0.283   0.901  -0.495  0.00  0.00     0.055 C 
ATOM      8  C   UNL d   1       1.370   1.758   0.137  0.00  0.00     0.019 C 
ENDBRANCH   1   7
TORSDOF 1
ENDMDL
