MODEL 1
REMARK minimizedAffinity 0.7622419
REMARK minimizedRMSD -1
REMARK  1 active torsions:
REMARK  status: ('A' for Active; 'I' for Inactive)
REMARK    1  A    between atoms: C1_2  and  C2_3 
ROOT
ATOM      1  C2  UNL d   1       0.601   0.497   0.566  0.00  0.00    -0.077 A 
ATOM      2  C3  UNL d   1       1.294  -0.441   1.344  0.00  0.00     0.002 A 
ATOM      3  C4  UNL d   1       0.721  -0.953   2.509  0.00  0.00     0.002 A 
ATOM      4  C5  UNL d   1      -0.548  -0.536   2.905  0.00  0.00    -0.004 A 
ATOM      5  C6  UNL d   1      -1.244   0.399   2.139  0.00  0.00     0.002 A 
ATOM      6  C7  UNL d   1      -0.672   0.912   0.975  0.00  0.00     0.002 A 
ENDROOT
BRANCH   1   7
ATOM      7  C1  UNL d   1       1.197   1.014  -0.718  0.00  0.00     0.055 C 
ATOM      8  C   UNL d   1       2.375   1.938  -0.449  0.00  0.00     0.019 C 
ENDBRANCH   1   7
TORSDOF 1
ENDMDL
