MODEL 1
REMARK minimizedAffinity 4.04129839
REMARK minimizedRMSD -1
REMARK  1 active torsions:
REMARK  status: ('A' for Active; 'I' for Inactive)
REMARK    1  A    between atoms: C1_2  and  C2_3 
ROOT
ATOM      1  C2  UNL d   1      -4.921   1.009   3.077  0.00  0.00    -0.077 A 
ATOM      2  C3  UNL d   1      -5.194  -0.271   2.573  0.00  0.00     0.002 A 
ATOM      3  C4  UNL d   1      -4.185  -1.021   1.966  0.00  0.00     0.002 A 
ATOM      4  C5  UNL d   1      -2.897  -0.501   1.860  0.00  0.00    -0.004 A 
ATOM      5  C6  UNL d   1      -2.616   0.771   2.355  0.00  0.00     0.002 A 
ATOM      6  C7  UNL d   1      -3.623   1.523   2.962  0.00  0.00     0.002 A 
ENDROOT
BRANCH   1   7
ATOM      7  C1  UNL d   1      -5.996   1.799   3.776  0.00  0.00     0.055 C 
ATOM      8  C   UNL d   1      -5.999   1.525   5.273  0.00  0.00     0.019 C 
ENDBRANCH   1   7
TORSDOF 1
ENDMDL
