MODEL 1
REMARK minimizedAffinity 0.577451408
REMARK minimizedRMSD -1
REMARK  1 active torsions:
REMARK  status: ('A' for Active; 'I' for Inactive)
REMARK    1  A    between atoms: C1_2  and  C2_3 
ROOT
ATOM      1  C2  UNL d   1      -1.225  -1.170  -1.462  0.00  0.00    -0.077 A 
ATOM      2  C3  UNL d   1      -1.665  -1.915  -0.360  0.00  0.00     0.002 A 
ATOM      3  C4  UNL d   1      -0.975  -1.857   0.853  0.00  0.00     0.002 A 
ATOM      4  C5  UNL d   1       0.155  -1.051   0.976  0.00  0.00    -0.004 A 
ATOM      5  C6  UNL d   1       0.601  -0.307  -0.116  0.00  0.00     0.002 A 
ATOM      6  C7  UNL d   1      -0.086  -0.366  -1.329  0.00  0.00     0.002 A 
ENDROOT
BRANCH   1   7
ATOM      7  C1  UNL d   1      -1.996  -1.193  -2.756  0.00  0.00     0.055 C 
ATOM      8  C   UNL d   1      -1.899   0.141  -3.483  0.00  0.00     0.019 C 
ENDBRANCH   1   7
TORSDOF 1
ENDMDL
