MODEL 1
REMARK minimizedAffinity -2.20659328
REMARK minimizedRMSD -1
REMARK  1 active torsions:
REMARK  status: ('A' for Active; 'I' for Inactive)
REMARK    1  A    between atoms: C1_2  and  C2_3 
ROOT
ATOM      1  C2  UNL d   1       5.649  -1.299   4.313  0.00  0.00    -0.077 A 
ATOM      2  C3  UNL d   1       5.365  -2.237   3.310  0.00  0.00     0.002 A 
ATOM      3  C4  UNL d   1       4.996  -3.541   3.647  0.00  0.00     0.002 A 
ATOM      4  C5  UNL d   1       4.904  -3.916   4.985  0.00  0.00    -0.004 A 
ATOM      5  C6  UNL d   1       5.187  -2.991   5.990  0.00  0.00     0.002 A 
ATOM      6  C7  UNL d   1       5.556  -1.688   5.655  0.00  0.00     0.002 A 
ENDROOT
BRANCH   1   7
ATOM      7  C1  UNL d   1       5.999   0.121   3.952  0.00  0.00     0.055 C 
ATOM      8  C   UNL d   1       5.681   0.417   2.494  0.00  0.00     0.019 C 
ENDBRANCH   1   7
TORSDOF 1
ENDMDL
