MODEL 1
REMARK minimizedAffinity -1.17259216
REMARK minimizedRMSD -1
REMARK  1 active torsions:
REMARK  status: ('A' for Active; 'I' for Inactive)
REMARK    1  A    between atoms: C1_2  and  C2_3 
ROOT
ATOM      1  C2  UNL d   1       5.560  -3.064   5.284  0.00  0.00    -0.077 A 
ATOM      2  C3  UNL d   1       5.445  -2.999   3.889  0.00  0.00     0.002 A 
ATOM      3  C4  UNL d   1       5.603  -1.782   3.223  0.00  0.00     0.002 A 
ATOM      4  C5  UNL d   1       5.882  -0.622   3.944  0.00  0.00    -0.004 A 
ATOM      5  C6  UNL d   1       5.996  -0.676   5.333  0.00  0.00     0.002 A 
ATOM      6  C7  UNL d   1       5.837  -1.892   6.000  0.00  0.00     0.002 A 
ENDROOT
BRANCH   1   7
ATOM      7  C1  UNL d   1       5.439  -4.384   6.000  0.00  0.00     0.055 C 
ATOM      8  C   UNL d   1       4.014  -4.915   5.943  0.00  0.00     0.019 C 
ENDBRANCH   1   7
TORSDOF 1
ENDMDL
