MODEL 1
REMARK minimizedAffinity 1.7216171
REMARK minimizedRMSD -1
REMARK  1 active torsions:
REMARK  status: ('A' for Active; 'I' for Inactive)
REMARK    1  A    between atoms: C1_2  and  C2_3 
ROOT
ATOM      1  C2  UNL d   1       5.831  -2.822   4.356  0.00  0.00    -0.077 A 
ATOM      2  C3  UNL d   1       5.787  -2.211   3.095  0.00  0.00     0.002 A 
ATOM      3  C4  UNL d   1       5.843  -0.820   2.982  0.00  0.00     0.002 A 
ATOM      4  C5  UNL d   1       5.948  -0.030   4.125  0.00  0.00    -0.004 A 
ATOM      5  C6  UNL d   1       5.991  -0.629   5.383  0.00  0.00     0.002 A 
ATOM      6  C7  UNL d   1       5.934  -2.018   5.498  0.00  0.00     0.002 A 
ENDROOT
BRANCH   1   7
ATOM      7  C1  UNL d   1       5.821  -4.324   4.477  0.00  0.00     0.055 C 
ATOM      8  C   UNL d   1       4.941  -4.779   5.632  0.00  0.00     0.019 C 
ENDBRANCH   1   7
TORSDOF 1
ENDMDL
