MODEL 1
REMARK minimizedAffinity 0.236848757
REMARK minimizedRMSD -1
REMARK  1 active torsions:
REMARK  status: ('A' for Active; 'I' for Inactive)
REMARK    1  A    between atoms: C1_2  and  C2_3 
ROOT
ATOM      1  C2  UNL d   1      -2.364  -0.203  -1.745  0.00  0.00    -0.077 A 
ATOM      2  C3  UNL d   1      -2.575  -1.271  -0.861  0.00  0.00     0.002 A 
ATOM      3  C4  UNL d   1      -1.973  -1.275   0.398  0.00  0.00     0.002 A 
ATOM      4  C5  UNL d   1      -1.160  -0.213   0.787  0.00  0.00    -0.004 A 
ATOM      5  C6  UNL d   1      -0.942   0.853  -0.086  0.00  0.00     0.002 A 
ATOM      6  C7  UNL d   1      -1.542   0.858  -1.345  0.00  0.00     0.002 A 
ENDROOT
BRANCH   1   7
ATOM      7  C1  UNL d   1      -3.052  -0.174  -3.085  0.00  0.00     0.055 C 
ATOM      8  C   UNL d   1      -2.045  -0.200  -4.225  0.00  0.00     0.019 C 
ENDBRANCH   1   7
TORSDOF 1
ENDMDL
