MODEL 1
REMARK minimizedAffinity -1.51102841
REMARK minimizedRMSD -1
REMARK  1 active torsions:
REMARK  status: ('A' for Active; 'I' for Inactive)
REMARK    1  A    between atoms: C1_2  and  C2_3 
ROOT
ATOM      1  C2  UNL d   1       5.827  -2.438   5.280  0.00  0.00    -0.077 A 
ATOM      2  C3  UNL d   1       5.866  -1.236   6.000  0.00  0.00     0.002 A 
ATOM      3  C4  UNL d   1       5.949  -0.014   5.330  0.00  0.00     0.002 A 
ATOM      4  C5  UNL d   1       5.989   0.018   3.937  0.00  0.00    -0.004 A 
ATOM      5  C6  UNL d   1       5.953  -1.173   3.212  0.00  0.00     0.002 A 
ATOM      6  C7  UNL d   1       5.871  -2.395   3.881  0.00  0.00     0.002 A 
ENDROOT
BRANCH   1   7
ATOM      7  C1  UNL d   1       5.688  -3.754   5.999  0.00  0.00     0.055 C 
ATOM      8  C   UNL d   1       4.340  -4.400   5.716  0.00  0.00     0.019 C 
ENDBRANCH   1   7
TORSDOF 1
ENDMDL
