MODEL 1
REMARK minimizedAffinity 6.82915878
REMARK minimizedRMSD -1
REMARK  1 active torsions:
REMARK  status: ('A' for Active; 'I' for Inactive)
REMARK    1  A    between atoms: C1_2  and  C2_3 
ROOT
ATOM      1  C2  UNL d   1       3.244  -1.043  -2.850  0.00  0.00    -0.077 A 
ATOM      2  C3  UNL d   1       2.486  -1.721  -3.815  0.00  0.00     0.002 A 
ATOM      3  C4  UNL d   1       2.872  -1.703  -5.156  0.00  0.00     0.002 A 
ATOM      4  C5  UNL d   1       4.018  -1.013  -5.544  0.00  0.00    -0.004 A 
ATOM      5  C6  UNL d   1       4.778  -0.334  -4.593  0.00  0.00     0.002 A 
ATOM      6  C7  UNL d   1       4.393  -0.350  -3.251  0.00  0.00     0.002 A 
ENDROOT
BRANCH   1   7
ATOM      7  C1  UNL d   1       2.858  -1.102  -1.395  0.00  0.00     0.055 C 
ATOM      8  C   UNL d   1       2.881   0.280  -0.760  0.00  0.00     0.019 C 
ENDBRANCH   1   7
TORSDOF 1
ENDMDL
