MODEL 1
REMARK minimizedAffinity 7.11881542
REMARK minimizedRMSD -1
REMARK  0 active torsions:
REMARK  status: ('A' for Active; 'I' for Inactive)
ROOT
ATOM      1  C1  BNZ d   1      -2.563   1.022   3.158  0.00  0.00     0.000 A 
ATOM      2  C2  BNZ d   1      -2.944   0.996   1.843  0.00  0.00     0.000 A 
ATOM      3  C3  BNZ d   1      -2.581  -0.041   1.029  0.00  0.00     0.000 A 
ATOM      4  C4  BNZ d   1      -1.805  -1.028   1.520  0.00  0.00     0.000 A 
ATOM      5  C5  BNZ d   1      -1.404  -1.011   2.841  0.00  0.00     0.000 A 
ATOM      6  C6  BNZ d   1      -1.804   0.014   3.667  0.00  0.00     0.000 A 
ENDROOT
TORSDOF 0
ENDMDL
