MODEL 1
REMARK minimizedAffinity 9.77442455
REMARK minimizedRMSD -1
REMARK  0 active torsions:
REMARK  status: ('A' for Active; 'I' for Inactive)
ROOT
ATOM      1  C1  BNZ d   1      -0.967  -0.653   3.248  0.00  0.00     0.000 A 
ATOM      2  C2  BNZ d   1      -0.950  -0.461   4.604  0.00  0.00     0.000 A 
ATOM      3  C3  BNZ d   1      -1.797   0.435   5.195  0.00  0.00     0.000 A 
ATOM      4  C4  BNZ d   1      -2.631   1.164   4.426  0.00  0.00     0.000 A 
ATOM      5  C5  BNZ d   1      -2.654   0.988   3.057  0.00  0.00     0.000 A 
ATOM      6  C6  BNZ d   1      -1.828   0.058   2.470  0.00  0.00     0.000 A 
ENDROOT
TORSDOF 0
ENDMDL
