MODEL 1
REMARK minimizedAffinity 0.567026198
REMARK minimizedRMSD -1
REMARK  0 active torsions:
REMARK  status: ('A' for Active; 'I' for Inactive)
ROOT
ATOM      1  C1  BNZ d   1       5.999   4.784  -0.768  0.00  0.00     0.000 A 
ATOM      2  C2  BNZ d   1       6.000   3.751   0.130  0.00  0.00     0.000 A 
ATOM      3  C3  BNZ d   1       5.055   3.679   1.116  0.00  0.00     0.000 A 
ATOM      4  C4  BNZ d   1       4.137   4.660   1.226  0.00  0.00     0.000 A 
ATOM      5  C5  BNZ d   1       4.129   5.714   0.334  0.00  0.00     0.000 A 
ATOM      6  C6  BNZ d   1       5.057   5.762  -0.680  0.00  0.00     0.000 A 
ENDROOT
TORSDOF 0
ENDMDL
