MODEL 1
REMARK minimizedAffinity 12.173439
REMARK minimizedRMSD -1
REMARK  0 active torsions:
REMARK  status: ('A' for Active; 'I' for Inactive)
ROOT
ATOM      1  C1  BNZ d   1      -3.737   0.455   2.632  0.00  0.00     0.000 A 
ATOM      2  C2  BNZ d   1      -3.821  -0.611   1.777  0.00  0.00     0.000 A 
ATOM      3  C3  BNZ d   1      -2.743  -1.426   1.568  0.00  0.00     0.000 A 
ATOM      4  C4  BNZ d   1      -1.574  -1.151   2.181  0.00  0.00     0.000 A 
ATOM      5  C5  BNZ d   1      -1.472  -0.074   3.039  0.00  0.00     0.000 A 
ATOM      6  C6  BNZ d   1      -2.569   0.722   3.277  0.00  0.00     0.000 A 
ENDROOT
TORSDOF 0
ENDMDL
