MODEL 1
REMARK minimizedAffinity 5.04484558
REMARK minimizedRMSD -1
REMARK  0 active torsions:
REMARK  status: ('A' for Active; 'I' for Inactive)
ROOT
ATOM      1  C1  BNZ d   1       5.989  -3.887  -0.330  0.00  0.00     0.000 A 
ATOM      2  C2  BNZ d   1       5.999  -5.238  -0.105  0.00  0.00     0.000 A 
ATOM      3  C3  BNZ d   1       4.896  -6.000  -0.371  0.00  0.00     0.000 A 
ATOM      4  C4  BNZ d   1       3.773  -5.405  -0.824  0.00  0.00     0.000 A 
ATOM      5  C5  BNZ d   1       3.745  -4.043  -1.046  0.00  0.00     0.000 A 
ATOM      6  C6  BNZ d   1       4.869  -3.285  -0.814  0.00  0.00     0.000 A 
ENDROOT
TORSDOF 0
ENDMDL
