MODEL 1
REMARK minimizedAffinity 13.62463
REMARK minimizedRMSD -1
REMARK  0 active torsions:
REMARK  status: ('A' for Active; 'I' for Inactive)
ROOT
ATOM      1  C1  BNZ d   1       0.368  -6.000  -5.573  0.00  0.00     0.000 A 
ATOM      2  C2  BNZ d   1      -0.788  -5.436  -5.102  0.00  0.00     0.000 A 
ATOM      3  C3  BNZ d   1      -0.831  -4.858  -3.864  0.00  0.00     0.000 A 
ATOM      4  C4  BNZ d   1       0.268  -4.880  -3.083  0.00  0.00     0.000 A 
ATOM      5  C5  BNZ d   1       1.438  -5.453  -3.540  0.00  0.00     0.000 A 
ATOM      6  C6  BNZ d   1       1.489  -6.000  -4.802  0.00  0.00     0.000 A 
ENDROOT
TORSDOF 0
ENDMDL
