MODEL 1
REMARK minimizedAffinity 5.56850243
REMARK minimizedRMSD -1
REMARK  0 active torsions:
REMARK  status: ('A' for Active; 'I' for Inactive)
ROOT
ATOM      1  C1  BNZ d   1      -3.369  -1.174   1.660  0.00  0.00     0.000 A 
ATOM      2  C2  BNZ d   1      -2.179  -0.795   2.220  0.00  0.00     0.000 A 
ATOM      3  C3  BNZ d   1      -2.113   0.278   3.065  0.00  0.00     0.000 A 
ATOM      4  C4  BNZ d   1      -3.228   0.994   3.315  0.00  0.00     0.000 A 
ATOM      5  C5  BNZ d   1      -4.434   0.630   2.751  0.00  0.00     0.000 A 
ATOM      6  C6  BNZ d   1      -4.504  -0.474   1.932  0.00  0.00     0.000 A 
ENDROOT
TORSDOF 0
ENDMDL
