MODEL 1
REMARK minimizedAffinity -0.524504364
REMARK minimizedRMSD -1
REMARK  0 active torsions:
REMARK  status: ('A' for Active; 'I' for Inactive)
ROOT
ATOM      1  C1  BNZ d   1       5.755  -3.014  -0.719  0.00  0.00     0.000 A 
ATOM      2  C2  BNZ d   1       4.469  -2.549  -0.641  0.00  0.00     0.000 A 
ATOM      3  C3  BNZ d   1       3.420  -3.412  -0.496  0.00  0.00     0.000 A 
ATOM      4  C4  BNZ d   1       3.653  -4.740  -0.469  0.00  0.00     0.000 A 
ATOM      5  C5  BNZ d   1       4.943  -5.226  -0.555  0.00  0.00     0.000 A 
ATOM      6  C6  BNZ d   1       6.000  -4.351  -0.662  0.00  0.00     0.000 A 
ENDROOT
TORSDOF 0
ENDMDL
