MODEL 1
REMARK minimizedAffinity 7.58059597
REMARK minimizedRMSD -1
REMARK  0 active torsions:
REMARK  status: ('A' for Active; 'I' for Inactive)
ROOT
ATOM      1  C1  BNZ d   1       6.000  -4.125  -0.366  0.00  0.00     0.000 A 
ATOM      2  C2  BNZ d   1       4.903  -3.400  -0.747  0.00  0.00     0.000 A 
ATOM      3  C3  BNZ d   1       3.655  -3.959  -0.737  0.00  0.00     0.000 A 
ATOM      4  C4  BNZ d   1       3.512  -5.253  -0.384  0.00  0.00     0.000 A 
ATOM      5  C5  BNZ d   1       4.610  -6.000  -0.005  0.00  0.00     0.000 A 
ATOM      6  C6  BNZ d   1       5.858  -5.422   0.020  0.00  0.00     0.000 A 
ENDROOT
TORSDOF 0
ENDMDL
