MODEL 1
REMARK minimizedAffinity 6.10771418
REMARK minimizedRMSD -1
REMARK  0 active torsions:
REMARK  status: ('A' for Active; 'I' for Inactive)
ROOT
ATOM      1  C1  BNZ d   1       0.298  -1.775   2.900  0.00  0.00     0.000 A 
ATOM      2  C2  BNZ d   1       0.448  -1.118   4.092  0.00  0.00     0.000 A 
ATOM      3  C3  BNZ d   1      -0.351  -0.056   4.412  0.00  0.00     0.000 A 
ATOM      4  C4  BNZ d   1      -1.271   0.372   3.524  0.00  0.00     0.000 A 
ATOM      5  C5  BNZ d   1      -1.428  -0.273   2.313  0.00  0.00     0.000 A 
ATOM      6  C6  BNZ d   1      -0.648  -1.366   2.011  0.00  0.00     0.000 A 
ENDROOT
TORSDOF 0
ENDMDL
