MODEL 1
REMARK minimizedAffinity 2.3036201
REMARK minimizedRMSD -1
REMARK  0 active torsions:
REMARK  status: ('A' for Active; 'I' for Inactive)
ROOT
ATOM      1  C1  BNZ d   1      -3.016  -0.888   1.757  0.00  0.00     0.000 A 
ATOM      2  C2  BNZ d   1      -1.894  -0.489   2.434  0.00  0.00     0.000 A 
ATOM      3  C3  BNZ d   1      -1.945   0.549   3.322  0.00  0.00     0.000 A 
ATOM      4  C4  BNZ d   1      -3.107   1.210   3.503  0.00  0.00     0.000 A 
ATOM      5  C5  BNZ d   1      -4.244   0.825   2.822  0.00  0.00     0.000 A 
ATOM      6  C6  BNZ d   1      -4.198  -0.244   1.957  0.00  0.00     0.000 A 
ENDROOT
TORSDOF 0
ENDMDL
