MODEL 1
REMARK minimizedAffinity 5.7393055
REMARK minimizedRMSD -1
REMARK  0 active torsions:
REMARK  status: ('A' for Active; 'I' for Inactive)
ROOT
ATOM      1  C1  BNZ d   1      -1.342  -0.864   2.258  0.00  0.00     0.000 A 
ATOM      2  C2  BNZ d   1      -1.301   0.118   3.211  0.00  0.00     0.000 A 
ATOM      3  C3  BNZ d   1      -2.447   0.733   3.633  0.00  0.00     0.000 A 
ATOM      4  C4  BNZ d   1      -3.626   0.393   3.072  0.00  0.00     0.000 A 
ATOM      5  C5  BNZ d   1      -3.682  -0.588   2.103  0.00  0.00     0.000 A 
ATOM      6  C6  BNZ d   1      -2.531  -1.232   1.709  0.00  0.00     0.000 A 
ENDROOT
TORSDOF 0
ENDMDL
