MODEL 1
REMARK minimizedAffinity -1.52410316
REMARK minimizedRMSD -1
REMARK  0 active torsions:
REMARK  status: ('A' for Active; 'I' for Inactive)
ROOT
ATOM      1  C1  BNZ d   1      -3.436   0.842   3.381  0.00  0.00     0.000 A 
ATOM      2  C2  BNZ d   1      -3.463   1.235   4.692  0.00  0.00     0.000 A 
ATOM      3  C3  BNZ d   1      -4.651   1.396   5.350  0.00  0.00     0.000 A 
ATOM      4  C4  BNZ d   1      -5.808   1.203   4.686  0.00  0.00     0.000 A 
ATOM      5  C5  BNZ d   1      -5.797   0.816   3.360  0.00  0.00     0.000 A 
ATOM      6  C6  BNZ d   1      -4.600   0.617   2.713  0.00  0.00     0.000 A 
ENDROOT
TORSDOF 0
ENDMDL
