MODEL 1
REMARK minimizedAffinity 1.9660604
REMARK minimizedRMSD -1
REMARK  0 active torsions:
REMARK  status: ('A' for Active; 'I' for Inactive)
ROOT
ATOM      1  C1  BNZ d   1      -5.255   4.261   5.984  0.00  0.00     0.000 A 
ATOM      2  C2  BNZ d   1      -5.609   4.945   4.852  0.00  0.00     0.000 A 
ATOM      3  C3  BNZ d   1      -5.999   4.278   3.724  0.00  0.00     0.000 A 
ATOM      4  C4  BNZ d   1      -5.998   2.929   3.718  0.00  0.00     0.000 A 
ATOM      5  C5  BNZ d   1      -5.636   2.225   4.849  0.00  0.00     0.000 A 
ATOM      6  C6  BNZ d   1      -5.280   2.900   5.994  0.00  0.00     0.000 A 
ENDROOT
TORSDOF 0
ENDMDL
