MODEL 1
REMARK minimizedAffinity 5.11053371
REMARK minimizedRMSD -1
REMARK  0 active torsions:
REMARK  status: ('A' for Active; 'I' for Inactive)
ROOT
ATOM      1  C1  BNZ d   1       1.073   4.282  -1.923  0.00  0.00     0.000 A 
ATOM      2  C2  BNZ d   1       1.524   3.117  -1.362  0.00  0.00     0.000 A 
ATOM      3  C3  BNZ d   1       1.074   1.906  -1.807  0.00  0.00     0.000 A 
ATOM      4  C4  BNZ d   1       0.145   1.862  -2.784  0.00  0.00     0.000 A 
ATOM      5  C5  BNZ d   1      -0.327   3.028  -3.353  0.00  0.00     0.000 A 
ATOM      6  C6  BNZ d   1       0.158   4.245  -2.929  0.00  0.00     0.000 A 
ENDROOT
TORSDOF 0
ENDMDL
