MODEL 1
REMARK minimizedAffinity 4.78117943
REMARK minimizedRMSD -1
REMARK  0 active torsions:
REMARK  status: ('A' for Active; 'I' for Inactive)
ROOT
ATOM      1  C1  BNZ d   1       4.466   3.586   2.065  0.00  0.00     0.000 A 
ATOM      2  C2  BNZ d   1       3.351   2.816   1.868  0.00  0.00     0.000 A 
ATOM      3  C3  BNZ d   1       3.234   2.023   0.760  0.00  0.00     0.000 A 
ATOM      4  C4  BNZ d   1       4.214   2.031  -0.166  0.00  0.00     0.000 A 
ATOM      5  C5  BNZ d   1       5.341   2.808   0.014  0.00  0.00     0.000 A 
ATOM      6  C6  BNZ d   1       5.472   3.575   1.148  0.00  0.00     0.000 A 
ENDROOT
TORSDOF 0
ENDMDL
