MODEL 1
REMARK minimizedAffinity -4.80297279
REMARK minimizedRMSD -1
REMARK  1 active torsions:
REMARK  status: ('A' for Active; 'I' for Inactive)
REMARK    1  A    between atoms: C1_2  and  C2_3 
ROOT
ATOM      1  C2  UNL d   1       0.351  -0.768   0.825  0.00  0.00    -0.076 A 
ATOM      2  C3  UNL d   1       1.437  -1.053  -0.021  0.00  0.00     0.004 A 
ATOM      3  C4  UNL d   1       1.326  -0.912  -1.403  0.00  0.00    -0.003 A 
ATOM      4  C5  UNL d   1       0.127  -0.482  -1.962  0.00  0.00     0.000 A 
ATOM      5  C6  UNL d   1      -0.955  -0.177  -1.136  0.00  0.00     0.000 A 
ATOM      6  C7  UNL d   1      -0.854  -0.299   0.260  0.00  0.00    -0.073 A 
ATOM      7  C8  UNL d   1      -2.054   0.037   1.102  0.00  0.00     0.078 C 
ENDROOT
BRANCH   1   8
ATOM      8  C1  UNL d   1       0.522  -0.966   2.314  0.00  0.00     0.053 C 
ATOM      9  C   UNL d   1       1.898  -0.540   2.805  0.00  0.00     0.018 C 
ENDBRANCH   1   8
TORSDOF 1
ENDMDL
