MODEL 1
REMARK minimizedAffinity -4.15522575
REMARK minimizedRMSD -1
REMARK  1 active torsions:
REMARK  status: ('A' for Active; 'I' for Inactive)
REMARK    1  A    between atoms: C1_2  and  C2_3 
ROOT
ATOM      1  C2  UNL d   1       0.284  -0.800   0.982  0.00  0.00    -0.076 A 
ATOM      2  C3  UNL d   1       0.407  -0.645   2.373  0.00  0.00     0.004 A 
ATOM      3  C4  UNL d   1       1.636  -0.814   3.008  0.00  0.00    -0.003 A 
ATOM      4  C5  UNL d   1       2.763  -1.139   2.261  0.00  0.00     0.000 A 
ATOM      5  C6  UNL d   1       2.663  -1.279   0.878  0.00  0.00     0.000 A 
ATOM      6  C7  UNL d   1       1.435  -1.097   0.220  0.00  0.00    -0.073 A 
ATOM      7  C8  UNL d   1       1.383  -1.265  -1.274  0.00  0.00     0.078 C 
ENDROOT
BRANCH   1   8
ATOM      8  C1  UNL d   1      -1.080  -0.632   0.352  0.00  0.00     0.053 C 
ATOM      9  C   UNL d   1      -2.121  -0.132   1.341  0.00  0.00     0.018 C 
ENDBRANCH   1   8
TORSDOF 1
ENDMDL
