MODEL 1
REMARK minimizedAffinity -2.98240232
REMARK minimizedRMSD -1
REMARK  1 active torsions:
REMARK  status: ('A' for Active; 'I' for Inactive)
REMARK    1  A    between atoms: C1_2  and  C2_3 
ROOT
ATOM      1  C2  UNL d   1       1.387  -2.084   0.897  0.00  0.00    -0.076 A 
ATOM      2  C3  UNL d   1       0.459  -1.976   1.947  0.00  0.00     0.004 A 
ATOM      3  C4  UNL d   1      -0.519  -0.983   1.941  0.00  0.00    -0.003 A 
ATOM      4  C5  UNL d   1      -0.585  -0.082   0.884  0.00  0.00     0.000 A 
ATOM      5  C6  UNL d   1       0.317  -0.185  -0.175  0.00  0.00     0.000 A 
ATOM      6  C7  UNL d   1       1.299  -1.191  -0.192  0.00  0.00    -0.073 A 
ATOM      7  C8  UNL d   1       2.249  -1.252  -1.356  0.00  0.00     0.078 C 
ENDROOT
BRANCH   1   8
ATOM      8  C1  UNL d   1       2.442  -3.165   0.971  0.00  0.00     0.053 C 
ATOM      9  C   UNL d   1       1.857  -4.529   1.304  0.00  0.00     0.018 C 
ENDBRANCH   1   8
TORSDOF 1
ENDMDL
