MODEL 1
REMARK minimizedAffinity -3.96902299
REMARK minimizedRMSD -1
REMARK  1 active torsions:
REMARK  status: ('A' for Active; 'I' for Inactive)
REMARK    1  A    between atoms: C1_2  and  C2_3 
ROOT
ATOM      1  C2  UNL d   1       0.502  -0.018   0.233  0.00  0.00    -0.076 A 
ATOM      2  C3  UNL d   1       1.757   0.008   0.867  0.00  0.00     0.004 A 
ATOM      3  C4  UNL d   1       1.880  -0.280   2.226  0.00  0.00    -0.003 A 
ATOM      4  C5  UNL d   1       0.750  -0.599   2.971  0.00  0.00     0.000 A 
ATOM      5  C6  UNL d   1      -0.499  -0.647   2.355  0.00  0.00     0.000 A 
ATOM      6  C7  UNL d   1      -0.639  -0.376   0.983  0.00  0.00    -0.073 A 
ATOM      7  C8  UNL d   1      -2.011  -0.436   0.371  0.00  0.00     0.078 C 
ENDROOT
BRANCH   1   8
ATOM      8  C1  UNL d   1       0.427   0.330  -1.237  0.00  0.00     0.053 C 
ATOM      9  C   UNL d   1       0.161   1.809  -1.473  0.00  0.00     0.018 C 
ENDBRANCH   1   8
TORSDOF 1
ENDMDL
