MODEL 1
REMARK minimizedAffinity -0.237234458
REMARK minimizedRMSD -1
REMARK  1 active torsions:
REMARK  status: ('A' for Active; 'I' for Inactive)
REMARK    1  A    between atoms: C1_2  and  C2_3 
ROOT
ATOM      1  C2  UNL d   1      -0.513   0.027  -1.221  0.00  0.00    -0.076 A 
ATOM      2  C3  UNL d   1      -1.482   0.245  -0.226  0.00  0.00     0.004 A 
ATOM      3  C4  UNL d   1      -1.307  -0.248   1.066  0.00  0.00    -0.003 A 
ATOM      4  C5  UNL d   1      -0.161  -0.967   1.385  0.00  0.00     0.000 A 
ATOM      5  C6  UNL d   1       0.819  -1.178   0.415  0.00  0.00     0.000 A 
ATOM      6  C7  UNL d   1       0.667  -0.674  -0.888  0.00  0.00    -0.073 A 
ATOM      7  C8  UNL d   1       1.752  -0.936  -1.895  0.00  0.00     0.078 C 
ENDROOT
BRANCH   1   8
ATOM      8  C1  UNL d   1      -0.769   0.562  -2.611  0.00  0.00     0.053 C 
ATOM      9  C   UNL d   1      -1.213   2.016  -2.603  0.00  0.00     0.018 C 
ENDBRANCH   1   8
TORSDOF 1
ENDMDL
