MODEL 1
REMARK minimizedAffinity -2.94051027
REMARK minimizedRMSD -1
REMARK  1 active torsions:
REMARK  status: ('A' for Active; 'I' for Inactive)
REMARK    1  A    between atoms: C1_2  and  C2_3 
ROOT
ATOM      1  C2  UNL d   1       0.290  -0.706   1.271  0.00  0.00    -0.076 A 
ATOM      2  C3  UNL d   1      -1.074  -0.387   1.153  0.00  0.00     0.004 A 
ATOM      3  C4  UNL d   1      -1.583   0.164  -0.021  0.00  0.00    -0.003 A 
ATOM      4  C5  UNL d   1      -0.736   0.404  -1.098  0.00  0.00     0.000 A 
ATOM      5  C6  UNL d   1       0.616   0.078  -1.005  0.00  0.00     0.000 A 
ATOM      6  C7  UNL d   1       1.143  -0.494   0.166  0.00  0.00    -0.073 A 
ATOM      7  C8  UNL d   1       2.610  -0.821   0.214  0.00  0.00     0.078 C 
ENDROOT
BRANCH   1   8
ATOM      8  C1  UNL d   1       0.791  -1.276   2.579  0.00  0.00     0.053 C 
ATOM      9  C   UNL d   1       0.123  -2.596   2.933  0.00  0.00     0.018 C 
ENDBRANCH   1   8
TORSDOF 1
ENDMDL
