MODEL 1
REMARK minimizedAffinity 10.3493786
REMARK minimizedRMSD -1
REMARK  0 active torsions:
REMARK  status: ('A' for Active; 'I' for Inactive)
ROOT
ATOM      1  C   UNL d   1      -2.267   5.994   5.950  0.00  0.00     0.077 C 
ATOM      2  C1  UNL d   1      -3.571   5.546   5.361  0.00  0.00    -0.074 A 
ATOM      3  C2  UNL d   1      -4.784   5.837   5.995  0.00  0.00    -0.005 A 
ATOM      4  C3  UNL d   1      -5.990   5.421   5.430  0.00  0.00     0.006 A 
ATOM      5  C4  UNL d   1      -5.995   4.712   4.228  0.00  0.00    -0.005 A 
ATOM      6  C5  UNL d   1      -4.793   4.413   3.580  0.00  0.00    -0.074 A 
ATOM      7  C6  UNL d   1      -4.781   3.660   2.283  0.00  0.00     0.077 C 
ATOM      8  C7  UNL d   1      -3.585   4.840   4.150  0.00  0.00    -0.001 A 
ENDROOT
TORSDOF 0
ENDMDL
