MODEL 1
REMARK minimizedAffinity 13.9043179
REMARK minimizedRMSD -1
REMARK  0 active torsions:
REMARK  status: ('A' for Active; 'I' for Inactive)
ROOT
ATOM      1  C   UNL d   1       4.193   3.461  -5.998  0.00  0.00     0.077 C 
ATOM      2  C1  UNL d   1       3.714   2.076  -5.679  0.00  0.00    -0.074 A 
ATOM      3  C2  UNL d   1       2.453   1.864  -5.112  0.00  0.00    -0.005 A 
ATOM      4  C3  UNL d   1       2.018   0.570  -4.830  0.00  0.00     0.006 A 
ATOM      5  C4  UNL d   1       2.837  -0.524  -5.112  0.00  0.00    -0.005 A 
ATOM      6  C5  UNL d   1       4.100  -0.332  -5.680  0.00  0.00    -0.074 A 
ATOM      7  C6  UNL d   1       4.989  -1.497  -5.998  0.00  0.00     0.077 C 
ATOM      8  C7  UNL d   1       4.528   0.972  -5.967  0.00  0.00    -0.001 A 
ENDROOT
TORSDOF 0
ENDMDL
