MODEL 1
REMARK minimizedAffinity 4.91728926
REMARK minimizedRMSD -1
REMARK  0 active torsions:
REMARK  status: ('A' for Active; 'I' for Inactive)
ROOT
ATOM      1  C   UNL d   1       2.162  -5.994   2.022  0.00  0.00     0.077 C 
ATOM      2  C1  UNL d   1       3.489  -5.468   2.481  0.00  0.00    -0.074 A 
ATOM      3  C2  UNL d   1       4.168  -4.491   1.746  0.00  0.00    -0.005 A 
ATOM      4  C3  UNL d   1       5.397  -4.004   2.191  0.00  0.00     0.006 A 
ATOM      5  C4  UNL d   1       5.959  -4.489   3.372  0.00  0.00    -0.005 A 
ATOM      6  C5  UNL d   1       5.294  -5.465   4.121  0.00  0.00    -0.074 A 
ATOM      7  C6  UNL d   1       5.880  -5.990   5.398  0.00  0.00     0.077 C 
ATOM      8  C7  UNL d   1       4.056  -5.944   3.672  0.00  0.00    -0.001 A 
ENDROOT
TORSDOF 0
ENDMDL
