MODEL 1
REMARK minimizedAffinity 10.7700119
REMARK minimizedRMSD -1
REMARK  0 active torsions:
REMARK  status: ('A' for Active; 'I' for Inactive)
ROOT
ATOM      1  C   UNL d   1      -5.234   5.954   5.999  0.00  0.00     0.077 C 
ATOM      2  C1  UNL d   1      -5.355   4.755   5.106  0.00  0.00    -0.074 A 
ATOM      3  C2  UNL d   1      -5.238   3.460   5.621  0.00  0.00    -0.005 A 
ATOM      4  C3  UNL d   1      -5.363   2.355   4.779  0.00  0.00     0.006 A 
ATOM      5  C4  UNL d   1      -5.606   2.533   3.417  0.00  0.00    -0.005 A 
ATOM      6  C5  UNL d   1      -5.726   3.821   2.884  0.00  0.00    -0.074 A 
ATOM      7  C6  UNL d   1      -5.997   4.030   1.424  0.00  0.00     0.077 C 
ATOM      8  C7  UNL d   1      -5.607   4.926   3.737  0.00  0.00    -0.001 A 
ENDROOT
TORSDOF 0
ENDMDL
