MODEL 1
REMARK minimizedAffinity 16.8328686
REMARK minimizedRMSD -1
REMARK  0 active torsions:
REMARK  status: ('A' for Active; 'I' for Inactive)
ROOT
ATOM      1  C   UNL d   1      -3.586   0.284  -0.282  0.00  0.00     0.077 C 
ATOM      2  C1  UNL d   1      -3.002   1.307   0.647  0.00  0.00    -0.074 A 
ATOM      3  C2  UNL d   1      -3.702   2.477   0.960  0.00  0.00    -0.005 A 
ATOM      4  C3  UNL d   1      -3.150   3.414   1.833  0.00  0.00     0.006 A 
ATOM      5  C4  UNL d   1      -1.895   3.192   2.401  0.00  0.00    -0.005 A 
ATOM      6  C5  UNL d   1      -1.181   2.027   2.101  0.00  0.00    -0.074 A 
ATOM      7  C6  UNL d   1       0.164   1.768   2.711  0.00  0.00     0.077 C 
ATOM      8  C7  UNL d   1      -1.745   1.087   1.229  0.00  0.00    -0.001 A 
ENDROOT
TORSDOF 0
ENDMDL
