MODEL 1
REMARK minimizedAffinity 12.0684252
REMARK minimizedRMSD -1
REMARK  0 active torsions:
REMARK  status: ('A' for Active; 'I' for Inactive)
ROOT
ATOM      1  C   UNL d   1       1.510   2.100   1.861  0.00  0.00     0.077 C 
ATOM      2  C1  UNL d   1       0.263   1.309   2.124  0.00  0.00    -0.074 A 
ATOM      3  C2  UNL d   1       0.314   0.097   2.821  0.00  0.00    -0.005 A 
ATOM      4  C3  UNL d   1      -0.855  -0.622   3.067  0.00  0.00     0.006 A 
ATOM      5  C4  UNL d   1      -2.085  -0.138   2.620  0.00  0.00    -0.005 A 
ATOM      6  C5  UNL d   1      -2.156   1.072   1.922  0.00  0.00    -0.074 A 
ATOM      7  C6  UNL d   1      -3.471   1.611   1.443  0.00  0.00     0.077 C 
ATOM      8  C7  UNL d   1      -0.978   1.793   1.685  0.00  0.00    -0.001 A 
ENDROOT
TORSDOF 0
ENDMDL
