MODEL 1
REMARK minimizedAffinity 14.819952
REMARK minimizedRMSD -1
REMARK  0 active torsions:
REMARK  status: ('A' for Active; 'I' for Inactive)
ROOT
ATOM      1  C   UNL d   1       1.235   4.870  -5.995  0.00  0.00     0.077 C 
ATOM      2  C1  UNL d   1       2.608   4.414  -5.598  0.00  0.00    -0.074 A 
ATOM      3  C2  UNL d   1       3.453   5.241  -4.852  0.00  0.00    -0.005 A 
ATOM      4  C3  UNL d   1       4.723   4.799  -4.483  0.00  0.00     0.006 A 
ATOM      5  C4  UNL d   1       5.160   3.527  -4.854  0.00  0.00    -0.005 A 
ATOM      6  C5  UNL d   1       4.328   2.685  -5.599  0.00  0.00    -0.074 A 
ATOM      7  C6  UNL d   1       4.779   1.311  -5.998  0.00  0.00     0.077 C 
ATOM      8  C7  UNL d   1       3.051   3.134  -5.961  0.00  0.00    -0.001 A 
ENDROOT
TORSDOF 0
ENDMDL
