MODEL 1
REMARK minimizedAffinity 6.41544199
REMARK minimizedRMSD -1
REMARK  0 active torsions:
REMARK  status: ('A' for Active; 'I' for Inactive)
ROOT
ATOM      1  C   UNL d   1      -4.850  -2.968  -5.398  0.00  0.00     0.077 C 
ATOM      2  C1  UNL d   1      -3.369  -2.732  -5.416  0.00  0.00    -0.074 A 
ATOM      3  C2  UNL d   1      -2.498  -3.669  -5.981  0.00  0.00    -0.005 A 
ATOM      4  C3  UNL d   1      -1.124  -3.431  -6.000  0.00  0.00     0.006 A 
ATOM      5  C4  UNL d   1      -0.607  -2.255  -5.455  0.00  0.00    -0.005 A 
ATOM      6  C5  UNL d   1      -1.463  -1.306  -4.886  0.00  0.00    -0.074 A 
ATOM      7  C6  UNL d   1      -0.925  -0.032  -4.305  0.00  0.00     0.077 C 
ATOM      8  C7  UNL d   1      -2.843  -1.549  -4.878  0.00  0.00    -0.001 A 
ENDROOT
TORSDOF 0
ENDMDL
