MODEL 1
REMARK minimizedAffinity 7.20087242
REMARK minimizedRMSD -1
REMARK  0 active torsions:
REMARK  status: ('A' for Active; 'I' for Inactive)
ROOT
ATOM      1  C   UNL d   1      -3.006   1.161  -5.987  0.00  0.00     0.077 C 
ATOM      2  C1  UNL d   1      -2.334  -0.180  -5.995  0.00  0.00    -0.074 A 
ATOM      3  C2  UNL d   1      -0.940  -0.285  -5.983  0.00  0.00    -0.005 A 
ATOM      4  C3  UNL d   1      -0.329  -1.539  -5.980  0.00  0.00     0.006 A 
ATOM      5  C4  UNL d   1      -1.105  -2.698  -5.989  0.00  0.00    -0.005 A 
ATOM      6  C5  UNL d   1      -2.501  -2.613  -6.000  0.00  0.00    -0.074 A 
ATOM      7  C6  UNL d   1      -3.350  -3.849  -6.000  0.00  0.00     0.077 C 
ATOM      8  C7  UNL d   1      -3.107  -1.349  -5.996  0.00  0.00    -0.001 A 
ENDROOT
TORSDOF 0
ENDMDL
