MODEL 1
REMARK minimizedAffinity 17.4261074
REMARK minimizedRMSD -1
REMARK  0 active torsions:
REMARK  status: ('A' for Active; 'I' for Inactive)
ROOT
ATOM      1  C   UNL d   1      -3.636  -1.245   6.000  0.00  0.00     0.077 C 
ATOM      2  C1  UNL d   1      -4.336  -1.374   4.680  0.00  0.00    -0.074 A 
ATOM      3  C2  UNL d   1      -4.494  -0.268   3.838  0.00  0.00    -0.005 A 
ATOM      4  C3  UNL d   1      -5.139  -0.406   2.609  0.00  0.00     0.006 A 
ATOM      5  C4  UNL d   1      -5.633  -1.649   2.210  0.00  0.00    -0.005 A 
ATOM      6  C5  UNL d   1      -5.484  -2.766   3.038  0.00  0.00    -0.074 A 
ATOM      7  C6  UNL d   1      -6.000  -4.111   2.620  0.00  0.00     0.077 C 
ATOM      8  C7  UNL d   1      -4.828  -2.621   4.269  0.00  0.00    -0.001 A 
ENDROOT
TORSDOF 0
ENDMDL
