MODEL 1
REMARK minimizedAffinity 14.6383314
REMARK minimizedRMSD -1
REMARK  0 active torsions:
REMARK  status: ('A' for Active; 'I' for Inactive)
ROOT
ATOM      1  C   UNL d   1      -0.782   0.331   1.636  0.00  0.00     0.077 C 
ATOM      2  C1  UNL d   1      -2.109  -0.365   1.700  0.00  0.00    -0.074 A 
ATOM      3  C2  UNL d   1      -3.089   0.038   2.613  0.00  0.00    -0.005 A 
ATOM      4  C3  UNL d   1      -4.322  -0.612   2.654  0.00  0.00     0.006 A 
ATOM      5  C4  UNL d   1      -4.587  -1.671   1.784  0.00  0.00    -0.005 A 
ATOM      6  C5  UNL d   1      -3.620  -2.087   0.864  0.00  0.00    -0.074 A 
ATOM      7  C6  UNL d   1      -3.893  -3.216  -0.085  0.00  0.00     0.077 C 
ATOM      8  C7  UNL d   1      -2.386  -1.423   0.824  0.00  0.00    -0.001 A 
ENDROOT
TORSDOF 0
ENDMDL
