MODEL 1
REMARK minimizedAffinity 18.3738174
REMARK minimizedRMSD -1
REMARK  0 active torsions:
REMARK  status: ('A' for Active; 'I' for Inactive)
ROOT
ATOM      1  C   UNL d   1      -1.937  -1.633   0.605  0.00  0.00     0.077 C 
ATOM      2  C1  UNL d   1      -1.849  -0.370   1.409  0.00  0.00    -0.074 A 
ATOM      3  C2  UNL d   1      -2.972   0.443   1.596  0.00  0.00    -0.005 A 
ATOM      4  C3  UNL d   1      -2.877   1.609   2.354  0.00  0.00     0.006 A 
ATOM      5  C4  UNL d   1      -1.661   1.975   2.933  0.00  0.00    -0.005 A 
ATOM      6  C5  UNL d   1      -0.528   1.174   2.757  0.00  0.00    -0.074 A 
ATOM      7  C6  UNL d   1       0.785   1.547   3.380  0.00  0.00     0.077 C 
ATOM      8  C7  UNL d   1      -0.633  -0.000   1.999  0.00  0.00    -0.001 A 
ENDROOT
TORSDOF 0
ENDMDL
