MODEL 1
REMARK minimizedAffinity -1.67348158
REMARK minimizedRMSD -1
REMARK  0 active torsions:
REMARK  status: ('A' for Active; 'I' for Inactive)
ROOT
ATOM      1  C   UNL d   1       5.999  -5.987   5.989  0.00  0.00     0.077 C 
ATOM      2  C1  UNL d   1       5.746  -5.291   4.685  0.00  0.00    -0.074 A 
ATOM      3  C2  UNL d   1       5.787  -5.993   3.476  0.00  0.00    -0.005 A 
ATOM      4  C3  UNL d   1       5.541  -5.334   2.272  0.00  0.00     0.006 A 
ATOM      5  C4  UNL d   1       5.252  -3.969   2.264  0.00  0.00    -0.005 A 
ATOM      6  C5  UNL d   1       5.206  -3.251   3.463  0.00  0.00    -0.074 A 
ATOM      7  C6  UNL d   1       4.887  -1.785   3.473  0.00  0.00     0.077 C 
ATOM      8  C7  UNL d   1       5.447  -3.921   4.670  0.00  0.00    -0.001 A 
ENDROOT
TORSDOF 0
ENDMDL
