MODEL 1
REMARK minimizedAffinity 12.3287687
REMARK minimizedRMSD -1
REMARK  0 active torsions:
REMARK  status: ('A' for Active; 'I' for Inactive)
ROOT
ATOM      1  C   UNL d   1      -4.181  -3.036  -0.038  0.00  0.00     0.077 C 
ATOM      2  C1  UNL d   1      -4.173  -1.769   0.764  0.00  0.00    -0.074 A 
ATOM      3  C2  UNL d   1      -5.289  -1.389   1.518  0.00  0.00    -0.005 A 
ATOM      4  C3  UNL d   1      -5.264  -0.212   2.266  0.00  0.00     0.006 A 
ATOM      5  C4  UNL d   1      -4.125   0.595   2.269  0.00  0.00    -0.005 A 
ATOM      6  C5  UNL d   1      -3.001   0.231   1.522  0.00  0.00    -0.074 A 
ATOM      7  C6  UNL d   1      -1.766   1.082   1.522  0.00  0.00     0.077 C 
ATOM      8  C7  UNL d   1      -3.031  -0.957   0.778  0.00  0.00    -0.001 A 
ENDROOT
TORSDOF 0
ENDMDL
