MODEL 1
REMARK minimizedAffinity 17.6468983
REMARK minimizedRMSD -1
REMARK  0 active torsions:
REMARK  status: ('A' for Active; 'I' for Inactive)
ROOT
ATOM      1  C   UNL d   1       6.000   4.231  -5.402  0.00  0.00     0.077 C 
ATOM      2  C1  UNL d   1       4.593   4.613  -5.049  0.00  0.00    -0.074 A 
ATOM      3  C2  UNL d   1       3.774   5.272  -5.971  0.00  0.00    -0.005 A 
ATOM      4  C3  UNL d   1       2.465   5.612  -5.631  0.00  0.00     0.006 A 
ATOM      5  C4  UNL d   1       1.962   5.297  -4.368  0.00  0.00    -0.005 A 
ATOM      6  C5  UNL d   1       2.766   4.637  -3.433  0.00  0.00    -0.074 A 
ATOM      7  C6  UNL d   1       2.238   4.283  -2.075  0.00  0.00     0.077 C 
ATOM      8  C7  UNL d   1       4.078   4.292  -3.785  0.00  0.00    -0.001 A 
ENDROOT
TORSDOF 0
ENDMDL
