MODEL 1
REMARK minimizedAffinity 10.533349
REMARK minimizedRMSD -1
REMARK  0 active torsions:
REMARK  status: ('A' for Active; 'I' for Inactive)
ROOT
ATOM      1  C   UNL d   1      -0.598  -0.816   2.930  0.00  0.00     0.077 C 
ATOM      2  C1  UNL d   1      -1.813  -0.168   2.337  0.00  0.00    -0.074 A 
ATOM      3  C2  UNL d   1      -1.842   1.207   2.080  0.00  0.00    -0.005 A 
ATOM      4  C3  UNL d   1      -2.976   1.794   1.520  0.00  0.00     0.006 A 
ATOM      5  C4  UNL d   1      -4.091   1.015   1.210  0.00  0.00    -0.005 A 
ATOM      6  C5  UNL d   1      -4.081  -0.362   1.459  0.00  0.00    -0.074 A 
ATOM      7  C6  UNL d   1      -5.267  -1.216   1.123  0.00  0.00     0.077 C 
ATOM      8  C7  UNL d   1      -2.935  -0.946   2.016  0.00  0.00    -0.001 A 
ENDROOT
TORSDOF 0
ENDMDL
