MODEL 1
REMARK minimizedAffinity 4.98739195
REMARK minimizedRMSD -1
REMARK  0 active torsions:
REMARK  status: ('A' for Active; 'I' for Inactive)
ROOT
ATOM      1  C   UNL d   1      -6.000  -0.427   1.555  0.00  0.00     0.077 C 
ATOM      2  C1  UNL d   1      -4.729   0.367   1.634  0.00  0.00    -0.074 A 
ATOM      3  C2  UNL d   1      -4.744   1.760   1.516  0.00  0.00    -0.005 A 
ATOM      4  C3  UNL d   1      -3.556   2.486   1.601  0.00  0.00     0.006 A 
ATOM      5  C4  UNL d   1      -2.343   1.826   1.805  0.00  0.00    -0.005 A 
ATOM      6  C5  UNL d   1      -2.309   0.434   1.926  0.00  0.00    -0.074 A 
ATOM      7  C6  UNL d   1      -1.015  -0.290   2.155  0.00  0.00     0.077 C 
ATOM      8  C7  UNL d   1      -3.508  -0.288   1.846  0.00  0.00    -0.001 A 
ENDROOT
TORSDOF 0
ENDMDL
