MODEL 1
REMARK minimizedAffinity 8.42599678
REMARK minimizedRMSD -1
REMARK  1 active torsions:
REMARK  status: ('A' for Active; 'I' for Inactive)
REMARK    1  A    between atoms: C1_2  and  C2_3 
ROOT
ATOM      1  C2  UNL d   1       2.449  -1.442  -0.276  0.00  0.00    -0.076 A 
ATOM      2  C3  UNL d   1       3.445  -2.222  -0.888  0.00  0.00     0.004 A 
ATOM      3  C4  UNL d   1       3.768  -3.486  -0.398  0.00  0.00    -0.003 A 
ATOM      4  C5  UNL d   1       3.099  -3.991   0.711  0.00  0.00     0.000 A 
ATOM      5  C6  UNL d   1       2.095  -3.239   1.320  0.00  0.00     0.000 A 
ATOM      6  C7  UNL d   1       1.746  -1.969   0.829  0.00  0.00    -0.073 A 
ATOM      7  C8  UNL d   1       0.660  -1.198   1.528  0.00  0.00     0.078 C 
ENDROOT
BRANCH   1   8
ATOM      8  C1  UNL d   1       2.161  -0.067  -0.835  0.00  0.00     0.053 C 
ATOM      9  C   UNL d   1       1.357  -0.119  -2.125  0.00  0.00     0.018 C 
ENDBRANCH   1   8
TORSDOF 1
ENDMDL
