MODEL 1
REMARK minimizedAffinity 6.3114295
REMARK minimizedRMSD -1
REMARK  1 active torsions:
REMARK  status: ('A' for Active; 'I' for Inactive)
REMARK    1  A    between atoms: C1_2  and  C2_3 
ROOT
ATOM      1  C2  UNL d   1       3.733  -3.192   1.777  0.00  0.00    -0.076 A 
ATOM      2  C3  UNL d   1       2.360  -3.001   2.013  0.00  0.00     0.004 A 
ATOM      3  C4  UNL d   1       1.595  -2.187   1.180  0.00  0.00    -0.003 A 
ATOM      4  C5  UNL d   1       2.191  -1.551   0.096  0.00  0.00     0.000 A 
ATOM      5  C6  UNL d   1       3.547  -1.743  -0.163  0.00  0.00     0.000 A 
ATOM      6  C7  UNL d   1       4.329  -2.574   0.658  0.00  0.00    -0.073 A 
ATOM      7  C8  UNL d   1       5.789  -2.740   0.335  0.00  0.00     0.078 C 
ENDROOT
BRANCH   1   8
ATOM      8  C1  UNL d   1       4.517  -4.065   2.731  0.00  0.00     0.053 C 
ATOM      9  C   UNL d   1       5.047  -3.290   3.928  0.00  0.00     0.018 C 
ENDBRANCH   1   8
TORSDOF 1
ENDMDL
