MODEL 1
REMARK minimizedAffinity 2.98732853
REMARK minimizedRMSD -1
REMARK  1 active torsions:
REMARK  status: ('A' for Active; 'I' for Inactive)
REMARK    1  A    between atoms: C1_2  and  C2_3 
ROOT
ATOM      1  C2  UNL d   1       3.156  -1.477  -0.322  0.00  0.00    -0.076 A 
ATOM      2  C3  UNL d   1       2.070  -0.742  -0.829  0.00  0.00     0.004 A 
ATOM      3  C4  UNL d   1       2.221   0.589  -1.212  0.00  0.00    -0.003 A 
ATOM      4  C5  UNL d   1       3.461   1.207  -1.095  0.00  0.00     0.000 A 
ATOM      5  C6  UNL d   1       4.553   0.488  -0.610  0.00  0.00     0.000 A 
ATOM      6  C7  UNL d   1       4.422  -0.860  -0.235  0.00  0.00    -0.073 A 
ATOM      7  C8  UNL d   1       5.631  -1.585   0.287  0.00  0.00     0.078 C 
ENDROOT
BRANCH   1   8
ATOM      8  C1  UNL d   1       2.925  -2.910   0.103  0.00  0.00     0.053 C 
ATOM      9  C   UNL d   1       1.794  -3.044   1.111  0.00  0.00     0.018 C 
ENDBRANCH   1   8
TORSDOF 1
ENDMDL
