MODEL 1
REMARK minimizedAffinity 0.378438205
REMARK minimizedRMSD -1
REMARK  1 active torsions:
REMARK  status: ('A' for Active; 'I' for Inactive)
REMARK    1  A    between atoms: C1_2  and  C2_3 
ROOT
ATOM      1  C2  UNL d   1       3.504  -1.624  -0.210  0.00  0.00    -0.076 A 
ATOM      2  C3  UNL d   1       2.353  -1.038  -0.765  0.00  0.00     0.004 A 
ATOM      3  C4  UNL d   1       2.398   0.236  -1.329  0.00  0.00    -0.003 A 
ATOM      4  C5  UNL d   1       3.594   0.945  -1.347  0.00  0.00     0.000 A 
ATOM      5  C6  UNL d   1       4.750   0.371  -0.817  0.00  0.00     0.000 A 
ATOM      6  C7  UNL d   1       4.725  -0.919  -0.259  0.00  0.00    -0.073 A 
ATOM      7  C8  UNL d   1       6.000  -1.486   0.304  0.00  0.00     0.078 C 
ENDROOT
BRANCH   1   8
ATOM      8  C1  UNL d   1       3.389  -2.997   0.412  0.00  0.00     0.053 C 
ATOM      9  C   UNL d   1       2.114  -3.164   1.225  0.00  0.00     0.018 C 
ENDBRANCH   1   8
TORSDOF 1
ENDMDL
