MODEL 1
REMARK minimizedAffinity 6.68085957
REMARK minimizedRMSD -1
REMARK  1 active torsions:
REMARK  status: ('A' for Active; 'I' for Inactive)
REMARK    1  A    between atoms: C1_2  and  C2_3 
ROOT
ATOM      1  C2  UNL d   1      -0.285  -0.854   2.067  0.00  0.00    -0.076 A 
ATOM      2  C3  UNL d   1      -1.534  -0.685   2.688  0.00  0.00     0.004 A 
ATOM      3  C4  UNL d   1      -2.551   0.040   2.069  0.00  0.00    -0.003 A 
ATOM      4  C5  UNL d   1      -2.336   0.607   0.818  0.00  0.00     0.000 A 
ATOM      5  C6  UNL d   1      -1.108   0.435   0.179  0.00  0.00     0.000 A 
ATOM      6  C7  UNL d   1      -0.078  -0.307   0.782  0.00  0.00    -0.073 A 
ATOM      7  C8  UNL d   1       1.228  -0.456   0.050  0.00  0.00     0.078 C 
ENDROOT
BRANCH   1   8
ATOM      8  C1  UNL d   1       0.789  -1.627   2.798  0.00  0.00     0.053 C 
ATOM      9  C   UNL d   1       0.755  -3.114   2.481  0.00  0.00     0.018 C 
ENDBRANCH   1   8
TORSDOF 1
ENDMDL
