MODEL 1
REMARK minimizedAffinity -2.99552846
REMARK minimizedRMSD -1
REMARK  1 active torsions:
REMARK  status: ('A' for Active; 'I' for Inactive)
REMARK    1  A    between atoms: C1_2  and  C2_3 
ROOT
ATOM      1  C2  UNL d   1       0.937   0.896   0.821  0.00  0.00    -0.076 A 
ATOM      2  C3  UNL d   1       1.513   2.029   0.221  0.00  0.00     0.004 A 
ATOM      3  C4  UNL d   1       1.964   1.992  -1.097  0.00  0.00    -0.003 A 
ATOM      4  C5  UNL d   1       1.845   0.821  -1.837  0.00  0.00     0.000 A 
ATOM      5  C6  UNL d   1       1.260  -0.307  -1.264  0.00  0.00     0.000 A 
ATOM      6  C7  UNL d   1       0.786  -0.282   0.059  0.00  0.00    -0.073 A 
ATOM      7  C8  UNL d   1       0.169  -1.530   0.629  0.00  0.00     0.078 C 
ENDROOT
BRANCH   1   8
ATOM      8  C1  UNL d   1       0.492   0.988   2.263  0.00  0.00     0.053 C 
ATOM      9  C   UNL d   1       1.597   1.479   3.185  0.00  0.00     0.018 C 
ENDBRANCH   1   8
TORSDOF 1
ENDMDL
