MODEL 1
REMARK minimizedAffinity -4.16533422
REMARK minimizedRMSD -1
REMARK  1 active torsions:
REMARK  status: ('A' for Active; 'I' for Inactive)
REMARK    1  A    between atoms: C1_2  and  C2_3 
ROOT
ATOM      1  C2  UNL d   1       0.807  -0.002  -0.169  0.00  0.00    -0.076 A 
ATOM      2  C3  UNL d   1       1.312   1.097  -0.885  0.00  0.00     0.004 A 
ATOM      3  C4  UNL d   1       1.900   0.929  -2.137  0.00  0.00    -0.003 A 
ATOM      4  C5  UNL d   1       1.990  -0.341  -2.696  0.00  0.00     0.000 A 
ATOM      5  C6  UNL d   1       1.478  -1.441  -2.008  0.00  0.00     0.000 A 
ATOM      6  C7  UNL d   1       0.869  -1.287  -0.751  0.00  0.00    -0.073 A 
ATOM      7  C8  UNL d   1       0.339  -2.508  -0.051  0.00  0.00     0.078 C 
ENDROOT
BRANCH   1   8
ATOM      8  C1  UNL d   1       0.205   0.238   1.197  0.00  0.00     0.053 C 
ATOM      9  C   UNL d   1       1.142   1.002   2.120  0.00  0.00     0.018 C 
ENDBRANCH   1   8
TORSDOF 1
ENDMDL
