MODEL 1
REMARK minimizedAffinity -1.99060941
REMARK minimizedRMSD -1
REMARK  1 active torsions:
REMARK  status: ('A' for Active; 'I' for Inactive)
REMARK    1  A    between atoms: C1_2  and  C2_3 
ROOT
ATOM      1  C2  UNL d   1       1.182   1.244  -0.094  0.00  0.00    -0.076 A 
ATOM      2  C3  UNL d   1       1.976   2.315   0.351  0.00  0.00     0.004 A 
ATOM      3  C4  UNL d   1       2.141   2.570   1.711  0.00  0.00    -0.003 A 
ATOM      4  C5  UNL d   1       1.514   1.758   2.649  0.00  0.00     0.000 A 
ATOM      5  C6  UNL d   1       0.736   0.680   2.227  0.00  0.00     0.000 A 
ATOM      6  C7  UNL d   1       0.574   0.399   0.860  0.00  0.00    -0.073 A 
ATOM      7  C8  UNL d   1      -0.281  -0.772   0.460  0.00  0.00     0.078 C 
ENDROOT
BRANCH   1   8
ATOM      8  C1  UNL d   1       1.018   1.032  -1.582  0.00  0.00     0.053 C 
ATOM      9  C   UNL d   1       2.287   0.513  -2.240  0.00  0.00     0.018 C 
ENDBRANCH   1   8
TORSDOF 1
ENDMDL
