MODEL 1
REMARK minimizedAffinity -0.603467166
REMARK minimizedRMSD -1
REMARK  1 active torsions:
REMARK  status: ('A' for Active; 'I' for Inactive)
REMARK    1  A    between atoms: C1_2  and  C2_3 
ROOT
ATOM      1  C2  UNL d   1      -0.011  -0.136   0.040  0.00  0.00    -0.076 A 
ATOM      2  C3  UNL d   1       0.464   1.170  -0.171  0.00  0.00     0.004 A 
ATOM      3  C4  UNL d   1       1.223   1.484  -1.297  0.00  0.00    -0.003 A 
ATOM      4  C5  UNL d   1       1.519   0.497  -2.231  0.00  0.00     0.000 A 
ATOM      5  C6  UNL d   1       1.041  -0.800  -2.046  0.00  0.00     0.000 A 
ATOM      6  C7  UNL d   1       0.261  -1.130  -0.925  0.00  0.00    -0.073 A 
ATOM      7  C8  UNL d   1      -0.224  -2.546  -0.774  0.00  0.00     0.078 C 
ENDROOT
BRANCH   1   8
ATOM      8  C1  UNL d   1      -0.807  -0.424   1.293  0.00  0.00     0.053 C 
ATOM      9  C   UNL d   1      -2.239   0.079   1.202  0.00  0.00     0.018 C 
ENDBRANCH   1   8
TORSDOF 1
ENDMDL
