MODEL 1
REMARK minimizedAffinity 3.16179514
REMARK minimizedRMSD -1
REMARK  1 active torsions:
REMARK  status: ('A' for Active; 'I' for Inactive)
REMARK    1  A    between atoms: C1_2  and  C2_3 
ROOT
ATOM      1  C2  UNL d   1      -1.672   0.373   1.454  0.00  0.00    -0.076 A 
ATOM      2  C3  UNL d   1      -2.999   0.495   1.009  0.00  0.00     0.004 A 
ATOM      3  C4  UNL d   1      -3.933   1.237   1.731  0.00  0.00    -0.003 A 
ATOM      4  C5  UNL d   1      -3.553   1.870   2.909  0.00  0.00     0.000 A 
ATOM      5  C6  UNL d   1      -2.236   1.774   3.357  0.00  0.00     0.000 A 
ATOM      6  C7  UNL d   1      -1.279   1.043   2.632  0.00  0.00    -0.073 A 
ATOM      7  C8  UNL d   1       0.126   0.968   3.164  0.00  0.00     0.078 C 
ENDROOT
BRANCH   1   8
ATOM      8  C1  UNL d   1      -0.711  -0.468   0.644  0.00  0.00     0.053 C 
ATOM      9  C   UNL d   1      -0.304   0.204  -0.658  0.00  0.00     0.018 C 
ENDBRANCH   1   8
TORSDOF 1
ENDMDL
