MODEL 1
REMARK minimizedAffinity -5.18213272
REMARK minimizedRMSD -1
REMARK  1 active torsions:
REMARK  status: ('A' for Active; 'I' for Inactive)
REMARK    1  A    between atoms: C1_2  and  C2_3 
ROOT
ATOM      1  C2  UNL d   1       1.779   1.612   0.004  0.00  0.00    -0.076 A 
ATOM      2  C3  UNL d   1       0.422   1.273  -0.130  0.00  0.00     0.004 A 
ATOM      3  C4  UNL d   1      -0.033   0.549  -1.230  0.00  0.00    -0.003 A 
ATOM      4  C5  UNL d   1       0.864   0.151  -2.216  0.00  0.00     0.000 A 
ATOM      5  C6  UNL d   1       2.217   0.462  -2.091  0.00  0.00     0.000 A 
ATOM      6  C7  UNL d   1       2.694   1.178  -0.980  0.00  0.00    -0.073 A 
ATOM      7  C8  UNL d   1       4.163   1.492  -0.899  0.00  0.00     0.078 C 
ENDROOT
BRANCH   1   8
ATOM      8  C1  UNL d   1       2.209   2.422   1.206  0.00  0.00     0.053 C 
ATOM      9  C   UNL d   1       1.835   1.757   2.521  0.00  0.00     0.018 C 
ENDBRANCH   1   8
TORSDOF 1
ENDMDL
