MODEL 1
REMARK minimizedAffinity -3.19261885
REMARK minimizedRMSD -1
REMARK  1 active torsions:
REMARK  status: ('A' for Active; 'I' for Inactive)
REMARK    1  A    between atoms: C1_2  and  C2_3 
ROOT
ATOM      1  C2  UNL d   1      -0.747   0.093   1.853  0.00  0.00    -0.076 A 
ATOM      2  C3  UNL d   1       0.485   0.424   2.443  0.00  0.00     0.004 A 
ATOM      3  C4  UNL d   1       0.541   1.188   3.607  0.00  0.00    -0.003 A 
ATOM      4  C5  UNL d   1      -0.635   1.633   4.202  0.00  0.00     0.000 A 
ATOM      5  C6  UNL d   1      -1.867   1.299   3.640  0.00  0.00     0.000 A 
ATOM      6  C7  UNL d   1      -1.941   0.516   2.475  0.00  0.00    -0.073 A 
ATOM      7  C8  UNL d   1      -3.297   0.191   1.910  0.00  0.00     0.078 C 
ENDROOT
BRANCH   1   8
ATOM      8  C1  UNL d   1      -0.745  -0.715   0.575  0.00  0.00     0.053 C 
ATOM      9  C   UNL d   1      -0.038   0.000  -0.565  0.00  0.00     0.018 C 
ENDBRANCH   1   8
TORSDOF 1
ENDMDL
