MODEL 1
REMARK minimizedAffinity -2.77136588
REMARK minimizedRMSD -1
REMARK  1 active torsions:
REMARK  status: ('A' for Active; 'I' for Inactive)
REMARK    1  A    between atoms: C1_2  and  C2_3 
ROOT
ATOM      1  C2  UNL d   1       0.452  -0.487  -1.359  0.00  0.00    -0.076 A 
ATOM      2  C3  UNL d   1      -0.044   0.684  -0.758  0.00  0.00     0.004 A 
ATOM      3  C4  UNL d   1      -0.812   0.624   0.403  0.00  0.00    -0.003 A 
ATOM      4  C5  UNL d   1      -1.097  -0.607   0.984  0.00  0.00     0.000 A 
ATOM      5  C6  UNL d   1      -0.598  -1.777   0.412  0.00  0.00     0.000 A 
ATOM      6  C7  UNL d   1       0.191  -1.733  -0.750  0.00  0.00    -0.073 A 
ATOM      7  C8  UNL d   1       0.697  -3.027  -1.328  0.00  0.00     0.078 C 
ENDROOT
BRANCH   1   8
ATOM      8  C1  UNL d   1       1.256  -0.363  -2.633  0.00  0.00     0.053 C 
ATOM      9  C   UNL d   1       2.624   0.260  -2.400  0.00  0.00     0.018 C 
ENDBRANCH   1   8
TORSDOF 1
ENDMDL
