MODEL 1
REMARK minimizedAffinity -2.31376314
REMARK minimizedRMSD -1
REMARK  1 active torsions:
REMARK  status: ('A' for Active; 'I' for Inactive)
REMARK    1  A    between atoms: C1_2  and  C2_3 
ROOT
ATOM      1  C2  UNL d   1       0.641  -0.926  -0.907  0.00  0.00    -0.076 A 
ATOM      2  C3  UNL d   1       0.168  -0.709   0.398  0.00  0.00     0.004 A 
ATOM      3  C4  UNL d   1       0.331   0.526   1.024  0.00  0.00    -0.003 A 
ATOM      4  C5  UNL d   1       0.969   1.564   0.354  0.00  0.00     0.000 A 
ATOM      5  C6  UNL d   1       1.429   1.371  -0.949  0.00  0.00     0.000 A 
ATOM      6  C7  UNL d   1       1.259   0.137  -1.600  0.00  0.00    -0.073 A 
ATOM      7  C8  UNL d   1       1.780  -0.017  -3.002  0.00  0.00     0.078 C 
ENDROOT
BRANCH   1   8
ATOM      8  C1  UNL d   1       0.461  -2.295  -1.525  0.00  0.00     0.053 C 
ATOM      9  C   UNL d   1       0.787  -3.419  -0.554  0.00  0.00     0.018 C 
ENDBRANCH   1   8
TORSDOF 1
ENDMDL
