MODEL 1
REMARK minimizedAffinity 0.0141427554
REMARK minimizedRMSD -1
REMARK  1 active torsions:
REMARK  status: ('A' for Active; 'I' for Inactive)
REMARK    1  A    between atoms: C1_2  and  C2_3 
ROOT
ATOM      1  C2  UNL d   1       0.458  -0.244  -1.184  0.00  0.00    -0.076 A 
ATOM      2  C3  UNL d   1       0.601   1.005  -0.556  0.00  0.00     0.004 A 
ATOM      3  C4  UNL d   1       0.397   1.146   0.816  0.00  0.00    -0.003 A 
ATOM      4  C5  UNL d   1       0.047   0.040   1.582  0.00  0.00     0.000 A 
ATOM      5  C6  UNL d   1      -0.082  -1.211   0.978  0.00  0.00     0.000 A 
ATOM      6  C7  UNL d   1       0.137  -1.373  -0.401  0.00  0.00    -0.073 A 
ATOM      7  C8  UNL d   1      -0.022  -2.744  -1.000  0.00  0.00     0.078 C 
ENDROOT
BRANCH   1   8
ATOM      8  C1  UNL d   1       0.666  -0.331  -2.679  0.00  0.00     0.053 C 
ATOM      9  C   UNL d   1       2.074   0.065  -3.096  0.00  0.00     0.018 C 
ENDBRANCH   1   8
TORSDOF 1
ENDMDL
