MODEL 1
REMARK minimizedAffinity -3.94260478
REMARK minimizedRMSD -1
REMARK  1 active torsions:
REMARK  status: ('A' for Active; 'I' for Inactive)
REMARK    1  A    between atoms: C1_2  and  C2_3 
ROOT
ATOM      1  C2  UNL d   1       0.362  -0.071  -1.545  0.00  0.00    -0.076 A 
ATOM      2  C3  UNL d   1       0.918  -1.257  -1.034  0.00  0.00     0.004 A 
ATOM      3  C4  UNL d   1       0.696  -1.642   0.287  0.00  0.00    -0.003 A 
ATOM      4  C5  UNL d   1      -0.087  -0.848   1.119  0.00  0.00     0.000 A 
ATOM      5  C6  UNL d   1      -0.661   0.322   0.623  0.00  0.00     0.000 A 
ATOM      6  C7  UNL d   1      -0.460   0.717  -0.711  0.00  0.00    -0.073 A 
ATOM      7  C8  UNL d   1      -1.098   1.991  -1.191  0.00  0.00     0.078 C 
ENDROOT
BRANCH   1   8
ATOM      8  C1  UNL d   1       0.660   0.309  -2.978  0.00  0.00     0.053 C 
ATOM      9  C   UNL d   1       2.144   0.236  -3.303  0.00  0.00     0.018 C 
ENDBRANCH   1   8
TORSDOF 1
ENDMDL
