MODEL 1
REMARK minimizedAffinity 1.34335256
REMARK minimizedRMSD -1
REMARK  1 active torsions:
REMARK  status: ('A' for Active; 'I' for Inactive)
REMARK    1  A    between atoms: C1_2  and  C2_3 
ROOT
ATOM      1  C2  UNL d   1       0.240  -0.250  -0.336  0.00  0.00    -0.076 A 
ATOM      2  C3  UNL d   1      -0.009  -1.142   0.722  0.00  0.00     0.004 A 
ATOM      3  C4  UNL d   1      -0.062  -2.517   0.503  0.00  0.00    -0.003 A 
ATOM      4  C5  UNL d   1       0.135  -3.024  -0.777  0.00  0.00     0.000 A 
ATOM      5  C6  UNL d   1       0.401  -2.156  -1.835  0.00  0.00     0.000 A 
ATOM      6  C7  UNL d   1       0.474  -0.767  -1.629  0.00  0.00    -0.073 A 
ATOM      7  C8  UNL d   1       0.758   0.123  -2.807  0.00  0.00     0.078 C 
ENDROOT
BRANCH   1   8
ATOM      8  C1  UNL d   1       0.259   1.233  -0.044  0.00  0.00     0.053 C 
ATOM      9  C   UNL d   1       0.929   1.557   1.282  0.00  0.00     0.018 C 
ENDBRANCH   1   8
TORSDOF 1
ENDMDL
