MODEL 1
REMARK minimizedAffinity -4.56774426
REMARK minimizedRMSD -1
REMARK  1 active torsions:
REMARK  status: ('A' for Active; 'I' for Inactive)
REMARK    1  A    between atoms: C1_2  and  C2_3 
ROOT
ATOM      1  C2  UNL d   1       1.128   0.971  -0.418  0.00  0.00    -0.076 A 
ATOM      2  C3  UNL d   1       2.261   0.898  -1.246  0.00  0.00     0.004 A 
ATOM      3  C4  UNL d   1       2.278   0.069  -2.366  0.00  0.00    -0.003 A 
ATOM      4  C5  UNL d   1       1.162  -0.701  -2.676  0.00  0.00     0.000 A 
ATOM      5  C6  UNL d   1       0.023  -0.627  -1.875  0.00  0.00     0.000 A 
ATOM      6  C7  UNL d   1      -0.017   0.216  -0.752  0.00  0.00    -0.073 A 
ATOM      7  C8  UNL d   1      -1.269   0.252   0.080  0.00  0.00     0.078 C 
ENDROOT
BRANCH   1   8
ATOM      8  C1  UNL d   1       1.177   1.868   0.799  0.00  0.00     0.053 C 
ATOM      9  C   UNL d   1       1.622   1.128   2.051  0.00  0.00     0.018 C 
ENDBRANCH   1   8
TORSDOF 1
ENDMDL
