MODEL 1
REMARK minimizedAffinity -0.821558297
REMARK minimizedRMSD -1
REMARK  1 active torsions:
REMARK  status: ('A' for Active; 'I' for Inactive)
REMARK    1  A    between atoms: C1_2  and  C2_3 
ROOT
ATOM      1  C2  UNL d   1       1.597   2.216   1.105  0.00  0.00    -0.076 A 
ATOM      2  C3  UNL d   1       1.210   0.936   1.538  0.00  0.00     0.004 A 
ATOM      3  C4  UNL d   1       0.463   0.095   0.714  0.00  0.00    -0.003 A 
ATOM      4  C5  UNL d   1       0.092   0.521  -0.556  0.00  0.00     0.000 A 
ATOM      5  C6  UNL d   1       0.483   1.781  -1.009  0.00  0.00     0.000 A 
ATOM      6  C7  UNL d   1       1.250   2.634  -0.197  0.00  0.00    -0.073 A 
ATOM      7  C8  UNL d   1       1.638   3.985  -0.733  0.00  0.00     0.078 C 
ENDROOT
BRANCH   1   8
ATOM      8  C1  UNL d   1       2.383   3.093   2.053  0.00  0.00     0.053 C 
ATOM      9  C   UNL d   1       2.366   2.570   3.481  0.00  0.00     0.018 C 
ENDBRANCH   1   8
TORSDOF 1
ENDMDL
