MODEL 1
REMARK minimizedAffinity -3.33011079
REMARK minimizedRMSD -1
REMARK  1 active torsions:
REMARK  status: ('A' for Active; 'I' for Inactive)
REMARK    1  A    between atoms: C1_2  and  C2_3 
ROOT
ATOM      1  C2  UNL d   1      -3.568   2.811  -5.861  0.00  0.00    -0.076 A 
ATOM      2  C3  UNL d   1      -3.590   1.405  -5.835  0.00  0.00     0.004 A 
ATOM      3  C4  UNL d   1      -4.796   0.706  -5.868  0.00  0.00    -0.003 A 
ATOM      4  C5  UNL d   1      -5.998   1.401  -5.928  0.00  0.00     0.000 A 
ATOM      5  C6  UNL d   1      -5.994   2.795  -5.973  0.00  0.00     0.000 A 
ATOM      6  C7  UNL d   1      -4.787   3.515  -5.956  0.00  0.00    -0.073 A 
ATOM      7  C8  UNL d   1      -4.842   5.017  -6.000  0.00  0.00     0.078 C 
ENDROOT
BRANCH   1   8
ATOM      8  C1  UNL d   1      -2.232   3.515  -5.795  0.00  0.00     0.053 C 
ATOM      9  C   UNL d   1      -1.070   2.547  -5.629  0.00  0.00     0.018 C 
ENDBRANCH   1   8
TORSDOF 1
ENDMDL
