MODEL 1
REMARK minimizedAffinity 5.18065691
REMARK minimizedRMSD -1
REMARK  1 active torsions:
REMARK  status: ('A' for Active; 'I' for Inactive)
REMARK    1  A    between atoms: C1_2  and  C2_3 
ROOT
ATOM      1  C2  UNL d   1      -3.144   3.415  -5.741  0.00  0.00    -0.076 A 
ATOM      2  C3  UNL d   1      -3.681   2.117  -5.687  0.00  0.00     0.004 A 
ATOM      3  C4  UNL d   1      -5.055   1.905  -5.776  0.00  0.00    -0.003 A 
ATOM      4  C5  UNL d   1      -5.916   2.987  -5.920  0.00  0.00     0.000 A 
ATOM      5  C6  UNL d   1      -5.400   4.281  -5.993  0.00  0.00     0.000 A 
ATOM      6  C7  UNL d   1      -4.015   4.511  -5.922  0.00  0.00    -0.073 A 
ATOM      7  C8  UNL d   1      -3.513   5.927  -6.000  0.00  0.00     0.078 C 
ENDROOT
BRANCH   1   8
ATOM      8  C1  UNL d   1      -1.647   3.586  -5.612  0.00  0.00     0.053 C 
ATOM      9  C   UNL d   1      -1.188   4.990  -5.974  0.00  0.00     0.018 C 
ENDBRANCH   1   8
TORSDOF 1
ENDMDL
