MODEL 1
REMARK minimizedAffinity -5.24988413
REMARK minimizedRMSD -1
REMARK  1 active torsions:
REMARK  status: ('A' for Active; 'I' for Inactive)
REMARK    1  A    between atoms: C1_2  and  C2_3 
ROOT
ATOM      1  C2  UNL d   1       0.548  -0.022  -0.750  0.00  0.00    -0.081 A 
ATOM      2  C3  UNL d   1      -0.819   0.111  -0.479  0.00  0.00     0.006 A 
ATOM      3  C4  UNL d   1      -1.251   0.635   0.742  0.00  0.00     0.002 A 
ATOM      4  C5  UNL d   1      -0.324   1.041   1.708  0.00  0.00    -0.080 A 
ATOM      5  C6  UNL d   1      -0.774   1.634   3.010  0.00  0.00     0.076 C 
ATOM      6  C7  UNL d   1       1.042   0.892   1.444  0.00  0.00     0.002 A 
ATOM      7  C8  UNL d   1       1.474   0.368   0.224  0.00  0.00     0.006 A 
ENDROOT
BRANCH   1   8
ATOM      8  C1  UNL d   1       1.018  -0.526  -2.091  0.00  0.00     0.054 C 
ATOM      9  C   UNL d   1       1.229   0.619  -3.070  0.00  0.00     0.018 C 
ENDBRANCH   1   8
TORSDOF 1
ENDMDL
