MODEL 1
REMARK minimizedAffinity -3.53031731
REMARK minimizedRMSD -1
REMARK  1 active torsions:
REMARK  status: ('A' for Active; 'I' for Inactive)
REMARK    1  A    between atoms: C1_2  and  C2_3 
ROOT
ATOM      1  C2  UNL d   1       0.751   0.136  -1.328  0.00  0.00    -0.081 A 
ATOM      2  C3  UNL d   1      -0.404  -0.648  -1.433  0.00  0.00     0.006 A 
ATOM      3  C4  UNL d   1      -1.324  -0.699  -0.382  0.00  0.00     0.002 A 
ATOM      4  C5  UNL d   1      -1.108   0.040   0.786  0.00  0.00    -0.080 A 
ATOM      5  C6  UNL d   1      -2.102   0.018   1.909  0.00  0.00     0.076 C 
ATOM      6  C7  UNL d   1       0.055   0.810   0.898  0.00  0.00     0.002 A 
ATOM      7  C8  UNL d   1       0.975   0.860  -0.151  0.00  0.00     0.006 A 
ENDROOT
BRANCH   1   8
ATOM      8  C1  UNL d   1       1.712   0.243  -2.484  0.00  0.00     0.054 C 
ATOM      9  C   UNL d   1       0.977   0.247  -3.816  0.00  0.00     0.018 C 
ENDBRANCH   1   8
TORSDOF 1
ENDMDL
