MODEL 1
REMARK minimizedAffinity -3.04192615
REMARK minimizedRMSD -1
REMARK  1 active torsions:
REMARK  status: ('A' for Active; 'I' for Inactive)
REMARK    1  A    between atoms: C1_2  and  C2_3 
ROOT
ATOM      1  C2  UNL d   1       0.402   0.139  -0.935  0.00  0.00    -0.081 A 
ATOM      2  C3  UNL d   1      -0.609  -0.753  -0.557  0.00  0.00     0.006 A 
ATOM      3  C4  UNL d   1      -1.303  -0.569   0.642  0.00  0.00     0.002 A 
ATOM      4  C5  UNL d   1      -1.004   0.513   1.477  0.00  0.00    -0.080 A 
ATOM      5  C6  UNL d   1      -1.762   0.739   2.751  0.00  0.00     0.076 C 
ATOM      6  C7  UNL d   1       0.018   1.394   1.107  0.00  0.00     0.002 A 
ATOM      7  C8  UNL d   1       0.713   1.210  -0.090  0.00  0.00     0.006 A 
ENDROOT
BRANCH   1   8
ATOM      8  C1  UNL d   1       1.108  -0.020  -2.257  0.00  0.00     0.054 C 
ATOM      9  C   UNL d   1       0.156  -0.515  -3.337  0.00  0.00     0.018 C 
ENDBRANCH   1   8
TORSDOF 1
ENDMDL
