MODEL 1
REMARK minimizedAffinity -4.14073372
REMARK minimizedRMSD -1
REMARK  1 active torsions:
REMARK  status: ('A' for Active; 'I' for Inactive)
REMARK    1  A    between atoms: C1_2  and  C2_3 
ROOT
ATOM      1  C2  UNL d   1       0.773   0.526  -1.027  0.00  0.00    -0.081 A 
ATOM      2  C3  UNL d   1      -0.434  -0.184  -1.062  0.00  0.00     0.006 A 
ATOM      3  C4  UNL d   1      -1.292  -0.176   0.040  0.00  0.00     0.002 A 
ATOM      4  C5  UNL d   1      -0.963   0.547   1.191  0.00  0.00    -0.080 A 
ATOM      5  C6  UNL d   1      -1.889   0.588   2.370  0.00  0.00     0.076 C 
ATOM      6  C7  UNL d   1       0.251   1.241   1.233  0.00  0.00     0.002 A 
ATOM      7  C8  UNL d   1       1.110   1.234   0.132  0.00  0.00     0.006 A 
ENDROOT
BRANCH   1   8
ATOM      8  C1  UNL d   1       1.670   0.572  -2.237  0.00  0.00     0.054 C 
ATOM      9  C   UNL d   1       0.862   0.690  -3.521  0.00  0.00     0.018 C 
ENDBRANCH   1   8
TORSDOF 1
ENDMDL
