MODEL 1
REMARK minimizedAffinity -5.38876963
REMARK minimizedRMSD -1
REMARK  0 active torsions:
REMARK  status: ('A' for Active; 'I' for Inactive)
ROOT
ATOM      1  C2' OXE d   1      -1.082   0.122   2.754  0.00  0.00     0.078 C 
ATOM      2  C1' OXE d   1      -2.218   2.173   1.211  0.00  0.00     0.078 C 
ATOM      3  C1  OXE d   1      -1.025   1.445   0.644  0.00  0.00    -0.078 A 
ATOM      4  C2  OXE d   1      -0.447   0.474   1.426  0.00  0.00    -0.078 A 
ATOM      5  C3  OXE d   1       0.622  -0.265   0.929  0.00  0.00     0.003 A 
ATOM      6  C4  OXE d   1       1.210   0.073  -0.296  0.00  0.00    -0.002 A 
ATOM      7  C5  OXE d   1       0.661   1.085  -1.091  0.00  0.00    -0.002 A 
ATOM      8  C6  OXE d   1      -0.480   1.751  -0.655  0.00  0.00     0.003 A 
ENDROOT
TORSDOF 0
ENDMDL
