MODEL 1
REMARK minimizedAffinity -3.75469494
REMARK minimizedRMSD -1
REMARK  0 active torsions:
REMARK  status: ('A' for Active; 'I' for Inactive)
ROOT
ATOM      1  C2' OXE d   1      -0.571   2.506  -1.387  0.00  0.00     0.078 C 
ATOM      2  C1' OXE d   1      -2.033   2.173   0.986  0.00  0.00     0.078 C 
ATOM      3  C1  OXE d   1      -1.035   1.103   0.618  0.00  0.00    -0.078 A 
ATOM      4  C2  OXE d   1      -0.358   1.251  -0.568  0.00  0.00    -0.078 A 
ATOM      5  C3  OXE d   1       0.613   0.321  -0.928  0.00  0.00     0.003 A 
ATOM      6  C4  OXE d   1       0.796  -0.842  -0.170  0.00  0.00    -0.002 A 
ATOM      7  C5  OXE d   1       0.088  -1.031   1.021  0.00  0.00    -0.002 A 
ATOM      8  C6  OXE d   1      -0.798  -0.050   1.451  0.00  0.00     0.003 A 
ENDROOT
TORSDOF 0
ENDMDL
