MODEL 1
REMARK minimizedAffinity -1.806229
REMARK minimizedRMSD -1
REMARK  0 active torsions:
REMARK  status: ('A' for Active; 'I' for Inactive)
ROOT
ATOM      1  C2' OXE d   1      -0.238  -0.927   1.283  0.00  0.00     0.078 C 
ATOM      2  C1' OXE d   1      -2.270   0.768   0.347  0.00  0.00     0.078 C 
ATOM      3  C1  OXE d   1      -0.871   0.995  -0.170  0.00  0.00    -0.078 A 
ATOM      4  C2  OXE d   1       0.125   0.190   0.329  0.00  0.00    -0.078 A 
ATOM      5  C3  OXE d   1       1.424   0.321  -0.154  0.00  0.00     0.003 A 
ATOM      6  C4  OXE d   1       1.753   1.363  -1.029  0.00  0.00    -0.002 A 
ATOM      7  C5  OXE d   1       0.761   2.219  -1.519  0.00  0.00    -0.002 A 
ATOM      8  C6  OXE d   1      -0.561   2.022  -1.133  0.00  0.00     0.003 A 
ENDROOT
TORSDOF 0
ENDMDL
