MODEL 1
REMARK minimizedAffinity -4.96068001
REMARK minimizedRMSD -1
REMARK  0 active torsions:
REMARK  status: ('A' for Active; 'I' for Inactive)
ROOT
ATOM      1  C2' OXE d   1       0.999  -0.563   2.351  0.00  0.00     0.078 C 
ATOM      2  C1' OXE d   1       1.147  -0.026  -0.400  0.00  0.00     0.078 C 
ATOM      3  C1  OXE d   1      -0.110   0.379   0.329  0.00  0.00    -0.078 A 
ATOM      4  C2  OXE d   1      -0.193   0.070   1.665  0.00  0.00    -0.078 A 
ATOM      5  C3  OXE d   1      -1.307   0.470   2.397  0.00  0.00     0.003 A 
ATOM      6  C4  OXE d   1      -2.409   1.046   1.753  0.00  0.00    -0.002 A 
ATOM      7  C5  OXE d   1      -2.361   1.333   0.384  0.00  0.00    -0.002 A 
ATOM      8  C6  OXE d   1      -1.205   1.045  -0.332  0.00  0.00     0.003 A 
ENDROOT
TORSDOF 0
ENDMDL
