MODEL 1
REMARK minimizedAffinity -2.05291247
REMARK minimizedRMSD -1
REMARK  0 active torsions:
REMARK  status: ('A' for Active; 'I' for Inactive)
ROOT
ATOM      1  C2' OXE d   1      -1.075   1.694   1.974  0.00  0.00     0.078 C 
ATOM      2  C1' OXE d   1       0.270  -0.663   2.693  0.00  0.00     0.078 C 
ATOM      3  C1  OXE d   1       0.310  -0.244   1.245  0.00  0.00    -0.078 A 
ATOM      4  C2  OXE d   1      -0.390   0.885   0.894  0.00  0.00    -0.078 A 
ATOM      5  C3  OXE d   1      -0.341   1.346  -0.419  0.00  0.00     0.003 A 
ATOM      6  C4  OXE d   1       0.287   0.587  -1.414  0.00  0.00    -0.002 A 
ATOM      7  C5  OXE d   1       0.972  -0.587  -1.085  0.00  0.00    -0.002 A 
ATOM      8  C6  OXE d   1       1.029  -0.993   0.244  0.00  0.00     0.003 A 
ENDROOT
TORSDOF 0
ENDMDL
