MODEL 1
REMARK minimizedAffinity -3.52427983
REMARK minimizedRMSD -1
REMARK  0 active torsions:
REMARK  status: ('A' for Active; 'I' for Inactive)
ROOT
ATOM      1  C2' OXE d   1       1.013  -0.681   2.372  0.00  0.00     0.078 C 
ATOM      2  C1' OXE d   1       0.910  -0.831  -0.429  0.00  0.00     0.078 C 
ATOM      3  C1  OXE d   1      -0.065   0.089   0.262  0.00  0.00    -0.078 A 
ATOM      4  C2  OXE d   1      -0.038   0.121   1.636  0.00  0.00    -0.078 A 
ATOM      5  C3  OXE d   1      -0.879   0.993   2.321  0.00  0.00     0.003 A 
ATOM      6  C4  OXE d   1      -1.856   1.724   1.633  0.00  0.00    -0.002 A 
ATOM      7  C5  OXE d   1      -1.926   1.675   0.237  0.00  0.00    -0.002 A 
ATOM      8  C6  OXE d   1      -1.012   0.897  -0.465  0.00  0.00     0.003 A 
ENDROOT
TORSDOF 0
ENDMDL
