MODEL 1
REMARK minimizedAffinity -5.38536167
REMARK minimizedRMSD -1
REMARK  0 active torsions:
REMARK  status: ('A' for Active; 'I' for Inactive)
ROOT
ATOM      1  C2' OXE d   1       2.237   0.673  -1.573  0.00  0.00     0.078 C 
ATOM      2  C1' OXE d   1       1.017  -1.782  -0.971  0.00  0.00     0.078 C 
ATOM      3  C1  OXE d   1       0.231  -0.523  -0.707  0.00  0.00    -0.078 A 
ATOM      4  C2  OXE d   1       0.853   0.676  -0.960  0.00  0.00    -0.078 A 
ATOM      5  C3  OXE d   1       0.153   1.866  -0.786  0.00  0.00     0.003 A 
ATOM      6  C4  OXE d   1      -1.123   1.860  -0.209  0.00  0.00    -0.002 A 
ATOM      7  C5  OXE d   1      -1.760   0.652   0.093  0.00  0.00    -0.002 A 
ATOM      8  C6  OXE d   1      -1.115  -0.548  -0.188  0.00  0.00     0.003 A 
ENDROOT
TORSDOF 0
ENDMDL
