MODEL 1
REMARK minimizedAffinity -5.83236694
REMARK minimizedRMSD -1
REMARK  0 active torsions:
REMARK  status: ('A' for Active; 'I' for Inactive)
ROOT
ATOM      1  C2' OXE d   1      -2.226   2.051   1.361  0.00  0.00     0.078 C 
ATOM      2  C1' OXE d   1      -0.931   2.416  -1.103  0.00  0.00     0.078 C 
ATOM      3  C1  OXE d   1      -0.396   1.351  -0.178  0.00  0.00    -0.078 A 
ATOM      4  C2  OXE d   1      -1.007   1.211   1.045  0.00  0.00    -0.078 A 
ATOM      5  C3  OXE d   1      -0.588   0.208   1.914  0.00  0.00     0.003 A 
ATOM      6  C4  OXE d   1       0.546  -0.558   1.618  0.00  0.00    -0.002 A 
ATOM      7  C5  OXE d   1       1.207  -0.405   0.394  0.00  0.00    -0.002 A 
ATOM      8  C6  OXE d   1       0.724   0.514  -0.530  0.00  0.00     0.003 A 
ENDROOT
TORSDOF 0
ENDMDL
