MODEL 1
REMARK minimizedAffinity -2.87405968
REMARK minimizedRMSD -1
REMARK  0 active torsions:
REMARK  status: ('A' for Active; 'I' for Inactive)
ROOT
ATOM      1  C2' OXE d   1       0.427  -0.950  -0.522  0.00  0.00     0.078 C 
ATOM      2  C1' OXE d   1       0.209   1.830  -0.849  0.00  0.00     0.078 C 
ATOM      3  C1  OXE d   1      -0.116   1.254   0.506  0.00  0.00    -0.078 A 
ATOM      4  C2  OXE d   1      -0.052  -0.112   0.644  0.00  0.00    -0.078 A 
ATOM      5  C3  OXE d   1      -0.289  -0.691   1.888  0.00  0.00     0.003 A 
ATOM      6  C4  OXE d   1      -0.741   0.090   2.959  0.00  0.00    -0.002 A 
ATOM      7  C5  OXE d   1      -0.852   1.478   2.828  0.00  0.00    -0.002 A 
ATOM      8  C6  OXE d   1      -0.503   2.079   1.624  0.00  0.00     0.003 A 
ENDROOT
TORSDOF 0
ENDMDL
