MODEL 1
REMARK minimizedAffinity -3.8567152
REMARK minimizedRMSD -1
REMARK  0 active torsions:
REMARK  status: ('A' for Active; 'I' for Inactive)
ROOT
ATOM      1  C2' OXE d   1      -0.630  -1.412  -0.690  0.00  0.00     0.078 C 
ATOM      2  C1' OXE d   1       1.237  -0.949   1.354  0.00  0.00     0.078 C 
ATOM      3  C1  OXE d   1       0.088   0.019   1.218  0.00  0.00    -0.078 A 
ATOM      4  C2  OXE d   1      -0.795  -0.189   0.186  0.00  0.00    -0.078 A 
ATOM      5  C3  OXE d   1      -1.903   0.643   0.049  0.00  0.00     0.003 A 
ATOM      6  C4  OXE d   1      -2.042   1.778   0.857  0.00  0.00    -0.002 A 
ATOM      7  C5  OXE d   1      -1.132   2.030   1.889  0.00  0.00    -0.002 A 
ATOM      8  C6  OXE d   1      -0.087   1.139   2.110  0.00  0.00     0.003 A 
ENDROOT
TORSDOF 0
ENDMDL
