MODEL 1
REMARK minimizedAffinity -3.1963346
REMARK minimizedRMSD -1
REMARK  0 active torsions:
REMARK  status: ('A' for Active; 'I' for Inactive)
ROOT
ATOM      1  C2' OXE d   1       0.979  -0.797  -0.448  0.00  0.00     0.078 C 
ATOM      2  C1' OXE d   1       0.316   1.908  -0.804  0.00  0.00     0.078 C 
ATOM      3  C1  OXE d   1      -0.246   1.198   0.403  0.00  0.00    -0.078 A 
ATOM      4  C2  OXE d   1       0.045  -0.137   0.544  0.00  0.00    -0.078 A 
ATOM      5  C3  OXE d   1      -0.403  -0.826   1.667  0.00  0.00     0.003 A 
ATOM      6  C4  OXE d   1      -1.274  -0.211   2.575  0.00  0.00    -0.002 A 
ATOM      7  C5  OXE d   1      -1.616   1.138   2.428  0.00  0.00    -0.002 A 
ATOM      8  C6  OXE d   1      -1.077   1.867   1.374  0.00  0.00     0.003 A 
ENDROOT
TORSDOF 0
ENDMDL
