MODEL 1
REMARK minimizedAffinity -2.33966374
REMARK minimizedRMSD -1
REMARK  0 active torsions:
REMARK  status: ('A' for Active; 'I' for Inactive)
ROOT
ATOM      1  C2' OXE d   1       1.361  -1.538  -0.555  0.00  0.00     0.078 C 
ATOM      2  C1' OXE d   1       0.888   1.040  -1.560  0.00  0.00     0.078 C 
ATOM      3  C1  OXE d   1       0.262   0.675  -0.237  0.00  0.00    -0.078 A 
ATOM      4  C2  OXE d   1       0.461  -0.604   0.224  0.00  0.00    -0.078 A 
ATOM      5  C3  OXE d   1      -0.049  -0.976   1.465  0.00  0.00     0.003 A 
ATOM      6  C4  OXE d   1      -0.889  -0.109   2.175  0.00  0.00    -0.002 A 
ATOM      7  C5  OXE d   1      -1.136   1.184   1.703  0.00  0.00    -0.002 A 
ATOM      8  C6  OXE d   1      -0.535   1.606   0.522  0.00  0.00     0.003 A 
ENDROOT
TORSDOF 0
ENDMDL
