MODEL 1
REMARK minimizedAffinity -0.974886715
REMARK minimizedRMSD -1
REMARK  0 active torsions:
REMARK  status: ('A' for Active; 'I' for Inactive)
ROOT
ATOM      1  C2' OXE d   1      -0.076   2.518  -1.393  0.00  0.00     0.078 C 
ATOM      2  C1' OXE d   1       0.711  -0.118  -0.834  0.00  0.00     0.078 C 
ATOM      3  C1  OXE d   1       0.036   0.663   0.266  0.00  0.00    -0.078 A 
ATOM      4  C2  OXE d   1      -0.303   1.968  -0.002  0.00  0.00    -0.078 A 
ATOM      5  C3  OXE d   1      -0.976   2.716   0.960  0.00  0.00     0.003 A 
ATOM      6  C4  OXE d   1      -1.174   2.203   2.247  0.00  0.00    -0.002 A 
ATOM      7  C5  OXE d   1      -0.800   0.890   2.553  0.00  0.00    -0.002 A 
ATOM      8  C6  OXE d   1      -0.233   0.095   1.564  0.00  0.00     0.003 A 
ENDROOT
TORSDOF 0
ENDMDL
