MODEL 1
REMARK minimizedAffinity -0.586566746
REMARK minimizedRMSD -1
REMARK  0 active torsions:
REMARK  status: ('A' for Active; 'I' for Inactive)
ROOT
ATOM      1  C2' OXE d   1       0.922  -0.292   2.085  0.00  0.00     0.078 C 
ATOM      2  C1' OXE d   1      -0.450   1.873   3.228  0.00  0.00     0.078 C 
ATOM      3  C1  OXE d   1      -0.889   1.403   1.864  0.00  0.00    -0.078 A 
ATOM      4  C2  OXE d   1      -0.182   0.373   1.292  0.00  0.00    -0.078 A 
ATOM      5  C3  OXE d   1      -0.580  -0.135   0.059  0.00  0.00     0.003 A 
ATOM      6  C4  OXE d   1      -1.596   0.493  -0.672  0.00  0.00    -0.002 A 
ATOM      7  C5  OXE d   1      -2.303   1.569  -0.125  0.00  0.00    -0.002 A 
ATOM      8  C6  OXE d   1      -1.991   2.008   1.157  0.00  0.00     0.003 A 
ENDROOT
TORSDOF 0
ENDMDL
