MODEL 1
REMARK minimizedAffinity -1.57510471
REMARK minimizedRMSD -1
REMARK  0 active torsions:
REMARK  status: ('A' for Active; 'I' for Inactive)
ROOT
ATOM      1  C2' OXE d   1       0.774  -0.723  -0.739  0.00  0.00     0.078 C 
ATOM      2  C1' OXE d   1       0.079   1.957  -1.201  0.00  0.00     0.078 C 
ATOM      3  C1  OXE d   1      -0.278   1.359   0.136  0.00  0.00    -0.078 A 
ATOM      4  C2  OXE d   1       0.024   0.033   0.337  0.00  0.00    -0.078 A 
ATOM      5  C3  OXE d   1      -0.233  -0.553   1.573  0.00  0.00     0.003 A 
ATOM      6  C4  OXE d   1      -0.935   0.150   2.559  0.00  0.00    -0.002 A 
ATOM      7  C5  OXE d   1      -1.288   1.490   2.360  0.00  0.00    -0.002 A 
ATOM      8  C6  OXE d   1      -0.929   2.120   1.174  0.00  0.00     0.003 A 
ENDROOT
TORSDOF 0
ENDMDL
