MODEL 1
REMARK minimizedAffinity -3.56391239
REMARK minimizedRMSD -1
REMARK  0 active torsions:
REMARK  status: ('A' for Active; 'I' for Inactive)
ROOT
ATOM      1  C2' OXE d   1      -1.620   1.223   0.263  0.00  0.00     0.078 C 
ATOM      2  C1' OXE d   1      -0.013   2.885  -1.329  0.00  0.00     0.078 C 
ATOM      3  C1  OXE d   1       0.448   1.467  -1.105  0.00  0.00    -0.078 A 
ATOM      4  C2  OXE d   1      -0.321   0.675  -0.286  0.00  0.00    -0.078 A 
ATOM      5  C3  OXE d   1       0.029  -0.658  -0.090  0.00  0.00     0.003 A 
ATOM      6  C4  OXE d   1       1.238  -1.155  -0.593  0.00  0.00    -0.002 A 
ATOM      7  C5  OXE d   1       2.055  -0.353  -1.397  0.00  0.00    -0.002 A 
ATOM      8  C6  OXE d   1       1.654   0.944  -1.697  0.00  0.00     0.003 A 
ENDROOT
TORSDOF 0
ENDMDL
