MODEL 1
REMARK minimizedAffinity -2.6734333
REMARK minimizedRMSD -1
REMARK  0 active torsions:
REMARK  status: ('A' for Active; 'I' for Inactive)
ROOT
ATOM      1  C2' OXE d   1       0.362  -1.471  -0.866  0.00  0.00     0.078 C 
ATOM      2  C1' OXE d   1       0.960   1.234  -1.319  0.00  0.00     0.078 C 
ATOM      3  C1  OXE d   1       0.149   0.888  -0.095  0.00  0.00    -0.078 A 
ATOM      4  C2  OXE d   1      -0.178  -0.433   0.094  0.00  0.00    -0.078 A 
ATOM      5  C3  OXE d   1      -0.878  -0.814   1.235  0.00  0.00     0.003 A 
ATOM      6  C4  OXE d   1      -1.383   0.154   2.113  0.00  0.00    -0.002 A 
ATOM      7  C5  OXE d   1      -1.094   1.508   1.918  0.00  0.00    -0.002 A 
ATOM      8  C6  OXE d   1      -0.295   1.887   0.844  0.00  0.00     0.003 A 
ENDROOT
TORSDOF 0
ENDMDL
