MODEL 1
REMARK minimizedAffinity -2.46488714
REMARK minimizedRMSD -1
REMARK  0 active torsions:
REMARK  status: ('A' for Active; 'I' for Inactive)
ROOT
ATOM      1  C2' OXE d   1       1.185  -1.317  -0.360  0.00  0.00     0.078 C 
ATOM      2  C1' OXE d   1       0.608   1.140  -1.589  0.00  0.00     0.078 C 
ATOM      3  C1  OXE d   1       0.045   0.893  -0.212  0.00  0.00    -0.078 A 
ATOM      4  C2  OXE d   1       0.294  -0.330   0.363  0.00  0.00    -0.078 A 
ATOM      5  C3  OXE d   1      -0.156  -0.589   1.654  0.00  0.00     0.003 A 
ATOM      6  C4  OXE d   1      -0.989   0.324   2.312  0.00  0.00    -0.002 A 
ATOM      7  C5  OXE d   1      -1.287   1.560   1.728  0.00  0.00    -0.002 A 
ATOM      8  C6  OXE d   1      -0.745   1.877   0.488  0.00  0.00     0.003 A 
ENDROOT
TORSDOF 0
ENDMDL
