MODEL 1
REMARK minimizedAffinity -3.84077716
REMARK minimizedRMSD -1
REMARK  0 active torsions:
REMARK  status: ('A' for Active; 'I' for Inactive)
ROOT
ATOM      1  C2' OXE d   1       0.725  -0.866  -0.283  0.00  0.00     0.078 C 
ATOM      2  C1' OXE d   1       0.293   1.855  -0.821  0.00  0.00     0.078 C 
ATOM      3  C1  OXE d   1      -0.357   1.268   0.407  0.00  0.00    -0.078 A 
ATOM      4  C2  OXE d   1      -0.179  -0.074   0.637  0.00  0.00    -0.078 A 
ATOM      5  C3  OXE d   1      -0.711  -0.654   1.785  0.00  0.00     0.003 A 
ATOM      6  C4  OXE d   1      -1.554   0.083   2.626  0.00  0.00    -0.002 A 
ATOM      7  C5  OXE d   1      -1.781   1.443   2.388  0.00  0.00    -0.002 A 
ATOM      8  C6  OXE d   1      -1.157   2.060   1.309  0.00  0.00     0.003 A 
ENDROOT
TORSDOF 0
ENDMDL
