MODEL 1
REMARK minimizedAffinity 1.98825061
REMARK minimizedRMSD -1
REMARK  1 active torsions:
REMARK  status: ('A' for Active; 'I' for Inactive)
REMARK    1  A    between atoms: C1_2  and  C2_3 
ROOT
ATOM      1  C2  UNL d   1       3.418  -2.132  -3.294  0.00  0.00    -0.073 A 
ATOM      2  C3  UNL d   1       3.392  -3.213  -4.181  0.00  0.00    -0.002 A 
ATOM      3  C4  UNL d   1       3.715  -3.030  -5.526  0.00  0.00     0.004 A 
ATOM      4  C5  UNL d   1       4.073  -1.766  -5.996  0.00  0.00    -0.004 A 
ATOM      5  C6  UNL d   1       4.117  -0.675  -5.122  0.00  0.00    -0.075 A 
ATOM      6  C7  UNL d   1       4.499   0.691  -5.612  0.00  0.00     0.076 C 
ATOM      7  C8  UNL d   1       3.789  -0.867  -3.773  0.00  0.00     0.001 A 
ENDROOT
BRANCH   1   8
ATOM      8  C1  UNL d   1       3.077  -2.326  -1.839  0.00  0.00     0.053 C 
ATOM      9  C   UNL d   1       2.043  -3.423  -1.638  0.00  0.00     0.018 C 
ENDBRANCH   1   8
TORSDOF 1
ENDMDL
