MODEL 1
REMARK minimizedAffinity 2.59237576
REMARK minimizedRMSD -1
REMARK  1 active torsions:
REMARK  status: ('A' for Active; 'I' for Inactive)
REMARK    1  A    between atoms: C1_2  and  C2_3 
ROOT
ATOM      1  C2  UNL d   1      -2.855   1.815  -3.112  0.00  0.00    -0.073 A 
ATOM      2  C3  UNL d   1      -2.825   0.767  -4.038  0.00  0.00    -0.002 A 
ATOM      3  C4  UNL d   1      -2.134  -0.410  -3.748  0.00  0.00     0.004 A 
ATOM      4  C5  UNL d   1      -1.473  -0.554  -2.529  0.00  0.00    -0.004 A 
ATOM      5  C6  UNL d   1      -1.501   0.477  -1.585  0.00  0.00    -0.075 A 
ATOM      6  C7  UNL d   1      -0.793   0.339  -0.269  0.00  0.00     0.076 C 
ATOM      7  C8  UNL d   1      -2.195   1.658  -1.884  0.00  0.00     0.001 A 
ENDROOT
BRANCH   1   8
ATOM      8  C1  UNL d   1      -3.606   3.085  -3.417  0.00  0.00     0.053 C 
ATOM      9  C   UNL d   1      -4.184   3.721  -2.163  0.00  0.00     0.018 C 
ENDBRANCH   1   8
TORSDOF 1
ENDMDL
