MODEL 1
REMARK minimizedAffinity -1.37993133
REMARK minimizedRMSD -1
REMARK  1 active torsions:
REMARK  status: ('A' for Active; 'I' for Inactive)
REMARK    1  A    between atoms: C1_2  and  C2_3 
ROOT
ATOM      1  C2  UNL d   1       2.583  -0.989   1.823  0.00  0.00    -0.073 A 
ATOM      2  C3  UNL d   1       2.696  -0.430   0.545  0.00  0.00    -0.002 A 
ATOM      3  C4  UNL d   1       2.726   0.955   0.382  0.00  0.00     0.004 A 
ATOM      4  C5  UNL d   1       2.650   1.795   1.493  0.00  0.00    -0.004 A 
ATOM      5  C6  UNL d   1       2.548   1.255   2.779  0.00  0.00    -0.075 A 
ATOM      6  C7  UNL d   1       2.463   2.144   3.985  0.00  0.00     0.076 C 
ATOM      7  C8  UNL d   1       2.516  -0.138   2.934  0.00  0.00     0.001 A 
ENDROOT
BRANCH   1   8
ATOM      8  C1  UNL d   1       2.556  -2.485   2.004  0.00  0.00     0.053 C 
ATOM      9  C   UNL d   1       1.308  -3.111   1.402  0.00  0.00     0.018 C 
ENDBRANCH   1   8
TORSDOF 1
ENDMDL
