MODEL 1
REMARK minimizedAffinity 1.58146191
REMARK minimizedRMSD -1
REMARK  0 active torsions:
REMARK  status: ('A' for Active; 'I' for Inactive)
ROOT
ATOM      1  C   UNL d   1      -2.259   0.135  -1.948  0.00  0.00     0.172 C 
ATOM      2  N   UNL d   1      -3.655  -0.034  -1.617  0.00  0.00    -0.070 N 
ATOM      3  C1  UNL d   1      -4.155  -0.908  -0.689  0.00  0.00    -0.004 A 
ATOM      4  C2  UNL d   1      -5.525  -0.765  -0.669  0.00  0.00    -0.047 A 
ATOM      5  C3  UNL d   1      -5.861   0.229  -1.619  0.00  0.00    -0.047 A 
ATOM      6  C4  UNL d   1      -4.684   0.664  -2.191  0.00  0.00    -0.004 A 
ENDROOT
TORSDOF 0
ENDMDL
