MODEL 1
REMARK minimizedAffinity 3.74038053
REMARK minimizedRMSD -1
REMARK  0 active torsions:
REMARK  status: ('A' for Active; 'I' for Inactive)
ROOT
ATOM      1  C   UNL d   1       1.113  -2.669   4.606  0.00  0.00     0.172 C 
ATOM      2  N   UNL d   1       0.951  -4.012   5.111  0.00  0.00    -0.070 N 
ATOM      3  C1  UNL d   1       1.946  -4.795   5.633  0.00  0.00    -0.004 A 
ATOM      4  C2  UNL d   1       1.386  -6.000   6.000  0.00  0.00    -0.047 A 
ATOM      5  C3  UNL d   1       0.007  -5.939   5.687  0.00  0.00    -0.047 A 
ATOM      6  C4  UNL d   1      -0.235  -4.698   5.138  0.00  0.00    -0.004 A 
ENDROOT
TORSDOF 0
ENDMDL
