MODEL 1
REMARK minimizedAffinity 1.0941298
REMARK minimizedRMSD -1
REMARK  0 active torsions:
REMARK  status: ('A' for Active; 'I' for Inactive)
ROOT
ATOM      1  C   UNL d   1       1.675  -2.900   0.249  0.00  0.00     0.172 C 
ATOM      2  N   UNL d   1       2.694  -2.183  -0.481  0.00  0.00    -0.070 N 
ATOM      3  C1  UNL d   1       3.310  -1.032  -0.068  0.00  0.00    -0.004 A 
ATOM      4  C2  UNL d   1       4.217  -0.666  -1.039  0.00  0.00    -0.047 A 
ATOM      5  C3  UNL d   1       4.142  -1.631  -2.072  0.00  0.00    -0.047 A 
ATOM      6  C4  UNL d   1       3.192  -2.558  -1.701  0.00  0.00    -0.004 A 
ENDROOT
TORSDOF 0
ENDMDL
