MODEL 1
REMARK minimizedAffinity 0.604352176
REMARK minimizedRMSD -1
REMARK  0 active torsions:
REMARK  status: ('A' for Active; 'I' for Inactive)
ROOT
ATOM      1  C   UNL d   1       2.571  -2.347  -0.401  0.00  0.00     0.172 C 
ATOM      2  N   UNL d   1       2.794  -0.921  -0.377  0.00  0.00    -0.070 N 
ATOM      3  C1  UNL d   1       3.919  -0.281  -0.824  0.00  0.00    -0.004 A 
ATOM      4  C2  UNL d   1       3.742   1.071  -0.628  0.00  0.00    -0.047 A 
ATOM      5  C3  UNL d   1       2.467   1.251  -0.041  0.00  0.00    -0.047 A 
ATOM      6  C4  UNL d   1       1.902   0.001   0.103  0.00  0.00    -0.004 A 
ENDROOT
TORSDOF 0
ENDMDL
