MODEL 1
REMARK minimizedAffinity 6.82066917
REMARK minimizedRMSD -1
REMARK  0 active torsions:
REMARK  status: ('A' for Active; 'I' for Inactive)
ROOT
ATOM      1  C   UNL d   1      -0.886   1.062   2.354  0.00  0.00     0.172 C 
ATOM      2  N   UNL d   1       0.003   0.386   3.269  0.00  0.00    -0.070 N 
ATOM      3  C1  UNL d   1       0.461  -0.898   3.136  0.00  0.00    -0.004 A 
ATOM      4  C2  UNL d   1       1.282  -1.167   4.210  0.00  0.00    -0.047 A 
ATOM      5  C3  UNL d   1       1.318  -0.005   5.017  0.00  0.00    -0.047 A 
ATOM      6  C4  UNL d   1       0.518   0.941   4.411  0.00  0.00    -0.004 A 
ENDROOT
TORSDOF 0
ENDMDL
