MODEL 1
REMARK minimizedAffinity 0.997093737
REMARK minimizedRMSD -1
REMARK  0 active torsions:
REMARK  status: ('A' for Active; 'I' for Inactive)
ROOT
ATOM      1  C   UNL d   1       2.675  -1.619  -0.621  0.00  0.00     0.172 C 
ATOM      2  N   UNL d   1       3.036  -0.236  -0.417  0.00  0.00    -0.070 N 
ATOM      3  C1  UNL d   1       2.404   0.638   0.426  0.00  0.00    -0.004 A 
ATOM      4  C2  UNL d   1       3.048   1.853   0.335  0.00  0.00    -0.047 A 
ATOM      5  C3  UNL d   1       4.103   1.705  -0.596  0.00  0.00    -0.047 A 
ATOM      6  C4  UNL d   1       4.073   0.402  -1.046  0.00  0.00    -0.004 A 
ENDROOT
TORSDOF 0
ENDMDL
