MODEL 1
REMARK minimizedAffinity 1.52656126
REMARK minimizedRMSD -1
REMARK  0 active torsions:
REMARK  status: ('A' for Active; 'I' for Inactive)
ROOT
ATOM      1  C   UNL d   1       2.256  -2.418  -1.087  0.00  0.00     0.172 C 
ATOM      2  N   UNL d   1       2.584  -1.030  -0.857  0.00  0.00    -0.070 N 
ATOM      3  C1  UNL d   1       1.736  -0.083  -0.349  0.00  0.00    -0.004 A 
ATOM      4  C2  UNL d   1       2.425   1.109  -0.284  0.00  0.00    -0.047 A 
ATOM      5  C3  UNL d   1       3.732   0.870  -0.771  0.00  0.00    -0.047 A 
ATOM      6  C4  UNL d   1       3.803  -0.463  -1.118  0.00  0.00    -0.004 A 
ENDROOT
TORSDOF 0
ENDMDL
