MODEL 1
REMARK minimizedAffinity 1.39841318
REMARK minimizedRMSD -1
REMARK  0 active torsions:
REMARK  status: ('A' for Active; 'I' for Inactive)
ROOT
ATOM      1  C   UNL d   1      -1.081   1.099  -0.494  0.00  0.00     0.172 C 
ATOM      2  N   UNL d   1      -0.306   0.863   0.701  0.00  0.00    -0.070 N 
ATOM      3  C1  UNL d   1      -0.814   0.673   1.958  0.00  0.00    -0.004 A 
ATOM      4  C2  UNL d   1       0.246   0.481   2.817  0.00  0.00    -0.047 A 
ATOM      5  C3  UNL d   1       1.433   0.559   2.050  0.00  0.00    -0.047 A 
ATOM      6  C4  UNL d   1       1.062   0.797   0.744  0.00  0.00    -0.004 A 
ENDROOT
TORSDOF 0
ENDMDL
