MODEL 1
REMARK minimizedAffinity 1.28459144
REMARK minimizedRMSD -1
REMARK  0 active torsions:
REMARK  status: ('A' for Active; 'I' for Inactive)
ROOT
ATOM      1  C   UNL d   1       1.605  -2.507   0.023  0.00  0.00     0.172 C 
ATOM      2  N   UNL d   1       2.683  -1.768  -0.591  0.00  0.00    -0.070 N 
ATOM      3  C1  UNL d   1       3.334  -2.115  -1.745  0.00  0.00    -0.004 A 
ATOM      4  C2  UNL d   1       4.291  -1.156  -1.994  0.00  0.00    -0.047 A 
ATOM      5  C3  UNL d   1       4.214  -0.199  -0.954  0.00  0.00    -0.047 A 
ATOM      6  C4  UNL d   1       3.209  -0.603  -0.099  0.00  0.00    -0.004 A 
ENDROOT
TORSDOF 0
ENDMDL
