MODEL 1
REMARK minimizedAffinity -1.09553576
REMARK minimizedRMSD -1
REMARK  0 active torsions:
REMARK  status: ('A' for Active; 'I' for Inactive)
ROOT
ATOM      1  C   UNL d   1       0.840  -0.544  -0.143  0.00  0.00     0.020 A 
ATOM      2  C1  UNL d   1       0.921  -0.350  -1.521  0.00  0.00     0.020 A 
ATOM      3  C2  UNL d   1       1.066   0.940  -2.037  0.00  0.00     0.034 A 
ATOM      4  C3  UNL d   1       1.130   2.040  -1.175  0.00  0.00     0.017 A 
ATOM      5  C4  UNL d   1       1.049   1.844   0.209  0.00  0.00     0.017 A 
ATOM      6  C5  UNL d   1       0.905   0.551   0.720  0.00  0.00     0.034 A 
ATOM      7 Cl   UNL d   1       1.122   3.152   1.336  0.00  0.00    -0.070 Cl
ATOM      8 Cl1  UNL d   1       1.310   3.606  -1.882  0.00  0.00    -0.070 Cl
ENDROOT
TORSDOF 0
ENDMDL
