MODEL 1
REMARK minimizedAffinity -0.288027823
REMARK minimizedRMSD -1
REMARK  0 active torsions:
REMARK  status: ('A' for Active; 'I' for Inactive)
ROOT
ATOM      1  C   UNL d   1       0.956   0.065  -0.956  0.00  0.00     0.020 A 
ATOM      2  C1  UNL d   1       0.319   1.224  -1.400  0.00  0.00     0.020 A 
ATOM      3  C2  UNL d   1       0.397   2.396  -0.645  0.00  0.00     0.034 A 
ATOM      4  C3  UNL d   1       1.114   2.413   0.557  0.00  0.00     0.017 A 
ATOM      5  C4  UNL d   1       1.753   1.250   1.001  0.00  0.00     0.017 A 
ATOM      6  C5  UNL d   1       1.671   0.079   0.242  0.00  0.00     0.034 A 
ATOM      7 Cl   UNL d   1       2.656   1.194   2.474  0.00  0.00    -0.070 Cl
ATOM      8 Cl1  UNL d   1       1.169   3.899   1.438  0.00  0.00    -0.070 Cl
ENDROOT
TORSDOF 0
ENDMDL
