MODEL 1
REMARK minimizedAffinity 0.675385296
REMARK minimizedRMSD -1
REMARK  0 active torsions:
REMARK  status: ('A' for Active; 'I' for Inactive)
ROOT
ATOM      1  C   UNL d   1       1.031   2.485  -1.817  0.00  0.00     0.020 A 
ATOM      2  C1  UNL d   1       1.011   3.140  -0.587  0.00  0.00     0.020 A 
ATOM      3  C2  UNL d   1       1.049   2.402   0.598  0.00  0.00     0.034 A 
ATOM      4  C3  UNL d   1       1.105   1.004   0.554  0.00  0.00     0.017 A 
ATOM      5  C4  UNL d   1       1.124   0.347  -0.681  0.00  0.00     0.017 A 
ATOM      6  C5  UNL d   1       1.087   1.092  -1.864  0.00  0.00     0.034 A 
ATOM      7 Cl   UNL d   1       1.193  -1.375  -0.815  0.00  0.00    -0.070 Cl
ATOM      8 Cl1  UNL d   1       1.149   0.154   2.059  0.00  0.00    -0.070 Cl
ENDROOT
TORSDOF 0
ENDMDL
