MODEL 1
REMARK minimizedAffinity 1.26977658
REMARK minimizedRMSD -1
REMARK  0 active torsions:
REMARK  status: ('A' for Active; 'I' for Inactive)
ROOT
ATOM      1  C   UNL d   1       1.384   0.488   0.754  0.00  0.00     0.020 A 
ATOM      2  C1  UNL d   1       0.882   0.011  -0.456  0.00  0.00     0.020 A 
ATOM      3  C2  UNL d   1       0.580   0.903  -1.487  0.00  0.00     0.034 A 
ATOM      4  C3  UNL d   1       0.779   2.277  -1.310  0.00  0.00     0.017 A 
ATOM      5  C4  UNL d   1       1.283   2.755  -0.095  0.00  0.00     0.017 A 
ATOM      6  C5  UNL d   1       1.584   1.858   0.934  0.00  0.00     0.034 A 
ATOM      7 Cl   UNL d   1       1.555   4.437   0.199  0.00  0.00    -0.070 Cl
ATOM      8 Cl1  UNL d   1       0.383   3.323  -2.627  0.00  0.00    -0.070 Cl
ENDROOT
TORSDOF 0
ENDMDL
