MODEL 1
REMARK minimizedAffinity -1.1317575
REMARK minimizedRMSD -1
REMARK  0 active torsions:
REMARK  status: ('A' for Active; 'I' for Inactive)
ROOT
ATOM      1  C   UNL d   1       0.687   2.632   0.623  0.00  0.00     0.020 A 
ATOM      2  C1  UNL d   1       1.045   1.358   1.064  0.00  0.00     0.020 A 
ATOM      3  C2  UNL d   1       1.342   0.356   0.138  0.00  0.00     0.034 A 
ATOM      4  C3  UNL d   1       1.281   0.625  -1.234  0.00  0.00     0.017 A 
ATOM      5  C4  UNL d   1       0.921   1.904  -1.676  0.00  0.00     0.017 A 
ATOM      6  C5  UNL d   1       0.625   2.904  -0.744  0.00  0.00     0.034 A 
ATOM      7 Cl   UNL d   1       0.823   2.311  -3.353  0.00  0.00    -0.070 Cl
ATOM      8 Cl1  UNL d   1       1.660  -0.661  -2.323  0.00  0.00    -0.070 Cl
ENDROOT
TORSDOF 0
ENDMDL
