MODEL 1
REMARK minimizedAffinity 0.886476457
REMARK minimizedRMSD -1
REMARK  0 active torsions:
REMARK  status: ('A' for Active; 'I' for Inactive)
ROOT
ATOM      1  C   UNL d   1       1.186  -0.111  -1.305  0.00  0.00     0.020 A 
ATOM      2  C1  UNL d   1       1.455  -0.074   0.063  0.00  0.00     0.020 A 
ATOM      3  C2  UNL d   1       1.424   1.142   0.748  0.00  0.00     0.034 A 
ATOM      4  C3  UNL d   1       1.123   2.327   0.066  0.00  0.00     0.017 A 
ATOM      5  C4  UNL d   1       0.853   2.289  -1.307  0.00  0.00     0.017 A 
ATOM      6  C5  UNL d   1       0.886   1.068  -1.988  0.00  0.00     0.034 A 
ATOM      7 Cl   UNL d   1       0.475   3.709  -2.217  0.00  0.00    -0.070 Cl
ATOM      8 Cl1  UNL d   1       1.103   3.795   0.976  0.00  0.00    -0.070 Cl
ENDROOT
TORSDOF 0
ENDMDL
