MODEL 1
REMARK minimizedAffinity 2.03241277
REMARK minimizedRMSD -1
REMARK  0 active torsions:
REMARK  status: ('A' for Active; 'I' for Inactive)
ROOT
ATOM      1  C   UNL d   1       0.522   2.705   0.449  0.00  0.00     0.020 A 
ATOM      2  C1  UNL d   1       0.739   3.194  -0.838  0.00  0.00     0.020 A 
ATOM      3  C2  UNL d   1       1.202   2.340  -1.841  0.00  0.00     0.034 A 
ATOM      4  C3  UNL d   1       1.450   0.992  -1.558  0.00  0.00     0.017 A 
ATOM      5  C4  UNL d   1       1.233   0.502  -0.266  0.00  0.00     0.017 A 
ATOM      6  C5  UNL d   1       0.769   1.362   0.735  0.00  0.00     0.034 A 
ATOM      7 Cl   UNL d   1       1.517  -1.149   0.159  0.00  0.00    -0.070 Cl
ATOM      8 Cl1  UNL d   1       2.022  -0.007  -2.847  0.00  0.00    -0.070 Cl
ENDROOT
TORSDOF 0
ENDMDL
