MODEL 1
REMARK minimizedAffinity 5.46504784
REMARK minimizedRMSD -1
REMARK  0 active torsions:
REMARK  status: ('A' for Active; 'I' for Inactive)
ROOT
ATOM      1  C   UNL d   1       0.114   0.196  -0.717  0.00  0.00     0.020 A 
ATOM      2  C1  UNL d   1       0.136   1.492  -0.204  0.00  0.00     0.020 A 
ATOM      3  C2  UNL d   1       1.259   1.951   0.487  0.00  0.00     0.034 A 
ATOM      4  C3  UNL d   1       2.366   1.113   0.667  0.00  0.00     0.017 A 
ATOM      5  C4  UNL d   1       2.343  -0.188   0.152  0.00  0.00     0.017 A 
ATOM      6  C5  UNL d   1       1.216  -0.642  -0.539  0.00  0.00     0.034 A 
ATOM      7 Cl   UNL d   1       3.670  -1.280   0.334  0.00  0.00    -0.070 Cl
ATOM      8 Cl1  UNL d   1       3.721   1.747   1.531  0.00  0.00    -0.070 Cl
ENDROOT
TORSDOF 0
ENDMDL
