MODEL 1
REMARK minimizedAffinity -3.83851266
REMARK minimizedRMSD -1
REMARK  0 active torsions:
REMARK  status: ('A' for Active; 'I' for Inactive)
ROOT
ATOM      1  C   UNL d   1       1.172   3.114  -1.606  0.00  0.00     0.020 A 
ATOM      2  C1  UNL d   1       1.134   3.791  -0.388  0.00  0.00     0.020 A 
ATOM      3  C2  UNL d   1       0.928   3.083   0.798  0.00  0.00     0.034 A 
ATOM      4  C3  UNL d   1       0.758   1.694   0.769  0.00  0.00     0.017 A 
ATOM      5  C4  UNL d   1       0.796   1.015  -0.455  0.00  0.00     0.017 A 
ATOM      6  C5  UNL d   1       1.003   1.729  -1.639  0.00  0.00     0.034 A 
ATOM      7 Cl   UNL d   1       0.594  -0.698  -0.571  0.00  0.00    -0.070 Cl
ATOM      8 Cl1  UNL d   1       0.507   0.883   2.273  0.00  0.00    -0.070 Cl
ENDROOT
TORSDOF 0
ENDMDL
