MODEL 1
REMARK minimizedAffinity 3.09575987
REMARK minimizedRMSD -1
REMARK  0 active torsions:
REMARK  status: ('A' for Active; 'I' for Inactive)
ROOT
ATOM      1  C   UNL d   1       1.151  -0.504  -1.432  0.00  0.00     0.020 A 
ATOM      2  C1  UNL d   1       1.150   0.214  -2.628  0.00  0.00     0.020 A 
ATOM      3  C2  UNL d   1       1.123   1.610  -2.604  0.00  0.00     0.034 A 
ATOM      4  C3  UNL d   1       1.097   2.292  -1.382  0.00  0.00     0.017 A 
ATOM      5  C4  UNL d   1       1.097   1.571  -0.183  0.00  0.00     0.017 A 
ATOM      6  C5  UNL d   1       1.125   0.173  -0.213  0.00  0.00     0.034 A 
ATOM      7 Cl   UNL d   1       1.065   2.343   1.363  0.00  0.00    -0.070 Cl
ATOM      8 Cl1  UNL d   1       1.064   4.019  -1.427  0.00  0.00    -0.070 Cl
ENDROOT
TORSDOF 0
ENDMDL
