MODEL 1
REMARK minimizedAffinity -3.41934609
REMARK minimizedRMSD -1
REMARK  0 active torsions:
REMARK  status: ('A' for Active; 'I' for Inactive)
ROOT
ATOM      1  C   UNL d   1       0.848   0.077   0.062  0.00  0.00     0.020 A 
ATOM      2  C1  UNL d   1       1.054   0.194  -1.312  0.00  0.00     0.020 A 
ATOM      3  C2  UNL d   1       1.211   1.456  -1.890  0.00  0.00     0.034 A 
ATOM      4  C3  UNL d   1       1.162   2.606  -1.093  0.00  0.00     0.017 A 
ATOM      5  C4  UNL d   1       0.955   2.488   0.286  0.00  0.00     0.017 A 
ATOM      6  C5  UNL d   1       0.798   1.222   0.859  0.00  0.00     0.034 A 
ATOM      7 Cl   UNL d   1       0.882   3.861   1.333  0.00  0.00    -0.070 Cl
ATOM      8 Cl1  UNL d   1       1.364   4.133  -1.875  0.00  0.00    -0.070 Cl
ENDROOT
TORSDOF 0
ENDMDL
