MODEL 1
REMARK minimizedAffinity 2.35362244
REMARK minimizedRMSD -1
REMARK  0 active torsions:
REMARK  status: ('A' for Active; 'I' for Inactive)
ROOT
ATOM      1  C   UNL d   1       2.225  -0.019  -1.785  0.00  0.00     0.020 A 
ATOM      2  C1  UNL d   1       1.709  -0.606  -0.631  0.00  0.00     0.020 A 
ATOM      3  C2  UNL d   1       0.896   0.139   0.227  0.00  0.00     0.034 A 
ATOM      4  C3  UNL d   1       0.597   1.474  -0.069  0.00  0.00     0.017 A 
ATOM      5  C4  UNL d   1       1.116   2.062  -1.228  0.00  0.00     0.017 A 
ATOM      6  C5  UNL d   1       1.930   1.312  -2.083  0.00  0.00     0.034 A 
ATOM      7 Cl   UNL d   1       0.792   3.703  -1.660  0.00  0.00    -0.070 Cl
ATOM      8 Cl1  UNL d   1      -0.415   2.334   1.036  0.00  0.00    -0.070 Cl
ENDROOT
TORSDOF 0
ENDMDL
