MODEL 1
REMARK minimizedAffinity 5.74813843
REMARK minimizedRMSD -1
REMARK  0 active torsions:
REMARK  status: ('A' for Active; 'I' for Inactive)
ROOT
ATOM      1  C   UNL d   1       1.436  -0.094   0.915  0.00  0.00     0.020 A 
ATOM      2  C1  UNL d   1       1.351  -0.440  -0.432  0.00  0.00     0.020 A 
ATOM      3  C2  UNL d   1       1.159   0.550  -1.397  0.00  0.00     0.034 A 
ATOM      4  C3  UNL d   1       1.051   1.893  -1.016  0.00  0.00     0.017 A 
ATOM      5  C4  UNL d   1       1.137   2.240   0.337  0.00  0.00     0.017 A 
ATOM      6  C5  UNL d   1       1.329   1.244   1.299  0.00  0.00     0.034 A 
ATOM      7 Cl   UNL d   1       1.013   3.875   0.884  0.00  0.00    -0.070 Cl
ATOM      8 Cl1  UNL d   1       0.814   3.066  -2.263  0.00  0.00    -0.070 Cl
ENDROOT
TORSDOF 0
ENDMDL
