MODEL 1
REMARK minimizedAffinity 2.81908393
REMARK minimizedRMSD -1
REMARK  0 active torsions:
REMARK  status: ('A' for Active; 'I' for Inactive)
ROOT
ATOM      1  C   UNL d   1      -2.953   2.310   2.389  0.00  0.00     0.020 A 
ATOM      2  C1  UNL d   1      -3.808   1.212   2.296  0.00  0.00     0.020 A 
ATOM      3  C2  UNL d   1      -3.899   0.306   3.356  0.00  0.00     0.034 A 
ATOM      4  C3  UNL d   1      -3.134   0.497   4.512  0.00  0.00     0.017 A 
ATOM      5  C4  UNL d   1      -2.277   1.600   4.605  0.00  0.00     0.017 A 
ATOM      6  C5  UNL d   1      -2.190   2.503   3.541  0.00  0.00     0.034 A 
ATOM      7 Cl   UNL d   1      -1.303   1.902   6.000  0.00  0.00    -0.070 Cl
ATOM      8 Cl1  UNL d   1      -3.297  -0.662   5.783  0.00  0.00    -0.070 Cl
ENDROOT
TORSDOF 0
ENDMDL
