MODEL 1
REMARK minimizedAffinity 1.80661857
REMARK minimizedRMSD -1
REMARK  0 active torsions:
REMARK  status: ('A' for Active; 'I' for Inactive)
ROOT
ATOM      1  C   UNL d   1       1.089  -0.266   0.251  0.00  0.00     0.020 A 
ATOM      2  C1  UNL d   1       0.681  -0.158  -1.078  0.00  0.00     0.020 A 
ATOM      3  C2  UNL d   1       0.616   1.096  -1.689  0.00  0.00     0.034 A 
ATOM      4  C3  UNL d   1       0.959   2.247  -0.970  0.00  0.00     0.017 A 
ATOM      5  C4  UNL d   1       1.368   2.137   0.363  0.00  0.00     0.017 A 
ATOM      6  C5  UNL d   1       1.432   0.879   0.970  0.00  0.00     0.034 A 
ATOM      7 Cl   UNL d   1       1.807   3.512   1.314  0.00  0.00    -0.070 Cl
ATOM      8 Cl1  UNL d   1       0.855   3.765  -1.789  0.00  0.00    -0.070 Cl
ENDROOT
TORSDOF 0
ENDMDL
