MODEL 1
REMARK minimizedAffinity 0.418827385
REMARK minimizedRMSD -1
REMARK  0 active torsions:
REMARK  status: ('A' for Active; 'I' for Inactive)
ROOT
ATOM      1  C   UNL d   1       1.278  -0.603  -0.658  0.00  0.00     0.020 A 
ATOM      2  C1  UNL d   1       1.696  -0.032  -1.858  0.00  0.00     0.020 A 
ATOM      3  C2  UNL d   1       1.575   1.346  -2.055  0.00  0.00     0.034 A 
ATOM      4  C3  UNL d   1       1.035   2.156  -1.050  0.00  0.00     0.017 A 
ATOM      5  C4  UNL d   1       0.615   1.581   0.155  0.00  0.00     0.017 A 
ATOM      6  C5  UNL d   1       0.739   0.201   0.347  0.00  0.00     0.034 A 
ATOM      7 Cl   UNL d   1      -0.061   2.515   1.442  0.00  0.00    -0.070 Cl
ATOM      8 Cl1  UNL d   1       0.916   3.851  -1.361  0.00  0.00    -0.070 Cl
ENDROOT
TORSDOF 0
ENDMDL
