MODEL 1
REMARK minimizedAffinity 3.5027442
REMARK minimizedRMSD -1
REMARK  0 active torsions:
REMARK  status: ('A' for Active; 'I' for Inactive)
ROOT
ATOM      1  C   UNL d   1      -2.875   0.585   6.000  0.00  0.00     0.020 A 
ATOM      2  C1  UNL d   1      -1.930   1.519   5.577  0.00  0.00     0.020 A 
ATOM      3  C2  UNL d   1      -2.102   2.184   4.361  0.00  0.00     0.034 A 
ATOM      4  C3  UNL d   1      -3.220   1.916   3.564  0.00  0.00     0.017 A 
ATOM      5  C4  UNL d   1      -4.168   0.978   3.989  0.00  0.00     0.017 A 
ATOM      6  C5  UNL d   1      -3.992   0.315   5.207  0.00  0.00     0.034 A 
ATOM      7 Cl   UNL d   1      -5.574   0.595   3.059  0.00  0.00    -0.070 Cl
ATOM      8 Cl1  UNL d   1      -3.368   2.776   2.072  0.00  0.00    -0.070 Cl
ENDROOT
TORSDOF 0
ENDMDL
