MODEL 1
REMARK minimizedAffinity 17.3590336
REMARK minimizedRMSD -1
REMARK  0 active torsions:
REMARK  status: ('A' for Active; 'I' for Inactive)
ROOT
ATOM      1  C   UNL d   1       1.102   4.018  -0.115  0.00  0.00     0.124 A 
ATOM      2  C1  UNL d   1       0.212   3.006   0.219  0.00  0.00     0.062 A 
ATOM      3  C2  UNL d   1      -1.070   2.995  -0.322  0.00  0.00     0.162 A 
ATOM      4  C3  UNL d   1      -1.471   3.999  -1.203  0.00  0.00    -0.034 A 
ATOM      5  C4  UNL d   1      -0.571   5.014  -1.534  0.00  0.00     0.162 A 
ATOM      6  C5  UNL d   1       0.709   5.021  -0.991  0.00  0.00     0.062 A 
ATOM      7  F   UNL d   1       1.567   5.999  -1.314  0.00  0.00    -0.097 F 
ATOM      8  F1  UNL d   1      -0.924   5.995  -2.378  0.00  0.00    -0.096 F 
ATOM      9  I   UNL d   1      -3.388   3.986  -2.014  0.00  0.00    -0.060 I 
ATOM     10  F2  UNL d   1      -1.909   2.005   0.018  0.00  0.00    -0.096 F 
ATOM     11  F3  UNL d   1       0.589   2.037   1.065  0.00  0.00    -0.097 F 
ATOM     12  F4  UNL d   1       2.335   4.027   0.407  0.00  0.00    -0.092 F 
ENDROOT
TORSDOF 0
ENDMDL
