MODEL 1
REMARK minimizedAffinity 25.4583073
REMARK minimizedRMSD -1
REMARK  0 active torsions:
REMARK  status: ('A' for Active; 'I' for Inactive)
ROOT
ATOM      1  C   UNL d   1       5.080  -2.146  -1.877  0.00  0.00     0.124 A 
ATOM      2  C1  UNL d   1       4.714  -2.996  -2.911  0.00  0.00     0.062 A 
ATOM      3  C2  UNL d   1       3.759  -3.986  -2.699  0.00  0.00     0.162 A 
ATOM      4  C3  UNL d   1       3.162  -4.131  -1.447  0.00  0.00    -0.034 A 
ATOM      5  C4  UNL d   1       3.536  -3.273  -0.411  0.00  0.00     0.162 A 
ATOM      6  C5  UNL d   1       4.491  -2.285  -0.628  0.00  0.00     0.062 A 
ATOM      7  F   UNL d   1       4.843  -1.464   0.372  0.00  0.00    -0.097 F 
ATOM      8  F1  UNL d   1       2.982  -3.384   0.805  0.00  0.00    -0.096 F 
ATOM      9  I   UNL d   1       1.733  -5.610  -1.125  0.00  0.00    -0.060 I 
ATOM     10  F2  UNL d   1       3.424  -4.793  -3.717  0.00  0.00    -0.096 F 
ATOM     11  F3  UNL d   1       5.282  -2.864  -4.119  0.00  0.00    -0.097 F 
ATOM     12  F4  UNL d   1       6.000  -1.195  -2.084  0.00  0.00    -0.092 F 
ENDROOT
TORSDOF 0
ENDMDL
