MODEL 1
REMARK minimizedAffinity 25.5669842
REMARK minimizedRMSD -1
REMARK  0 active torsions:
REMARK  status: ('A' for Active; 'I' for Inactive)
ROOT
ATOM      1  C   UNL d   1       0.249   4.923  -0.874  0.00  0.00     0.124 A 
ATOM      2  C1  UNL d   1      -1.053   4.880  -1.353  0.00  0.00     0.062 A 
ATOM      3  C2  UNL d   1      -1.849   3.763  -1.117  0.00  0.00     0.162 A 
ATOM      4  C3  UNL d   1      -1.346   2.679  -0.398  0.00  0.00    -0.034 A 
ATOM      5  C4  UNL d   1      -0.035   2.729   0.079  0.00  0.00     0.162 A 
ATOM      6  C5  UNL d   1       0.757   3.847  -0.159  0.00  0.00     0.062 A 
ATOM      7  F   UNL d   1       2.015   3.887   0.304  0.00  0.00    -0.097 F 
ATOM      8  F1  UNL d   1       0.481   1.704   0.774  0.00  0.00    -0.096 F 
ATOM      9  I   UNL d   1      -2.534   1.007  -0.043  0.00  0.00    -0.060 I 
ATOM     10  F2  UNL d   1      -3.104   3.750  -1.591  0.00  0.00    -0.096 F 
ATOM     11  F3  UNL d   1      -1.546   5.918  -2.045  0.00  0.00    -0.097 F 
ATOM     12  F4  UNL d   1       1.014   5.998  -1.103  0.00  0.00    -0.092 F 
ENDROOT
TORSDOF 0
ENDMDL
