MODEL 1
REMARK minimizedAffinity 22.1551418
REMARK minimizedRMSD -1
REMARK  0 active torsions:
REMARK  status: ('A' for Active; 'I' for Inactive)
ROOT
ATOM      1  C   UNL d   1      -0.290   4.526  -0.918  0.00  0.00     0.124 A 
ATOM      2  C1  UNL d   1      -1.036   3.399  -0.601  0.00  0.00     0.062 A 
ATOM      3  C2  UNL d   1      -0.734   2.656   0.537  0.00  0.00     0.162 A 
ATOM      4  C3  UNL d   1       0.319   3.039   1.367  0.00  0.00    -0.034 A 
ATOM      5  C4  UNL d   1       1.066   4.172   1.042  0.00  0.00     0.162 A 
ATOM      6  C5  UNL d   1       0.760   4.911  -0.097  0.00  0.00     0.062 A 
ATOM      7  F   UNL d   1       1.482   5.999  -0.401  0.00  0.00    -0.097 F 
ATOM      8  F1  UNL d   1       2.085   4.568   1.819  0.00  0.00    -0.096 F 
ATOM      9  I   UNL d   1       0.774   1.931   3.070  0.00  0.00    -0.060 I 
ATOM     10  F2  UNL d   1      -1.472   1.572   0.818  0.00  0.00    -0.096 F 
ATOM     11  F3  UNL d   1      -2.051   3.024  -1.394  0.00  0.00    -0.097 F 
ATOM     12  F4  UNL d   1      -0.582   5.238  -2.014  0.00  0.00    -0.092 F 
ENDROOT
TORSDOF 0
ENDMDL
