MODEL 1
REMARK minimizedAffinity 27.4221001
REMARK minimizedRMSD -1
REMARK  0 active torsions:
REMARK  status: ('A' for Active; 'I' for Inactive)
ROOT
ATOM      1  C   UNL d   1      -0.319  -4.258  -1.863  0.00  0.00     0.124 A 
ATOM      2  C1  UNL d   1       0.561  -3.822  -0.882  0.00  0.00     0.062 A 
ATOM      3  C2  UNL d   1       0.714  -2.461  -0.634  0.00  0.00     0.162 A 
ATOM      4  C3  UNL d   1      -0.014  -1.525  -1.368  0.00  0.00    -0.034 A 
ATOM      5  C4  UNL d   1      -0.896  -1.971  -2.354  0.00  0.00     0.162 A 
ATOM      6  C5  UNL d   1      -1.046  -3.332  -2.599  0.00  0.00     0.062 A 
ATOM      7  F   UNL d   1      -1.896  -3.751  -3.547  0.00  0.00    -0.097 F 
ATOM      8  F1  UNL d   1      -1.612  -1.098  -3.079  0.00  0.00    -0.096 F 
ATOM      9  I   UNL d   1       0.213   0.511  -1.000  0.00  0.00    -0.060 I 
ATOM     10  F2  UNL d   1       1.571  -2.069   0.321  0.00  0.00    -0.096 F 
ATOM     11  F3  UNL d   1       1.265  -4.714  -0.171  0.00  0.00    -0.097 F 
ATOM     12  F4  UNL d   1      -0.464  -5.568  -2.101  0.00  0.00    -0.092 F 
ENDROOT
TORSDOF 0
ENDMDL
