MODEL 1
REMARK minimizedAffinity 1.28926218
REMARK minimizedRMSD -1
REMARK  0 active torsions:
REMARK  status: ('A' for Active; 'I' for Inactive)
ROOT
ATOM      1  C4' PXY d   1      -2.309   5.998   6.000  0.00  0.00     0.077 C 
ATOM      2  C1' PXY d   1      -5.922   5.942   1.488  0.00  0.00     0.077 C 
ATOM      3  C1  PXY d   1      -4.984   5.962   2.678  0.00  0.00    -0.082 A 
ATOM      4  C2  PXY d   1      -3.677   5.999   2.480  0.00  0.00     0.003 A 
ATOM      5  C3  PXY d   1      -2.813   5.985   3.546  0.00  0.00     0.003 A 
ATOM      6  C4  PXY d   1      -3.294   5.986   4.827  0.00  0.00    -0.082 A 
ATOM      7  C5  PXY d   1      -4.627   5.959   5.038  0.00  0.00     0.003 A 
ATOM      8  C6  PXY d   1      -5.486   5.932   3.943  0.00  0.00     0.003 A 
ENDROOT
TORSDOF 0
ENDMDL
