MODEL 1
REMARK minimizedAffinity 4.65524054
REMARK minimizedRMSD -1
REMARK  0 active torsions:
REMARK  status: ('A' for Active; 'I' for Inactive)
ROOT
ATOM      1  C4' PXY d   1      -3.412   5.245   6.000  0.00  0.00     0.077 C 
ATOM      2  C1' PXY d   1      -3.333   5.243   0.219  0.00  0.00     0.077 C 
ATOM      3  C1  PXY d   1      -3.366   5.239   1.735  0.00  0.00    -0.082 A 
ATOM      4  C2  PXY d   1      -2.518   5.999   2.410  0.00  0.00     0.003 A 
ATOM      5  C3  PXY d   1      -2.513   5.984   3.781  0.00  0.00     0.003 A 
ATOM      6  C4  PXY d   1      -3.420   5.224   4.469  0.00  0.00    -0.082 A 
ATOM      7  C5  PXY d   1      -4.296   4.454   3.788  0.00  0.00     0.003 A 
ATOM      8  C6  PXY d   1      -4.258   4.452   2.396  0.00  0.00     0.003 A 
ENDROOT
TORSDOF 0
ENDMDL
