MODEL 1
REMARK minimizedAffinity -1.66832352
REMARK minimizedRMSD -1
REMARK  0 active torsions:
REMARK  status: ('A' for Active; 'I' for Inactive)
ROOT
ATOM      1  C4' PXY d   1      -3.088   6.000   0.676  0.00  0.00     0.077 C 
ATOM      2  C1' PXY d   1      -5.031   4.853   5.998  0.00  0.00     0.077 C 
ATOM      3  C1  PXY d   1      -4.530   5.145   4.598  0.00  0.00    -0.082 A 
ATOM      4  C2  PXY d   1      -3.332   5.681   4.431  0.00  0.00     0.003 A 
ATOM      5  C3  PXY d   1      -2.876   5.981   3.173  0.00  0.00     0.003 A 
ATOM      6  C4  PXY d   1      -3.632   5.680   2.072  0.00  0.00    -0.082 A 
ATOM      7  C5  PXY d   1      -4.850   5.122   2.233  0.00  0.00     0.003 A 
ATOM      8  C6  PXY d   1      -5.312   4.864   3.521  0.00  0.00     0.003 A 
ENDROOT
TORSDOF 0
ENDMDL
