MODEL 1
REMARK minimizedAffinity -0.225880265
REMARK minimizedRMSD -1
REMARK  0 active torsions:
REMARK  status: ('A' for Active; 'I' for Inactive)
ROOT
ATOM      1  C4' PXY d   1      -4.075   5.999   4.302  0.00  0.00     0.077 C 
ATOM      2  C1' PXY d   1      -2.555   0.633   2.783  0.00  0.00     0.077 C 
ATOM      3  C1  PXY d   1      -2.948   2.045   3.171  0.00  0.00    -0.082 A 
ATOM      4  C2  PXY d   1      -3.142   2.344   4.445  0.00  0.00     0.003 A 
ATOM      5  C3  PXY d   1      -3.529   3.607   4.810  0.00  0.00     0.003 A 
ATOM      6  C4  PXY d   1      -3.668   4.589   3.866  0.00  0.00    -0.082 A 
ATOM      7  C5  PXY d   1      -3.461   4.295   2.565  0.00  0.00     0.003 A 
ATOM      8  C6  PXY d   1      -3.109   2.996   2.211  0.00  0.00     0.003 A 
ENDROOT
TORSDOF 0
ENDMDL
