MODEL 1
REMARK minimizedAffinity -0.215856209
REMARK minimizedRMSD -1
REMARK  0 active torsions:
REMARK  status: ('A' for Active; 'I' for Inactive)
ROOT
ATOM      1  C4' PXY d   1      -5.999   5.583   1.158  0.00  0.00     0.077 C 
ATOM      2  C1' PXY d   1      -2.770   6.000   5.934  0.00  0.00     0.077 C 
ATOM      3  C1  PXY d   1      -3.608   5.897   4.675  0.00  0.00    -0.082 A 
ATOM      4  C2  PXY d   1      -4.918   5.743   4.772  0.00  0.00     0.003 A 
ATOM      5  C3  PXY d   1      -5.687   5.616   3.643  0.00  0.00     0.003 A 
ATOM      6  C4  PXY d   1      -5.115   5.701   2.402  0.00  0.00    -0.082 A 
ATOM      7  C5  PXY d   1      -3.780   5.869   2.295  0.00  0.00     0.003 A 
ATOM      8  C6  PXY d   1      -3.012   5.954   3.453  0.00  0.00     0.003 A 
ENDROOT
TORSDOF 0
ENDMDL
