MODEL 1
REMARK minimizedAffinity -3.13017988
REMARK minimizedRMSD -1
REMARK  0 active torsions:
REMARK  status: ('A' for Active; 'I' for Inactive)
ROOT
ATOM      1  C4' PXY d   1      -4.566   5.981   5.997  0.00  0.00     0.077 C 
ATOM      2  C1' PXY d   1      -2.614   5.991   0.556  0.00  0.00     0.077 C 
ATOM      3  C1  PXY d   1      -3.137   5.994   1.979  0.00  0.00    -0.082 A 
ATOM      4  C2  PXY d   1      -2.283   5.993   2.990  0.00  0.00     0.003 A 
ATOM      5  C3  PXY d   1      -2.739   5.963   4.283  0.00  0.00     0.003 A 
ATOM      6  C4  PXY d   1      -4.082   5.988   4.544  0.00  0.00    -0.082 A 
ATOM      7  C5  PXY d   1      -4.960   5.999   3.518  0.00  0.00     0.003 A 
ATOM      8  C6  PXY d   1      -4.477   5.988   2.213  0.00  0.00     0.003 A 
ENDROOT
TORSDOF 0
ENDMDL
