MODEL 1
REMARK minimizedAffinity 1.20032084
REMARK minimizedRMSD -1
REMARK  0 active torsions:
REMARK  status: ('A' for Active; 'I' for Inactive)
ROOT
ATOM      1  C4' PXY d   1      -2.659   5.981   0.464  0.00  0.00     0.077 C 
ATOM      2  C1' PXY d   1      -4.324   5.978   6.000  0.00  0.00     0.077 C 
ATOM      3  C1  PXY d   1      -3.899   5.973   4.545  0.00  0.00    -0.082 A 
ATOM      4  C2  PXY d   1      -2.612   5.966   4.240  0.00  0.00     0.003 A 
ATOM      5  C3  PXY d   1      -2.209   5.995   2.929  0.00  0.00     0.003 A 
ATOM      6  C4  PXY d   1      -3.134   5.976   1.920  0.00  0.00    -0.082 A 
ATOM      7  C5  PXY d   1      -4.450   5.973   2.223  0.00  0.00     0.003 A 
ATOM      8  C6  PXY d   1      -4.838   5.986   3.560  0.00  0.00     0.003 A 
ENDROOT
TORSDOF 0
ENDMDL
