MODEL 1
REMARK minimizedAffinity 0.911314726
REMARK minimizedRMSD -1
REMARK  0 active torsions:
REMARK  status: ('A' for Active; 'I' for Inactive)
ROOT
ATOM      1  C4' PXY d   1      -5.245   5.664   1.300  0.00  0.00     0.077 C 
ATOM      2  C1' PXY d   1      -1.895   5.989   6.000  0.00  0.00     0.077 C 
ATOM      3  C1  PXY d   1      -2.765   5.911   4.760  0.00  0.00    -0.082 A 
ATOM      4  C2  PXY d   1      -4.071   5.746   4.887  0.00  0.00     0.003 A 
ATOM      5  C3  PXY d   1      -4.868   5.641   3.777  0.00  0.00     0.003 A 
ATOM      6  C4  PXY d   1      -4.330   5.758   2.524  0.00  0.00    -0.082 A 
ATOM      7  C5  PXY d   1      -2.999   5.937   2.386  0.00  0.00     0.003 A 
ATOM      8  C6  PXY d   1      -2.201   6.000   3.525  0.00  0.00     0.003 A 
ENDROOT
TORSDOF 0
ENDMDL
