MODEL 1
REMARK minimizedAffinity 1.13631809
REMARK minimizedRMSD -1
REMARK  0 active torsions:
REMARK  status: ('A' for Active; 'I' for Inactive)
ROOT
ATOM      1  C4' PXY d   1      -5.851   5.961   1.436  0.00  0.00     0.077 C 
ATOM      2  C1' PXY d   1      -2.301   5.999   5.998  0.00  0.00     0.077 C 
ATOM      3  C1  PXY d   1      -3.223   5.995   4.795  0.00  0.00    -0.082 A 
ATOM      4  C2  PXY d   1      -4.534   5.989   4.975  0.00  0.00     0.003 A 
ATOM      5  C3  PXY d   1      -5.381   5.952   3.897  0.00  0.00     0.003 A 
ATOM      6  C4  PXY d   1      -4.883   5.975   2.622  0.00  0.00    -0.082 A 
ATOM      7  C5  PXY d   1      -3.547   5.992   2.431  0.00  0.00     0.003 A 
ATOM      8  C6  PXY d   1      -2.703   5.988   3.537  0.00  0.00     0.003 A 
ENDROOT
TORSDOF 0
ENDMDL
