MODEL 1
REMARK minimizedAffinity -1.43297541
REMARK minimizedRMSD -1
REMARK  0 active torsions:
REMARK  status: ('A' for Active; 'I' for Inactive)
ROOT
ATOM      1  C4' PXY d   1      -5.456   5.827   1.178  0.00  0.00     0.077 C 
ATOM      2  C1' PXY d   1      -2.269   5.932   6.000  0.00  0.00     0.077 C 
ATOM      3  C1  PXY d   1      -3.096   5.911   4.729  0.00  0.00    -0.082 A 
ATOM      4  C2  PXY d   1      -4.411   5.797   4.806  0.00  0.00     0.003 A 
ATOM      5  C3  PXY d   1      -5.171   5.744   3.666  0.00  0.00     0.003 A 
ATOM      6  C4  PXY d   1      -4.583   5.862   2.435  0.00  0.00    -0.082 A 
ATOM      7  C5  PXY d   1      -3.242   5.990   2.349  0.00  0.00     0.003 A 
ATOM      8  C6  PXY d   1      -2.484   6.000   3.517  0.00  0.00     0.003 A 
ENDROOT
TORSDOF 0
ENDMDL
