MODEL 1
REMARK minimizedAffinity 0.668504298
REMARK minimizedRMSD -1
REMARK  0 active torsions:
REMARK  status: ('A' for Active; 'I' for Inactive)
ROOT
ATOM      1  C4' PXY d   1      -5.546   5.963   0.749  0.00  0.00     0.077 C 
ATOM      2  C1' PXY d   1      -3.096   6.000   5.984  0.00  0.00     0.077 C 
ATOM      3  C1  PXY d   1      -3.749   5.985   4.616  0.00  0.00    -0.082 A 
ATOM      4  C2  PXY d   1      -2.993   5.977   3.531  0.00  0.00     0.003 A 
ATOM      5  C3  PXY d   1      -3.568   5.996   2.285  0.00  0.00     0.003 A 
ATOM      6  C4  PXY d   1      -4.930   5.968   2.150  0.00  0.00    -0.082 A 
ATOM      7  C5  PXY d   1      -5.708   5.965   3.253  0.00  0.00     0.003 A 
ATOM      8  C6  PXY d   1      -5.106   5.988   4.508  0.00  0.00     0.003 A 
ENDROOT
TORSDOF 0
ENDMDL
