MODEL 1
REMARK minimizedAffinity -0.492221415
REMARK minimizedRMSD -1
REMARK  0 active torsions:
REMARK  status: ('A' for Active; 'I' for Inactive)
ROOT
ATOM      1  C4' PXY d   1      -4.352   5.667   5.996  0.00  0.00     0.077 C 
ATOM      2  C1' PXY d   1      -3.685   5.919   0.259  0.00  0.00     0.077 C 
ATOM      3  C1  PXY d   1      -3.872   5.857   1.763  0.00  0.00    -0.082 A 
ATOM      4  C2  PXY d   1      -2.824   5.989   2.559  0.00  0.00     0.003 A 
ATOM      5  C3  PXY d   1      -2.970   5.903   3.919  0.00  0.00     0.003 A 
ATOM      6  C4  PXY d   1      -4.211   5.733   4.473  0.00  0.00    -0.082 A 
ATOM      7  C5  PXY d   1      -5.287   5.607   3.668  0.00  0.00     0.003 A 
ATOM      8  C6  PXY d   1      -5.111   5.656   2.288  0.00  0.00     0.003 A 
ENDROOT
TORSDOF 0
ENDMDL
