MODEL 1
REMARK minimizedAffinity -2.29911995
REMARK minimizedRMSD -1
REMARK  0 active torsions:
REMARK  status: ('A' for Active; 'I' for Inactive)
ROOT
ATOM      1  C4' PXY d   1       3.000   5.250  -1.876  0.00  0.00     0.077 C 
ATOM      2  C1' PXY d   1       5.998   5.108   3.065  0.00  0.00     0.077 C 
ATOM      3  C1  PXY d   1       5.217   5.157   1.766  0.00  0.00    -0.082 A 
ATOM      4  C2  PXY d   1       4.086   4.479   1.657  0.00  0.00     0.003 A 
ATOM      5  C3  PXY d   1       3.384   4.486   0.479  0.00  0.00     0.003 A 
ATOM      6  C4  PXY d   1       3.816   5.238  -0.580  0.00  0.00    -0.082 A 
ATOM      7  C5  PXY d   1       4.964   5.941  -0.473  0.00  0.00     0.003 A 
ATOM      8  C6  PXY d   1       5.683   5.887   0.717  0.00  0.00     0.003 A 
ENDROOT
TORSDOF 0
ENDMDL
