MODEL 1
REMARK minimizedAffinity 0.900934041
REMARK minimizedRMSD -1
REMARK  0 active torsions:
REMARK  status: ('A' for Active; 'I' for Inactive)
ROOT
ATOM      1  C4' PXY d   1      -5.297   5.987   1.894  0.00  0.00     0.077 C 
ATOM      2  C1' PXY d   1      -1.216   5.989   5.987  0.00  0.00     0.077 C 
ATOM      3  C1  PXY d   1      -2.277   5.994   4.905  0.00  0.00    -0.082 A 
ATOM      4  C2  PXY d   1      -3.556   6.000   5.244  0.00  0.00     0.003 A 
ATOM      5  C3  PXY d   1      -4.530   5.972   4.279  0.00  0.00     0.003 A 
ATOM      6  C4  PXY d   1      -4.190   5.992   2.952  0.00  0.00    -0.082 A 
ATOM      7  C5  PXY d   1      -2.888   5.997   2.599  0.00  0.00     0.003 A 
ATOM      8  C6  PXY d   1      -1.915   5.983   3.594  0.00  0.00     0.003 A 
ENDROOT
TORSDOF 0
ENDMDL
