MODEL 1
REMARK minimizedAffinity 10.0690346
REMARK minimizedRMSD -1
REMARK  0 active torsions:
REMARK  status: ('A' for Active; 'I' for Inactive)
ROOT
ATOM      1  C4' PXY d   1       2.961   4.874  -5.008  0.00  0.00     0.077 C 
ATOM      2  C1' PXY d   1       0.673   0.572  -1.898  0.00  0.00     0.077 C 
ATOM      3  C1  PXY d   1       1.266   1.709  -2.706  0.00  0.00    -0.082 A 
ATOM      4  C2  PXY d   1       1.669   1.489  -3.947  0.00  0.00     0.003 A 
ATOM      5  C3  PXY d   1       2.238   2.498  -4.681  0.00  0.00     0.003 A 
ATOM      6  C4  PXY d   1       2.347   3.759  -4.158  0.00  0.00    -0.082 A 
ATOM      7  C5  PXY d   1       1.928   3.994  -2.897  0.00  0.00     0.003 A 
ATOM      8  C6  PXY d   1       1.392   2.946  -2.154  0.00  0.00     0.003 A 
ENDROOT
TORSDOF 0
ENDMDL
