MODEL 1
REMARK minimizedAffinity -0.571695507
REMARK minimizedRMSD -1
REMARK  0 active torsions:
REMARK  status: ('A' for Active; 'I' for Inactive)
ROOT
ATOM      1  C4' PXY d   1      -5.253   5.962   1.038  0.00  0.00     0.077 C 
ATOM      2  C1' PXY d   1      -2.283   5.993   5.997  0.00  0.00     0.077 C 
ATOM      3  C1  PXY d   1      -3.051   5.990   4.690  0.00  0.00    -0.082 A 
ATOM      4  C2  PXY d   1      -4.374   6.000   4.709  0.00  0.00     0.003 A 
ATOM      5  C3  PXY d   1      -5.085   5.965   3.537  0.00  0.00     0.003 A 
ATOM      6  C4  PXY d   1      -4.436   5.974   2.332  0.00  0.00    -0.082 A 
ATOM      7  C5  PXY d   1      -3.086   5.975   2.304  0.00  0.00     0.003 A 
ATOM      8  C6  PXY d   1      -2.383   5.968   3.505  0.00  0.00     0.003 A 
ENDROOT
TORSDOF 0
ENDMDL
