MODEL 1
REMARK minimizedAffinity 0.325753301
REMARK minimizedRMSD -1
REMARK  0 active torsions:
REMARK  status: ('A' for Active; 'I' for Inactive)
ROOT
ATOM      1  C4' PXY d   1       0.959   1.362  -3.242  0.00  0.00     0.077 C 
ATOM      2  C1' PXY d   1       5.986   0.632  -5.999  0.00  0.00     0.077 C 
ATOM      3  C1  PXY d   1       4.663   0.828  -5.287  0.00  0.00    -0.082 A 
ATOM      4  C2  PXY d   1       4.640   0.946  -3.969  0.00  0.00     0.003 A 
ATOM      5  C3  PXY d   1       3.448   1.092  -3.306  0.00  0.00     0.003 A 
ATOM      6  C4  PXY d   1       2.273   1.172  -4.003  0.00  0.00    -0.082 A 
ATOM      7  C5  PXY d   1       2.289   1.063  -5.349  0.00  0.00     0.003 A 
ATOM      8  C6  PXY d   1       3.505   0.874  -6.000  0.00  0.00     0.003 A 
ENDROOT
TORSDOF 0
ENDMDL
