MODEL 1
REMARK minimizedAffinity 2.04231977
REMARK minimizedRMSD -1
REMARK  0 active torsions:
REMARK  status: ('A' for Active; 'I' for Inactive)
ROOT
ATOM      1  C4' PXY d   1       1.993   4.877  -6.000  0.00  0.00     0.077 C 
ATOM      2  C1' PXY d   1       1.539   0.500  -2.251  0.00  0.00     0.077 C 
ATOM      3  C1  PXY d   1       1.655   1.656  -3.225  0.00  0.00    -0.082 A 
ATOM      4  C2  PXY d   1       1.524   1.434  -4.522  0.00  0.00     0.003 A 
ATOM      5  C3  PXY d   1       1.657   2.463  -5.419  0.00  0.00     0.003 A 
ATOM      6  C4  PXY d   1       1.875   3.741  -4.980  0.00  0.00    -0.082 A 
ATOM      7  C5  PXY d   1       1.999   3.978  -3.657  0.00  0.00     0.003 A 
ATOM      8  C6  PXY d   1       1.901   2.913  -2.765  0.00  0.00     0.003 A 
ENDROOT
TORSDOF 0
ENDMDL
