MODEL 1
REMARK minimizedAffinity 3.57081318
REMARK minimizedRMSD -1
REMARK  0 active torsions:
REMARK  status: ('A' for Active; 'I' for Inactive)
ROOT
ATOM      1  C4' PXY d   1      -2.284   0.431   2.625  0.00  0.00     0.077 C 
ATOM      2  C1' PXY d   1      -3.802   5.999   2.301  0.00  0.00     0.077 C 
ATOM      3  C1  PXY d   1      -3.394   4.542   2.394  0.00  0.00    -0.082 A 
ATOM      4  C2  PXY d   1      -3.733   3.705   1.427  0.00  0.00     0.003 A 
ATOM      5  C3  PXY d   1      -3.399   2.377   1.510  0.00  0.00     0.003 A 
ATOM      6  C4  PXY d   1      -2.666   1.912   2.569  0.00  0.00    -0.082 A 
ATOM      7  C5  PXY d   1      -2.307   2.762   3.554  0.00  0.00     0.003 A 
ATOM      8  C6  PXY d   1      -2.691   4.097   3.471  0.00  0.00     0.003 A 
ENDROOT
TORSDOF 0
ENDMDL
