MODEL 1
REMARK minimizedAffinity 5.69337559
REMARK minimizedRMSD -1
REMARK  2 active torsions:
REMARK  status: ('A' for Active; 'I' for Inactive)
REMARK    1  A    between atoms: C1_2  and  C2_3 
REMARK    2  A    between atoms: C2_3  and  C3_4 
ROOT
ATOM      1  C3  UNL d   1       0.079   1.593   1.037  0.00  0.00    -0.075 A 
ATOM      2  C4  UNL d   1      -0.453   1.360  -0.240  0.00  0.00     0.002 A 
ATOM      3  C5  UNL d   1      -0.409   0.085  -0.804  0.00  0.00     0.002 A 
ATOM      4  C6  UNL d   1       0.175  -0.970  -0.105  0.00  0.00    -0.004 A 
ATOM      5  C7  UNL d   1       0.721  -0.746   1.157  0.00  0.00     0.002 A 
ATOM      6  C8  UNL d   1       0.675   0.528   1.725  0.00  0.00     0.002 A 
ENDROOT
BRANCH   1   7
ATOM      7  C2  UNL d   1       0.009   2.964   1.665  0.00  0.00     0.056 C 
BRANCH   7   8
ATOM      8  C1  UNL d   1       1.378   3.579   1.975  0.00  0.00     0.007 C 
ATOM      9  C   UNL d   1       1.894   3.224   3.364  0.00  0.00     0.009 C 
ENDBRANCH   7   8
ENDBRANCH   1   7
TORSDOF 2
ENDMDL
