MODEL 1
REMARK minimizedAffinity 0.821858764
REMARK minimizedRMSD -1
REMARK  2 active torsions:
REMARK  status: ('A' for Active; 'I' for Inactive)
REMARK    1  A    between atoms: C1_2  and  C2_3 
REMARK    2  A    between atoms: C2_3  and  C3_4 
ROOT
ATOM      1  C3  UNL d   1      -1.087   3.635   1.002  0.00  0.00    -0.075 A 
ATOM      2  C4  UNL d   1      -1.800   4.781   1.381  0.00  0.00     0.002 A 
ATOM      3  C5  UNL d   1      -1.711   5.953   0.628  0.00  0.00     0.002 A 
ATOM      4  C6  UNL d   1      -0.901   5.996  -0.504  0.00  0.00    -0.004 A 
ATOM      5  C7  UNL d   1      -0.174   4.869  -0.881  0.00  0.00     0.002 A 
ATOM      6  C8  UNL d   1      -0.265   3.694  -0.132  0.00  0.00     0.002 A 
ENDROOT
BRANCH   1   7
ATOM      7  C2  UNL d   1      -1.202   2.355   1.795  0.00  0.00     0.056 C 
BRANCH   7   8
ATOM      8  C1  UNL d   1       0.114   1.892   2.427  0.00  0.00     0.007 C 
ATOM      9  C   UNL d   1      -0.050   0.684   3.340  0.00  0.00     0.009 C 
ENDBRANCH   7   8
ENDBRANCH   1   7
TORSDOF 2
ENDMDL
