MODEL 1
REMARK minimizedAffinity 0.0491071604
REMARK minimizedRMSD -1
REMARK  2 active torsions:
REMARK  status: ('A' for Active; 'I' for Inactive)
REMARK    1  A    between atoms: C1_2  and  C2_3 
REMARK    2  A    between atoms: C2_3  and  C3_4 
ROOT
ATOM      1  C3  UNL d   1      -0.902   2.730  -1.943  0.00  0.00    -0.075 A 
ATOM      2  C4  UNL d   1      -0.405   2.662  -0.633  0.00  0.00     0.002 A 
ATOM      3  C5  UNL d   1       0.135   3.794  -0.021  0.00  0.00     0.002 A 
ATOM      4  C6  UNL d   1       0.194   5.002  -0.712  0.00  0.00    -0.004 A 
ATOM      5  C7  UNL d   1      -0.281   5.077  -2.019  0.00  0.00     0.002 A 
ATOM      6  C8  UNL d   1      -0.826   3.947  -2.633  0.00  0.00     0.002 A 
ENDROOT
BRANCH   1   7
ATOM      7  C2  UNL d   1      -1.514   1.517  -2.601  0.00  0.00     0.056 C 
BRANCH   7   8
ATOM      8  C1  UNL d   1      -1.361   0.224  -1.792  0.00  0.00     0.007 C 
ATOM      9  C   UNL d   1      -0.244  -0.675  -2.304  0.00  0.00     0.009 C 
ENDBRANCH   7   8
ENDBRANCH   1   7
TORSDOF 2
ENDMDL
