MODEL 1
REMARK minimizedAffinity 5.4170351
REMARK minimizedRMSD -1
REMARK  2 active torsions:
REMARK  status: ('A' for Active; 'I' for Inactive)
REMARK    1  A    between atoms: C1_2  and  C2_3 
REMARK    2  A    between atoms: C2_3  and  C3_4 
ROOT
ATOM      1  C3  UNL d   1      -3.230   1.781  -2.375  0.00  0.00    -0.075 A 
ATOM      2  C4  UNL d   1      -3.453   0.497  -1.858  0.00  0.00     0.002 A 
ATOM      3  C5  UNL d   1      -2.381  -0.351  -1.579  0.00  0.00     0.002 A 
ATOM      4  C6  UNL d   1      -1.075   0.069  -1.824  0.00  0.00    -0.004 A 
ATOM      5  C7  UNL d   1      -0.842   1.336  -2.354  0.00  0.00     0.002 A 
ATOM      6  C8  UNL d   1      -1.913   2.189  -2.629  0.00  0.00     0.002 A 
ENDROOT
BRANCH   1   7
ATOM      7  C2  UNL d   1      -4.384   2.714  -2.651  0.00  0.00     0.056 C 
BRANCH   7   8
ATOM      8  C1  UNL d   1      -3.962   4.092  -3.171  0.00  0.00     0.007 C 
ATOM      9  C   UNL d   1      -4.948   4.685  -4.169  0.00  0.00     0.009 C 
ENDBRANCH   7   8
ENDBRANCH   1   7
TORSDOF 2
ENDMDL
