MODEL 1
REMARK minimizedAffinity 4.66041374
REMARK minimizedRMSD -1
REMARK  2 active torsions:
REMARK  status: ('A' for Active; 'I' for Inactive)
REMARK    1  A    between atoms: C1_2  and  C2_3 
REMARK    2  A    between atoms: C2_3  and  C3_4 
ROOT
ATOM      1  C3  UNL d   1       2.567  -5.703  -1.818  0.00  0.00    -0.075 A 
ATOM      2  C4  UNL d   1       3.823  -5.852  -1.211  0.00  0.00     0.002 A 
ATOM      3  C5  UNL d   1       4.992  -5.730  -1.963  0.00  0.00     0.002 A 
ATOM      4  C6  UNL d   1       4.921  -5.468  -3.329  0.00  0.00    -0.004 A 
ATOM      5  C7  UNL d   1       3.678  -5.334  -3.945  0.00  0.00     0.002 A 
ATOM      6  C8  UNL d   1       2.507  -5.451  -3.195  0.00  0.00     0.002 A 
ENDROOT
BRANCH   1   7
ATOM      7  C2  UNL d   1       1.299  -5.805  -1.004  0.00  0.00     0.056 C 
BRANCH   7   8
ATOM      8  C1  UNL d   1       0.844  -4.477  -0.390  0.00  0.00     0.007 C 
ATOM      9  C   UNL d   1      -0.109  -3.696  -1.285  0.00  0.00     0.009 C 
ENDBRANCH   7   8
ENDBRANCH   1   7
TORSDOF 2
ENDMDL
