MODEL 1
REMARK minimizedAffinity 1.72735083
REMARK minimizedRMSD -1
REMARK  2 active torsions:
REMARK  status: ('A' for Active; 'I' for Inactive)
REMARK    1  A    between atoms: C1_2  and  C2_3 
REMARK    2  A    between atoms: C2_3  and  C3_4 
ROOT
ATOM      1  C3  UNL d   1      -0.817   1.213  -1.129  0.00  0.00    -0.075 A 
ATOM      2  C4  UNL d   1      -2.160   1.409  -1.484  0.00  0.00     0.002 A 
ATOM      3  C5  UNL d   1      -2.765   0.595  -2.443  0.00  0.00     0.002 A 
ATOM      4  C6  UNL d   1      -2.035  -0.416  -3.064  0.00  0.00    -0.004 A 
ATOM      5  C7  UNL d   1      -0.696  -0.608  -2.731  0.00  0.00     0.002 A 
ATOM      6  C8  UNL d   1      -0.089   0.202  -1.769  0.00  0.00     0.002 A 
ENDROOT
BRANCH   1   7
ATOM      7  C2  UNL d   1      -0.165   2.072  -0.072  0.00  0.00     0.056 C 
BRANCH   7   8
ATOM      8  C1  UNL d   1      -0.022   1.383   1.290  0.00  0.00     0.007 C 
ATOM      9  C   UNL d   1       0.354   2.342   2.411  0.00  0.00     0.009 C 
ENDBRANCH   7   8
ENDBRANCH   1   7
TORSDOF 2
ENDMDL
