MODEL 1
REMARK minimizedAffinity 2.3681159
REMARK minimizedRMSD -1
REMARK  2 active torsions:
REMARK  status: ('A' for Active; 'I' for Inactive)
REMARK    1  A    between atoms: C1_2  and  C2_3 
REMARK    2  A    between atoms: C2_3  and  C3_4 
ROOT
ATOM      1  C3  UNL d   1      -5.932  -1.820   3.210  0.00  0.00    -0.075 A 
ATOM      2  C4  UNL d   1      -5.808  -0.493   3.646  0.00  0.00     0.002 A 
ATOM      3  C5  UNL d   1      -5.720  -0.199   5.007  0.00  0.00     0.002 A 
ATOM      4  C6  UNL d   1      -5.764  -1.226   5.948  0.00  0.00    -0.004 A 
ATOM      5  C7  UNL d   1      -5.904  -2.546   5.528  0.00  0.00     0.002 A 
ATOM      6  C8  UNL d   1      -5.988  -2.843   4.166  0.00  0.00     0.002 A 
ENDROOT
BRANCH   1   7
ATOM      7  C2  UNL d   1      -5.998  -2.147   1.738  0.00  0.00     0.056 C 
BRANCH   7   8
ATOM      8  C1  UNL d   1      -5.997  -0.916   0.825  0.00  0.00     0.007 C 
ATOM      9  C   UNL d   1      -5.997  -1.267  -0.657  0.00  0.00     0.009 C 
ENDBRANCH   7   8
ENDBRANCH   1   7
TORSDOF 2
ENDMDL
