MODEL 1
REMARK minimizedAffinity 10.3958254
REMARK minimizedRMSD -1
REMARK  3 active torsions:
REMARK  status: ('A' for Active; 'I' for Inactive)
REMARK    1  A    between atoms: C3'_2  and  C2'_3 
REMARK    2  A    between atoms: C2'_3  and  C1'_4 
REMARK    3  A    between atoms: C1'_4  and  C1_5 
ROOT
ATOM      1  C1  N4B d   1      -5.014   1.958   1.572  0.00  0.00    -0.075 A 
ATOM      2  C2  N4B d   1      -5.749   2.938   2.274  0.00  0.00     0.002 A 
ATOM      3  C3  N4B d   1      -5.990   4.160   1.696  0.00  0.00     0.002 A 
ATOM      4  C4  N4B d   1      -5.492   4.431   0.431  0.00  0.00    -0.004 A 
ATOM      5  C5  N4B d   1      -4.805   3.469  -0.251  0.00  0.00     0.002 A 
ATOM      6  C6  N4B d   1      -4.558   2.235   0.315  0.00  0.00     0.002 A 
ENDROOT
BRANCH   1   7
ATOM      7  C1' N4B d   1      -4.652   0.638   2.196  0.00  0.00     0.057 C 
BRANCH   7   8
ATOM      8  C2' N4B d   1      -5.854   0.101   2.967  0.00  0.00     0.009 C 
BRANCH   8   9
ATOM      9  C3' N4B d   1      -5.519  -1.167   3.733  0.00  0.00     0.004 C 
ATOM     10  C4' N4B d   1      -4.286  -1.028   4.575  0.00  0.00     0.003 C 
ENDBRANCH   8   9
ENDBRANCH   7   8
ENDBRANCH   1   7
TORSDOF 3
ENDMDL
