MODEL 1
REMARK minimizedAffinity 14.334836
REMARK minimizedRMSD -1
REMARK  3 active torsions:
REMARK  status: ('A' for Active; 'I' for Inactive)
REMARK    1  A    between atoms: C3'_2  and  C2'_3 
REMARK    2  A    between atoms: C2'_3  and  C1'_4 
REMARK    3  A    between atoms: C1'_4  and  C1_5 
ROOT
ATOM      1  C1  N4B d   1       2.744   2.434   1.985  0.00  0.00    -0.075 A 
ATOM      2  C2  N4B d   1       1.953   1.291   2.238  0.00  0.00     0.002 A 
ATOM      3  C3  N4B d   1       1.144   0.785   1.251  0.00  0.00     0.002 A 
ATOM      4  C4  N4B d   1       1.094   1.412   0.015  0.00  0.00    -0.004 A 
ATOM      5  C5  N4B d   1       1.880   2.500  -0.229  0.00  0.00     0.002 A 
ATOM      6  C6  N4B d   1       2.701   3.018   0.752  0.00  0.00     0.002 A 
ENDROOT
BRANCH   1   7
ATOM      7  C1' N4B d   1       3.579   3.075   3.059  0.00  0.00     0.057 C 
BRANCH   7   8
ATOM      8  C2' N4B d   1       4.771   2.175   3.371  0.00  0.00     0.009 C 
BRANCH   8   9
ATOM      9  C3' N4B d   1       6.000   2.975   3.767  0.00  0.00     0.004 C 
ATOM     10  C4' N4B d   1       5.997   3.366   5.215  0.00  0.00     0.003 C 
ENDBRANCH   8   9
ENDBRANCH   7   8
ENDBRANCH   1   7
TORSDOF 3
ENDMDL
