MODEL 1
REMARK minimizedAffinity 10.0443802
REMARK minimizedRMSD -1
REMARK  3 active torsions:
REMARK  status: ('A' for Active; 'I' for Inactive)
REMARK    1  A    between atoms: C3'_2  and  C2'_3 
REMARK    2  A    between atoms: C2'_3  and  C1'_4 
REMARK    3  A    between atoms: C1'_4  and  C1_5 
ROOT
ATOM      1  C1  N4B d   1      -2.831   3.097  -5.864  0.00  0.00    -0.075 A 
ATOM      2  C2  N4B d   1      -4.228   2.901  -5.926  0.00  0.00     0.002 A 
ATOM      3  C3  N4B d   1      -5.071   3.983  -6.000  0.00  0.00     0.002 A 
ATOM      4  C4  N4B d   1      -4.542   5.265  -5.993  0.00  0.00    -0.004 A 
ATOM      5  C5  N4B d   1      -3.190   5.445  -5.958  0.00  0.00     0.002 A 
ATOM      6  C6  N4B d   1      -2.332   4.367  -5.889  0.00  0.00     0.002 A 
ENDROOT
BRANCH   1   7
ATOM      7  C1' N4B d   1      -1.875   1.948  -5.697  0.00  0.00     0.057 C 
BRANCH   7   8
ATOM      8  C2' N4B d   1      -0.667   2.415  -4.890  0.00  0.00     0.009 C 
BRANCH   8   9
ATOM      9  C3' N4B d   1       0.178   1.249  -4.407  0.00  0.00     0.004 C 
ATOM     10  C4' N4B d   1       1.507   1.170  -5.098  0.00  0.00     0.003 C 
ENDBRANCH   8   9
ENDBRANCH   7   8
ENDBRANCH   1   7
TORSDOF 3
ENDMDL
