MODEL 1
REMARK minimizedAffinity 3.86390948
REMARK minimizedRMSD -1
REMARK  3 active torsions:
REMARK  status: ('A' for Active; 'I' for Inactive)
REMARK    1  A    between atoms: C3'_2  and  C2'_3 
REMARK    2  A    between atoms: C2'_3  and  C1'_4 
REMARK    3  A    between atoms: C1'_4  and  C1_5 
ROOT
ATOM      1  C1  N4B d   1       2.966  -1.097  -0.240  0.00  0.00    -0.075 A 
ATOM      2  C2  N4B d   1       2.364  -0.273   0.736  0.00  0.00     0.002 A 
ATOM      3  C3  N4B d   1       2.465   1.094   0.637  0.00  0.00     0.002 A 
ATOM      4  C4  N4B d   1       3.176   1.654  -0.414  0.00  0.00    -0.004 A 
ATOM      5  C5  N4B d   1       3.733   0.851  -1.365  0.00  0.00     0.002 A 
ATOM      6  C6  N4B d   1       3.636  -0.523  -1.281  0.00  0.00     0.002 A 
ENDROOT
BRANCH   1   7
ATOM      7  C1' N4B d   1       2.956  -2.597  -0.127  0.00  0.00     0.057 C 
BRANCH   7   8
ATOM      8  C2' N4B d   1       1.678  -3.038   0.580  0.00  0.00     0.009 C 
BRANCH   8   9
ATOM      9  C3' N4B d   1       1.191  -4.389   0.084  0.00  0.00     0.004 C 
ATOM     10  C4' N4B d   1       0.453  -5.162   1.136  0.00  0.00     0.003 C 
ENDBRANCH   8   9
ENDBRANCH   7   8
ENDBRANCH   1   7
TORSDOF 3
ENDMDL
