MODEL 1
REMARK minimizedAffinity 14.9247189
REMARK minimizedRMSD -1
REMARK  3 active torsions:
REMARK  status: ('A' for Active; 'I' for Inactive)
REMARK    1  A    between atoms: C3'_2  and  C2'_3 
REMARK    2  A    between atoms: C2'_3  and  C1'_4 
REMARK    3  A    between atoms: C1'_4  and  C1_5 
ROOT
ATOM      1  C1  N4B d   1       3.643   1.829  -1.151  0.00  0.00    -0.075 A 
ATOM      2  C2  N4B d   1       3.460   1.010  -2.286  0.00  0.00     0.002 A 
ATOM      3  C3  N4B d   1       4.550   0.552  -2.985  0.00  0.00     0.002 A 
ATOM      4  C4  N4B d   1       5.826   0.913  -2.580  0.00  0.00    -0.004 A 
ATOM      5  C5  N4B d   1       5.995   1.684  -1.467  0.00  0.00     0.002 A 
ATOM      6  C6  N4B d   1       4.909   2.149  -0.753  0.00  0.00     0.002 A 
ENDROOT
BRANCH   1   7
ATOM      7  C1' N4B d   1       2.480   2.424  -0.405  0.00  0.00     0.057 C 
BRANCH   7   8
ATOM      8  C2' N4B d   1       2.933   2.820   0.997  0.00  0.00     0.009 C 
BRANCH   8   9
ATOM      9  C3' N4B d   1       2.966   1.629   1.940  0.00  0.00     0.004 C 
ATOM     10  C4' N4B d   1       4.321   1.402   2.541  0.00  0.00     0.003 C 
ENDBRANCH   8   9
ENDBRANCH   7   8
ENDBRANCH   1   7
TORSDOF 3
ENDMDL
