MODEL 1
REMARK minimizedAffinity 14.0634985
REMARK minimizedRMSD -1
REMARK  3 active torsions:
REMARK  status: ('A' for Active; 'I' for Inactive)
REMARK    1  A    between atoms: C3'_2  and  C2'_3 
REMARK    2  A    between atoms: C2'_3  and  C1'_4 
REMARK    3  A    between atoms: C1'_4  and  C1_5 
ROOT
ATOM      1  C1  N4B d   1       4.236   3.139   3.890  0.00  0.00    -0.075 A 
ATOM      2  C2  N4B d   1       5.173   2.227   4.424  0.00  0.00     0.002 A 
ATOM      3  C3  N4B d   1       6.000   2.614   5.451  0.00  0.00     0.002 A 
ATOM      4  C4  N4B d   1       5.921   3.907   5.944  0.00  0.00    -0.004 A 
ATOM      5  C5  N4B d   1       4.996   4.774   5.441  0.00  0.00     0.002 A 
ATOM      6  C6  N4B d   1       4.156   4.398   4.412  0.00  0.00     0.002 A 
ENDROOT
BRANCH   1   7
ATOM      7  C1' N4B d   1       3.371   2.790   2.711  0.00  0.00     0.057 C 
BRANCH   7   8
ATOM      8  C2' N4B d   1       3.341   3.969   1.744  0.00  0.00     0.009 C 
BRANCH   8   9
ATOM      9  C3' N4B d   1       3.373   3.517   0.294  0.00  0.00     0.004 C 
ATOM     10  C4' N4B d   1       3.348   4.663  -0.673  0.00  0.00     0.003 C 
ENDBRANCH   8   9
ENDBRANCH   7   8
ENDBRANCH   1   7
TORSDOF 3
ENDMDL
