MODEL 1
REMARK minimizedAffinity 4.72938538
REMARK minimizedRMSD -1
REMARK  3 active torsions:
REMARK  status: ('A' for Active; 'I' for Inactive)
REMARK    1  A    between atoms: C3'_2  and  C2'_3 
REMARK    2  A    between atoms: C2'_3  and  C1'_4 
REMARK    3  A    between atoms: C1'_4  and  C1_5 
ROOT
ATOM      1  C1  N4B d   1       1.908   2.257  -2.488  0.00  0.00    -0.075 A 
ATOM      2  C2  N4B d   1       1.529   1.642  -3.702  0.00  0.00     0.002 A 
ATOM      3  C3  N4B d   1       0.257   1.816  -4.191  0.00  0.00     0.002 A 
ATOM      4  C4  N4B d   1      -0.653   2.580  -3.478  0.00  0.00    -0.004 A 
ATOM      5  C5  N4B d   1      -0.271   3.191  -2.319  0.00  0.00     0.002 A 
ATOM      6  C6  N4B d   1       1.005   3.029  -1.818  0.00  0.00     0.002 A 
ENDROOT
BRANCH   1   7
ATOM      7  C1' N4B d   1       3.260   2.026  -1.870  0.00  0.00     0.057 C 
BRANCH   7   8
ATOM      8  C2' N4B d   1       3.113   1.081  -0.682  0.00  0.00     0.009 C 
BRANCH   8   9
ATOM      9  C3' N4B d   1       2.573   1.792   0.547  0.00  0.00     0.004 C 
ATOM     10  C4' N4B d   1       1.831   0.873   1.470  0.00  0.00     0.003 C 
ENDBRANCH   8   9
ENDBRANCH   7   8
ENDBRANCH   1   7
TORSDOF 3
ENDMDL
