MODEL 1
REMARK minimizedAffinity 17.10886
REMARK minimizedRMSD -1
REMARK  3 active torsions:
REMARK  status: ('A' for Active; 'I' for Inactive)
REMARK    1  A    between atoms: C3'_2  and  C2'_3 
REMARK    2  A    between atoms: C2'_3  and  C1'_4 
REMARK    3  A    between atoms: C1'_4  and  C1_5 
ROOT
ATOM      1  C1  N4B d   1       2.925   1.847  -5.420  0.00  0.00    -0.075 A 
ATOM      2  C2  N4B d   1       1.848   2.588  -5.954  0.00  0.00     0.002 A 
ATOM      3  C3  N4B d   1       0.555   2.230  -5.657  0.00  0.00     0.002 A 
ATOM      4  C4  N4B d   1       0.316   1.130  -4.847  0.00  0.00    -0.004 A 
ATOM      5  C5  N4B d   1       1.363   0.435  -4.315  0.00  0.00     0.002 A 
ATOM      6  C6  N4B d   1       2.667   0.786  -4.601  0.00  0.00     0.002 A 
ENDROOT
BRANCH   1   7
ATOM      7  C1' N4B d   1       4.353   2.147  -5.785  0.00  0.00     0.057 C 
BRANCH   7   8
ATOM      8  C2' N4B d   1       4.510   3.649  -5.999  0.00  0.00     0.009 C 
BRANCH   8   9
ATOM      9  C3' N4B d   1       5.919   4.124  -5.688  0.00  0.00     0.004 C 
ATOM     10  C4' N4B d   1       5.992   5.599  -5.427  0.00  0.00     0.003 C 
ENDBRANCH   8   9
ENDBRANCH   7   8
ENDBRANCH   1   7
TORSDOF 3
ENDMDL
