MODEL 1
REMARK minimizedAffinity 21.0241337
REMARK minimizedRMSD -1
REMARK  3 active torsions:
REMARK  status: ('A' for Active; 'I' for Inactive)
REMARK    1  A    between atoms: C3'_2  and  C2'_3 
REMARK    2  A    between atoms: C2'_3  and  C1'_4 
REMARK    3  A    between atoms: C1'_4  and  C1_5 
ROOT
ATOM      1  C1  N4B d   1      -2.489   3.257  -5.857  0.00  0.00    -0.075 A 
ATOM      2  C2  N4B d   1      -1.968   4.560  -5.701  0.00  0.00     0.002 A 
ATOM      3  C3  N4B d   1      -2.813   5.642  -5.702  0.00  0.00     0.002 A 
ATOM      4  C4  N4B d   1      -4.175   5.449  -5.875  0.00  0.00    -0.004 A 
ATOM      5  C5  N4B d   1      -4.674   4.185  -6.000  0.00  0.00     0.002 A 
ATOM      6  C6  N4B d   1      -3.836   3.087  -5.996  0.00  0.00     0.002 A 
ENDROOT
BRANCH   1   7
ATOM      7  C1' N4B d   1      -1.596   2.050  -5.948  0.00  0.00     0.057 C 
BRANCH   7   8
ATOM      8  C2' N4B d   1      -0.202   2.420  -5.451  0.00  0.00     0.009 C 
BRANCH   8   9
ATOM      9  C3' N4B d   1       0.291   1.464  -4.378  0.00  0.00     0.004 C 
ATOM     10  C4' N4B d   1       1.171   0.380  -4.924  0.00  0.00     0.003 C 
ENDBRANCH   8   9
ENDBRANCH   7   8
ENDBRANCH   1   7
TORSDOF 3
ENDMDL
