MODEL 1
REMARK minimizedAffinity 4.90292454
REMARK minimizedRMSD -1
REMARK  0 active torsions:
REMARK  status: ('A' for Active; 'I' for Inactive)
ROOT
ATOM      1  O1  BZF d   1       5.554   4.512   5.961  0.00  0.00    -0.204 OA
ATOM      2  C2  BZF d   1       6.000   5.409   5.010  0.00  0.00     0.174 A 
ATOM      3  C3  BZF d   1       5.304   5.276   3.863  0.00  0.00    -0.012 A 
ATOM      4  C3A BZF d   1       4.302   4.293   4.142  0.00  0.00    -0.107 A 
ATOM      5  C4  BZF d   1       3.295   3.743   3.402  0.00  0.00     0.055 A 
ATOM      6  C5  BZF d   1       2.539   2.754   3.948  0.00  0.00    -0.016 A 
ATOM      7  C6  BZF d   1       2.767   2.288   5.226  0.00  0.00     0.022 A 
ATOM      8  C7  BZF d   1       3.751   2.806   6.000  0.00  0.00     0.029 A 
ATOM      9  C7A BZF d   1       4.495   3.828   5.463  0.00  0.00     0.058 A 
ENDROOT
TORSDOF 0
ENDMDL
