MODEL 1
REMARK minimizedAffinity 0.191553161
REMARK minimizedRMSD -1
REMARK  0 active torsions:
REMARK  status: ('A' for Active; 'I' for Inactive)
ROOT
ATOM      1  O1  BZF d   1       0.863  -0.164  -0.430  0.00  0.00    -0.204 OA
ATOM      2  C2  BZF d   1      -0.108  -0.024  -1.402  0.00  0.00     0.174 A 
ATOM      3  C3  BZF d   1      -0.683   1.194  -1.332  0.00  0.00    -0.012 A 
ATOM      4  C3A BZF d   1       0.033   1.890  -0.308  0.00  0.00    -0.107 A 
ATOM      5  C4  BZF d   1      -0.061   3.148   0.214  0.00  0.00     0.055 A 
ATOM      6  C5  BZF d   1       0.739   3.492   1.258  0.00  0.00    -0.016 A 
ATOM      7  C6  BZF d   1       1.639   2.602   1.806  0.00  0.00     0.022 A 
ATOM      8  C7  BZF d   1       1.772   1.345   1.319  0.00  0.00     0.029 A 
ATOM      9  C7A BZF d   1       0.988   1.005   0.244  0.00  0.00     0.058 A 
ENDROOT
TORSDOF 0
ENDMDL
