MODEL 1
REMARK minimizedAffinity 1.84629333
REMARK minimizedRMSD -1
REMARK  0 active torsions:
REMARK  status: ('A' for Active; 'I' for Inactive)
ROOT
ATOM      1  O1  BZF d   1       0.592  -1.932  -1.372  0.00  0.00    -0.204 OA
ATOM      2  C2  BZF d   1      -0.717  -1.816  -0.946  0.00  0.00     0.174 A 
ATOM      3  C3  BZF d   1      -0.885  -0.692  -0.219  0.00  0.00    -0.012 A 
ATOM      4  C3A BZF d   1       0.377  -0.021  -0.266  0.00  0.00    -0.107 A 
ATOM      5  C4  BZF d   1       0.834   1.156   0.254  0.00  0.00     0.055 A 
ATOM      6  C5  BZF d   1       2.141   1.489   0.087  0.00  0.00    -0.016 A 
ATOM      7  C6  BZF d   1       3.019   0.667  -0.590  0.00  0.00     0.022 A 
ATOM      8  C7  BZF d   1       2.611  -0.508  -1.128  0.00  0.00     0.029 A 
ATOM      9  C7A BZF d   1       1.283  -0.831  -0.989  0.00  0.00     0.058 A 
ENDROOT
TORSDOF 0
ENDMDL
