MODEL 1
REMARK minimizedAffinity 9.3869524
REMARK minimizedRMSD -1
REMARK  0 active torsions:
REMARK  status: ('A' for Active; 'I' for Inactive)
ROOT
ATOM      1  O1  BZF d   1       1.917   3.313   5.898  0.00  0.00    -0.204 OA
ATOM      2  C2  BZF d   1       1.116   2.851   4.871  0.00  0.00     0.174 A 
ATOM      3  C3  BZF d   1       1.745   2.968   3.684  0.00  0.00    -0.012 A 
ATOM      4  C3A BZF d   1       3.054   3.454   3.998  0.00  0.00    -0.107 A 
ATOM      5  C4  BZF d   1       4.150   3.756   3.241  0.00  0.00     0.055 A 
ATOM      6  C5  BZF d   1       5.248   4.278   3.848  0.00  0.00    -0.016 A 
ATOM      7  C6  BZF d   1       5.283   4.515   5.206  0.00  0.00     0.022 A 
ATOM      8  C7  BZF d   1       4.223   4.226   5.999  0.00  0.00     0.029 A 
ATOM      9  C7A BZF d   1       3.123   3.668   5.394  0.00  0.00     0.058 A 
ENDROOT
TORSDOF 0
ENDMDL
