MODEL 1
REMARK minimizedAffinity 12.0184803
REMARK minimizedRMSD -1
REMARK  0 active torsions:
REMARK  status: ('A' for Active; 'I' for Inactive)
ROOT
ATOM      1  O1  BZF d   1       4.484   4.143   3.889  0.00  0.00    -0.204 OA
ATOM      2  C2  BZF d   1       4.847   4.146   5.222  0.00  0.00     0.174 A 
ATOM      3  C3  BZF d   1       3.833   3.707   5.995  0.00  0.00    -0.012 A 
ATOM      4  C3A BZF d   1       2.801   3.324   5.080  0.00  0.00    -0.107 A 
ATOM      5  C4  BZF d   1       1.552   2.796   5.241  0.00  0.00     0.055 A 
ATOM      6  C5  BZF d   1       0.769   2.606   4.147  0.00  0.00    -0.016 A 
ATOM      7  C6  BZF d   1       1.201   2.937   2.879  0.00  0.00     0.022 A 
ATOM      8  C7  BZF d   1       2.434   3.458   2.669  0.00  0.00     0.029 A 
ATOM      9  C7A BZF d   1       3.240   3.620   3.769  0.00  0.00     0.058 A 
ENDROOT
TORSDOF 0
ENDMDL
