MODEL 1
REMARK minimizedAffinity 7.54721022
REMARK minimizedRMSD -1
REMARK  0 active torsions:
REMARK  status: ('A' for Active; 'I' for Inactive)
ROOT
ATOM      1  O1  BZF d   1       4.965   1.133  -2.742  0.00  0.00    -0.204 OA
ATOM      2  C2  BZF d   1       6.000   1.944  -2.318  0.00  0.00     0.174 A 
ATOM      3  C3  BZF d   1       5.853   2.266  -1.017  0.00  0.00    -0.012 A 
ATOM      4  C3A BZF d   1       4.701   1.539  -0.577  0.00  0.00    -0.107 A 
ATOM      5  C4  BZF d   1       4.059   1.434   0.623  0.00  0.00     0.055 A 
ATOM      6  C5  BZF d   1       2.919   0.699   0.700  0.00  0.00    -0.016 A 
ATOM      7  C6  BZF d   1       2.389   0.062  -0.403  0.00  0.00     0.022 A 
ATOM      8  C7  BZF d   1       2.993   0.133  -1.614  0.00  0.00     0.029 A 
ATOM      9  C7A BZF d   1       4.164   0.848  -1.688  0.00  0.00     0.058 A 
ENDROOT
TORSDOF 0
ENDMDL
