MODEL 1
REMARK minimizedAffinity 7.00584698
REMARK minimizedRMSD -1
REMARK  0 active torsions:
REMARK  status: ('A' for Active; 'I' for Inactive)
ROOT
ATOM      1  O1  BZF d   1       5.284   2.004  -0.429  0.00  0.00    -0.204 OA
ATOM      2  C2  BZF d   1       5.984   2.341  -1.572  0.00  0.00     0.174 A 
ATOM      3  C3  BZF d   1       5.525   1.649  -2.635  0.00  0.00    -0.012 A 
ATOM      4  C3A BZF d   1       4.412   0.896  -2.143  0.00  0.00    -0.107 A 
ATOM      5  C4  BZF d   1       3.534   0.028  -2.726  0.00  0.00     0.055 A 
ATOM      6  C5  BZF d   1       2.607  -0.593  -1.952  0.00  0.00    -0.016 A 
ATOM      7  C6  BZF d   1       2.533  -0.375  -0.592  0.00  0.00     0.022 A 
ATOM      8  C7  BZF d   1       3.379   0.480   0.031  0.00  0.00     0.029 A 
ATOM      9  C7A BZF d   1       4.296   1.135  -0.754  0.00  0.00     0.058 A 
ENDROOT
TORSDOF 0
ENDMDL
