MODEL 1
REMARK minimizedAffinity -3.84617734
REMARK minimizedRMSD -1
REMARK  0 active torsions:
REMARK  status: ('A' for Active; 'I' for Inactive)
ROOT
ATOM      1  O1  BZF d   1       4.081   4.826   6.000  0.00  0.00    -0.204 OA
ATOM      2  C2  BZF d   1       4.938   5.255   5.005  0.00  0.00     0.174 A 
ATOM      3  C3  BZF d   1       4.506   4.852   3.793  0.00  0.00    -0.012 A 
ATOM      4  C3A BZF d   1       3.253   4.205   4.037  0.00  0.00    -0.107 A 
ATOM      5  C4  BZF d   1       2.331   3.608   3.225  0.00  0.00     0.055 A 
ATOM      6  C5  BZF d   1       1.249   3.006   3.786  0.00  0.00    -0.016 A 
ATOM      7  C6  BZF d   1       1.061   2.978   5.152  0.00  0.00     0.022 A 
ATOM      8  C7  BZF d   1       1.945   3.560   5.997  0.00  0.00     0.029 A 
ATOM      9  C7A BZF d   1       3.023   4.198   5.432  0.00  0.00     0.058 A 
ENDROOT
TORSDOF 0
ENDMDL
