MODEL 1
REMARK minimizedAffinity 7.59331036
REMARK minimizedRMSD -1
REMARK  0 active torsions:
REMARK  status: ('A' for Active; 'I' for Inactive)
ROOT
ATOM      1  O1  BZF d   1       2.394   2.978   2.651  0.00  0.00    -0.204 OA
ATOM      2  C2  BZF d   1       1.141   2.704   3.164  0.00  0.00     0.174 A 
ATOM      3  C3  BZF d   1       1.117   2.897   4.499  0.00  0.00    -0.012 A 
ATOM      4  C3A BZF d   1       2.413   3.407   4.828  0.00  0.00    -0.107 A 
ATOM      5  C4  BZF d   1       2.995   3.807   5.996  0.00  0.00     0.055 A 
ATOM      6  C5  BZF d   1       4.301   4.185   5.988  0.00  0.00    -0.016 A 
ATOM      7  C6  BZF d   1       5.053   4.170   4.833  0.00  0.00     0.022 A 
ATOM      8  C7  BZF d   1       4.518   3.787   3.648  0.00  0.00     0.029 A 
ATOM      9  C7A BZF d   1       3.190   3.436   3.647  0.00  0.00     0.058 A 
ENDROOT
TORSDOF 0
ENDMDL
