MODEL 1
REMARK minimizedAffinity 4.69972038
REMARK minimizedRMSD -1
REMARK  0 active torsions:
REMARK  status: ('A' for Active; 'I' for Inactive)
ROOT
ATOM      1  O1  BZF d   1      -0.530   2.888  -0.317  0.00  0.00    -0.204 OA
ATOM      2  C2  BZF d   1      -0.680   3.736   0.764  0.00  0.00     0.174 A 
ATOM      3  C3  BZF d   1       0.365   3.623   1.609  0.00  0.00    -0.012 A 
ATOM      4  C3A BZF d   1       1.266   2.711   0.974  0.00  0.00    -0.107 A 
ATOM      5  C4  BZF d   1       2.490   2.210   1.315  0.00  0.00     0.055 A 
ATOM      6  C5  BZF d   1       3.071   1.282   0.511  0.00  0.00    -0.016 A 
ATOM      7  C6  BZF d   1       2.455   0.829  -0.638  0.00  0.00     0.022 A 
ATOM      8  C7  BZF d   1       1.243   1.300  -1.020  0.00  0.00     0.029 A 
ATOM      9  C7A BZF d   1       0.668   2.262  -0.226  0.00  0.00     0.058 A 
ENDROOT
TORSDOF 0
ENDMDL
