MODEL 1
REMARK minimizedAffinity 4.90530443
REMARK minimizedRMSD -1
REMARK  0 active torsions:
REMARK  status: ('A' for Active; 'I' for Inactive)
ROOT
ATOM      1  O1  BZF d   1       2.635   0.203  -0.552  0.00  0.00    -0.204 OA
ATOM      2  C2  BZF d   1       2.303  -0.120  -1.854  0.00  0.00     0.174 A 
ATOM      3  C3  BZF d   1       3.172   0.436  -2.722  0.00  0.00    -0.012 A 
ATOM      4  C3A BZF d   1       4.160   1.075  -1.908  0.00  0.00    -0.107 A 
ATOM      5  C4  BZF d   1       5.292   1.785  -2.188  0.00  0.00     0.055 A 
ATOM      6  C5  BZF d   1       5.996   2.338  -1.166  0.00  0.00    -0.016 A 
ATOM      7  C6  BZF d   1       5.594   2.204   0.147  0.00  0.00     0.022 A 
ATOM      8  C7  BZF d   1       4.481   1.505   0.476  0.00  0.00     0.029 A 
ATOM      9  C7A BZF d   1       3.786   0.918  -0.553  0.00  0.00     0.058 A 
ENDROOT
TORSDOF 0
ENDMDL
