MODEL 1
REMARK minimizedAffinity 3.50938082
REMARK minimizedRMSD -1
REMARK  0 active torsions:
REMARK  status: ('A' for Active; 'I' for Inactive)
ROOT
ATOM      1  O1  BZF d   1      -0.345  -0.296  -2.141  0.00  0.00    -0.204 OA
ATOM      2  C2  BZF d   1      -1.586  -0.890  -2.266  0.00  0.00     0.174 A 
ATOM      3  C3  BZF d   1      -2.503  -0.247  -1.515  0.00  0.00    -0.012 A 
ATOM      4  C3A BZF d   1      -1.810   0.872  -0.952  0.00  0.00    -0.107 A 
ATOM      5  C4  BZF d   1      -2.189   1.893  -0.128  0.00  0.00     0.055 A 
ATOM      6  C5  BZF d   1      -1.253   2.783   0.294  0.00  0.00    -0.016 A 
ATOM      7  C6  BZF d   1       0.070   2.679  -0.083  0.00  0.00     0.022 A 
ATOM      8  C7  BZF d   1       0.493   1.686  -0.902  0.00  0.00     0.029 A 
ATOM      9  C7A BZF d   1      -0.457   0.804  -1.358  0.00  0.00     0.058 A 
ENDROOT
TORSDOF 0
ENDMDL
