MODEL 1
REMARK minimizedAffinity -3.11025405
REMARK minimizedRMSD -1
REMARK  1 active torsions:
REMARK  status: ('A' for Active; 'I' for Inactive)
REMARK    1  A    between atoms: N_2  and  C1_3 
ROOT
ATOM      1  C1  UNL d   1      -1.225   1.458   2.580  0.00  0.00     0.143 A 
ATOM      2  C2  UNL d   1      -0.245   1.814   3.513  0.00  0.00    -0.057 A 
ATOM      3  C3  UNL d   1      -0.435   2.887   4.392  0.00  0.00     0.033 A 
ATOM      4  C4  UNL d   1      -1.601   3.644   4.334  0.00  0.00    -0.042 A 
ATOM      5  C5  UNL d   1      -2.578   3.324   3.398  0.00  0.00     0.033 A 
ATOM      6  C6  UNL d   1      -2.385   2.247   2.527  0.00  0.00    -0.057 A 
ENDROOT
BRANCH   1   7
ATOM      7  N   UNL d   1      -1.054   0.464   1.614  0.00  0.00    -0.732 N 
ATOM      8  C   UNL d   1      -1.285   0.749   0.214  0.00  0.00     0.284 C 
ATOM      9  H3  UNL d   1      -0.235  -0.113   1.791  0.00  0.00     0.395 HD
ENDBRANCH   1   7
TORSDOF 1
ENDMDL
