MODEL 1
REMARK minimizedAffinity -4.57515287
REMARK minimizedRMSD -1
REMARK  1 active torsions:
REMARK  status: ('A' for Active; 'I' for Inactive)
REMARK    1  A    between atoms: N_2  and  C1_3 
ROOT
ATOM      1  C1  UNL d   1      -1.736  -0.045   2.163  0.00  0.00     0.143 A 
ATOM      2  C2  UNL d   1      -0.788  -0.398   1.196  0.00  0.00    -0.057 A 
ATOM      3  C3  UNL d   1       0.564  -0.070   1.351  0.00  0.00     0.033 A 
ATOM      4  C4  UNL d   1       0.989   0.645   2.465  0.00  0.00    -0.042 A 
ATOM      5  C5  UNL d   1       0.061   1.028   3.427  0.00  0.00     0.033 A 
ATOM      6  C6  UNL d   1      -1.287   0.691   3.270  0.00  0.00    -0.057 A 
ENDROOT
BRANCH   1   7
ATOM      7  N   UNL d   1      -3.109  -0.256   2.019  0.00  0.00    -0.732 N 
ATOM      8  C   UNL d   1      -3.832   0.323   0.907  0.00  0.00     0.284 C 
ATOM      9  H3  UNL d   1      -3.380  -1.212   2.238  0.00  0.00     0.395 HD
ENDBRANCH   1   7
TORSDOF 1
ENDMDL
