MODEL 1
REMARK minimizedAffinity -3.2196064
REMARK minimizedRMSD -1
REMARK  1 active torsions:
REMARK  status: ('A' for Active; 'I' for Inactive)
REMARK    1  A    between atoms: N_2  and  C1_3 
ROOT
ATOM      1  C1  UNL d   1      -0.510  -0.289  -0.868  0.00  0.00     0.143 A 
ATOM      2  C2  UNL d   1      -1.525   0.636  -1.133  0.00  0.00    -0.057 A 
ATOM      3  C3  UNL d   1      -2.702   0.660  -0.376  0.00  0.00     0.033 A 
ATOM      4  C4  UNL d   1      -2.898  -0.263   0.646  0.00  0.00    -0.042 A 
ATOM      5  C5  UNL d   1      -1.913  -1.208   0.911  0.00  0.00     0.033 A 
ATOM      6  C6  UNL d   1      -0.737  -1.223   0.156  0.00  0.00    -0.057 A 
ENDROOT
BRANCH   1   7
ATOM      7  N   UNL d   1       0.641  -0.427  -1.648  0.00  0.00    -0.732 N 
ATOM      8  C   UNL d   1       0.694  -1.402  -2.716  0.00  0.00     0.284 C 
ATOM      9  H3  UNL d   1       1.061   0.469  -1.882  0.00  0.00     0.395 HD
ENDBRANCH   1   7
TORSDOF 1
ENDMDL
