MODEL 1
REMARK minimizedAffinity -2.59317017
REMARK minimizedRMSD -1
REMARK  1 active torsions:
REMARK  status: ('A' for Active; 'I' for Inactive)
REMARK    1  A    between atoms: N_2  and  C1_3 
ROOT
ATOM      1  C1  UNL d   1       0.437  -0.896  -0.737  0.00  0.00     0.143 A 
ATOM      2  C2  UNL d   1      -0.074  -2.029  -0.094  0.00  0.00    -0.057 A 
ATOM      3  C3  UNL d   1      -0.620  -1.948   1.193  0.00  0.00     0.033 A 
ATOM      4  C4  UNL d   1      -0.638  -0.735   1.873  0.00  0.00    -0.042 A 
ATOM      5  C5  UNL d   1      -0.112   0.398   1.263  0.00  0.00     0.033 A 
ATOM      6  C6  UNL d   1       0.426   0.313  -0.025  0.00  0.00    -0.057 A 
ENDROOT
BRANCH   1   7
ATOM      7  N   UNL d   1       1.083  -0.930  -1.976  0.00  0.00    -0.732 N 
ATOM      8  C   UNL d   1       0.713  -1.911  -2.973  0.00  0.00     0.284 C 
ATOM      9  H3  UNL d   1       1.252   0.001  -2.351  0.00  0.00     0.395 HD
ENDBRANCH   1   7
TORSDOF 1
ENDMDL
