MODEL 1
REMARK minimizedAffinity -4.80018568
REMARK minimizedRMSD -1
REMARK  1 active torsions:
REMARK  status: ('A' for Active; 'I' for Inactive)
REMARK    1  A    between atoms: N_2  and  C1_3 
ROOT
ATOM      1  C1  UNL d   1       0.205  -0.052  -0.209  0.00  0.00     0.143 A 
ATOM      2  C2  UNL d   1       1.491   0.040   0.334  0.00  0.00    -0.057 A 
ATOM      3  C3  UNL d   1       1.717  -0.152   1.703  0.00  0.00     0.033 A 
ATOM      4  C4  UNL d   1       0.653  -0.411   2.560  0.00  0.00    -0.042 A 
ATOM      5  C5  UNL d   1      -0.637  -0.482   2.046  0.00  0.00     0.033 A 
ATOM      6  C6  UNL d   1      -0.855  -0.296   0.678  0.00  0.00    -0.057 A 
ENDROOT
BRANCH   1   7
ATOM      7  N   UNL d   1      -0.097   0.225  -1.544  0.00  0.00    -0.732 N 
ATOM      8  C   UNL d   1       0.778  -0.223  -2.606  0.00  0.00     0.284 C 
ATOM      9  H3  UNL d   1      -1.088   0.118  -1.748  0.00  0.00     0.395 HD
ENDBRANCH   1   7
TORSDOF 1
ENDMDL
