MODEL 1
REMARK minimizedAffinity -3.05971861
REMARK minimizedRMSD -1
REMARK  1 active torsions:
REMARK  status: ('A' for Active; 'I' for Inactive)
REMARK    1  A    between atoms: N_2  and  C1_3 
ROOT
ATOM      1  C1  UNL d   1       0.912  -0.627  -1.490  0.00  0.00     0.143 A 
ATOM      2  C2  UNL d   1       2.279  -0.838  -1.698  0.00  0.00    -0.057 A 
ATOM      3  C3  UNL d   1       2.736  -1.746  -2.661  0.00  0.00     0.033 A 
ATOM      4  C4  UNL d   1       1.829  -2.482  -3.416  0.00  0.00    -0.042 A 
ATOM      5  C5  UNL d   1       0.465  -2.307  -3.209  0.00  0.00     0.033 A 
ATOM      6  C6  UNL d   1       0.016  -1.394  -2.250  0.00  0.00    -0.057 A 
ENDROOT
BRANCH   1   7
ATOM      7  N   UNL d   1       0.396   0.189  -0.480  0.00  0.00    -0.732 N 
ATOM      8  C   UNL d   1       1.159   0.446   0.722  0.00  0.00     0.284 C 
ATOM      9  H3  UNL d   1      -0.087   1.006  -0.849  0.00  0.00     0.395 HD
ENDBRANCH   1   7
TORSDOF 1
ENDMDL
