MODEL 1
REMARK minimizedAffinity -1.10708702
REMARK minimizedRMSD -1
REMARK  1 active torsions:
REMARK  status: ('A' for Active; 'I' for Inactive)
REMARK    1  A    between atoms: N_2  and  C1_3 
ROOT
ATOM      1  C1  UNL d   1      -0.991  -0.006   1.014  0.00  0.00     0.143 A 
ATOM      2  C2  UNL d   1       0.174  -0.103   0.247  0.00  0.00    -0.057 A 
ATOM      3  C3  UNL d   1       1.440  -0.096   0.845  0.00  0.00     0.033 A 
ATOM      4  C4  UNL d   1       1.564   0.038   2.223  0.00  0.00    -0.042 A 
ATOM      5  C5  UNL d   1       0.421   0.162   3.004  0.00  0.00     0.033 A 
ATOM      6  C6  UNL d   1      -0.841   0.148   2.402  0.00  0.00    -0.057 A 
ENDROOT
BRANCH   1   7
ATOM      7  N   UNL d   1      -2.274   0.092   0.471  0.00  0.00    -0.732 N 
ATOM      8  C   UNL d   1      -2.472   0.615  -0.864  0.00  0.00     0.284 C 
ATOM      9  H3  UNL d   1      -2.852  -0.716   0.691  0.00  0.00     0.395 HD
ENDBRANCH   1   7
TORSDOF 1
ENDMDL
