MODEL 1
REMARK minimizedAffinity -4.58745098
REMARK minimizedRMSD -1
REMARK  1 active torsions:
REMARK  status: ('A' for Active; 'I' for Inactive)
REMARK    1  A    between atoms: N_2  and  C1_3 
ROOT
ATOM      1  C1  UNL d   1      -0.135   0.004  -0.166  0.00  0.00     0.143 A 
ATOM      2  C2  UNL d   1      -1.000  -0.554   0.781  0.00  0.00    -0.057 A 
ATOM      3  C3  UNL d   1      -0.716  -0.492   2.150  0.00  0.00     0.033 A 
ATOM      4  C4  UNL d   1       0.458   0.106   2.596  0.00  0.00    -0.042 A 
ATOM      5  C5  UNL d   1       1.345   0.645   1.671  0.00  0.00     0.033 A 
ATOM      6  C6  UNL d   1       1.052   0.586   0.305  0.00  0.00    -0.057 A 
ENDROOT
BRANCH   1   7
ATOM      7  N   UNL d   1      -0.314  -0.111  -1.547  0.00  0.00    -0.732 N 
ATOM      8  C   UNL d   1       0.769  -0.561  -2.396  0.00  0.00     0.284 C 
ATOM      9  H3  UNL d   1      -1.222  -0.502  -1.790  0.00  0.00     0.395 HD
ENDBRANCH   1   7
TORSDOF 1
ENDMDL
