MODEL 1
REMARK minimizedAffinity -4.44350195
REMARK minimizedRMSD -1
REMARK  1 active torsions:
REMARK  status: ('A' for Active; 'I' for Inactive)
REMARK    1  A    between atoms: N_2  and  C1_3 
ROOT
ATOM      1  C1  UNL d   1       0.885  -0.198  -1.667  0.00  0.00     0.143 A 
ATOM      2  C2  UNL d   1       2.261  -0.401  -1.824  0.00  0.00    -0.057 A 
ATOM      3  C3  UNL d   1       2.760  -1.267  -2.804  0.00  0.00     0.033 A 
ATOM      4  C4  UNL d   1       1.887  -1.970  -3.629  0.00  0.00    -0.042 A 
ATOM      5  C5  UNL d   1       0.516  -1.803  -3.474  0.00  0.00     0.033 A 
ATOM      6  C6  UNL d   1       0.024  -0.932  -2.498  0.00  0.00    -0.057 A 
ENDROOT
BRANCH   1   7
ATOM      7  N   UNL d   1       0.324   0.574  -0.646  0.00  0.00    -0.732 N 
ATOM      8  C   UNL d   1       0.219   0.052   0.699  0.00  0.00     0.284 C 
ATOM      9  H3  UNL d   1       0.613   1.548  -0.693  0.00  0.00     0.395 HD
ENDBRANCH   1   7
TORSDOF 1
ENDMDL
