MODEL 1
REMARK minimizedAffinity -2.78195739
REMARK minimizedRMSD -1
REMARK  1 active torsions:
REMARK  status: ('A' for Active; 'I' for Inactive)
REMARK    1  A    between atoms: N_2  and  C1_3 
ROOT
ATOM      1  C1  UNL d   1       0.185   0.110   0.205  0.00  0.00     0.143 A 
ATOM      2  C2  UNL d   1       1.226   0.829   0.803  0.00  0.00    -0.057 A 
ATOM      3  C3  UNL d   1       1.315   0.955   2.195  0.00  0.00     0.033 A 
ATOM      4  C4  UNL d   1       0.345   0.387   3.014  0.00  0.00    -0.042 A 
ATOM      5  C5  UNL d   1      -0.712  -0.311   2.440  0.00  0.00     0.033 A 
ATOM      6  C6  UNL d   1      -0.792  -0.439   1.050  0.00  0.00    -0.057 A 
ENDROOT
BRANCH   1   7
ATOM      7  N   UNL d   1      -0.013   0.032  -1.176  0.00  0.00    -0.732 N 
ATOM      8  C   UNL d   1       1.110  -0.140  -2.073  0.00  0.00     0.284 C 
ATOM      9  H3  UNL d   1      -0.829  -0.524  -1.420  0.00  0.00     0.395 HD
ENDBRANCH   1   7
TORSDOF 1
ENDMDL
