MODEL 1
REMARK minimizedAffinity -3.37539935
REMARK minimizedRMSD -1
REMARK  0 active torsions:
REMARK  status: ('A' for Active; 'I' for Inactive)
ROOT
ATOM      1  C   UNL d   1       1.840   6.000   5.869  0.00  0.00     0.020 A 
ATOM      2  C1  UNL d   1       1.215   5.354   4.803  0.00  0.00     0.020 A 
ATOM      3  C2  UNL d   1       1.978   4.657   3.864  0.00  0.00     0.034 A 
ATOM      4  C3  UNL d   1       3.371   4.605   3.988  0.00  0.00     0.017 A 
ATOM      5  C4  UNL d   1       3.998   5.254   5.058  0.00  0.00     0.017 A 
ATOM      6  C5  UNL d   1       3.229   5.950   5.996  0.00  0.00     0.034 A 
ATOM      7 Cl   UNL d   1       5.712   5.234   5.278  0.00  0.00    -0.070 Cl
ATOM      8 Cl1  UNL d   1       4.252   3.725   2.790  0.00  0.00    -0.070 Cl
ENDROOT
TORSDOF 0
ENDMDL
