MODEL 1
REMARK minimizedAffinity 0.644068658
REMARK minimizedRMSD -1
REMARK  0 active torsions:
REMARK  status: ('A' for Active; 'I' for Inactive)
ROOT
ATOM      1  C   UNL d   1       4.458   4.078   3.835  0.00  0.00     0.020 A 
ATOM      2  C1  UNL d   1       4.246   5.456   3.825  0.00  0.00     0.020 A 
ATOM      3  C2  UNL d   1       3.146   5.999   4.493  0.00  0.00     0.034 A 
ATOM      4  C3  UNL d   1       2.253   5.163   5.173  0.00  0.00     0.017 A 
ATOM      5  C4  UNL d   1       2.466   3.779   5.182  0.00  0.00     0.017 A 
ATOM      6  C5  UNL d   1       3.569   3.242   4.512  0.00  0.00     0.034 A 
ATOM      7 Cl   UNL d   1       1.408   2.684   6.000  0.00  0.00    -0.070 Cl
ATOM      8 Cl1  UNL d   1       0.914   5.902   5.977  0.00  0.00    -0.070 Cl
ENDROOT
TORSDOF 0
ENDMDL
