MODEL 1
REMARK minimizedAffinity 1.44172394
REMARK minimizedRMSD -1
REMARK  0 active torsions:
REMARK  status: ('A' for Active; 'I' for Inactive)
ROOT
ATOM      1  C   UNL d   1       3.358   0.309  -1.256  0.00  0.00     0.020 A 
ATOM      2  C1  UNL d   1       3.026   0.064   0.076  0.00  0.00     0.020 A 
ATOM      3  C2  UNL d   1       3.417   0.964   1.069  0.00  0.00     0.034 A 
ATOM      4  C3  UNL d   1       4.142   2.113   0.733  0.00  0.00     0.017 A 
ATOM      5  C4  UNL d   1       4.474   2.358  -0.605  0.00  0.00     0.017 A 
ATOM      6  C5  UNL d   1       4.080   1.454  -1.595  0.00  0.00     0.034 A 
ATOM      7 Cl   UNL d   1       5.366   3.754  -1.097  0.00  0.00    -0.070 Cl
ATOM      8 Cl1  UNL d   1       4.592   3.183   2.013  0.00  0.00    -0.070 Cl
ENDROOT
TORSDOF 0
ENDMDL
