MODEL 1
REMARK minimizedAffinity 10.2846594
REMARK minimizedRMSD -1
REMARK  0 active torsions:
REMARK  status: ('A' for Active; 'I' for Inactive)
ROOT
ATOM      1  C   UNL d   1      -3.663   4.304   2.042  0.00  0.00     0.020 A 
ATOM      2  C1  UNL d   1      -3.521   3.075   2.684  0.00  0.00     0.020 A 
ATOM      3  C2  UNL d   1      -3.907   1.900   2.036  0.00  0.00     0.034 A 
ATOM      4  C3  UNL d   1      -4.435   1.951   0.741  0.00  0.00     0.017 A 
ATOM      5  C4  UNL d   1      -4.577   3.186   0.097  0.00  0.00     0.017 A 
ATOM      6  C5  UNL d   1      -4.189   4.359   0.751  0.00  0.00     0.034 A 
ATOM      7 Cl   UNL d   1      -5.220   3.329  -1.501  0.00  0.00    -0.070 Cl
ATOM      8 Cl1  UNL d   1      -4.891   0.459  -0.001  0.00  0.00    -0.070 Cl
ENDROOT
TORSDOF 0
ENDMDL
