MODEL 1
REMARK minimizedAffinity 6.70689249
REMARK minimizedRMSD -1
REMARK  0 active torsions:
REMARK  status: ('A' for Active; 'I' for Inactive)
ROOT
ATOM      1  C   UNL d   1       2.009  -1.460  -1.478  0.00  0.00     0.020 A 
ATOM      2  C1  UNL d   1       2.914  -1.817  -0.479  0.00  0.00     0.020 A 
ATOM      3  C2  UNL d   1       3.345  -0.862   0.445  0.00  0.00     0.034 A 
ATOM      4  C3  UNL d   1       2.873   0.453   0.370  0.00  0.00     0.017 A 
ATOM      5  C4  UNL d   1       1.965   0.810  -0.634  0.00  0.00     0.017 A 
ATOM      6  C5  UNL d   1       1.536  -0.150  -1.556  0.00  0.00     0.034 A 
ATOM      7 Cl   UNL d   1       1.338   2.413  -0.789  0.00  0.00    -0.070 Cl
ATOM      8 Cl1  UNL d   1       3.449   1.582   1.545  0.00  0.00    -0.070 Cl
ENDROOT
TORSDOF 0
ENDMDL
