MODEL 1
REMARK minimizedAffinity 1.75007415
REMARK minimizedRMSD -1
REMARK  0 active torsions:
REMARK  status: ('A' for Active; 'I' for Inactive)
ROOT
ATOM      1  C   UNL d   1       3.312   1.789   1.196  0.00  0.00     0.020 A 
ATOM      2  C1  UNL d   1       2.623   1.877  -0.013  0.00  0.00     0.020 A 
ATOM      3  C2  UNL d   1       2.341   0.719  -0.741  0.00  0.00     0.034 A 
ATOM      4  C3  UNL d   1       2.748  -0.531  -0.261  0.00  0.00     0.017 A 
ATOM      5  C4  UNL d   1       3.440  -0.618   0.953  0.00  0.00     0.017 A 
ATOM      6  C5  UNL d   1       3.719   0.544   1.678  0.00  0.00     0.034 A 
ATOM      7 Cl   UNL d   1       3.974  -2.125   1.610  0.00  0.00    -0.070 Cl
ATOM      8 Cl1  UNL d   1       2.365  -1.921  -1.213  0.00  0.00    -0.070 Cl
ENDROOT
TORSDOF 0
ENDMDL
