MODEL 1
REMARK minimizedAffinity 6.78269386
REMARK minimizedRMSD -1
REMARK  0 active torsions:
REMARK  status: ('A' for Active; 'I' for Inactive)
ROOT
ATOM      1  C   UNL d   1       2.345  -1.042  -0.128  0.00  0.00     0.020 A 
ATOM      2  C1  UNL d   1       3.039  -1.250  -1.319  0.00  0.00     0.020 A 
ATOM      3  C2  UNL d   1       3.854  -0.242  -1.838  0.00  0.00     0.034 A 
ATOM      4  C3  UNL d   1       3.976   0.980  -1.166  0.00  0.00     0.017 A 
ATOM      5  C4  UNL d   1       3.279   1.188   0.030  0.00  0.00     0.017 A 
ATOM      6  C5  UNL d   1       2.465   0.175   0.545  0.00  0.00     0.034 A 
ATOM      7 Cl   UNL d   1       3.381   2.669   0.916  0.00  0.00    -0.070 Cl
ATOM      8 Cl1  UNL d   1       5.002   2.182  -1.865  0.00  0.00    -0.070 Cl
ENDROOT
TORSDOF 0
ENDMDL
