MODEL 1
REMARK minimizedAffinity -3.09103537
REMARK minimizedRMSD -1
REMARK  0 active torsions:
REMARK  status: ('A' for Active; 'I' for Inactive)
ROOT
ATOM      1  C   UNL d   1       1.168   5.999   5.459  0.00  0.00     0.020 A 
ATOM      2  C1  UNL d   1       0.743   5.640   4.180  0.00  0.00     0.020 A 
ATOM      3  C2  UNL d   1       1.467   4.702   3.442  0.00  0.00     0.034 A 
ATOM      4  C3  UNL d   1       2.620   4.119   3.981  0.00  0.00     0.017 A 
ATOM      5  C4  UNL d   1       3.045   4.480   5.265  0.00  0.00     0.017 A 
ATOM      6  C5  UNL d   1       2.316   5.420   6.000  0.00  0.00     0.034 A 
ATOM      7 Cl   UNL d   1       4.457   3.804   5.997  0.00  0.00    -0.070 Cl
ATOM      8 Cl1  UNL d   1       3.466   2.966   3.012  0.00  0.00    -0.070 Cl
ENDROOT
TORSDOF 0
ENDMDL
