MODEL 1
REMARK minimizedAffinity 2.40514278
REMARK minimizedRMSD -1
REMARK  0 active torsions:
REMARK  status: ('A' for Active; 'I' for Inactive)
ROOT
ATOM      1  C   UNL d   1       3.315  -1.730  -0.113  0.00  0.00     0.020 A 
ATOM      2  C1  UNL d   1       2.003  -1.413   0.235  0.00  0.00     0.020 A 
ATOM      3  C2  UNL d   1       1.556  -0.093   0.148  0.00  0.00     0.034 A 
ATOM      4  C3  UNL d   1       2.422   0.916  -0.289  0.00  0.00     0.017 A 
ATOM      5  C4  UNL d   1       3.740   0.597  -0.638  0.00  0.00     0.017 A 
ATOM      6  C5  UNL d   1       4.182  -0.726  -0.549  0.00  0.00     0.034 A 
ATOM      7 Cl   UNL d   1       4.867   1.787  -1.186  0.00  0.00    -0.070 Cl
ATOM      8 Cl1  UNL d   1       1.803   2.526  -0.373  0.00  0.00    -0.070 Cl
ENDROOT
TORSDOF 0
ENDMDL
