MODEL 1
REMARK minimizedAffinity 3.72165108
REMARK minimizedRMSD -1
REMARK  0 active torsions:
REMARK  status: ('A' for Active; 'I' for Inactive)
ROOT
ATOM      1  C   UNL d   1       2.845   2.094   3.682  0.00  0.00     0.020 A 
ATOM      2  C1  UNL d   1       2.802   2.140   5.075  0.00  0.00     0.020 A 
ATOM      3  C2  UNL d   1       3.163   3.309   5.747  0.00  0.00     0.034 A 
ATOM      4  C3  UNL d   1       3.569   4.438   5.026  0.00  0.00     0.017 A 
ATOM      5  C4  UNL d   1       3.612   4.392   3.628  0.00  0.00     0.017 A 
ATOM      6  C5  UNL d   1       3.249   3.218   2.960  0.00  0.00     0.034 A 
ATOM      7 Cl   UNL d   1       4.102   5.744   2.670  0.00  0.00    -0.070 Cl
ATOM      8 Cl1  UNL d   1       4.001   5.851   5.922  0.00  0.00    -0.070 Cl
ENDROOT
TORSDOF 0
ENDMDL
