MODEL 1
REMARK minimizedAffinity -4.7803812
REMARK minimizedRMSD -1
REMARK  0 active torsions:
REMARK  status: ('A' for Active; 'I' for Inactive)
ROOT
ATOM      1  C   UNL d   1      -0.832   1.123  -1.672  0.00  0.00     0.020 A 
ATOM      2  C1  UNL d   1      -0.031  -0.016  -1.598  0.00  0.00     0.020 A 
ATOM      3  C2  UNL d   1       0.538  -0.392  -0.380  0.00  0.00     0.034 A 
ATOM      4  C3  UNL d   1       0.306   0.371   0.771  0.00  0.00     0.017 A 
ATOM      5  C4  UNL d   1      -0.498   1.514   0.696  0.00  0.00     0.017 A 
ATOM      6  C5  UNL d   1      -1.065   1.886  -0.527  0.00  0.00     0.034 A 
ATOM      7 Cl   UNL d   1      -0.830   2.506   2.072  0.00  0.00    -0.070 Cl
ATOM      8 Cl1  UNL d   1       1.041  -0.153   2.244  0.00  0.00    -0.070 Cl
ENDROOT
TORSDOF 0
ENDMDL
