MODEL 1
REMARK minimizedAffinity -2.62843585
REMARK minimizedRMSD -1
REMARK  0 active torsions:
REMARK  status: ('A' for Active; 'I' for Inactive)
ROOT
ATOM      1  C   UNL d   1      -0.389  -0.003   1.730  0.00  0.00     0.020 A 
ATOM      2  C1  UNL d   1      -0.288   1.277   1.186  0.00  0.00     0.020 A 
ATOM      3  C2  UNL d   1       0.092   1.441  -0.147  0.00  0.00     0.034 A 
ATOM      4  C3  UNL d   1       0.373   0.324  -0.942  0.00  0.00     0.017 A 
ATOM      5  C4  UNL d   1       0.272  -0.961  -0.396  0.00  0.00     0.017 A 
ATOM      6  C5  UNL d   1      -0.110  -1.120   0.940  0.00  0.00     0.034 A 
ATOM      7 Cl   UNL d   1       0.602  -2.387  -1.314  0.00  0.00    -0.070 Cl
ATOM      8 Cl1  UNL d   1       0.837   0.601  -2.583  0.00  0.00    -0.070 Cl
ENDROOT
TORSDOF 0
ENDMDL
