MODEL 1
REMARK minimizedAffinity 2.07780051
REMARK minimizedRMSD -1
REMARK  0 active torsions:
REMARK  status: ('A' for Active; 'I' for Inactive)
ROOT
ATOM      1  C   UNL d   1       0.276   2.182   0.976  0.00  0.00     0.020 A 
ATOM      2  C1  UNL d   1      -0.054   2.031   2.322  0.00  0.00     0.020 A 
ATOM      3  C2  UNL d   1       0.147   0.803   2.957  0.00  0.00     0.034 A 
ATOM      4  C3  UNL d   1       0.680  -0.278   2.245  0.00  0.00     0.017 A 
ATOM      5  C4  UNL d   1       1.011  -0.125   0.894  0.00  0.00     0.017 A 
ATOM      6  C5  UNL d   1       0.808   1.107   0.264  0.00  0.00     0.034 A 
ATOM      7 Cl   UNL d   1       1.673  -1.413  -0.049  0.00  0.00    -0.070 Cl
ATOM      8 Cl1  UNL d   1       0.902  -1.767   3.093  0.00  0.00    -0.070 Cl
ENDROOT
TORSDOF 0
ENDMDL
