MODEL 1
REMARK minimizedAffinity -3.74156976
REMARK minimizedRMSD -1
REMARK  0 active torsions:
REMARK  status: ('A' for Active; 'I' for Inactive)
ROOT
ATOM      1  C   UNL d   1      -1.237   2.399   1.651  0.00  0.00     0.020 A 
ATOM      2  C1  UNL d   1      -2.168   1.880   0.750  0.00  0.00     0.020 A 
ATOM      3  C2  UNL d   1      -1.871   0.721   0.030  0.00  0.00     0.034 A 
ATOM      4  C3  UNL d   1      -0.642   0.076   0.209  0.00  0.00     0.017 A 
ATOM      5  C4  UNL d   1       0.291   0.597   1.113  0.00  0.00     0.017 A 
ATOM      6  C5  UNL d   1      -0.011   1.759   1.831  0.00  0.00     0.034 A 
ATOM      7 Cl   UNL d   1       1.829  -0.142   1.387  0.00  0.00    -0.070 Cl
ATOM      8 Cl1  UNL d   1      -0.342  -1.353  -0.714  0.00  0.00    -0.070 Cl
ENDROOT
TORSDOF 0
ENDMDL
