MODEL 1
REMARK minimizedAffinity -4.35331631
REMARK minimizedRMSD -1
REMARK  0 active torsions:
REMARK  status: ('A' for Active; 'I' for Inactive)
ROOT
ATOM      1  C   UNL d   1       1.424  -0.696   2.530  0.00  0.00     0.020 A 
ATOM      2  C1  UNL d   1       2.322  -0.179   1.596  0.00  0.00     0.020 A 
ATOM      3  C2  UNL d   1       1.860   0.270   0.358  0.00  0.00     0.034 A 
ATOM      4  C3  UNL d   1       0.496   0.204   0.049  0.00  0.00     0.017 A 
ATOM      5  C4  UNL d   1      -0.404  -0.314   0.987  0.00  0.00     0.017 A 
ATOM      6  C5  UNL d   1       0.064  -0.763   2.226  0.00  0.00     0.034 A 
ATOM      7 Cl   UNL d   1      -2.101  -0.428   0.679  0.00  0.00    -0.070 Cl
ATOM      8 Cl1  UNL d   1      -0.006   0.779  -1.501  0.00  0.00    -0.070 Cl
ENDROOT
TORSDOF 0
ENDMDL
