MODEL 1
REMARK minimizedAffinity -4.28773785
REMARK minimizedRMSD -1
REMARK  0 active torsions:
REMARK  status: ('A' for Active; 'I' for Inactive)
ROOT
ATOM      1  C   UNL d   1      -0.880  -0.123  -0.622  0.00  0.00     0.020 A 
ATOM      2  C1  UNL d   1      -1.390  -0.103   0.676  0.00  0.00     0.020 A 
ATOM      3  C2  UNL d   1      -0.553  -0.379   1.759  0.00  0.00     0.034 A 
ATOM      4  C3  UNL d   1       0.798  -0.677   1.547  0.00  0.00     0.017 A 
ATOM      5  C4  UNL d   1       1.309  -0.697   0.245  0.00  0.00     0.017 A 
ATOM      6  C5  UNL d   1       0.467  -0.419  -0.837  0.00  0.00     0.034 A 
ATOM      7 Cl   UNL d   1       2.965  -1.055  -0.096  0.00  0.00    -0.070 Cl
ATOM      8 Cl1  UNL d   1       1.775  -1.008   2.934  0.00  0.00    -0.070 Cl
ENDROOT
TORSDOF 0
ENDMDL
