MODEL 1
REMARK minimizedAffinity -3.19919491
REMARK minimizedRMSD -1
REMARK  0 active torsions:
REMARK  status: ('A' for Active; 'I' for Inactive)
ROOT
ATOM      1  C   UNL d   1      -0.003  -1.156   2.893  0.00  0.00     0.020 A 
ATOM      2  C1  UNL d   1      -1.059  -0.305   2.571  0.00  0.00     0.020 A 
ATOM      3  C2  UNL d   1      -1.212   0.153   1.260  0.00  0.00     0.034 A 
ATOM      4  C3  UNL d   1      -0.308  -0.240   0.267  0.00  0.00     0.017 A 
ATOM      5  C4  UNL d   1       0.751  -1.095   0.591  0.00  0.00     0.017 A 
ATOM      6  C5  UNL d   1       0.900  -1.551   1.905  0.00  0.00     0.034 A 
ATOM      7 Cl   UNL d   1       1.907  -1.625  -0.580  0.00  0.00    -0.070 Cl
ATOM      8 Cl1  UNL d   1      -0.558   0.364  -1.332  0.00  0.00    -0.070 Cl
ENDROOT
TORSDOF 0
ENDMDL
