MODEL 1
REMARK minimizedAffinity -4.92771149
REMARK minimizedRMSD -1
REMARK  0 active torsions:
REMARK  status: ('A' for Active; 'I' for Inactive)
ROOT
ATOM      1  C   UNL d   1      -0.014  -0.347  -1.294  0.00  0.00     0.020 A 
ATOM      2  C1  UNL d   1       1.274  -0.650  -0.853  0.00  0.00     0.020 A 
ATOM      3  C2  UNL d   1       1.584  -0.572   0.506  0.00  0.00     0.034 A 
ATOM      4  C3  UNL d   1       0.604  -0.189   1.430  0.00  0.00     0.017 A 
ATOM      5  C4  UNL d   1      -0.688   0.115   0.987  0.00  0.00     0.017 A 
ATOM      6  C5  UNL d   1      -0.992   0.035  -0.375  0.00  0.00     0.034 A 
ATOM      7 Cl   UNL d   1      -1.949   0.594   2.067  0.00  0.00    -0.070 Cl
ATOM      8 Cl1  UNL d   1       1.057  -0.114   3.096  0.00  0.00    -0.070 Cl
ENDROOT
TORSDOF 0
ENDMDL
