MODEL 1
REMARK minimizedAffinity -2.79289842
REMARK minimizedRMSD -1
REMARK  0 active torsions:
REMARK  status: ('A' for Active; 'I' for Inactive)
ROOT
ATOM      1  C   UNL d   1       1.915   0.123   1.558  0.00  0.00     0.020 A 
ATOM      2  C1  UNL d   1       1.070  -0.290   2.587  0.00  0.00     0.020 A 
ATOM      3  C2  UNL d   1      -0.287  -0.501   2.333  0.00  0.00     0.034 A 
ATOM      4  C3  UNL d   1      -0.803  -0.298   1.048  0.00  0.00     0.017 A 
ATOM      5  C4  UNL d   1       0.046   0.117   0.016  0.00  0.00     0.017 A 
ATOM      6  C5  UNL d   1       1.404   0.326   0.275  0.00  0.00     0.034 A 
ATOM      7 Cl   UNL d   1      -0.517   0.388  -1.595  0.00  0.00    -0.070 Cl
ATOM      8 Cl1  UNL d   1      -2.491  -0.577   0.807  0.00  0.00    -0.070 Cl
ENDROOT
TORSDOF 0
ENDMDL
