MODEL 1
REMARK minimizedAffinity -5.01971769
REMARK minimizedRMSD -1
REMARK  0 active torsions:
REMARK  status: ('A' for Active; 'I' for Inactive)
ROOT
ATOM      1  C   UNL d   1       1.680  -1.169   2.424  0.00  0.00     0.020 A 
ATOM      2  C1  UNL d   1       2.565  -1.406   1.373  0.00  0.00     0.020 A 
ATOM      3  C2  UNL d   1       2.103  -1.398   0.055  0.00  0.00     0.034 A 
ATOM      4  C3  UNL d   1       0.751  -1.153  -0.215  0.00  0.00     0.017 A 
ATOM      5  C4  UNL d   1      -0.136  -0.915   0.841  0.00  0.00     0.017 A 
ATOM      6  C5  UNL d   1       0.332  -0.924   2.158  0.00  0.00     0.034 A 
ATOM      7 Cl   UNL d   1      -1.818  -0.605   0.586  0.00  0.00    -0.070 Cl
ATOM      8 Cl1  UNL d   1       0.249  -1.158  -1.868  0.00  0.00    -0.070 Cl
ENDROOT
TORSDOF 0
ENDMDL
