MODEL 1
REMARK minimizedAffinity -4.14880133
REMARK minimizedRMSD -1
REMARK  0 active torsions:
REMARK  status: ('A' for Active; 'I' for Inactive)
ROOT
ATOM      1  C2' OXE d   1      -0.959  -2.263   1.639  0.00  0.00     0.078 C 
ATOM      2  C1' OXE d   1      -2.793  -1.091  -0.134  0.00  0.00     0.078 C 
ATOM      3  C1  OXE d   1      -1.384  -0.553  -0.122  0.00  0.00    -0.078 A 
ATOM      4  C2  OXE d   1      -0.506  -1.101   0.782  0.00  0.00    -0.078 A 
ATOM      5  C3  OXE d   1       0.820  -0.678   0.798  0.00  0.00     0.003 A 
ATOM      6  C4  OXE d   1       1.228   0.405   0.009  0.00  0.00    -0.002 A 
ATOM      7  C5  OXE d   1       0.339   1.004  -0.890  0.00  0.00    -0.002 A 
ATOM      8  C6  OXE d   1      -0.956   0.510  -0.998  0.00  0.00     0.003 A 
ENDROOT
TORSDOF 0
ENDMDL
