MODEL 1
REMARK minimizedAffinity -5.85527563
REMARK minimizedRMSD -1
REMARK  0 active torsions:
REMARK  status: ('A' for Active; 'I' for Inactive)
ROOT
ATOM      1  C2' OXE d   1       1.084   0.380   0.020  0.00  0.00     0.078 C 
ATOM      2  C1' OXE d   1      -0.587   1.609  -1.873  0.00  0.00     0.078 C 
ATOM      3  C1  OXE d   1      -1.155   0.466  -1.069  0.00  0.00    -0.078 A 
ATOM      4  C2  OXE d   1      -0.316  -0.159  -0.178  0.00  0.00    -0.078 A 
ATOM      5  C3  OXE d   1      -0.806  -1.183   0.628  0.00  0.00     0.003 A 
ATOM      6  C4  OXE d   1      -2.099  -1.683   0.432  0.00  0.00    -0.002 A 
ATOM      7  C5  OXE d   1      -2.958  -1.086  -0.498  0.00  0.00    -0.002 A 
ATOM      8  C6  OXE d   1      -2.516   0.014  -1.224  0.00  0.00     0.003 A 
ENDROOT
TORSDOF 0
ENDMDL
