MODEL 1
REMARK minimizedAffinity 0.461018085
REMARK minimizedRMSD -1
REMARK  0 active torsions:
REMARK  status: ('A' for Active; 'I' for Inactive)
ROOT
ATOM      1  C2' OXE d   1       1.704   0.085  -0.279  0.00  0.00     0.078 C 
ATOM      2  C1' OXE d   1       1.415   2.466   1.181  0.00  0.00     0.078 C 
ATOM      3  C1  OXE d   1       0.272   1.483   1.205  0.00  0.00    -0.078 A 
ATOM      4  C2  OXE d   1       0.402   0.342   0.450  0.00  0.00    -0.078 A 
ATOM      5  C3  OXE d   1      -0.600  -0.623   0.480  0.00  0.00     0.003 A 
ATOM      6  C4  OXE d   1      -1.805  -0.374   1.149  0.00  0.00    -0.002 A 
ATOM      7  C5  OXE d   1      -1.974   0.800   1.891  0.00  0.00    -0.002 A 
ATOM      8  C6  OXE d   1      -0.932   1.717   1.964  0.00  0.00     0.003 A 
ENDROOT
TORSDOF 0
ENDMDL
