MODEL 1
REMARK minimizedAffinity -5.88306379
REMARK minimizedRMSD -1
REMARK  0 active torsions:
REMARK  status: ('A' for Active; 'I' for Inactive)
ROOT
ATOM      1  C2' OXE d   1       0.287  -0.004   0.096  0.00  0.00     0.078 C 
ATOM      2  C1' OXE d   1      -2.038   0.521  -1.387  0.00  0.00     0.078 C 
ATOM      3  C1  OXE d   1      -2.063  -0.643  -0.428  0.00  0.00    -0.078 A 
ATOM      4  C2  OXE d   1      -0.906  -0.921   0.259  0.00  0.00    -0.078 A 
ATOM      5  C3  OXE d   1      -0.891  -1.950   1.197  0.00  0.00     0.003 A 
ATOM      6  C4  OXE d   1      -1.996  -2.799   1.334  0.00  0.00    -0.002 A 
ATOM      7  C5  OXE d   1      -3.171  -2.558   0.615  0.00  0.00    -0.002 A 
ATOM      8  C6  OXE d   1      -3.235  -1.461  -0.237  0.00  0.00     0.003 A 
ENDROOT
TORSDOF 0
ENDMDL
