MODEL 1
REMARK minimizedAffinity -5.92535925
REMARK minimizedRMSD -1
REMARK  0 active torsions:
REMARK  status: ('A' for Active; 'I' for Inactive)
ROOT
ATOM      1  C2' OXE d   1      -3.769  -2.515  -0.055  0.00  0.00     0.078 C 
ATOM      2  C1' OXE d   1      -1.421  -2.701   1.472  0.00  0.00     0.078 C 
ATOM      3  C1  OXE d   1      -1.564  -1.522   0.542  0.00  0.00    -0.078 A 
ATOM      4  C2  OXE d   1      -2.695  -1.464  -0.235  0.00  0.00    -0.078 A 
ATOM      5  C3  OXE d   1      -2.903  -0.369  -1.070  0.00  0.00     0.003 A 
ATOM      6  C4  OXE d   1      -1.900   0.594  -1.238  0.00  0.00    -0.002 A 
ATOM      7  C5  OXE d   1      -0.723   0.532  -0.485  0.00  0.00    -0.002 A 
ATOM      8  C6  OXE d   1      -0.558  -0.494   0.439  0.00  0.00     0.003 A 
ENDROOT
TORSDOF 0
ENDMDL
