MODEL 1
REMARK minimizedAffinity -3.18367457
REMARK minimizedRMSD -1
REMARK  0 active torsions:
REMARK  status: ('A' for Active; 'I' for Inactive)
ROOT
ATOM      1  C2' OXE d   1      -1.350   0.057  -1.748  0.00  0.00     0.078 C 
ATOM      2  C1' OXE d   1       0.809   0.032   0.046  0.00  0.00     0.078 C 
ATOM      3  C1  OXE d   1      -0.199  -1.086   0.143  0.00  0.00    -0.078 A 
ATOM      4  C2  OXE d   1      -1.277  -1.040  -0.708  0.00  0.00    -0.078 A 
ATOM      5  C3  OXE d   1      -2.208  -2.075  -0.697  0.00  0.00     0.003 A 
ATOM      6  C4  OXE d   1      -2.138  -3.081   0.275  0.00  0.00    -0.002 A 
ATOM      7  C5  OXE d   1      -1.070  -3.125   1.176  0.00  0.00    -0.002 A 
ATOM      8  C6  OXE d   1      -0.071  -2.160   1.096  0.00  0.00     0.003 A 
ENDROOT
TORSDOF 0
ENDMDL
