MODEL 1
REMARK minimizedAffinity -4.54685116
REMARK minimizedRMSD -1
REMARK  0 active torsions:
REMARK  status: ('A' for Active; 'I' for Inactive)
ROOT
ATOM      1  C2' OXE d   1      -0.327   0.440  -0.364  0.00  0.00     0.078 C 
ATOM      2  C1' OXE d   1       0.529  -1.590   1.375  0.00  0.00     0.078 C 
ATOM      3  C1  OXE d   1      -0.898  -1.636   0.888  0.00  0.00    -0.078 A 
ATOM      4  C2  OXE d   1      -1.321  -0.613   0.074  0.00  0.00    -0.078 A 
ATOM      5  C3  OXE d   1      -2.612  -0.637  -0.448  0.00  0.00     0.003 A 
ATOM      6  C4  OXE d   1      -3.528  -1.609  -0.029  0.00  0.00    -0.002 A 
ATOM      7  C5  OXE d   1      -3.129  -2.638   0.830  0.00  0.00    -0.002 A 
ATOM      8  C6  OXE d   1      -1.808  -2.690   1.263  0.00  0.00     0.003 A 
ENDROOT
TORSDOF 0
ENDMDL
