MODEL 1
REMARK minimizedAffinity 0.788368344
REMARK minimizedRMSD -1
REMARK  0 active torsions:
REMARK  status: ('A' for Active; 'I' for Inactive)
ROOT
ATOM      1  C2' OXE d   1       0.275   0.756   3.418  0.00  0.00     0.078 C 
ATOM      2  C1' OXE d   1       0.453  -1.969   2.768  0.00  0.00     0.078 C 
ATOM      3  C1  OXE d   1       0.587  -0.969   1.648  0.00  0.00    -0.078 A 
ATOM      4  C2  OXE d   1       0.452   0.361   1.968  0.00  0.00    -0.078 A 
ATOM      5  C3  OXE d   1       0.622   1.328   0.982  0.00  0.00     0.003 A 
ATOM      6  C4  OXE d   1       0.776   0.954  -0.359  0.00  0.00    -0.002 A 
ATOM      7  C5  OXE d   1       0.877  -0.395  -0.712  0.00  0.00    -0.002 A 
ATOM      8  C6  OXE d   1       0.827  -1.366   0.282  0.00  0.00     0.003 A 
ENDROOT
TORSDOF 0
ENDMDL
