MODEL 1
REMARK minimizedAffinity -5.75178337
REMARK minimizedRMSD -1
REMARK  0 active torsions:
REMARK  status: ('A' for Active; 'I' for Inactive)
ROOT
ATOM      1  C2' OXE d   1       1.095  -0.061   0.568  0.00  0.00     0.078 C 
ATOM      2  C1' OXE d   1      -0.776   1.442  -0.888  0.00  0.00     0.078 C 
ATOM      3  C1  OXE d   1      -1.262   0.192  -0.200  0.00  0.00    -0.078 A 
ATOM      4  C2  OXE d   1      -0.330  -0.563   0.472  0.00  0.00    -0.078 A 
ATOM      5  C3  OXE d   1      -0.735  -1.697   1.170  0.00  0.00     0.003 A 
ATOM      6  C4  OXE d   1      -2.053  -2.159   1.068  0.00  0.00    -0.002 A 
ATOM      7  C5  OXE d   1      -3.009  -1.427   0.356  0.00  0.00    -0.002 A 
ATOM      8  C6  OXE d   1      -2.640  -0.230  -0.247  0.00  0.00     0.003 A 
ENDROOT
TORSDOF 0
ENDMDL
