MODEL 1
REMARK minimizedAffinity -2.57569456
REMARK minimizedRMSD -1
REMARK  0 active torsions:
REMARK  status: ('A' for Active; 'I' for Inactive)
ROOT
ATOM      1  C2' OXE d   1      -0.997  -2.193   1.475  0.00  0.00     0.078 C 
ATOM      2  C1' OXE d   1      -2.317  -1.278  -0.828  0.00  0.00     0.078 C 
ATOM      3  C1  OXE d   1      -0.887  -0.846  -0.618  0.00  0.00    -0.078 A 
ATOM      4  C2  OXE d   1      -0.264  -1.261   0.535  0.00  0.00    -0.078 A 
ATOM      5  C3  OXE d   1       1.072  -0.936   0.751  0.00  0.00     0.003 A 
ATOM      6  C4  OXE d   1       1.740  -0.065  -0.118  0.00  0.00    -0.002 A 
ATOM      7  C5  OXE d   1       1.111   0.400  -1.278  0.00  0.00    -0.002 A 
ATOM      8  C6  OXE d   1      -0.185  -0.014  -1.564  0.00  0.00     0.003 A 
ENDROOT
TORSDOF 0
ENDMDL
