MODEL 1
REMARK minimizedAffinity -2.16817713
REMARK minimizedRMSD -1
REMARK  0 active torsions:
REMARK  status: ('A' for Active; 'I' for Inactive)
ROOT
ATOM      1  C2' OXE d   1       2.211  -0.693   1.042  0.00  0.00     0.078 C 
ATOM      2  C1' OXE d   1       2.710   1.893   0.070  0.00  0.00     0.078 C 
ATOM      3  C1  OXE d   1       1.376   1.266  -0.250  0.00  0.00    -0.078 A 
ATOM      4  C2  OXE d   1       1.159  -0.018   0.190  0.00  0.00    -0.078 A 
ATOM      5  C3  OXE d   1      -0.076  -0.622  -0.031  0.00  0.00     0.003 A 
ATOM      6  C4  OXE d   1      -1.040   0.006  -0.828  0.00  0.00    -0.002 A 
ATOM      7  C5  OXE d   1      -0.823   1.297  -1.320  0.00  0.00    -0.002 A 
ATOM      8  C6  OXE d   1       0.360   1.957  -1.004  0.00  0.00     0.003 A 
ENDROOT
TORSDOF 0
ENDMDL
