MODEL 1
REMARK minimizedAffinity -3.76125526
REMARK minimizedRMSD -1
REMARK  0 active torsions:
REMARK  status: ('A' for Active; 'I' for Inactive)
ROOT
ATOM      1  C2' OXE d   1       2.255  -1.437   0.741  0.00  0.00     0.078 C 
ATOM      2  C1' OXE d   1       2.520   1.348   0.964  0.00  0.00     0.078 C 
ATOM      3  C1  OXE d   1       1.210   0.805   0.451  0.00  0.00    -0.078 A 
ATOM      4  C2  OXE d   1       1.105  -0.557   0.301  0.00  0.00    -0.078 A 
ATOM      5  C3  OXE d   1      -0.100  -1.114  -0.116  0.00  0.00     0.003 A 
ATOM      6  C4  OXE d   1      -1.155  -0.292  -0.530  0.00  0.00    -0.002 A 
ATOM      7  C5  OXE d   1      -1.055   1.099  -0.423  0.00  0.00    -0.002 A 
ATOM      8  C6  OXE d   1       0.102   1.661   0.104  0.00  0.00     0.003 A 
ENDROOT
TORSDOF 0
ENDMDL
