MODEL 1
REMARK minimizedAffinity 7.68958998
REMARK minimizedRMSD -1
REMARK  0 active torsions:
REMARK  status: ('A' for Active; 'I' for Inactive)
ROOT
ATOM      1  C2' OXE d   1      -1.317   1.335   2.926  0.00  0.00     0.078 C 
ATOM      2  C1' OXE d   1       1.258   1.162   4.030  0.00  0.00     0.078 C 
ATOM      3  C1  OXE d   1       0.797   0.036   3.138  0.00  0.00    -0.078 A 
ATOM      4  C2  OXE d   1      -0.481   0.106   2.640  0.00  0.00    -0.078 A 
ATOM      5  C3  OXE d   1      -0.937  -0.879   1.769  0.00  0.00     0.003 A 
ATOM      6  C4  OXE d   1      -0.161  -2.017   1.518  0.00  0.00    -0.002 A 
ATOM      7  C5  OXE d   1       1.129  -2.128   2.047  0.00  0.00    -0.002 A 
ATOM      8  C6  OXE d   1       1.638  -1.093   2.823  0.00  0.00     0.003 A 
ENDROOT
TORSDOF 0
ENDMDL
