MODEL 1
REMARK minimizedAffinity 0.54097122
REMARK minimizedRMSD -1
REMARK  0 active torsions:
REMARK  status: ('A' for Active; 'I' for Inactive)
ROOT
ATOM      1  C2' OXE d   1      -1.016   0.932   3.604  0.00  0.00     0.078 C 
ATOM      2  C1' OXE d   1      -0.792  -1.287   1.900  0.00  0.00     0.078 C 
ATOM      3  C1  OXE d   1       0.299  -0.247   1.848  0.00  0.00    -0.078 A 
ATOM      4  C2  OXE d   1       0.158   0.859   2.652  0.00  0.00    -0.078 A 
ATOM      5  C3  OXE d   1       1.162   1.822   2.683  0.00  0.00     0.003 A 
ATOM      6  C4  OXE d   1       2.240   1.751   1.791  0.00  0.00    -0.002 A 
ATOM      7  C5  OXE d   1       2.382   0.653   0.936  0.00  0.00    -0.002 A 
ATOM      8  C6  OXE d   1       1.445  -0.373   0.982  0.00  0.00     0.003 A 
ENDROOT
TORSDOF 0
ENDMDL
