MODEL 1
REMARK minimizedAffinity -2.55910301
REMARK minimizedRMSD -1
REMARK  0 active torsions:
REMARK  status: ('A' for Active; 'I' for Inactive)
ROOT
ATOM      1  C2' OXE d   1       0.665   0.696   0.265  0.00  0.00     0.078 C 
ATOM      2  C1' OXE d   1      -0.003   0.471  -2.452  0.00  0.00     0.078 C 
ATOM      3  C1  OXE d   1      -0.889  -0.225  -1.450  0.00  0.00    -0.078 A 
ATOM      4  C2  OXE d   1      -0.529  -0.148  -0.126  0.00  0.00    -0.078 A 
ATOM      5  C3  OXE d   1      -1.342  -0.726   0.845  0.00  0.00     0.003 A 
ATOM      6  C4  OXE d   1      -2.438  -1.514   0.474  0.00  0.00    -0.002 A 
ATOM      7  C5  OXE d   1      -2.800  -1.638  -0.872  0.00  0.00    -0.002 A 
ATOM      8  C6  OXE d   1      -2.063  -0.967  -1.841  0.00  0.00     0.003 A 
ENDROOT
TORSDOF 0
ENDMDL
