MODEL 1
REMARK minimizedAffinity -3.07092118
REMARK minimizedRMSD -1
REMARK  0 active torsions:
REMARK  status: ('A' for Active; 'I' for Inactive)
ROOT
ATOM      1  C2' OXE d   1      -0.048   0.323  -0.241  0.00  0.00     0.078 C 
ATOM      2  C1' OXE d   1       2.358  -0.889   0.550  0.00  0.00     0.078 C 
ATOM      3  C1  OXE d   1       2.245   0.609   0.692  0.00  0.00    -0.078 A 
ATOM      4  C2  OXE d   1       1.081   1.198   0.259  0.00  0.00    -0.078 A 
ATOM      5  C3  OXE d   1       0.903   2.570   0.417  0.00  0.00     0.003 A 
ATOM      6  C4  OXE d   1       1.956   3.373   0.871  0.00  0.00    -0.002 A 
ATOM      7  C5  OXE d   1       3.163   2.798   1.280  0.00  0.00    -0.002 A 
ATOM      8  C6  OXE d   1       3.308   1.415   1.237  0.00  0.00     0.003 A 
ENDROOT
TORSDOF 0
ENDMDL
