MODEL 1
REMARK minimizedAffinity -5.19025612
REMARK minimizedRMSD -1
REMARK  0 active torsions:
REMARK  status: ('A' for Active; 'I' for Inactive)
ROOT
ATOM      1  C2' OXE d   1      -0.622   1.301  -2.576  0.00  0.00     0.078 C 
ATOM      2  C1' OXE d   1      -2.498  -0.390  -1.351  0.00  0.00     0.078 C 
ATOM      3  C1  OXE d   1      -1.163  -0.212  -0.672  0.00  0.00    -0.078 A 
ATOM      4  C2  OXE d   1      -0.234   0.580  -1.303  0.00  0.00    -0.078 A 
ATOM      5  C3  OXE d   1       0.993   0.822  -0.693  0.00  0.00     0.003 A 
ATOM      6  C4  OXE d   1       1.348   0.143   0.479  0.00  0.00    -0.002 A 
ATOM      7  C5  OXE d   1       0.432  -0.700   1.117  0.00  0.00    -0.002 A 
ATOM      8  C6  OXE d   1      -0.841  -0.855   0.578  0.00  0.00     0.003 A 
ENDROOT
TORSDOF 0
ENDMDL
