MODEL 1
REMARK minimizedAffinity -0.783924699
REMARK minimizedRMSD -1
REMARK  0 active torsions:
REMARK  status: ('A' for Active; 'I' for Inactive)
ROOT
ATOM      1  C2' OXE d   1       2.378   3.675   1.326  0.00  0.00     0.078 C 
ATOM      2  C1' OXE d   1       2.595   1.116   0.193  0.00  0.00     0.078 C 
ATOM      3  C1  OXE d   1       3.278   2.259  -0.515  0.00  0.00    -0.078 A 
ATOM      4  C2  OXE d   1       3.127   3.515   0.021  0.00  0.00    -0.078 A 
ATOM      5  C3  OXE d   1       3.781   4.597  -0.563  0.00  0.00     0.003 A 
ATOM      6  C4  OXE d   1       4.463   4.442  -1.775  0.00  0.00    -0.002 A 
ATOM      7  C5  OXE d   1       4.595   3.178  -2.360  0.00  0.00    -0.002 A 
ATOM      8  C6  OXE d   1       4.046   2.071  -1.721  0.00  0.00     0.003 A 
ENDROOT
TORSDOF 0
ENDMDL
