MODEL 1
REMARK minimizedAffinity -3.40528989
REMARK minimizedRMSD -1
REMARK  1 active torsions:
REMARK  status: ('A' for Active; 'I' for Inactive)
REMARK    1  A    between atoms: N_2  and  C1_3 
ROOT
ATOM      1  C1  UNL d   1      -0.022   0.029   0.241  0.00  0.00     0.143 A 
ATOM      2  C2  UNL d   1       0.398   0.037   1.575  0.00  0.00    -0.057 A 
ATOM      3  C3  UNL d   1      -0.002   1.049   2.456  0.00  0.00     0.033 A 
ATOM      4  C4  UNL d   1      -0.808   2.090   2.009  0.00  0.00    -0.042 A 
ATOM      5  C5  UNL d   1      -1.217   2.117   0.681  0.00  0.00     0.033 A 
ATOM      6  C6  UNL d   1      -0.820   1.100  -0.193  0.00  0.00    -0.057 A 
ENDROOT
BRANCH   1   7
ATOM      7  N   UNL d   1       0.422  -0.894  -0.709  0.00  0.00    -0.732 N 
ATOM      8  C   UNL d   1      -0.337  -2.098  -0.977  0.00  0.00     0.284 C 
ATOM      9  H3  UNL d   1       0.797  -0.446  -1.541  0.00  0.00     0.395 HD
ENDBRANCH   1   7
TORSDOF 1
ENDMDL
