MODEL 1
REMARK minimizedAffinity -4.58688259
REMARK minimizedRMSD -1
REMARK  1 active torsions:
REMARK  status: ('A' for Active; 'I' for Inactive)
REMARK    1  A    between atoms: N_2  and  C1_3 
ROOT
ATOM      1  C1  UNL d   1      -0.001  -1.299  -0.589  0.00  0.00     0.143 A 
ATOM      2  C2  UNL d   1       1.211  -1.988  -0.702  0.00  0.00    -0.057 A 
ATOM      3  C3  UNL d   1       1.244  -3.365  -0.954  0.00  0.00     0.033 A 
ATOM      4  C4  UNL d   1       0.059  -4.085  -1.070  0.00  0.00    -0.042 A 
ATOM      5  C5  UNL d   1      -1.157  -3.425  -0.937  0.00  0.00     0.033 A 
ATOM      6  C6  UNL d   1      -1.183  -2.049  -0.691  0.00  0.00    -0.057 A 
ENDROOT
BRANCH   1   7
ATOM      7  N   UNL d   1      -0.100   0.050  -0.241  0.00  0.00    -0.732 N 
ATOM      8  C   UNL d   1      -0.127   0.453   1.148  0.00  0.00     0.284 C 
ATOM      9  H3  UNL d   1       0.470   0.648  -0.836  0.00  0.00     0.395 HD
ENDBRANCH   1   7
TORSDOF 1
ENDMDL
