MODEL 1
REMARK minimizedAffinity 6.48976374
REMARK minimizedRMSD -1
REMARK  1 active torsions:
REMARK  status: ('A' for Active; 'I' for Inactive)
REMARK    1  A    between atoms: N_2  and  C1_3 
ROOT
ATOM      1  C1  UNL d   1       0.405   3.230   2.105  0.00  0.00     0.143 A 
ATOM      2  C2  UNL d   1      -0.973   3.463   2.181  0.00  0.00    -0.057 A 
ATOM      3  C3  UNL d   1      -1.896   2.508   1.738  0.00  0.00     0.033 A 
ATOM      4  C4  UNL d   1      -1.456   1.311   1.182  0.00  0.00    -0.042 A 
ATOM      5  C5  UNL d   1      -0.091   1.069   1.074  0.00  0.00     0.033 A 
ATOM      6  C6  UNL d   1       0.826   2.023   1.525  0.00  0.00    -0.057 A 
ENDROOT
BRANCH   1   7
ATOM      7  N   UNL d   1       1.374   4.180   2.438  0.00  0.00    -0.732 N 
ATOM      8  C   UNL d   1       1.805   5.164   1.468  0.00  0.00     0.284 C 
ATOM      9  H3  UNL d   1       1.249   4.549   3.377  0.00  0.00     0.395 HD
ENDBRANCH   1   7
TORSDOF 1
ENDMDL
