MODEL 1
REMARK minimizedAffinity 3.56211805
REMARK minimizedRMSD -1
REMARK  1 active torsions:
REMARK  status: ('A' for Active; 'I' for Inactive)
REMARK    1  A    between atoms: N_2  and  C1_3 
ROOT
ATOM      1  C1  UNL d   1      -0.317   1.812   2.262  0.00  0.00     0.143 A 
ATOM      2  C2  UNL d   1      -1.375   2.728   2.294  0.00  0.00    -0.057 A 
ATOM      3  C3  UNL d   1      -1.866   3.311   1.120  0.00  0.00     0.033 A 
ATOM      4  C4  UNL d   1      -1.286   3.011  -0.108  0.00  0.00    -0.042 A 
ATOM      5  C5  UNL d   1      -0.218   2.123  -0.161  0.00  0.00     0.033 A 
ATOM      6  C6  UNL d   1       0.264   1.538   1.014  0.00  0.00    -0.057 A 
ENDROOT
BRANCH   1   7
ATOM      7  N   UNL d   1       0.280   1.274   3.404  0.00  0.00    -0.732 N 
ATOM      8  C   UNL d   1       0.690  -0.114   3.437  0.00  0.00     0.284 C 
ATOM      9  H3  UNL d   1       0.944   1.914   3.834  0.00  0.00     0.395 HD
ENDBRANCH   1   7
TORSDOF 1
ENDMDL
