MODEL 1
REMARK minimizedAffinity 0.832470417
REMARK minimizedRMSD -1
REMARK  1 active torsions:
REMARK  status: ('A' for Active; 'I' for Inactive)
REMARK    1  A    between atoms: N_2  and  C1_3 
ROOT
ATOM      1  C1  UNL d   1       0.065  -1.712  -2.412  0.00  0.00     0.143 A 
ATOM      2  C2  UNL d   1      -0.159  -2.618  -1.369  0.00  0.00    -0.057 A 
ATOM      3  C3  UNL d   1      -0.929  -3.772  -1.561  0.00  0.00     0.033 A 
ATOM      4  C4  UNL d   1      -1.514  -4.026  -2.797  0.00  0.00    -0.042 A 
ATOM      5  C5  UNL d   1      -1.326  -3.127  -3.841  0.00  0.00     0.033 A 
ATOM      6  C6  UNL d   1      -0.551  -1.980  -3.644  0.00  0.00    -0.057 A 
ENDROOT
BRANCH   1   7
ATOM      7  N   UNL d   1       0.738  -0.498  -2.257  0.00  0.00    -0.732 N 
ATOM      8  C   UNL d   1       0.009   0.717  -1.964  0.00  0.00     0.284 C 
ATOM      9  H3  UNL d   1       1.605  -0.599  -1.734  0.00  0.00     0.395 HD
ENDBRANCH   1   7
TORSDOF 1
ENDMDL
