MODEL 1
REMARK minimizedAffinity -4.04663658
REMARK minimizedRMSD -1
REMARK  2 active torsions:
REMARK  status: ('A' for Active; 'I' for Inactive)
REMARK    1  A    between atoms: C2'_3  and  C1'_4 
REMARK    2  A    between atoms: C1'_4  and  C1_5 
ROOT
ATOM      1  C1  I4B d   1      -2.096   0.510   1.213  0.00  0.00    -0.075 A 
ATOM      2  C2  I4B d   1      -3.288  -0.101   0.914  0.00  0.00     0.003 A 
ATOM      3  C3  I4B d   1      -4.506   0.608   1.052  0.00  0.00     0.002 A 
ATOM      4  C4  I4B d   1      -4.490   1.900   1.536  0.00  0.00    -0.004 A 
ATOM      5  C5  I4B d   1      -3.279   2.526   1.816  0.00  0.00     0.002 A 
ATOM      6  C6  I4B d   1      -2.073   1.831   1.643  0.00  0.00     0.003 A 
ENDROOT
BRANCH   1   7
ATOM      7  C1' I4B d   1      -0.831  -0.278   1.088  0.00  0.00     0.060 C 
BRANCH   7   8
ATOM      8  C2' I4B d   1      -0.202   0.057  -0.249  0.00  0.00    -0.013 C 
ATOM      9  C4' I4B d   1       1.040   0.891  -0.073  0.00  0.00     0.013 C 
ATOM     10  C3' I4B d   1       0.106  -1.231  -0.952  0.00  0.00     0.013 C 
ENDBRANCH   7   8
ENDBRANCH   1   7
TORSDOF 2
ENDMDL
