MODEL 1
REMARK minimizedAffinity -3.56486249
REMARK minimizedRMSD -1
REMARK  2 active torsions:
REMARK  status: ('A' for Active; 'I' for Inactive)
REMARK    1  A    between atoms: C2'_3  and  C1'_4 
REMARK    2  A    between atoms: C1'_4  and  C1_5 
ROOT
ATOM      1  C1  I4B d   1       0.049   0.157  -0.252  0.00  0.00    -0.075 A 
ATOM      2  C2  I4B d   1      -0.240  -1.183  -0.179  0.00  0.00     0.003 A 
ATOM      3  C3  I4B d   1       0.807  -2.136  -0.129  0.00  0.00     0.002 A 
ATOM      4  C4  I4B d   1       2.117  -1.711  -0.204  0.00  0.00    -0.004 A 
ATOM      5  C5  I4B d   1       2.408  -0.351  -0.255  0.00  0.00     0.002 A 
ATOM      6  C6  I4B d   1       1.369   0.590  -0.266  0.00  0.00     0.003 A 
ENDROOT
BRANCH   1   7
ATOM      7  C1' I4B d   1      -1.080   1.134  -0.336  0.00  0.00     0.060 C 
BRANCH   7   8
ATOM      8  C2' I4B d   1      -2.303   0.490   0.285  0.00  0.00    -0.013 C 
ATOM      9  C4' I4B d   1      -2.709   1.199   1.550  0.00  0.00     0.013 C 
ATOM     10  C3' I4B d   1      -3.407   0.517  -0.729  0.00  0.00     0.013 C 
ENDBRANCH   7   8
ENDBRANCH   1   7
TORSDOF 2
ENDMDL
