MODEL 1
REMARK minimizedAffinity -2.29724669
REMARK minimizedRMSD -1
REMARK  2 active torsions:
REMARK  status: ('A' for Active; 'I' for Inactive)
REMARK    1  A    between atoms: C2'_3  and  C1'_4 
REMARK    2  A    between atoms: C1'_4  and  C1_5 
ROOT
ATOM      1  C1  I4B d   1      -1.386   0.530   0.280  0.00  0.00    -0.075 A 
ATOM      2  C2  I4B d   1      -1.699   0.815   1.585  0.00  0.00     0.003 A 
ATOM      3  C3  I4B d   1      -3.042   1.064   1.958  0.00  0.00     0.002 A 
ATOM      4  C4  I4B d   1      -4.026   1.068   0.990  0.00  0.00    -0.004 A 
ATOM      5  C5  I4B d   1      -3.710   0.757  -0.329  0.00  0.00     0.002 A 
ATOM      6  C6  I4B d   1      -2.383   0.474  -0.685  0.00  0.00     0.003 A 
ENDROOT
BRANCH   1   7
ATOM      7  C1' I4B d   1       0.047   0.304  -0.085  0.00  0.00     0.060 C 
BRANCH   7   8
ATOM      8  C2' I4B d   1       0.177  -1.109  -0.616  0.00  0.00    -0.013 C 
ATOM      9  C4' I4B d   1       1.597  -1.414  -1.014  0.00  0.00     0.013 C 
ATOM     10  C3' I4B d   1      -0.301  -2.050   0.450  0.00  0.00     0.013 C 
ENDBRANCH   7   8
ENDBRANCH   1   7
TORSDOF 2
ENDMDL
