MODEL 1
REMARK minimizedAffinity -3.31144118
REMARK minimizedRMSD -1
REMARK  2 active torsions:
REMARK  status: ('A' for Active; 'I' for Inactive)
REMARK    1  A    between atoms: C2'_3  and  C1'_4 
REMARK    2  A    between atoms: C1'_4  and  C1_5 
ROOT
ATOM      1  C1  I4B d   1      -0.610   0.080   0.071  0.00  0.00    -0.075 A 
ATOM      2  C2  I4B d   1      -0.216  -0.796  -0.910  0.00  0.00     0.003 A 
ATOM      3  C3  I4B d   1       0.754  -1.790  -0.630  0.00  0.00     0.002 A 
ATOM      4  C4  I4B d   1       1.336  -1.839   0.620  0.00  0.00    -0.004 A 
ATOM      5  C5  I4B d   1       0.918  -0.964   1.619  0.00  0.00     0.002 A 
ATOM      6  C6  I4B d   1      -0.069  -0.007   1.347  0.00  0.00     0.003 A 
ENDROOT
BRANCH   1   7
ATOM      7  C1' I4B d   1      -1.612   1.138  -0.269  0.00  0.00     0.060 C 
BRANCH   7   8
ATOM      8  C2' I4B d   1      -2.891   0.826   0.481  0.00  0.00    -0.013 C 
ATOM      9  C4' I4B d   1      -3.172   1.865   1.535  0.00  0.00     0.013 C 
ATOM     10  C3' I4B d   1      -4.007   0.753  -0.518  0.00  0.00     0.013 C 
ENDBRANCH   7   8
ENDBRANCH   1   7
TORSDOF 2
ENDMDL
