MODEL 1
REMARK minimizedAffinity 1.85287702
REMARK minimizedRMSD -1
REMARK  2 active torsions:
REMARK  status: ('A' for Active; 'I' for Inactive)
REMARK    1  A    between atoms: C2'_3  and  C1'_4 
REMARK    2  A    between atoms: C1'_4  and  C1_5 
ROOT
ATOM      1  C1  I4B d   1       0.557  -0.120  -0.925  0.00  0.00    -0.075 A 
ATOM      2  C2  I4B d   1       1.867  -0.436  -1.187  0.00  0.00     0.003 A 
ATOM      3  C3  I4B d   1       2.305  -1.780  -1.113  0.00  0.00     0.002 A 
ATOM      4  C4  I4B d   1       1.417  -2.764  -0.727  0.00  0.00    -0.004 A 
ATOM      5  C5  I4B d   1       0.084  -2.445  -0.484  0.00  0.00     0.002 A 
ATOM      6  C6  I4B d   1      -0.352  -1.116  -0.596  0.00  0.00     0.003 A 
ENDROOT
BRANCH   1   7
ATOM      7  C1' I4B d   1       0.137   1.315  -0.981  0.00  0.00     0.060 C 
BRANCH   7   8
ATOM      8  C2' I4B d   1       0.943   2.077   0.052  0.00  0.00    -0.013 C 
ATOM      9  C4' I4B d   1       0.591   3.542   0.045  0.00  0.00     0.013 C 
ATOM     10  C3' I4B d   1       0.676   1.463   1.393  0.00  0.00     0.013 C 
ENDBRANCH   7   8
ENDBRANCH   1   7
TORSDOF 2
ENDMDL
