MODEL 1
REMARK minimizedAffinity -2.70389628
REMARK minimizedRMSD -1
REMARK  1 active torsions:
REMARK  status: ('A' for Active; 'I' for Inactive)
REMARK    1  A    between atoms: C3_4  and  O_7 
ROOT
ATOM      1  C   UNL d   1      -2.365   2.203   0.365  0.00  0.00    -0.033 A 
ATOM      2  C1  UNL d   1      -2.126   1.232  -0.610  0.00  0.00     0.039 A 
ATOM      3  C2  UNL d   1      -2.816   0.019  -0.572  0.00  0.00    -0.080 A 
ATOM      4  C3  UNL d   1      -3.742  -0.210   0.442  0.00  0.00     0.150 A 
ATOM      5  C4  UNL d   1      -3.988   0.755   1.414  0.00  0.00    -0.007 A 
ATOM      6  C5  UNL d   1      -3.297   1.965   1.375  0.00  0.00     0.039 A 
ENDROOT
BRANCH   4   7
ATOM      7  O   UNL d   1      -4.436  -1.380   0.523  0.00  0.00    -0.526 OA
ATOM      8  H5  UNL d   1      -4.142  -1.963  -0.197  0.00  0.00     0.418 HD
ENDBRANCH   4   7
TORSDOF 1
ENDMDL
