MODEL 1
REMARK minimizedAffinity -3.38209057
REMARK minimizedRMSD -1
REMARK  1 active torsions:
REMARK  status: ('A' for Active; 'I' for Inactive)
REMARK    1  A    between atoms: C3_4  and  O_7 
ROOT
ATOM      1  C   UNL d   1       0.830  -1.569  -0.271  0.00  0.00    -0.033 A 
ATOM      2  C1  UNL d   1       0.199  -0.328  -0.177  0.00  0.00     0.039 A 
ATOM      3  C2  UNL d   1       0.959   0.843  -0.134  0.00  0.00    -0.080 A 
ATOM      4  C3  UNL d   1       2.347   0.758  -0.187  0.00  0.00     0.150 A 
ATOM      5  C4  UNL d   1       2.983  -0.475  -0.284  0.00  0.00    -0.007 A 
ATOM      6  C5  UNL d   1       2.222  -1.643  -0.326  0.00  0.00     0.039 A 
ENDROOT
BRANCH   4   7
ATOM      7  O   UNL d   1       3.131   1.872  -0.143  0.00  0.00    -0.526 OA
ATOM      8  H5  UNL d   1       2.556   2.650  -0.047  0.00  0.00     0.418 HD
ENDBRANCH   4   7
TORSDOF 1
ENDMDL
