MODEL 1
REMARK minimizedAffinity -4.72160292
REMARK minimizedRMSD -1
REMARK  1 active torsions:
REMARK  status: ('A' for Active; 'I' for Inactive)
REMARK    1  A    between atoms: C3_4  and  O_7 
ROOT
ATOM      1  C   UNL d   1       1.644  -1.707   0.745  0.00  0.00    -0.033 A 
ATOM      2  C1  UNL d   1       0.648  -0.931   0.149  0.00  0.00     0.039 A 
ATOM      3  C2  UNL d   1       0.942   0.355  -0.309  0.00  0.00    -0.080 A 
ATOM      4  C3  UNL d   1       2.235   0.852  -0.166  0.00  0.00     0.150 A 
ATOM      5  C4  UNL d   1       3.233   0.083   0.424  0.00  0.00    -0.007 A 
ATOM      6  C5  UNL d   1       2.937  -1.200   0.881  0.00  0.00     0.039 A 
ENDROOT
BRANCH   4   7
ATOM      7  O   UNL d   1       2.568   2.103  -0.593  0.00  0.00    -0.526 OA
ATOM      8  H5  UNL d   1       1.772   2.528  -0.952  0.00  0.00     0.418 HD
ENDBRANCH   4   7
TORSDOF 1
ENDMDL
