MODEL 1
REMARK minimizedAffinity -4.39295387
REMARK minimizedRMSD -1
REMARK  1 active torsions:
REMARK  status: ('A' for Active; 'I' for Inactive)
REMARK    1  A    between atoms: C3_4  and  O_7 
ROOT
ATOM      1  C   UNL d   1       0.075   0.072  -0.192  0.00  0.00    -0.033 A 
ATOM      2  C1  UNL d   1       0.451  -1.125  -0.803  0.00  0.00     0.039 A 
ATOM      3  C2  UNL d   1       1.610  -1.787  -0.392  0.00  0.00    -0.080 A 
ATOM      4  C3  UNL d   1       2.382  -1.242   0.630  0.00  0.00     0.150 A 
ATOM      5  C4  UNL d   1       2.011  -0.051   1.245  0.00  0.00    -0.007 A 
ATOM      6  C5  UNL d   1       0.854   0.609   0.833  0.00  0.00     0.039 A 
ENDROOT
BRANCH   4   7
ATOM      7  O   UNL d   1       3.523  -1.848   1.062  0.00  0.00    -0.526 OA
ATOM      8  H5  UNL d   1       3.670  -2.646   0.526  0.00  0.00     0.418 HD
ENDBRANCH   4   7
TORSDOF 1
ENDMDL
