MODEL 1
REMARK minimizedAffinity -4.31099749
REMARK minimizedRMSD -1
REMARK  1 active torsions:
REMARK  status: ('A' for Active; 'I' for Inactive)
REMARK    1  A    between atoms: C3_4  and  O_7 
ROOT
ATOM      1  C   UNL d   1       2.674  -1.426   0.891  0.00  0.00    -0.033 A 
ATOM      2  C1  UNL d   1       2.029  -0.510   1.724  0.00  0.00     0.039 A 
ATOM      3  C2  UNL d   1       0.888   0.160   1.277  0.00  0.00    -0.080 A 
ATOM      4  C3  UNL d   1       0.404  -0.095  -0.003  0.00  0.00     0.150 A 
ATOM      5  C4  UNL d   1       1.040  -1.009  -0.837  0.00  0.00    -0.007 A 
ATOM      6  C5  UNL d   1       2.179  -1.676  -0.389  0.00  0.00     0.039 A 
ENDROOT
BRANCH   4   7
ATOM      7  O   UNL d   1      -0.703   0.538  -0.485  0.00  0.00    -0.526 OA
ATOM      8  H5  UNL d   1      -1.020   1.161   0.190  0.00  0.00     0.418 HD
ENDBRANCH   4   7
TORSDOF 1
ENDMDL
