MODEL 1
REMARK minimizedAffinity -4.9107213
REMARK minimizedRMSD -1
REMARK  1 active torsions:
REMARK  status: ('A' for Active; 'I' for Inactive)
REMARK    1  A    between atoms: C3_4  and  O_7 
ROOT
ATOM      1  C   UNL d   1      -0.077  -0.081  -1.129  0.00  0.00    -0.033 A 
ATOM      2  C1  UNL d   1       0.657   0.680  -0.217  0.00  0.00     0.039 A 
ATOM      3  C2  UNL d   1       1.682   0.089   0.524  0.00  0.00    -0.080 A 
ATOM      4  C3  UNL d   1       1.963  -1.263   0.344  0.00  0.00     0.150 A 
ATOM      5  C4  UNL d   1       1.239  -2.026  -0.566  0.00  0.00    -0.007 A 
ATOM      6  C5  UNL d   1       0.215  -1.434  -1.304  0.00  0.00     0.039 A 
ENDROOT
BRANCH   4   7
ATOM      7  O   UNL d   1       2.951  -1.885   1.048  0.00  0.00    -0.526 OA
ATOM      8  H5  UNL d   1       3.347  -1.241   1.658  0.00  0.00     0.418 HD
ENDBRANCH   4   7
TORSDOF 1
ENDMDL
