MODEL 1
REMARK minimizedAffinity 2.58030891
REMARK minimizedRMSD -1
REMARK  0 active torsions:
REMARK  status: ('A' for Active; 'I' for Inactive)
ROOT
ATOM      1  O1  BZF d   1       4.940  -2.018   2.767  0.00  0.00    -0.204 OA
ATOM      2  C2  BZF d   1       5.098  -0.739   3.265  0.00  0.00     0.174 A 
ATOM      3  C3  BZF d   1       5.464  -0.773   4.562  0.00  0.00    -0.012 A 
ATOM      4  C3A BZF d   1       5.629  -2.160   4.871  0.00  0.00    -0.107 A 
ATOM      5  C4  BZF d   1       6.000  -2.833   6.000  0.00  0.00     0.055 A 
ATOM      6  C5  BZF d   1       5.992  -4.192   5.991  0.00  0.00    -0.016 A 
ATOM      7  C6  BZF d   1       5.615  -4.909   4.874  0.00  0.00     0.022 A 
ATOM      8  C7  BZF d   1       5.244  -4.286   3.729  0.00  0.00     0.029 A 
ATOM      9  C7A BZF d   1       5.283  -2.913   3.725  0.00  0.00     0.058 A 
ENDROOT
TORSDOF 0
ENDMDL
