MODEL 1
REMARK minimizedAffinity 1.44685638
REMARK minimizedRMSD -1
REMARK  0 active torsions:
REMARK  status: ('A' for Active; 'I' for Inactive)
ROOT
ATOM      1  O1  BZF d   1      -2.409  -2.394  -5.163  0.00  0.00    -0.204 OA
ATOM      2  C2  BZF d   1      -1.554  -3.362  -5.653  0.00  0.00     0.174 A 
ATOM      3  C3  BZF d   1      -2.236  -4.472  -6.000  0.00  0.00    -0.012 A 
ATOM      4  C3A BZF d   1      -3.614  -4.146  -5.796  0.00  0.00    -0.107 A 
ATOM      5  C4  BZF d   1      -4.779  -4.835  -5.979  0.00  0.00     0.055 A 
ATOM      6  C5  BZF d   1      -5.953  -4.256  -5.614  0.00  0.00    -0.016 A 
ATOM      7  C6  BZF d   1      -5.999  -2.994  -5.059  0.00  0.00     0.022 A 
ATOM      8  C7  BZF d   1      -4.870  -2.270  -4.863  0.00  0.00     0.029 A 
ATOM      9  C7A BZF d   1      -3.685  -2.839  -5.261  0.00  0.00     0.058 A 
ENDROOT
TORSDOF 0
ENDMDL
