MODEL 1
REMARK minimizedAffinity 15.1076584
REMARK minimizedRMSD -1
REMARK  0 active torsions:
REMARK  status: ('A' for Active; 'I' for Inactive)
ROOT
ATOM      1  O1  BZF d   1       2.276   4.168  -1.405  0.00  0.00    -0.204 OA
ATOM      2  C2  BZF d   1       2.401   2.853  -1.001  0.00  0.00     0.174 A 
ATOM      3  C3  BZF d   1       3.216   2.172  -1.833  0.00  0.00    -0.012 A 
ATOM      4  C3A BZF d   1       3.699   3.144  -2.766  0.00  0.00    -0.107 A 
ATOM      5  C4  BZF d   1       4.557   3.083  -3.826  0.00  0.00     0.055 A 
ATOM      6  C5  BZF d   1       4.760   4.197  -4.577  0.00  0.00    -0.016 A 
ATOM      7  C6  BZF d   1       4.119   5.387  -4.298  0.00  0.00     0.022 A 
ATOM      8  C7  BZF d   1       3.263   5.498  -3.253  0.00  0.00     0.029 A 
ATOM      9  C7A BZF d   1       3.081   4.382  -2.473  0.00  0.00     0.058 A 
ENDROOT
TORSDOF 0
ENDMDL
