MODEL 1
REMARK minimizedAffinity -1.44930017
REMARK minimizedRMSD -1
REMARK  0 active torsions:
REMARK  status: ('A' for Active; 'I' for Inactive)
ROOT
ATOM      1  O1  BZF d   1       3.705   1.162   1.283  0.00  0.00    -0.204 OA
ATOM      2  C2  BZF d   1       4.677   0.283   1.720  0.00  0.00     0.174 A 
ATOM      3  C3  BZF d   1       4.161  -0.606   2.593  0.00  0.00    -0.012 A 
ATOM      4  C3A BZF d   1       2.760  -0.318   2.638  0.00  0.00    -0.107 A 
ATOM      5  C4  BZF d   1       1.710  -0.871   3.314  0.00  0.00     0.055 A 
ATOM      6  C5  BZF d   1       0.478  -0.310   3.194  0.00  0.00    -0.016 A 
ATOM      7  C6  BZF d   1       0.262   0.807   2.412  0.00  0.00     0.022 A 
ATOM      8  C7  BZF d   1       1.272   1.387   1.720  0.00  0.00     0.029 A 
ATOM      9  C7A BZF d   1       2.511   0.802   1.813  0.00  0.00     0.058 A 
ENDROOT
TORSDOF 0
ENDMDL
