MODEL 1
REMARK minimizedAffinity 0.571645141
REMARK minimizedRMSD -1
REMARK  0 active torsions:
REMARK  status: ('A' for Active; 'I' for Inactive)
ROOT
ATOM      1  O1  BZF d   1      -5.925  -4.633   1.389  0.00  0.00    -0.204 OA
ATOM      2  C2  BZF d   1      -5.919  -5.696   0.506  0.00  0.00     0.174 A 
ATOM      3  C3  BZF d   1      -5.989  -5.260  -0.768  0.00  0.00    -0.012 A 
ATOM      4  C3A BZF d   1      -5.949  -3.832  -0.680  0.00  0.00    -0.107 A 
ATOM      5  C4  BZF d   1      -5.969  -2.833  -1.611  0.00  0.00     0.055 A 
ATOM      6  C5  BZF d   1      -5.991  -1.540  -1.192  0.00  0.00    -0.016 A 
ATOM      7  C6  BZF d   1      -6.000  -1.211   0.148  0.00  0.00     0.022 A 
ATOM      8  C7  BZF d   1      -5.976  -2.168   1.108  0.00  0.00     0.029 A 
ATOM      9  C7A BZF d   1      -5.920  -3.474   0.688  0.00  0.00     0.058 A 
ENDROOT
TORSDOF 0
ENDMDL
