MODEL 1
REMARK minimizedAffinity 13.8222809
REMARK minimizedRMSD -1
REMARK  0 active torsions:
REMARK  status: ('A' for Active; 'I' for Inactive)
ROOT
ATOM      1  O1  BZF d   1      -5.117  -2.648  -0.637  0.00  0.00    -0.204 OA
ATOM      2  C2  BZF d   1      -5.177  -1.695   0.362  0.00  0.00     0.174 A 
ATOM      3  C3  BZF d   1      -4.775  -2.212   1.541  0.00  0.00    -0.012 A 
ATOM      4  C3A BZF d   1      -4.355  -3.547   1.243  0.00  0.00    -0.107 A 
ATOM      5  C4  BZF d   1      -3.839  -4.560   2.000  0.00  0.00     0.055 A 
ATOM      6  C5  BZF d   1      -3.604  -5.766   1.419  0.00  0.00    -0.016 A 
ATOM      7  C6  BZF d   1      -3.878  -5.994   0.086  0.00  0.00     0.022 A 
ATOM      8  C7  BZF d   1      -4.386  -5.019  -0.706  0.00  0.00     0.029 A 
ATOM      9  C7A BZF d   1      -4.593  -3.790  -0.129  0.00  0.00     0.058 A 
ENDROOT
TORSDOF 0
ENDMDL
