MODEL 1
REMARK minimizedAffinity 2.85788226
REMARK minimizedRMSD -1
REMARK  0 active torsions:
REMARK  status: ('A' for Active; 'I' for Inactive)
ROOT
ATOM      1  O1  BZF d   1       2.944   5.505  -4.378  0.00  0.00    -0.204 OA
ATOM      2  C2  BZF d   1       1.611   5.247  -4.631  0.00  0.00     0.174 A 
ATOM      3  C3  BZF d   1       1.469   4.097  -5.322  0.00  0.00    -0.012 A 
ATOM      4  C3A BZF d   1       2.790   3.560  -5.434  0.00  0.00    -0.107 A 
ATOM      5  C4  BZF d   1       3.297   2.425  -6.000  0.00  0.00     0.055 A 
ATOM      6  C5  BZF d   1       4.643   2.232  -6.000  0.00  0.00    -0.016 A 
ATOM      7  C6  BZF d   1       5.509   3.153  -5.448  0.00  0.00     0.022 A 
ATOM      8  C7  BZF d   1       5.052   4.291  -4.870  0.00  0.00     0.029 A 
ATOM      9  C7A BZF d   1       3.691   4.473  -4.840  0.00  0.00     0.058 A 
ENDROOT
TORSDOF 0
ENDMDL
