MODEL 1
REMARK minimizedAffinity 15.0251083
REMARK minimizedRMSD -1
REMARK  0 active torsions:
REMARK  status: ('A' for Active; 'I' for Inactive)
ROOT
ATOM      1  O1  BZF d   1      -0.019   2.032  -2.412  0.00  0.00    -0.204 OA
ATOM      2  C2  BZF d   1       0.995   2.094  -1.476  0.00  0.00     0.174 A 
ATOM      3  C3  BZF d   1       1.891   1.107  -1.676  0.00  0.00    -0.012 A 
ATOM      4  C3A BZF d   1       1.456   0.438  -2.863  0.00  0.00    -0.107 A 
ATOM      5  C4  BZF d   1       1.944  -0.618  -3.579  0.00  0.00     0.055 A 
ATOM      6  C5  BZF d   1       1.242  -1.071  -4.650  0.00  0.00    -0.016 A 
ATOM      7  C6  BZF d   1       0.048  -0.495  -5.031  0.00  0.00     0.022 A 
ATOM      8  C7  BZF d   1      -0.474   0.558  -4.356  0.00  0.00     0.029 A 
ATOM      9  C7A BZF d   1       0.250   1.038  -3.292  0.00  0.00     0.058 A 
ENDROOT
TORSDOF 0
ENDMDL
