MODEL 1
REMARK minimizedAffinity 5.69975138
REMARK minimizedRMSD -1
REMARK  0 active torsions:
REMARK  status: ('A' for Active; 'I' for Inactive)
ROOT
ATOM      1  O1  BZF d   1      -5.967  -4.221  -0.951  0.00  0.00    -0.204 OA
ATOM      2  C2  BZF d   1      -5.954  -5.359  -1.733  0.00  0.00     0.174 A 
ATOM      3  C3  BZF d   1      -6.000  -5.041  -3.043  0.00  0.00    -0.012 A 
ATOM      4  C3A BZF d   1      -5.951  -3.612  -3.085  0.00  0.00    -0.107 A 
ATOM      5  C4  BZF d   1      -5.949  -2.701  -4.103  0.00  0.00     0.055 A 
ATOM      6  C5  BZF d   1      -5.969  -1.376  -3.804  0.00  0.00    -0.016 A 
ATOM      7  C6  BZF d   1      -5.997  -0.926  -2.500  0.00  0.00     0.022 A 
ATOM      8  C7  BZF d   1      -5.995  -1.791  -1.456  0.00  0.00     0.029 A 
ATOM      9  C7A BZF d   1      -5.942  -3.130  -1.755  0.00  0.00     0.058 A 
ENDROOT
TORSDOF 0
ENDMDL
