MODEL 1
REMARK minimizedAffinity 14.3572636
REMARK minimizedRMSD -1
REMARK  0 active torsions:
REMARK  status: ('A' for Active; 'I' for Inactive)
ROOT
ATOM      1  O1  BZF d   1       0.750  -1.982  -2.716  0.00  0.00    -0.204 OA
ATOM      2  C2  BZF d   1       1.242  -0.732  -2.397  0.00  0.00     0.174 A 
ATOM      3  C3  BZF d   1       0.821   0.190  -3.287  0.00  0.00    -0.012 A 
ATOM      4  C3A BZF d   1      -0.059  -0.513  -4.168  0.00  0.00    -0.107 A 
ATOM      5  C4  BZF d   1      -0.803  -0.136  -5.250  0.00  0.00     0.055 A 
ATOM      6  C5  BZF d   1      -1.499  -1.081  -5.935  0.00  0.00    -0.016 A 
ATOM      7  C6  BZF d   1      -1.469  -2.411  -5.570  0.00  0.00     0.022 A 
ATOM      8  C7  BZF d   1      -0.750  -2.833  -4.501  0.00  0.00     0.029 A 
ATOM      9  C7A BZF d   1      -0.072  -1.875  -3.787  0.00  0.00     0.058 A 
ENDROOT
TORSDOF 0
ENDMDL
