MODEL 1
REMARK minimizedAffinity 15.6025858
REMARK minimizedRMSD -1
REMARK  0 active torsions:
REMARK  status: ('A' for Active; 'I' for Inactive)
ROOT
ATOM      1  O1  BZF d   1      -4.152  -5.998  -0.981  0.00  0.00    -0.204 OA
ATOM      2  C2  BZF d   1      -3.726  -5.135   0.010  0.00  0.00     0.174 A 
ATOM      3  C3  BZF d   1      -4.046  -3.861  -0.296  0.00  0.00    -0.012 A 
ATOM      4  C3A BZF d   1      -4.795  -3.942  -1.512  0.00  0.00    -0.107 A 
ATOM      5  C4  BZF d   1      -5.402  -3.011  -2.305  0.00  0.00     0.055 A 
ATOM      6  C5  BZF d   1      -5.989  -3.412  -3.463  0.00  0.00    -0.016 A 
ATOM      7  C6  BZF d   1      -5.984  -4.732  -3.861  0.00  0.00     0.022 A 
ATOM      8  C7  BZF d   1      -5.399  -5.693  -3.105  0.00  0.00     0.029 A 
ATOM      9  C7A BZF d   1      -4.833  -5.296  -1.918  0.00  0.00     0.058 A 
ENDROOT
TORSDOF 0
ENDMDL
