MODEL 1
REMARK minimizedAffinity 7.20390797
REMARK minimizedRMSD -1
REMARK  0 active torsions:
REMARK  status: ('A' for Active; 'I' for Inactive)
ROOT
ATOM      1  O1  BZF d   1       1.782   0.673  -3.882  0.00  0.00    -0.204 OA
ATOM      2  C2  BZF d   1       1.150  -0.555  -3.896  0.00  0.00     0.174 A 
ATOM      3  C3  BZF d   1       0.654  -0.853  -2.678  0.00  0.00    -0.012 A 
ATOM      4  C3A BZF d   1       0.917   0.300  -1.873  0.00  0.00    -0.107 A 
ATOM      5  C4  BZF d   1       0.649   0.618  -0.572  0.00  0.00     0.055 A 
ATOM      6  C5  BZF d   1       1.105   1.797  -0.073  0.00  0.00    -0.016 A 
ATOM      7  C6  BZF d   1       1.835   2.678  -0.843  0.00  0.00     0.022 A 
ATOM      8  C7  BZF d   1       2.122   2.409  -2.140  0.00  0.00     0.029 A 
ATOM      9  C7A BZF d   1       1.634   1.233  -2.657  0.00  0.00     0.058 A 
ENDROOT
TORSDOF 0
ENDMDL
