MODEL 1
REMARK minimizedAffinity 8.320014
REMARK minimizedRMSD -1
REMARK  0 active torsions:
REMARK  status: ('A' for Active; 'I' for Inactive)
ROOT
ATOM      1  O1  BZF d   1      -5.948  -5.061  -3.618  0.00  0.00    -0.204 OA
ATOM      2  C2  BZF d   1      -6.000  -5.657  -2.373  0.00  0.00     0.174 A 
ATOM      3  C3  BZF d   1      -5.974  -4.727  -1.397  0.00  0.00    -0.012 A 
ATOM      4  C3A BZF d   1      -5.995  -3.468  -2.075  0.00  0.00    -0.107 A 
ATOM      5  C4  BZF d   1      -6.000  -2.171  -1.648  0.00  0.00     0.055 A 
ATOM      6  C5  BZF d   1      -5.947  -1.172  -2.568  0.00  0.00    -0.016 A 
ATOM      7  C6  BZF d   1      -5.884  -1.434  -3.921  0.00  0.00     0.022 A 
ATOM      8  C7  BZF d   1      -5.882  -2.704  -4.393  0.00  0.00     0.029 A 
ATOM      9  C7A BZF d   1      -5.968  -3.715  -3.467  0.00  0.00     0.058 A 
ENDROOT
TORSDOF 0
ENDMDL
