MODEL 1
REMARK minimizedAffinity 18.9795628
REMARK minimizedRMSD -1
REMARK  0 active torsions:
REMARK  status: ('A' for Active; 'I' for Inactive)
ROOT
ATOM      1  O1  BZF d   1       0.499   0.295  -4.544  0.00  0.00    -0.204 OA
ATOM      2  C2  BZF d   1       1.505  -0.580  -4.183  0.00  0.00     0.174 A 
ATOM      3  C3  BZF d   1       1.133  -1.856  -4.408  0.00  0.00    -0.012 A 
ATOM      4  C3A BZF d   1      -0.153  -1.770  -5.029  0.00  0.00    -0.107 A 
ATOM      5  C4  BZF d   1      -1.031  -2.702  -5.503  0.00  0.00     0.055 A 
ATOM      6  C5  BZF d   1      -2.234  -2.291  -5.984  0.00  0.00    -0.016 A 
ATOM      7  C6  BZF d   1      -2.594  -0.959  -6.000  0.00  0.00     0.022 A 
ATOM      8  C7  BZF d   1      -1.754   0.002  -5.545  0.00  0.00     0.029 A 
ATOM      9  C7A BZF d   1      -0.524  -0.406  -5.089  0.00  0.00     0.058 A 
ENDROOT
TORSDOF 0
ENDMDL
