MODEL 1
REMARK minimizedAffinity 9.43642998
REMARK minimizedRMSD -1
REMARK  0 active torsions:
REMARK  status: ('A' for Active; 'I' for Inactive)
ROOT
ATOM      1  O1  BZF d   1       2.764  -0.406  -3.745  0.00  0.00    -0.204 OA
ATOM      2  C2  BZF d   1       1.734  -1.300  -3.966  0.00  0.00     0.174 A 
ATOM      3  C3  BZF d   1       0.693  -1.043  -3.148  0.00  0.00    -0.012 A 
ATOM      4  C3A BZF d   1       1.060   0.140  -2.432  0.00  0.00    -0.107 A 
ATOM      5  C4  BZF d   1       0.432   0.898  -1.485  0.00  0.00     0.055 A 
ATOM      6  C5  BZF d   1       1.094   1.949  -0.935  0.00  0.00    -0.016 A 
ATOM      7  C6  BZF d   1       2.385   2.268  -1.303  0.00  0.00     0.022 A 
ATOM      8  C7  BZF d   1       3.047   1.549  -2.242  0.00  0.00     0.029 A 
ATOM      9  C7A BZF d   1       2.369   0.506  -2.824  0.00  0.00     0.058 A 
ENDROOT
TORSDOF 0
ENDMDL
