MODEL 1
REMARK minimizedAffinity 11.7825232
REMARK minimizedRMSD -1
REMARK  0 active torsions:
REMARK  status: ('A' for Active; 'I' for Inactive)
ROOT
ATOM      1  O1  BZF d   1       2.236   4.137  -1.360  0.00  0.00    -0.204 OA
ATOM      2  C2  BZF d   1       2.266   2.811  -0.972  0.00  0.00     0.174 A 
ATOM      3  C3  BZF d   1       2.988   2.075  -1.841  0.00  0.00    -0.012 A 
ATOM      4  C3A BZF d   1       3.515   3.013  -2.783  0.00  0.00    -0.107 A 
ATOM      5  C4  BZF d   1       4.323   2.893  -3.877  0.00  0.00     0.055 A 
ATOM      6  C5  BZF d   1       4.591   3.995  -4.625  0.00  0.00    -0.016 A 
ATOM      7  C6  BZF d   1       4.064   5.231  -4.312  0.00  0.00     0.022 A 
ATOM      8  C7  BZF d   1       3.261   5.401  -3.234  0.00  0.00     0.029 A 
ATOM      9  C7A BZF d   1       3.015   4.295  -2.457  0.00  0.00     0.058 A 
ENDROOT
TORSDOF 0
ENDMDL
