MODEL 1
REMARK minimizedAffinity 9.534935
REMARK minimizedRMSD -1
REMARK  0 active torsions:
REMARK  status: ('A' for Active; 'I' for Inactive)
ROOT
ATOM      1  O1  BZF d   1       2.226  -0.352   3.817  0.00  0.00    -0.204 OA
ATOM      2  C2  BZF d   1       2.577   0.801   3.142  0.00  0.00     0.174 A 
ATOM      3  C3  BZF d   1       1.479   1.476   2.745  0.00  0.00    -0.012 A 
ATOM      4  C3A BZF d   1       0.373   0.743   3.281  0.00  0.00    -0.107 A 
ATOM      5  C4  BZF d   1      -0.981   0.923   3.241  0.00  0.00     0.055 A 
ATOM      6  C5  BZF d   1      -1.788  -0.014   3.803  0.00  0.00    -0.016 A 
ATOM      7  C6  BZF d   1      -1.278  -1.144   4.408  0.00  0.00     0.022 A 
ATOM      8  C7  BZF d   1       0.057  -1.363   4.477  0.00  0.00     0.029 A 
ATOM      9  C7A BZF d   1       0.878  -0.402   3.939  0.00  0.00     0.058 A 
ENDROOT
TORSDOF 0
ENDMDL
