MODEL 1
REMARK minimizedAffinity 0.980601013
REMARK minimizedRMSD -1
REMARK  2 active torsions:
REMARK  status: ('A' for Active; 'I' for Inactive)
REMARK    1  A    between atoms: C1_2  and  C2_3 
REMARK    2  A    between atoms: C2_3  and  C3_4 
ROOT
ATOM      1  C3  UNL d   1      -0.148  -0.654   1.578  0.00  0.00    -0.075 A 
ATOM      2  C4  UNL d   1      -1.215  -1.018   0.744  0.00  0.00     0.002 A 
ATOM      3  C5  UNL d   1      -2.246  -1.826   1.225  0.00  0.00     0.002 A 
ATOM      4  C6  UNL d   1      -2.218  -2.288   2.539  0.00  0.00    -0.004 A 
ATOM      5  C7  UNL d   1      -1.154  -1.947   3.371  0.00  0.00     0.002 A 
ATOM      6  C8  UNL d   1      -0.124  -1.135   2.894  0.00  0.00     0.002 A 
ENDROOT
BRANCH   1   7
ATOM      7  C2  UNL d   1       0.955   0.245   1.073  0.00  0.00     0.056 C 
BRANCH   7   8
ATOM      8  C1  UNL d   1       2.234  -0.501   0.675  0.00  0.00     0.007 C 
ATOM      9  C   UNL d   1       3.505   0.274   0.997  0.00  0.00     0.009 C 
ENDBRANCH   7   8
ENDBRANCH   1   7
TORSDOF 2
ENDMDL
