MODEL 1
REMARK minimizedAffinity -2.69024324
REMARK minimizedRMSD -1
REMARK  2 active torsions:
REMARK  status: ('A' for Active; 'I' for Inactive)
REMARK    1  A    between atoms: C1_2  and  C2_3 
REMARK    2  A    between atoms: C2_3  and  C3_4 
ROOT
ATOM      1  C3  UNL d   1      -4.519  -4.296  -5.466  0.00  0.00    -0.075 A 
ATOM      2  C4  UNL d   1      -4.586  -5.339  -4.530  0.00  0.00     0.002 A 
ATOM      3  C5  UNL d   1      -3.427  -6.000  -4.122  0.00  0.00     0.002 A 
ATOM      4  C6  UNL d   1      -2.191  -5.636  -4.650  0.00  0.00    -0.004 A 
ATOM      5  C7  UNL d   1      -2.114  -4.613  -5.593  0.00  0.00     0.002 A 
ATOM      6  C8  UNL d   1      -3.272  -3.946  -6.000  0.00  0.00     0.002 A 
ENDROOT
BRANCH   1   7
ATOM      7  C2  UNL d   1      -5.766  -3.557  -5.889  0.00  0.00     0.056 C 
BRANCH   7   8
ATOM      8  C1  UNL d   1      -5.607  -2.033  -5.921  0.00  0.00     0.007 C 
ATOM      9  C   UNL d   1      -4.334  -1.548  -5.240  0.00  0.00     0.009 C 
ENDBRANCH   7   8
ENDBRANCH   1   7
TORSDOF 2
ENDMDL
