MODEL 1
REMARK minimizedAffinity -2.41472244
REMARK minimizedRMSD -1
REMARK  2 active torsions:
REMARK  status: ('A' for Active; 'I' for Inactive)
REMARK    1  A    between atoms: C1_2  and  C2_3 
REMARK    2  A    between atoms: C2_3  and  C3_4 
ROOT
ATOM      1  C3  UNL d   1      -0.227   2.798  -3.247  0.00  0.00    -0.075 A 
ATOM      2  C4  UNL d   1      -0.383   4.180  -3.426  0.00  0.00     0.002 A 
ATOM      3  C5  UNL d   1      -1.378   4.876  -2.739  0.00  0.00     0.002 A 
ATOM      4  C6  UNL d   1      -2.234   4.198  -1.873  0.00  0.00    -0.004 A 
ATOM      5  C7  UNL d   1      -2.099   2.823  -1.701  0.00  0.00     0.002 A 
ATOM      6  C8  UNL d   1      -1.101   2.125  -2.384  0.00  0.00     0.002 A 
ENDROOT
BRANCH   1   7
ATOM      7  C2  UNL d   1       0.867   2.045  -3.966  0.00  0.00     0.056 C 
BRANCH   7   8
ATOM      8  C1  UNL d   1       1.719   1.159  -3.051  0.00  0.00     0.007 C 
ATOM      9  C   UNL d   1       3.202   1.502  -3.095  0.00  0.00     0.009 C 
ENDBRANCH   7   8
ENDBRANCH   1   7
TORSDOF 2
ENDMDL
