MODEL 1
REMARK minimizedAffinity -4.24542284
REMARK minimizedRMSD -1
REMARK  2 active torsions:
REMARK  status: ('A' for Active; 'I' for Inactive)
REMARK    1  A    between atoms: C1_2  and  C2_3 
REMARK    2  A    between atoms: C2_3  and  C3_4 
ROOT
ATOM      1  C3  UNL d   1      -4.202  -4.563  -4.495  0.00  0.00    -0.075 A 
ATOM      2  C4  UNL d   1      -5.488  -4.222  -4.937  0.00  0.00     0.002 A 
ATOM      3  C5  UNL d   1      -5.999  -2.943  -4.710  0.00  0.00     0.002 A 
ATOM      4  C6  UNL d   1      -5.236  -1.996  -4.031  0.00  0.00    -0.004 A 
ATOM      5  C7  UNL d   1      -3.963  -2.329  -3.573  0.00  0.00     0.002 A 
ATOM      6  C8  UNL d   1      -3.448  -3.606  -3.803  0.00  0.00     0.002 A 
ENDROOT
BRANCH   1   7
ATOM      7  C2  UNL d   1      -3.631  -5.935  -4.764  0.00  0.00     0.056 C 
BRANCH   7   8
ATOM      8  C1  UNL d   1      -2.582  -5.968  -5.880  0.00  0.00     0.007 C 
ATOM      9  C   UNL d   1      -1.152  -6.000  -5.358  0.00  0.00     0.009 C 
ENDBRANCH   7   8
ENDBRANCH   1   7
TORSDOF 2
ENDMDL
