MODEL 1
REMARK minimizedAffinity -2.03855085
REMARK minimizedRMSD -1
REMARK  2 active torsions:
REMARK  status: ('A' for Active; 'I' for Inactive)
REMARK    1  A    between atoms: C1_2  and  C2_3 
REMARK    2  A    between atoms: C2_3  and  C3_4 
ROOT
ATOM      1  C3  UNL d   1      -4.551  -4.110  -4.740  0.00  0.00    -0.075 A 
ATOM      2  C4  UNL d   1      -3.867  -3.002  -4.219  0.00  0.00     0.002 A 
ATOM      3  C5  UNL d   1      -4.255  -1.706  -4.560  0.00  0.00     0.002 A 
ATOM      4  C6  UNL d   1      -5.321  -1.502  -5.433  0.00  0.00    -0.004 A 
ATOM      5  C7  UNL d   1      -5.997  -2.596  -5.969  0.00  0.00     0.002 A 
ATOM      6  C8  UNL d   1      -5.614  -3.893  -5.626  0.00  0.00     0.002 A 
ENDROOT
BRANCH   1   7
ATOM      7  C2  UNL d   1      -4.155  -5.515  -4.351  0.00  0.00     0.056 C 
BRANCH   7   8
ATOM      8  C1  UNL d   1      -2.679  -5.839  -4.604  0.00  0.00     0.007 C 
ATOM      9  C   UNL d   1      -2.209  -5.452  -6.000  0.00  0.00     0.009 C 
ENDBRANCH   7   8
ENDBRANCH   1   7
TORSDOF 2
ENDMDL
