MODEL 1
REMARK minimizedAffinity -3.46195221
REMARK minimizedRMSD -1
REMARK  2 active torsions:
REMARK  status: ('A' for Active; 'I' for Inactive)
REMARK    1  A    between atoms: C1_2  and  C2_3 
REMARK    2  A    between atoms: C2_3  and  C3_4 
ROOT
ATOM      1  C3  UNL d   1      -4.244  -4.616  -4.548  0.00  0.00    -0.075 A 
ATOM      2  C4  UNL d   1      -5.344  -4.538  -3.682  0.00  0.00     0.002 A 
ATOM      3  C5  UNL d   1      -5.969  -3.315  -3.438  0.00  0.00     0.002 A 
ATOM      4  C6  UNL d   1      -5.498  -2.155  -4.048  0.00  0.00    -0.004 A 
ATOM      5  C7  UNL d   1      -4.396  -2.217  -4.898  0.00  0.00     0.002 A 
ATOM      6  C8  UNL d   1      -3.771  -3.440  -5.147  0.00  0.00     0.002 A 
ENDROOT
BRANCH   1   7
ATOM      7  C2  UNL d   1      -3.581  -5.941  -4.839  0.00  0.00     0.056 C 
BRANCH   7   8
ATOM      8  C1  UNL d   1      -2.457  -5.862  -5.878  0.00  0.00     0.007 C 
ATOM      9  C   UNL d   1      -1.069  -5.789  -5.257  0.00  0.00     0.009 C 
ENDBRANCH   7   8
ENDBRANCH   1   7
TORSDOF 2
ENDMDL
