MODEL 1
REMARK minimizedAffinity -3.26297903
REMARK minimizedRMSD -1
REMARK  2 active torsions:
REMARK  status: ('A' for Active; 'I' for Inactive)
REMARK    1  A    between atoms: C1_2  and  C2_3 
REMARK    2  A    between atoms: C2_3  and  C3_4 
ROOT
ATOM      1  C3  UNL d   1      -5.038  -4.021  -4.617  0.00  0.00    -0.075 A 
ATOM      2  C4  UNL d   1      -3.676  -4.045  -4.283  0.00  0.00     0.002 A 
ATOM      3  C5  UNL d   1      -2.835  -5.026  -4.810  0.00  0.00     0.002 A 
ATOM      4  C6  UNL d   1      -3.345  -5.998  -5.668  0.00  0.00    -0.004 A 
ATOM      5  C7  UNL d   1      -4.700  -5.993  -5.993  0.00  0.00     0.002 A 
ATOM      6  C8  UNL d   1      -5.543  -5.010  -5.471  0.00  0.00     0.002 A 
ENDROOT
BRANCH   1   7
ATOM      7  C2  UNL d   1      -5.947  -2.945  -4.074  0.00  0.00     0.056 C 
BRANCH   7   8
ATOM      8  C1  UNL d   1      -6.000  -1.679  -4.935  0.00  0.00     0.007 C 
ATOM      9  C   UNL d   1      -5.889  -0.395  -4.124  0.00  0.00     0.009 C 
ENDBRANCH   7   8
ENDBRANCH   1   7
TORSDOF 2
ENDMDL
