MODEL 1
REMARK minimizedAffinity -3.56526136
REMARK minimizedRMSD -1
REMARK  2 active torsions:
REMARK  status: ('A' for Active; 'I' for Inactive)
REMARK    1  A    between atoms: C1_2  and  C2_3 
REMARK    2  A    between atoms: C2_3  and  C3_4 
ROOT
ATOM      1  C3  UNL d   1      -5.150  -3.976  -4.353  0.00  0.00    -0.075 A 
ATOM      2  C4  UNL d   1      -3.754  -3.978  -4.221  0.00  0.00     0.002 A 
ATOM      3  C5  UNL d   1      -2.972  -4.849  -4.980  0.00  0.00     0.002 A 
ATOM      4  C6  UNL d   1      -3.575  -5.734  -5.872  0.00  0.00    -0.004 A 
ATOM      5  C7  UNL d   1      -4.962  -5.752  -5.999  0.00  0.00     0.002 A 
ATOM      6  C8  UNL d   1      -5.747  -4.878  -5.244  0.00  0.00     0.002 A 
ENDROOT
BRANCH   1   7
ATOM      7  C2  UNL d   1      -6.000  -3.015  -3.556  0.00  0.00     0.056 C 
BRANCH   7   8
ATOM      8  C1  UNL d   1      -5.778  -1.542  -3.913  0.00  0.00     0.007 C 
ATOM      9  C   UNL d   1      -5.998  -1.242  -5.389  0.00  0.00     0.009 C 
ENDBRANCH   7   8
ENDBRANCH   1   7
TORSDOF 2
ENDMDL
