MODEL 1
REMARK minimizedAffinity -0.849598289
REMARK minimizedRMSD -1
REMARK  2 active torsions:
REMARK  status: ('A' for Active; 'I' for Inactive)
REMARK    1  A    between atoms: C1_2  and  C2_3 
REMARK    2  A    between atoms: C2_3  and  C3_4 
ROOT
ATOM      1  C3  UNL d   1      -4.133  -4.242  -5.620  0.00  0.00    -0.075 A 
ATOM      2  C4  UNL d   1      -3.924  -5.566  -5.208  0.00  0.00     0.002 A 
ATOM      3  C5  UNL d   1      -2.651  -5.998  -4.834  0.00  0.00     0.002 A 
ATOM      4  C6  UNL d   1      -1.573  -5.117  -4.875  0.00  0.00    -0.004 A 
ATOM      5  C7  UNL d   1      -1.766  -3.804  -5.298  0.00  0.00     0.002 A 
ATOM      6  C8  UNL d   1      -3.039  -3.368  -5.670  0.00  0.00     0.002 A 
ENDROOT
BRANCH   1   7
ATOM      7  C2  UNL d   1      -5.514  -3.760  -5.998  0.00  0.00     0.056 C 
BRANCH   7   8
ATOM      8  C1  UNL d   1      -6.000  -2.558  -5.183  0.00  0.00     0.007 C 
ATOM      9  C   UNL d   1      -5.989  -2.807  -3.680  0.00  0.00     0.009 C 
ENDBRANCH   7   8
ENDBRANCH   1   7
TORSDOF 2
ENDMDL
