MODEL 1
REMARK minimizedAffinity -3.12051964
REMARK minimizedRMSD -1
REMARK  2 active torsions:
REMARK  status: ('A' for Active; 'I' for Inactive)
REMARK    1  A    between atoms: C1_2  and  C2_3 
REMARK    2  A    between atoms: C2_3  and  C3_4 
ROOT
ATOM      1  C3  UNL d   1      -4.461  -4.146  -4.909  0.00  0.00    -0.075 A 
ATOM      2  C4  UNL d   1      -4.144  -5.474  -4.591  0.00  0.00     0.002 A 
ATOM      3  C5  UNL d   1      -2.891  -5.999  -4.908  0.00  0.00     0.002 A 
ATOM      4  C6  UNL d   1      -1.944  -5.208  -5.554  0.00  0.00    -0.004 A 
ATOM      5  C7  UNL d   1      -2.254  -3.891  -5.889  0.00  0.00     0.002 A 
ATOM      6  C8  UNL d   1      -3.505  -3.362  -5.569  0.00  0.00     0.002 A 
ENDROOT
BRANCH   1   7
ATOM      7  C2  UNL d   1      -5.805  -3.563  -4.542  0.00  0.00     0.056 C 
BRANCH   7   8
ATOM      8  C1  UNL d   1      -5.998  -2.111  -4.991  0.00  0.00     0.007 C 
ATOM      9  C   UNL d   1      -6.000  -1.119  -3.835  0.00  0.00     0.009 C 
ENDBRANCH   7   8
ENDBRANCH   1   7
TORSDOF 2
ENDMDL
