MODEL 1
REMARK minimizedAffinity -3.92566419
REMARK minimizedRMSD -1
REMARK  2 active torsions:
REMARK  status: ('A' for Active; 'I' for Inactive)
REMARK    1  A    between atoms: C1_2  and  C2_3 
REMARK    2  A    between atoms: C2_3  and  C3_4 
ROOT
ATOM      1  C3  UNL d   1      -4.066  -3.971  -5.656  0.00  0.00    -0.075 A 
ATOM      2  C4  UNL d   1      -3.964  -5.330  -5.989  0.00  0.00     0.002 A 
ATOM      3  C5  UNL d   1      -2.746  -6.000  -5.865  0.00  0.00     0.002 A 
ATOM      4  C6  UNL d   1      -1.616  -5.320  -5.417  0.00  0.00    -0.004 A 
ATOM      5  C7  UNL d   1      -1.702  -3.966  -5.099  0.00  0.00     0.002 A 
ATOM      6  C8  UNL d   1      -2.920  -3.294  -5.218  0.00  0.00     0.002 A 
ENDROOT
BRANCH   1   7
ATOM      7  C2  UNL d   1      -5.388  -3.248  -5.759  0.00  0.00     0.056 C 
BRANCH   7   8
ATOM      8  C1  UNL d   1      -6.000  -2.870  -4.407  0.00  0.00     0.007 C 
ATOM      9  C   UNL d   1      -5.994  -4.016  -3.404  0.00  0.00     0.009 C 
ENDBRANCH   7   8
ENDBRANCH   1   7
TORSDOF 2
ENDMDL
