MODEL 1
REMARK minimizedAffinity -1.934219
REMARK minimizedRMSD -1
REMARK  2 active torsions:
REMARK  status: ('A' for Active; 'I' for Inactive)
REMARK    1  A    between atoms: C1_2  and  C2_3 
REMARK    2  A    between atoms: C2_3  and  C3_4 
ROOT
ATOM      1  C3  UNL d   1      -4.244  -4.894  -5.443  0.00  0.00    -0.075 A 
ATOM      2  C4  UNL d   1      -5.098  -5.179  -4.368  0.00  0.00     0.002 A 
ATOM      3  C5  UNL d   1      -5.968  -4.205  -3.877  0.00  0.00     0.002 A 
ATOM      4  C6  UNL d   1      -5.988  -2.933  -4.446  0.00  0.00    -0.004 A 
ATOM      5  C7  UNL d   1      -5.132  -2.634  -5.504  0.00  0.00     0.002 A 
ATOM      6  C8  UNL d   1      -4.263  -3.608  -6.000  0.00  0.00     0.002 A 
ENDROOT
BRANCH   1   7
ATOM      7  C2  UNL d   1      -3.321  -5.952  -5.999  0.00  0.00     0.056 C 
BRANCH   7   8
ATOM      8  C1  UNL d   1      -1.840  -5.559  -5.982  0.00  0.00     0.007 C 
ATOM      9  C   UNL d   1      -1.485  -4.602  -4.852  0.00  0.00     0.009 C 
ENDBRANCH   7   8
ENDBRANCH   1   7
TORSDOF 2
ENDMDL
