MODEL 1
REMARK minimizedAffinity 10.0616226
REMARK minimizedRMSD -1
REMARK  1 active torsions:
REMARK  status: ('A' for Active; 'I' for Inactive)
REMARK    1  A    between atoms: C1_2  and  C2_3 
ROOT
ATOM      1  C2  UNL d   1       0.668  -2.401  -4.091  0.00  0.00    -0.076 A 
ATOM      2  C3  UNL d   1       1.548  -2.644  -5.160  0.00  0.00     0.004 A 
ATOM      3  C4  UNL d   1       2.770  -1.979  -5.249  0.00  0.00    -0.003 A 
ATOM      4  C5  UNL d   1       3.132  -1.061  -4.270  0.00  0.00     0.000 A 
ATOM      5  C6  UNL d   1       2.280  -0.821  -3.193  0.00  0.00     0.000 A 
ATOM      6  C7  UNL d   1       1.052  -1.495  -3.079  0.00  0.00    -0.073 A 
ATOM      7  C8  UNL d   1       0.169  -1.193  -1.900  0.00  0.00     0.078 C 
ENDROOT
BRANCH   1   8
ATOM      8  C1  UNL d   1      -0.655  -3.132  -4.061  0.00  0.00     0.053 C 
ATOM      9  C   UNL d   1      -1.579  -2.710  -5.193  0.00  0.00     0.018 C 
ENDBRANCH   1   8
TORSDOF 1
ENDMDL
