MODEL 1
REMARK minimizedAffinity 8.96081352
REMARK minimizedRMSD -1
REMARK  1 active torsions:
REMARK  status: ('A' for Active; 'I' for Inactive)
REMARK    1  A    between atoms: C1_2  and  C2_3 
ROOT
ATOM      1  C2  UNL d   1      -0.720  -1.795  -4.003  0.00  0.00    -0.076 A 
ATOM      2  C3  UNL d   1      -1.509  -1.494  -2.879  0.00  0.00     0.004 A 
ATOM      3  C4  UNL d   1      -2.620  -2.270  -2.554  0.00  0.00    -0.003 A 
ATOM      4  C5  UNL d   1      -2.961  -3.360  -3.347  0.00  0.00     0.000 A 
ATOM      5  C6  UNL d   1      -2.179  -3.684  -4.455  0.00  0.00     0.000 A 
ATOM      6  C7  UNL d   1      -1.046  -2.922  -4.788  0.00  0.00    -0.073 A 
ATOM      7  C8  UNL d   1      -0.242  -3.313  -5.998  0.00  0.00     0.078 C 
ENDROOT
BRANCH   1   8
ATOM      8  C1  UNL d   1       0.458  -0.902  -4.321  0.00  0.00     0.053 C 
ATOM      9  C   UNL d   1       1.762  -1.429  -3.744  0.00  0.00     0.018 C 
ENDBRANCH   1   8
TORSDOF 1
ENDMDL
