MODEL 1
REMARK minimizedAffinity 2.96843624
REMARK minimizedRMSD -1
REMARK  1 active torsions:
REMARK  status: ('A' for Active; 'I' for Inactive)
REMARK    1  A    between atoms: C1_2  and  C2_3 
ROOT
ATOM      1  C2  UNL d   1       1.009  -5.979   3.612  0.00  0.00    -0.076 A 
ATOM      2  C3  UNL d   1       2.371  -5.971   3.266  0.00  0.00     0.004 A 
ATOM      3  C4  UNL d   1       2.772  -5.978   1.931  0.00  0.00    -0.003 A 
ATOM      4  C5  UNL d   1       1.817  -5.993   0.921  0.00  0.00     0.000 A 
ATOM      5  C6  UNL d   1       0.461  -5.984   1.246  0.00  0.00     0.000 A 
ATOM      6  C7  UNL d   1       0.040  -5.960   2.586  0.00  0.00    -0.073 A 
ATOM      7  C8  UNL d   1      -1.435  -5.957   2.880  0.00  0.00     0.078 C 
ENDROOT
BRANCH   1   8
ATOM      8  C1  UNL d   1       0.634  -5.999   5.077  0.00  0.00     0.053 C 
ATOM      9  C   UNL d   1       1.851  -5.999   5.990  0.00  0.00     0.018 C 
ENDBRANCH   1   8
TORSDOF 1
ENDMDL
