MODEL 1
REMARK minimizedAffinity 6.85772896
REMARK minimizedRMSD -1
REMARK  1 active torsions:
REMARK  status: ('A' for Active; 'I' for Inactive)
REMARK    1  A    between atoms: C1_2  and  C2_3 
ROOT
ATOM      1  C2  UNL d   1      -2.501  -1.766  -2.617  0.00  0.00    -0.076 A 
ATOM      2  C3  UNL d   1      -2.577  -2.978  -3.326  0.00  0.00     0.004 A 
ATOM      3  C4  UNL d   1      -1.709  -3.246  -4.383  0.00  0.00    -0.003 A 
ATOM      4  C5  UNL d   1      -0.750  -2.307  -4.748  0.00  0.00     0.000 A 
ATOM      5  C6  UNL d   1      -0.650  -1.107  -4.045  0.00  0.00     0.000 A 
ATOM      6  C7  UNL d   1      -1.506  -0.828  -2.966  0.00  0.00    -0.073 A 
ATOM      7  C8  UNL d   1      -1.357   0.485  -2.247  0.00  0.00     0.078 C 
ENDROOT
BRANCH   1   8
ATOM      8  C1  UNL d   1      -3.487  -1.519  -1.498  0.00  0.00     0.053 C 
ATOM      9  C   UNL d   1      -3.009  -2.079  -0.167  0.00  0.00     0.018 C 
ENDBRANCH   1   8
TORSDOF 1
ENDMDL
