MODEL 1
REMARK minimizedAffinity 2.21356201
REMARK minimizedRMSD -1
REMARK  1 active torsions:
REMARK  status: ('A' for Active; 'I' for Inactive)
REMARK    1  A    between atoms: C1_2  and  C2_3 
ROOT
ATOM      1  C2  UNL d   1       0.643  -5.963   3.952  0.00  0.00    -0.076 A 
ATOM      2  C3  UNL d   1      -0.742  -5.979   3.708  0.00  0.00     0.004 A 
ATOM      3  C4  UNL d   1      -1.240  -5.994   2.406  0.00  0.00    -0.003 A 
ATOM      4  C5  UNL d   1      -0.363  -5.993   1.328  0.00  0.00     0.000 A 
ATOM      5  C6  UNL d   1       1.014  -5.995   1.552  0.00  0.00     0.000 A 
ATOM      6  C7  UNL d   1       1.533  -5.996   2.858  0.00  0.00    -0.073 A 
ATOM      7  C8  UNL d   1       3.026  -5.992   3.041  0.00  0.00     0.078 C 
ENDROOT
BRANCH   1   8
ATOM      8  C1  UNL d   1       1.125  -5.920   5.385  0.00  0.00     0.053 C 
ATOM      9  C   UNL d   1       1.468  -4.510   5.842  0.00  0.00     0.018 C 
ENDBRANCH   1   8
TORSDOF 1
ENDMDL
