MODEL 1
REMARK minimizedAffinity 7.99594212
REMARK minimizedRMSD -1
REMARK  1 active torsions:
REMARK  status: ('A' for Active; 'I' for Inactive)
REMARK    1  A    between atoms: C1_2  and  C2_3 
ROOT
ATOM      1  C2  UNL d   1      -0.635  -5.896   1.753  0.00  0.00    -0.076 A 
ATOM      2  C3  UNL d   1       0.485  -5.889   0.904  0.00  0.00     0.004 A 
ATOM      3  C4  UNL d   1       1.779  -5.925   1.423  0.00  0.00    -0.003 A 
ATOM      4  C5  UNL d   1       1.972  -5.968   2.799  0.00  0.00     0.000 A 
ATOM      5  C6  UNL d   1       0.872  -5.994   3.655  0.00  0.00     0.000 A 
ATOM      6  C7  UNL d   1      -0.438  -5.975   3.148  0.00  0.00    -0.073 A 
ATOM      7  C8  UNL d   1      -1.588  -5.998   4.118  0.00  0.00     0.078 C 
ENDROOT
BRANCH   1   8
ATOM      8  C1  UNL d   1      -2.013  -5.829   1.134  0.00  0.00     0.053 C 
ATOM      9  C   UNL d   1      -1.981  -5.991  -0.378  0.00  0.00     0.018 C 
ENDBRANCH   1   8
TORSDOF 1
ENDMDL
