MODEL 1
REMARK minimizedAffinity 6.67251205
REMARK minimizedRMSD -1
REMARK  1 active torsions:
REMARK  status: ('A' for Active; 'I' for Inactive)
REMARK    1  A    between atoms: C1_2  and  C2_3 
ROOT
ATOM      1  C2  UNL d   1      -1.705  -0.145  -1.067  0.00  0.00    -0.076 A 
ATOM      2  C3  UNL d   1      -0.729   0.864  -1.125  0.00  0.00     0.004 A 
ATOM      3  C4  UNL d   1       0.126   1.099  -0.050  0.00  0.00    -0.003 A 
ATOM      4  C5  UNL d   1       0.019   0.328   1.102  0.00  0.00     0.000 A 
ATOM      5  C6  UNL d   1      -0.932  -0.690   1.171  0.00  0.00     0.000 A 
ATOM      6  C7  UNL d   1      -1.790  -0.951   0.089  0.00  0.00    -0.073 A 
ATOM      7  C8  UNL d   1      -2.801  -2.057   0.220  0.00  0.00     0.078 C 
ENDROOT
BRANCH   1   8
ATOM      8  C1  UNL d   1      -2.621  -0.336  -2.254  0.00  0.00     0.053 C 
ATOM      9  C   UNL d   1      -2.312  -1.606  -3.031  0.00  0.00     0.018 C 
ENDBRANCH   1   8
TORSDOF 1
ENDMDL
