MODEL 1
REMARK minimizedAffinity 4.33103704
REMARK minimizedRMSD -1
REMARK  1 active torsions:
REMARK  status: ('A' for Active; 'I' for Inactive)
REMARK    1  A    between atoms: C1_2  and  C2_3 
ROOT
ATOM      1  C2  UNL d   1      -0.712  -4.833   1.560  0.00  0.00    -0.076 A 
ATOM      2  C3  UNL d   1      -0.750  -3.709   0.717  0.00  0.00     0.004 A 
ATOM      3  C4  UNL d   1      -1.565  -2.617   1.014  0.00  0.00    -0.003 A 
ATOM      4  C5  UNL d   1      -2.355  -2.632   2.158  0.00  0.00     0.000 A 
ATOM      5  C6  UNL d   1      -2.316  -3.732   3.015  0.00  0.00     0.000 A 
ATOM      6  C7  UNL d   1      -1.488  -4.834   2.739  0.00  0.00    -0.073 A 
ATOM      7  C8  UNL d   1      -1.491  -5.996   3.694  0.00  0.00     0.078 C 
ENDROOT
BRANCH   1   8
ATOM      8  C1  UNL d   1       0.170  -5.999   1.172  0.00  0.00     0.053 C 
ATOM      9  C   UNL d   1       1.515  -5.972   1.882  0.00  0.00     0.018 C 
ENDBRANCH   1   8
TORSDOF 1
ENDMDL
