MODEL 1
REMARK minimizedAffinity 7.62077093
REMARK minimizedRMSD -1
REMARK  1 active torsions:
REMARK  status: ('A' for Active; 'I' for Inactive)
REMARK    1  A    between atoms: C1_2  and  C2_3 
ROOT
ATOM      1  C2  UNL d   1       0.691  -5.961   3.261  0.00  0.00    -0.076 A 
ATOM      2  C3  UNL d   1      -0.130  -5.940   4.402  0.00  0.00     0.004 A 
ATOM      3  C4  UNL d   1       0.421  -5.942   5.683  0.00  0.00    -0.003 A 
ATOM      4  C5  UNL d   1       1.802  -5.964   5.843  0.00  0.00     0.000 A 
ATOM      5  C6  UNL d   1       2.632  -5.967   4.722  0.00  0.00     0.000 A 
ATOM      6  C7  UNL d   1       2.093  -5.949   3.424  0.00  0.00    -0.073 A 
ATOM      7  C8  UNL d   1       3.034  -5.959   2.251  0.00  0.00     0.078 C 
ENDROOT
BRANCH   1   8
ATOM      8  C1  UNL d   1       0.036  -5.986   1.899  0.00  0.00     0.053 C 
ATOM      9  C   UNL d   1      -1.480  -5.909   1.979  0.00  0.00     0.018 C 
ENDBRANCH   1   8
TORSDOF 1
ENDMDL
