MODEL 1
REMARK minimizedAffinity 0.836935878
REMARK minimizedRMSD -1
REMARK  1 active torsions:
REMARK  status: ('A' for Active; 'I' for Inactive)
REMARK    1  A    between atoms: C1_2  and  C2_3 
ROOT
ATOM      1  C2  UNL d   1      -3.567  -5.981   2.567  0.00  0.00    -0.076 A 
ATOM      2  C3  UNL d   1      -3.249  -5.958   1.198  0.00  0.00     0.004 A 
ATOM      3  C4  UNL d   1      -4.250  -5.965   0.228  0.00  0.00    -0.003 A 
ATOM      4  C5  UNL d   1      -5.586  -5.994   0.612  0.00  0.00     0.000 A 
ATOM      5  C6  UNL d   1      -5.921  -6.000   1.965  0.00  0.00     0.000 A 
ATOM      6  C7  UNL d   1      -4.924  -5.977   2.956  0.00  0.00    -0.073 A 
ATOM      7  C8  UNL d   1      -5.341  -5.990   4.401  0.00  0.00     0.078 C 
ENDROOT
BRANCH   1   8
ATOM      8  C1  UNL d   1      -2.438  -6.000   3.572  0.00  0.00     0.053 C 
ATOM      9  C   UNL d   1      -1.069  -5.964   2.912  0.00  0.00     0.018 C 
ENDBRANCH   1   8
TORSDOF 1
ENDMDL
