MODEL 1
REMARK minimizedAffinity -0.677231133
REMARK minimizedRMSD -1
REMARK  1 active torsions:
REMARK  status: ('A' for Active; 'I' for Inactive)
REMARK    1  A    between atoms: C1_2  and  C2_3 
ROOT
ATOM      1  C2  UNL d   1      -1.940  -0.060   2.783  0.00  0.00    -0.076 A 
ATOM      2  C3  UNL d   1      -1.395   1.236   2.755  0.00  0.00     0.004 A 
ATOM      3  C4  UNL d   1      -0.152   1.478   2.173  0.00  0.00    -0.003 A 
ATOM      4  C5  UNL d   1       0.567   0.429   1.611  0.00  0.00     0.000 A 
ATOM      5  C6  UNL d   1       0.033  -0.859   1.614  0.00  0.00     0.000 A 
ATOM      6  C7  UNL d   1      -1.226  -1.118   2.182  0.00  0.00    -0.073 A 
ATOM      7  C8  UNL d   1      -1.751  -2.528   2.163  0.00  0.00     0.078 C 
ENDROOT
BRANCH   1   8
ATOM      8  C1  UNL d   1      -3.281  -0.267   3.451  0.00  0.00     0.053 C 
ATOM      9  C   UNL d   1      -4.103   1.011   3.517  0.00  0.00     0.018 C 
ENDBRANCH   1   8
TORSDOF 1
ENDMDL
