MODEL 1
REMARK minimizedAffinity 5.77530384
REMARK minimizedRMSD -1
REMARK  1 active torsions:
REMARK  status: ('A' for Active; 'I' for Inactive)
REMARK    1  A    between atoms: C1_2  and  C2_3 
ROOT
ATOM      1  C2  UNL d   1      -3.941  -1.365   2.828  0.00  0.00    -0.076 A 
ATOM      2  C3  UNL d   1      -2.674  -1.258   3.427  0.00  0.00     0.004 A 
ATOM      3  C4  UNL d   1      -1.562  -1.886   2.871  0.00  0.00    -0.003 A 
ATOM      4  C5  UNL d   1      -1.697  -2.631   1.705  0.00  0.00     0.000 A 
ATOM      5  C6  UNL d   1      -2.943  -2.734   1.087  0.00  0.00     0.000 A 
ATOM      6  C7  UNL d   1      -4.072  -2.094   1.626  0.00  0.00    -0.073 A 
ATOM      7  C8  UNL d   1      -5.392  -2.243   0.921  0.00  0.00     0.078 C 
ENDROOT
BRANCH   1   8
ATOM      8  C1  UNL d   1      -5.117  -0.685   3.492  0.00  0.00     0.053 C 
ATOM      9  C   UNL d   1      -4.943  -0.559   4.997  0.00  0.00     0.018 C 
ENDBRANCH   1   8
TORSDOF 1
ENDMDL
