MODEL 1
REMARK minimizedAffinity 3.29343724
REMARK minimizedRMSD -1
REMARK  1 active torsions:
REMARK  status: ('A' for Active; 'I' for Inactive)
REMARK    1  A    between atoms: C1_2  and  C2_3 
ROOT
ATOM      1  C2  UNL d   1      -2.227   1.166   3.211  0.00  0.00    -0.076 A 
ATOM      2  C3  UNL d   1      -3.289   2.086   3.183  0.00  0.00     0.004 A 
ATOM      3  C4  UNL d   1      -4.517   1.783   3.769  0.00  0.00    -0.003 A 
ATOM      4  C5  UNL d   1      -4.702   0.555   4.395  0.00  0.00     0.000 A 
ATOM      5  C6  UNL d   1      -3.654  -0.363   4.448  0.00  0.00     0.000 A 
ATOM      6  C7  UNL d   1      -2.405  -0.067   3.876  0.00  0.00    -0.073 A 
ATOM      7  C8  UNL d   1      -1.311  -1.096   3.957  0.00  0.00     0.078 C 
ENDROOT
BRANCH   1   8
ATOM      8  C1  UNL d   1      -0.927   1.538   2.535  0.00  0.00     0.053 C 
ATOM      9  C   UNL d   1       0.045   2.228   3.479  0.00  0.00     0.018 C 
ENDBRANCH   1   8
TORSDOF 1
ENDMDL
