MODEL 1
REMARK minimizedAffinity 6.67659664
REMARK minimizedRMSD -1
REMARK  1 active torsions:
REMARK  status: ('A' for Active; 'I' for Inactive)
REMARK    1  A    between atoms: C1_2  and  C2_3 
ROOT
ATOM      1  C2  UNL d   1      -0.926  -1.913  -3.809  0.00  0.00    -0.076 A 
ATOM      2  C3  UNL d   1      -0.846  -0.662  -3.172  0.00  0.00     0.004 A 
ATOM      3  C4  UNL d   1      -1.939  -0.136  -2.485  0.00  0.00    -0.003 A 
ATOM      4  C5  UNL d   1      -3.129  -0.852  -2.422  0.00  0.00     0.000 A 
ATOM      5  C6  UNL d   1      -3.220  -2.103  -3.033  0.00  0.00     0.000 A 
ATOM      6  C7  UNL d   1      -2.123  -2.655  -3.716  0.00  0.00    -0.073 A 
ATOM      7  C8  UNL d   1      -2.279  -4.004  -4.361  0.00  0.00     0.078 C 
ENDROOT
BRANCH   1   8
ATOM      8  C1  UNL d   1       0.282  -2.420  -4.562  0.00  0.00     0.053 C 
ATOM      9  C   UNL d   1       1.568  -1.730  -4.134  0.00  0.00     0.018 C 
ENDBRANCH   1   8
TORSDOF 1
ENDMDL
