MODEL 1
REMARK minimizedAffinity -0.0157975946
REMARK minimizedRMSD -1
REMARK  1 active torsions:
REMARK  status: ('A' for Active; 'I' for Inactive)
REMARK    1  A    between atoms: C1_2  and  C2_3 
ROOT
ATOM      1  C2  UNL d   1      -4.813   1.377   4.277  0.00  0.00    -0.076 A 
ATOM      2  C3  UNL d   1      -3.854   2.012   3.468  0.00  0.00     0.004 A 
ATOM      3  C4  UNL d   1      -2.729   1.325   3.014  0.00  0.00    -0.003 A 
ATOM      4  C5  UNL d   1      -2.545  -0.009   3.361  0.00  0.00     0.000 A 
ATOM      5  C6  UNL d   1      -3.495  -0.660   4.148  0.00  0.00     0.000 A 
ATOM      6  C7  UNL d   1      -4.643   0.014   4.600  0.00  0.00    -0.073 A 
ATOM      7  C8  UNL d   1      -5.631  -0.736   5.451  0.00  0.00     0.078 C 
ENDROOT
BRANCH   1   8
ATOM      8  C1  UNL d   1      -5.998   2.180   4.762  0.00  0.00     0.053 C 
ATOM      9  C   UNL d   1      -5.677   3.005   5.999  0.00  0.00     0.018 C 
ENDBRANCH   1   8
TORSDOF 1
ENDMDL
