MODEL 1
REMARK minimizedAffinity 2.42830682
REMARK minimizedRMSD -1
REMARK  0 active torsions:
REMARK  status: ('A' for Active; 'I' for Inactive)
ROOT
ATOM      1  C1  DEN d   1       5.682  -0.100  -0.670  0.00  0.00     0.130 A 
ATOM      2  C2  DEN d   1       5.947  -0.943   0.493  0.00  0.00    -0.031 A 
ATOM      3  C3  DEN d   1       4.844  -0.751   1.456  0.00  0.00     0.027 A 
ATOM      4  C4  DEN d   1       2.761   0.757   1.259  0.00  0.00     0.027 A 
ATOM      5  C5  DEN d   1       2.106   1.668   0.460  0.00  0.00    -0.003 A 
ATOM      6  C6  DEN d   1       2.610   2.076  -0.746  0.00  0.00     0.001 A 
ATOM      7  C7  DEN d   1       3.782   1.537  -1.210  0.00  0.00     0.017 A 
ATOM      8  C8  DEN d   1       4.451   0.624  -0.406  0.00  0.00    -0.094 A 
ATOM      9  C9  DEN d   1       3.919   0.215   0.805  0.00  0.00    -0.072 A 
ENDROOT
TORSDOF 0
ENDMDL
