MODEL 1
REMARK minimizedAffinity 10.4878712
REMARK minimizedRMSD -1
REMARK  0 active torsions:
REMARK  status: ('A' for Active; 'I' for Inactive)
ROOT
ATOM      1  C1  DEN d   1       5.798  -0.732   1.456  0.00  0.00     0.130 A 
ATOM      2  C2  DEN d   1       5.805  -0.305   0.060  0.00  0.00    -0.031 A 
ATOM      3  C3  DEN d   1       4.480   0.268  -0.249  0.00  0.00     0.027 A 
ATOM      4  C4  DEN d   1       2.430   0.538   1.292  0.00  0.00     0.027 A 
ATOM      5  C5  DEN d   1       1.941   0.312   2.560  0.00  0.00    -0.003 A 
ATOM      6  C6  DEN d   1       2.686  -0.303   3.531  0.00  0.00     0.001 A 
ATOM      7  C7  DEN d   1       3.977  -0.674   3.263  0.00  0.00     0.017 A 
ATOM      8  C8  DEN d   1       4.475  -0.456   1.985  0.00  0.00    -0.094 A 
ATOM      9  C9  DEN d   1       3.710   0.178   1.021  0.00  0.00    -0.072 A 
ENDROOT
TORSDOF 0
ENDMDL
