MODEL 1
REMARK minimizedAffinity 18.9124813
REMARK minimizedRMSD -1
REMARK  0 active torsions:
REMARK  status: ('A' for Active; 'I' for Inactive)
ROOT
ATOM      1  C1  DEN d   1      -4.769  -2.937  -5.388  0.00  0.00     0.130 A 
ATOM      2  C2  DEN d   1      -5.997  -2.760  -4.619  0.00  0.00    -0.031 A 
ATOM      3  C3  DEN d   1      -5.629  -2.628  -3.195  0.00  0.00     0.027 A 
ATOM      4  C4  DEN d   1      -3.288  -2.677  -2.113  0.00  0.00     0.027 A 
ATOM      5  C5  DEN d   1      -1.940  -2.816  -2.360  0.00  0.00    -0.003 A 
ATOM      6  C6  DEN d   1      -1.447  -3.037  -3.619  0.00  0.00     0.001 A 
ATOM      7  C7  DEN d   1      -2.306  -3.081  -4.686  0.00  0.00     0.017 A 
ATOM      8  C8  DEN d   1      -3.667  -2.949  -4.444  0.00  0.00    -0.094 A 
ATOM      9  C9  DEN d   1      -4.144  -2.714  -3.166  0.00  0.00    -0.072 A 
ENDROOT
TORSDOF 0
ENDMDL
