MODEL 1
REMARK minimizedAffinity 10.4957676
REMARK minimizedRMSD -1
REMARK  0 active torsions:
REMARK  status: ('A' for Active; 'I' for Inactive)
ROOT
ATOM      1  C1  DEN d   1       2.246   1.124   2.193  0.00  0.00     0.130 A 
ATOM      2  C2  DEN d   1       1.960   1.759   0.909  0.00  0.00    -0.031 A 
ATOM      3  C3  DEN d   1       2.965   1.292  -0.066  0.00  0.00     0.027 A 
ATOM      4  C4  DEN d   1       4.924  -0.350   0.282  0.00  0.00     0.027 A 
ATOM      5  C5  DEN d   1       5.576  -1.139   1.203  0.00  0.00    -0.003 A 
ATOM      6  C6  DEN d   1       5.189  -1.203   2.516  0.00  0.00     0.001 A 
ATOM      7  C7  DEN d   1       4.091  -0.498   2.934  0.00  0.00     0.017 A 
ATOM      8  C8  DEN d   1       3.432   0.305   2.013  0.00  0.00    -0.094 A 
ATOM      9  C9  DEN d   1       3.832   0.347   0.688  0.00  0.00    -0.072 A 
ENDROOT
TORSDOF 0
ENDMDL
