MODEL 1
REMARK minimizedAffinity 19.9179859
REMARK minimizedRMSD -1
REMARK  0 active torsions:
REMARK  status: ('A' for Active; 'I' for Inactive)
ROOT
ATOM      1  C1  DEN d   1       1.158  -0.187   2.135  0.00  0.00     0.130 A 
ATOM      2  C2  DEN d   1       0.311   0.959   1.816  0.00  0.00    -0.031 A 
ATOM      3  C3  DEN d   1       1.097   1.889   0.981  0.00  0.00     0.027 A 
ATOM      4  C4  DEN d   1       3.530   1.666   0.152  0.00  0.00     0.027 A 
ATOM      5  C5  DEN d   1       4.655   0.872   0.176  0.00  0.00    -0.003 A 
ATOM      6  C6  DEN d   1       4.705  -0.304   0.877  0.00  0.00     0.001 A 
ATOM      7  C7  DEN d   1       3.593  -0.742   1.547  0.00  0.00     0.017 A 
ATOM      8  C8  DEN d   1       2.457   0.056   1.533  0.00  0.00    -0.094 A 
ATOM      9  C9  DEN d   1       2.422   1.235   0.808  0.00  0.00    -0.072 A 
ENDROOT
TORSDOF 0
ENDMDL
