MODEL 1
REMARK minimizedAffinity 12.4691353
REMARK minimizedRMSD -1
REMARK  0 active torsions:
REMARK  status: ('A' for Active; 'I' for Inactive)
ROOT
ATOM      1  C1  DEN d   1       4.357   1.470  -1.050  0.00  0.00     0.130 A 
ATOM      2  C2  DEN d   1       3.087   2.125  -0.750  0.00  0.00    -0.031 A 
ATOM      3  C3  DEN d   1       2.538   1.516   0.479  0.00  0.00     0.027 A 
ATOM      4  C4  DEN d   1       3.529  -0.363   1.941  0.00  0.00     0.027 A 
ATOM      5  C5  DEN d   1       4.583  -1.239   2.081  0.00  0.00    -0.003 A 
ATOM      6  C6  DEN d   1       5.610  -1.296   1.177  0.00  0.00     0.001 A 
ATOM      7  C7  DEN d   1       5.628  -0.430   0.115  0.00  0.00     0.017 A 
ATOM      8  C8  DEN d   1       4.565   0.450  -0.038  0.00  0.00    -0.094 A 
ATOM      9  C9  DEN d   1       3.542   0.501   0.894  0.00  0.00    -0.072 A 
ENDROOT
TORSDOF 0
ENDMDL
