MODEL 1
REMARK minimizedAffinity 7.65126419
REMARK minimizedRMSD -1
REMARK  0 active torsions:
REMARK  status: ('A' for Active; 'I' for Inactive)
ROOT
ATOM      1  C1  DEN d   1      -5.350  -0.318   3.725  0.00  0.00     0.130 A 
ATOM      2  C2  DEN d   1      -5.998  -0.926   4.884  0.00  0.00    -0.031 A 
ATOM      3  C3  DEN d   1      -5.989   0.061   5.982  0.00  0.00     0.027 A 
ATOM      4  C4  DEN d   1      -5.044   2.461   6.000  0.00  0.00     0.027 A 
ATOM      5  C5  DEN d   1      -4.389   3.415   5.252  0.00  0.00    -0.003 A 
ATOM      6  C6  DEN d   1      -3.982   3.182   3.965  0.00  0.00     0.001 A 
ATOM      7  C7  DEN d   1      -4.266   1.981   3.371  0.00  0.00     0.017 A 
ATOM      8  C8  DEN d   1      -4.919   1.011   4.121  0.00  0.00    -0.094 A 
ATOM      9  C9  DEN d   1      -5.333   1.270   5.416  0.00  0.00    -0.072 A 
ENDROOT
TORSDOF 0
ENDMDL
