MODEL 1
REMARK minimizedAffinity 8.27462101
REMARK minimizedRMSD -1
REMARK  0 active torsions:
REMARK  status: ('A' for Active; 'I' for Inactive)
ROOT
ATOM      1  C1  DEN d   1      -5.151   3.538   5.997  0.00  0.00     0.130 A 
ATOM      2  C2  DEN d   1      -4.313   4.284   5.063  0.00  0.00    -0.031 A 
ATOM      3  C3  DEN d   1      -3.969   3.388   3.941  0.00  0.00     0.027 A 
ATOM      4  C4  DEN d   1      -4.652   0.930   3.560  0.00  0.00     0.027 A 
ATOM      5  C5  DEN d   1      -5.349  -0.136   4.085  0.00  0.00    -0.003 A 
ATOM      6  C6  DEN d   1      -5.994  -0.063   5.291  0.00  0.00     0.001 A 
ATOM      7  C7  DEN d   1      -5.994   1.114   5.991  0.00  0.00     0.017 A 
ATOM      8  C8  DEN d   1      -5.288   2.191   5.471  0.00  0.00    -0.094 A 
ATOM      9  C9  DEN d   1      -4.652   2.102   4.245  0.00  0.00    -0.072 A 
ENDROOT
TORSDOF 0
ENDMDL
