MODEL 1
REMARK minimizedAffinity 15.1239338
REMARK minimizedRMSD -1
REMARK  0 active torsions:
REMARK  status: ('A' for Active; 'I' for Inactive)
ROOT
ATOM      1  C1  DEN d   1       3.758  -0.283   2.330  0.00  0.00     0.130 A 
ATOM      2  C2  DEN d   1       3.629  -1.016   3.587  0.00  0.00    -0.031 A 
ATOM      3  C3  DEN d   1       2.332  -0.656   4.194  0.00  0.00     0.027 A 
ATOM      4  C4  DEN d   1       0.518   0.952   3.312  0.00  0.00     0.027 A 
ATOM      5  C5  DEN d   1       0.183   1.815   2.292  0.00  0.00    -0.003 A 
ATOM      6  C6  DEN d   1       1.023   2.063   1.240  0.00  0.00     0.001 A 
ATOM      7  C7  DEN d   1       2.223   1.407   1.160  0.00  0.00     0.017 A 
ATOM      8  C8  DEN d   1       2.571   0.540   2.188  0.00  0.00    -0.094 A 
ATOM      9  C9  DEN d   1       1.702   0.293   3.237  0.00  0.00    -0.072 A 
ENDROOT
TORSDOF 0
ENDMDL
