MODEL 1
REMARK minimizedAffinity 3.54400539
REMARK minimizedRMSD -1
REMARK  0 active torsions:
REMARK  status: ('A' for Active; 'I' for Inactive)
ROOT
ATOM      1  C1  DEN d   1      -5.999   5.659  -0.472  0.00  0.00     0.130 A 
ATOM      2  C2  DEN d   1      -5.984   5.315   0.947  0.00  0.00    -0.031 A 
ATOM      3  C3  DEN d   1      -4.575   5.186   1.370  0.00  0.00     0.027 A 
ATOM      4  C4  DEN d   1      -2.427   5.487  -0.026  0.00  0.00     0.027 A 
ATOM      5  C5  DEN d   1      -1.934   5.770  -1.280  0.00  0.00    -0.003 A 
ATOM      6  C6  DEN d   1      -2.755   6.000  -2.353  0.00  0.00     0.001 A 
ATOM      7  C7  DEN d   1      -4.114   5.996  -2.180  0.00  0.00     0.017 A 
ATOM      8  C8  DEN d   1      -4.619   5.704  -0.920  0.00  0.00    -0.094 A 
ATOM      9  C9  DEN d   1      -3.772   5.487   0.154  0.00  0.00    -0.072 A 
ENDROOT
TORSDOF 0
ENDMDL
