MODEL 1
REMARK minimizedAffinity 0.319521755
REMARK minimizedRMSD -1
REMARK  0 active torsions:
REMARK  status: ('A' for Active; 'I' for Inactive)
ROOT
ATOM      1  C1  DEN d   1      -5.999  -0.621   4.723  0.00  0.00     0.130 A 
ATOM      2  C2  DEN d   1      -5.333  -1.056   3.499  0.00  0.00    -0.031 A 
ATOM      3  C3  DEN d   1      -4.515   0.068   3.000  0.00  0.00     0.027 A 
ATOM      4  C4  DEN d   1      -4.214   2.425   4.002  0.00  0.00     0.027 A 
ATOM      5  C5  DEN d   1      -4.587   3.265   5.029  0.00  0.00    -0.003 A 
ATOM      6  C6  DEN d   1      -5.475   2.883   5.998  0.00  0.00     0.001 A 
ATOM      7  C7  DEN d   1      -5.987   1.612   5.987  0.00  0.00     0.017 A 
ATOM      8  C8  DEN d   1      -5.621   0.762   4.951  0.00  0.00    -0.094 A 
ATOM      9  C9  DEN d   1      -4.712   1.163   3.988  0.00  0.00    -0.072 A 
ENDROOT
TORSDOF 0
ENDMDL
