MODEL 1
REMARK minimizedAffinity 26.3397789
REMARK minimizedRMSD -1
REMARK  0 active torsions:
REMARK  status: ('A' for Active; 'I' for Inactive)
ROOT
ATOM      1  C1  DEN d   1      -2.679  -3.689  -2.329  0.00  0.00     0.130 A 
ATOM      2  C2  DEN d   1      -2.642  -2.242  -2.521  0.00  0.00    -0.031 A 
ATOM      3  C3  DEN d   1      -1.638  -1.945  -3.563  0.00  0.00     0.027 A 
ATOM      4  C4  DEN d   1      -0.149  -3.577  -4.894  0.00  0.00     0.027 A 
ATOM      5  C5  DEN d   1       0.184  -4.902  -5.072  0.00  0.00    -0.003 A 
ATOM      6  C6  DEN d   1      -0.385  -5.904  -4.331  0.00  0.00     0.001 A 
ATOM      7  C7  DEN d   1      -1.350  -5.601  -3.407  0.00  0.00     0.017 A 
ATOM      8  C8  DEN d   1      -1.686  -4.267  -3.217  0.00  0.00    -0.094 A 
ATOM      9  C9  DEN d   1      -1.109  -3.270  -3.985  0.00  0.00    -0.072 A 
ENDROOT
TORSDOF 0
ENDMDL
