MODEL 1
REMARK minimizedAffinity 16.2304211
REMARK minimizedRMSD -1
REMARK  0 active torsions:
REMARK  status: ('A' for Active; 'I' for Inactive)
ROOT
ATOM      1  C1  DEN d   1      -5.979   0.727   5.998  0.00  0.00     0.130 A 
ATOM      2  C2  DEN d   1      -5.998  -0.399   5.069  0.00  0.00    -0.031 A 
ATOM      3  C3  DEN d   1      -5.034  -0.116   3.987  0.00  0.00     0.027 A 
ATOM      4  C4  DEN d   1      -3.517   1.945   3.666  0.00  0.00     0.027 A 
ATOM      5  C5  DEN d   1      -3.157   3.167   4.190  0.00  0.00    -0.003 A 
ATOM      6  C6  DEN d   1      -3.733   3.673   5.325  0.00  0.00     0.001 A 
ATOM      7  C7  DEN d   1      -4.668   2.932   6.000  0.00  0.00     0.017 A 
ATOM      8  C8  DEN d   1      -5.041   1.702   5.473  0.00  0.00    -0.094 A 
ATOM      9  C9  DEN d   1      -4.438   1.204   4.331  0.00  0.00    -0.072 A 
ENDROOT
TORSDOF 0
ENDMDL
