MODEL 1
REMARK minimizedAffinity 8.84296894
REMARK minimizedRMSD -1
REMARK  0 active torsions:
REMARK  status: ('A' for Active; 'I' for Inactive)
ROOT
ATOM      1  C1  DEN d   1       4.381   1.837  -3.493  0.00  0.00     0.130 A 
ATOM      2  C2  DEN d   1       4.565   2.281  -2.114  0.00  0.00    -0.031 A 
ATOM      3  C3  DEN d   1       3.919   3.600  -1.969  0.00  0.00     0.027 A 
ATOM      4  C4  DEN d   1       2.654   4.991  -3.735  0.00  0.00     0.027 A 
ATOM      5  C5  DEN d   1       2.248   5.033  -5.050  0.00  0.00    -0.003 A 
ATOM      6  C6  DEN d   1       2.551   4.036  -5.940  0.00  0.00     0.001 A 
ATOM      7  C7  DEN d   1       3.243   2.933  -5.515  0.00  0.00     0.017 A 
ATOM      8  C8  DEN d   1       3.662   2.887  -4.191  0.00  0.00    -0.094 A 
ATOM      9  C9  DEN d   1       3.335   3.899  -3.304  0.00  0.00    -0.072 A 
ENDROOT
TORSDOF 0
ENDMDL
