MODEL 1
REMARK minimizedAffinity -4.81976175
REMARK minimizedRMSD -1
REMARK  2 active torsions:
REMARK  status: ('A' for Active; 'I' for Inactive)
REMARK    1  A    between atoms: C1_2  and  C2_3 
REMARK    2  A    between atoms: C2_3  and  C3_4 
ROOT
ATOM      1  C3  UNL d   1       0.367   0.717   0.591  0.00  0.00    -0.075 A 
ATOM      2  C4  UNL d   1      -0.805   0.007   0.294  0.00  0.00     0.002 A 
ATOM      3  C5  UNL d   1      -1.414  -0.792   1.262  0.00  0.00     0.002 A 
ATOM      4  C6  UNL d   1      -0.855  -0.898   2.534  0.00  0.00    -0.004 A 
ATOM      5  C7  UNL d   1       0.318  -0.210   2.835  0.00  0.00     0.002 A 
ATOM      6  C8  UNL d   1       0.927   0.593   1.869  0.00  0.00     0.002 A 
ENDROOT
BRANCH   1   7
ATOM      7  C2  UNL d   1       1.015   1.606  -0.443  0.00  0.00     0.056 C 
BRANCH   7   8
ATOM      8  C1  UNL d   1       2.015   2.612   0.137  0.00  0.00     0.007 C 
ATOM      9  C   UNL d   1       2.122   3.892  -0.681  0.00  0.00     0.009 C 
ENDBRANCH   7   8
ENDBRANCH   1   7
TORSDOF 2
ENDMDL
