MODEL 1
REMARK minimizedAffinity 2.06543994
REMARK minimizedRMSD -1
REMARK  2 active torsions:
REMARK  status: ('A' for Active; 'I' for Inactive)
REMARK    1  A    between atoms: C1_2  and  C2_3 
REMARK    2  A    between atoms: C2_3  and  C3_4 
ROOT
ATOM      1  C3  UNL d   1      -3.485  -4.789   1.867  0.00  0.00    -0.075 A 
ATOM      2  C4  UNL d   1      -3.938  -5.863   2.647  0.00  0.00     0.002 A 
ATOM      3  C5  UNL d   1      -3.699  -5.891   4.022  0.00  0.00     0.002 A 
ATOM      4  C6  UNL d   1      -2.997  -4.853   4.631  0.00  0.00    -0.004 A 
ATOM      5  C7  UNL d   1      -2.528  -3.789   3.863  0.00  0.00     0.002 A 
ATOM      6  C8  UNL d   1      -2.769  -3.756   2.489  0.00  0.00     0.002 A 
ENDROOT
BRANCH   1   7
ATOM      7  C2  UNL d   1      -3.766  -4.738   0.385  0.00  0.00     0.056 C 
BRANCH   7   8
ATOM      8  C1  UNL d   1      -4.439  -6.000  -0.166  0.00  0.00     0.007 C 
ATOM      9  C   UNL d   1      -5.951  -5.999   0.011  0.00  0.00     0.009 C 
ENDBRANCH   7   8
ENDBRANCH   1   7
TORSDOF 2
ENDMDL
