MODEL 1
REMARK minimizedAffinity 0.987942338
REMARK minimizedRMSD -1
REMARK  2 active torsions:
REMARK  status: ('A' for Active; 'I' for Inactive)
REMARK    1  A    between atoms: C1_2  and  C2_3 
REMARK    2  A    between atoms: C2_3  and  C3_4 
ROOT
ATOM      1  C3  UNL d   1      -4.457  -5.724   2.898  0.00  0.00    -0.075 A 
ATOM      2  C4  UNL d   1      -5.758  -5.857   2.391  0.00  0.00     0.002 A 
ATOM      3  C5  UNL d   1      -5.972  -5.999   1.020  0.00  0.00     0.002 A 
ATOM      4  C6  UNL d   1      -4.893  -5.999   0.139  0.00  0.00    -0.004 A 
ATOM      5  C7  UNL d   1      -3.598  -5.852   0.630  0.00  0.00     0.002 A 
ATOM      6  C8  UNL d   1      -3.379  -5.714   2.002  0.00  0.00     0.002 A 
ENDROOT
BRANCH   1   7
ATOM      7  C2  UNL d   1      -4.215  -5.599   4.384  0.00  0.00     0.056 C 
BRANCH   7   8
ATOM      8  C1  UNL d   1      -2.765  -5.271   4.755  0.00  0.00     0.007 C 
ATOM      9  C   UNL d   1      -2.647  -4.394   5.994  0.00  0.00     0.009 C 
ENDBRANCH   7   8
ENDBRANCH   1   7
TORSDOF 2
ENDMDL
