MODEL 1
REMARK minimizedAffinity 4.74459362
REMARK minimizedRMSD -1
REMARK  2 active torsions:
REMARK  status: ('A' for Active; 'I' for Inactive)
REMARK    1  A    between atoms: C1_2  and  C2_3 
REMARK    2  A    between atoms: C2_3  and  C3_4 
ROOT
ATOM      1  C3  UNL d   1      -4.102  -3.500   0.849  0.00  0.00    -0.075 A 
ATOM      2  C4  UNL d   1      -3.544  -4.623   0.222  0.00  0.00     0.002 A 
ATOM      3  C5  UNL d   1      -4.188  -5.860   0.279  0.00  0.00     0.002 A 
ATOM      4  C6  UNL d   1      -5.389  -5.991   0.971  0.00  0.00    -0.004 A 
ATOM      5  C7  UNL d   1      -5.945  -4.886   1.612  0.00  0.00     0.002 A 
ATOM      6  C8  UNL d   1      -5.305  -3.647   1.553  0.00  0.00     0.002 A 
ENDROOT
BRANCH   1   7
ATOM      7  C2  UNL d   1      -3.425  -2.153   0.766  0.00  0.00     0.056 C 
BRANCH   7   8
ATOM      8  C1  UNL d   1      -1.896  -2.226   0.691  0.00  0.00     0.007 C 
ATOM      9  C   UNL d   1      -1.249  -0.898   0.323  0.00  0.00     0.009 C 
ENDBRANCH   7   8
ENDBRANCH   1   7
TORSDOF 2
ENDMDL
