MODEL 1
REMARK minimizedAffinity 4.57220364
REMARK minimizedRMSD -1
REMARK  2 active torsions:
REMARK  status: ('A' for Active; 'I' for Inactive)
REMARK    1  A    between atoms: C1_2  and  C2_3 
REMARK    2  A    between atoms: C2_3  and  C3_4 
ROOT
ATOM      1  C3  UNL d   1       0.627   1.108   1.587  0.00  0.00    -0.075 A 
ATOM      2  C4  UNL d   1      -0.140   1.859   2.490  0.00  0.00     0.002 A 
ATOM      3  C5  UNL d   1      -1.525   1.704   2.542  0.00  0.00     0.002 A 
ATOM      4  C6  UNL d   1      -2.161   0.808   1.686  0.00  0.00    -0.004 A 
ATOM      5  C7  UNL d   1      -1.411   0.069   0.774  0.00  0.00     0.002 A 
ATOM      6  C8  UNL d   1      -0.024   0.218   0.723  0.00  0.00     0.002 A 
ENDROOT
BRANCH   1   7
ATOM      7  C2  UNL d   1       2.130   1.249   1.547  0.00  0.00     0.056 C 
BRANCH   7   8
ATOM      8  C1  UNL d   1       2.617   2.559   0.918  0.00  0.00     0.007 C 
ATOM      9  C   UNL d   1       4.079   2.862   1.219  0.00  0.00     0.009 C 
ENDBRANCH   7   8
ENDBRANCH   1   7
TORSDOF 2
ENDMDL
