MODEL 1
REMARK minimizedAffinity -5.96915197
REMARK minimizedRMSD -1
REMARK  2 active torsions:
REMARK  status: ('A' for Active; 'I' for Inactive)
REMARK    1  A    between atoms: C1_2  and  C2_3 
REMARK    2  A    between atoms: C2_3  and  C3_4 
ROOT
ATOM      1  C3  UNL d   1       0.563  -0.028   0.162  0.00  0.00    -0.075 A 
ATOM      2  C4  UNL d   1       1.884  -0.135   0.622  0.00  0.00     0.002 A 
ATOM      3  C5  UNL d   1       2.159  -0.143   1.989  0.00  0.00     0.002 A 
ATOM      4  C6  UNL d   1       1.122  -0.033   2.913  0.00  0.00    -0.004 A 
ATOM      5  C7  UNL d   1      -0.192   0.091   2.467  0.00  0.00     0.002 A 
ATOM      6  C8  UNL d   1      -0.471   0.094   1.099  0.00  0.00     0.002 A 
ENDROOT
BRANCH   1   7
ATOM      7  C2  UNL d   1       0.256  -0.049  -1.316  0.00  0.00     0.056 C 
BRANCH   7   8
ATOM      8  C1  UNL d   1       1.238  -0.882  -2.146  0.00  0.00     0.007 C 
ATOM      9  C   UNL d   1       0.572  -2.034  -2.887  0.00  0.00     0.009 C 
ENDBRANCH   7   8
ENDBRANCH   1   7
TORSDOF 2
ENDMDL
