MODEL 1
REMARK minimizedAffinity -5.21746778
REMARK minimizedRMSD -1
REMARK  2 active torsions:
REMARK  status: ('A' for Active; 'I' for Inactive)
REMARK    1  A    between atoms: C1_2  and  C2_3 
REMARK    2  A    between atoms: C2_3  and  C3_4 
ROOT
ATOM      1  C3  UNL d   1       0.926   0.007   0.086  0.00  0.00    -0.075 A 
ATOM      2  C4  UNL d   1       1.601  -0.726  -0.900  0.00  0.00     0.002 A 
ATOM      3  C5  UNL d   1       1.466  -0.391  -2.248  0.00  0.00     0.002 A 
ATOM      4  C6  UNL d   1       0.649   0.672  -2.626  0.00  0.00    -0.004 A 
ATOM      5  C7  UNL d   1      -0.039   1.397  -1.656  0.00  0.00     0.002 A 
ATOM      6  C8  UNL d   1       0.097   1.066  -0.306  0.00  0.00     0.002 A 
ENDROOT
BRANCH   1   7
ATOM      7  C2  UNL d   1       1.090  -0.333   1.549  0.00  0.00     0.056 C 
BRANCH   7   8
ATOM      8  C1  UNL d   1       0.179   0.472   2.482  0.00  0.00     0.007 C 
ATOM      9  C   UNL d   1      -0.691  -0.403   3.374  0.00  0.00     0.009 C 
ENDBRANCH   7   8
ENDBRANCH   1   7
TORSDOF 2
ENDMDL
