MODEL 1
REMARK minimizedAffinity -5.13035297
REMARK minimizedRMSD -1
REMARK  2 active torsions:
REMARK  status: ('A' for Active; 'I' for Inactive)
REMARK    1  A    between atoms: C1_2  and  C2_3 
REMARK    2  A    between atoms: C2_3  and  C3_4 
ROOT
ATOM      1  C3  UNL d   1       0.305   0.186   0.369  0.00  0.00    -0.075 A 
ATOM      2  C4  UNL d   1      -0.845  -0.580   0.607  0.00  0.00     0.002 A 
ATOM      3  C5  UNL d   1      -1.212  -0.921   1.909  0.00  0.00     0.002 A 
ATOM      4  C6  UNL d   1      -0.430  -0.510   2.987  0.00  0.00    -0.004 A 
ATOM      5  C7  UNL d   1       0.724   0.237   2.760  0.00  0.00     0.002 A 
ATOM      6  C8  UNL d   1       1.091   0.583   1.459  0.00  0.00     0.002 A 
ENDROOT
BRANCH   1   7
ATOM      7  C2  UNL d   1       0.691   0.583  -1.036  0.00  0.00     0.056 C 
BRANCH   7   8
ATOM      8  C1  UNL d   1       0.209  -0.393  -2.115  0.00  0.00     0.007 C 
ATOM      9  C   UNL d   1       1.250  -0.655  -3.196  0.00  0.00     0.009 C 
ENDBRANCH   7   8
ENDBRANCH   1   7
TORSDOF 2
ENDMDL
