MODEL 1
REMARK minimizedAffinity -2.69079375
REMARK minimizedRMSD -1
REMARK  2 active torsions:
REMARK  status: ('A' for Active; 'I' for Inactive)
REMARK    1  A    between atoms: C1_2  and  C2_3 
REMARK    2  A    between atoms: C2_3  and  C3_4 
ROOT
ATOM      1  C3  UNL d   1       0.770   0.013  -0.039  0.00  0.00    -0.075 A 
ATOM      2  C4  UNL d   1      -0.115   0.784   0.729  0.00  0.00     0.002 A 
ATOM      3  C5  UNL d   1      -0.022   0.792   2.121  0.00  0.00     0.002 A 
ATOM      4  C6  UNL d   1       0.948   0.024   2.762  0.00  0.00    -0.004 A 
ATOM      5  C7  UNL d   1       1.821  -0.758   2.009  0.00  0.00     0.002 A 
ATOM      6  C8  UNL d   1       1.733  -0.765   0.616  0.00  0.00     0.002 A 
ENDROOT
BRANCH   1   7
ATOM      7  C2  UNL d   1       0.693   0.022  -1.548  0.00  0.00     0.056 C 
BRANCH   7   8
ATOM      8  C1  UNL d   1       1.752  -0.850  -2.231  0.00  0.00     0.007 C 
ATOM      9  C   UNL d   1       1.156  -1.993  -3.041  0.00  0.00     0.009 C 
ENDBRANCH   7   8
ENDBRANCH   1   7
TORSDOF 2
ENDMDL
