MODEL 1
REMARK minimizedAffinity -4.99941969
REMARK minimizedRMSD -1
REMARK  2 active torsions:
REMARK  status: ('A' for Active; 'I' for Inactive)
REMARK    1  A    between atoms: C1_2  and  C2_3 
REMARK    2  A    between atoms: C2_3  and  C3_4 
ROOT
ATOM      1  C3  UNL d   1       0.160  -0.044  -0.020  0.00  0.00    -0.075 A 
ATOM      2  C4  UNL d   1       1.218   0.459   0.752  0.00  0.00     0.002 A 
ATOM      3  C5  UNL d   1       1.128   0.489   2.144  0.00  0.00     0.002 A 
ATOM      4  C6  UNL d   1      -0.022   0.028   2.780  0.00  0.00    -0.004 A 
ATOM      5  C7  UNL d   1      -1.086  -0.459   2.023  0.00  0.00     0.002 A 
ATOM      6  C8  UNL d   1      -0.996  -0.494   0.630  0.00  0.00     0.002 A 
ENDROOT
BRANCH   1   7
ATOM      7  C2  UNL d   1       0.264  -0.106  -1.525  0.00  0.00     0.056 C 
BRANCH   7   8
ATOM      8  C1  UNL d   1       1.309  -1.103  -2.038  0.00  0.00     0.007 C 
ATOM      9  C   UNL d   1       0.785  -2.003  -3.149  0.00  0.00     0.009 C 
ENDBRANCH   7   8
ENDBRANCH   1   7
TORSDOF 2
ENDMDL
