MODEL 1
REMARK minimizedAffinity -3.4000144
REMARK minimizedRMSD -1
REMARK  2 active torsions:
REMARK  status: ('A' for Active; 'I' for Inactive)
REMARK    1  A    between atoms: C1_2  and  C2_3 
REMARK    2  A    between atoms: C2_3  and  C3_4 
ROOT
ATOM      1  C3  UNL d   1       2.411  -0.855  -3.064  0.00  0.00    -0.075 A 
ATOM      2  C4  UNL d   1       2.403   0.296  -2.263  0.00  0.00     0.002 A 
ATOM      3  C5  UNL d   1       3.468   1.197  -2.306  0.00  0.00     0.002 A 
ATOM      4  C6  UNL d   1       4.556   0.954  -3.141  0.00  0.00    -0.004 A 
ATOM      5  C7  UNL d   1       4.582  -0.195  -3.929  0.00  0.00     0.002 A 
ATOM      6  C8  UNL d   1       3.516  -1.095  -3.891  0.00  0.00     0.002 A 
ENDROOT
BRANCH   1   7
ATOM      7  C2  UNL d   1       1.248  -1.818  -3.044  0.00  0.00     0.056 C 
BRANCH   7   8
ATOM      8  C1  UNL d   1       0.765  -2.242  -4.435  0.00  0.00     0.007 C 
ATOM      9  C   UNL d   1      -0.592  -2.933  -4.415  0.00  0.00     0.009 C 
ENDBRANCH   7   8
ENDBRANCH   1   7
TORSDOF 2
ENDMDL
