MODEL 1
REMARK minimizedAffinity 5.57943726
REMARK minimizedRMSD -1
REMARK  0 active torsions:
REMARK  status: ('A' for Active; 'I' for Inactive)
ROOT
ATOM      1  N1  IND d   1       0.705   1.351  -3.440  0.00  0.00    -0.196 N 
ATOM      2  C2  IND d   1       0.339   2.251  -2.478  0.00  0.00     0.054 A 
ATOM      3  C3  IND d   1       0.227   1.637  -1.278  0.00  0.00    -0.031 A 
ATOM      4  C4  IND d   1       0.698  -0.813  -0.645  0.00  0.00     0.051 A 
ATOM      5  C5  IND d   1       1.023  -2.024  -1.190  0.00  0.00    -0.031 A 
ATOM      6  C6  IND d   1       1.266  -2.173  -2.540  0.00  0.00     0.015 A 
ATOM      7  C7  IND d   1       1.204  -1.111  -3.397  0.00  0.00    -0.016 A 
ATOM      8  C8  IND d   1       0.868   0.118  -2.848  0.00  0.00    -0.047 A 
ATOM      9  C9  IND d   1       0.579   0.268  -1.486  0.00  0.00    -0.096 A 
ATOM     10  HN1 IND d   1       0.816   1.527  -4.274  0.00  0.00     0.298 HD
ENDROOT
TORSDOF 0
ENDMDL
