MODEL 1
REMARK minimizedAffinity 3.48229504
REMARK minimizedRMSD -1
REMARK  0 active torsions:
REMARK  status: ('A' for Active; 'I' for Inactive)
ROOT
ATOM      1  N1  IND d   1       4.689  -0.005  -5.972  0.00  0.00    -0.196 N 
ATOM      2  C2  IND d   1       5.976   0.455  -5.976  0.00  0.00     0.054 A 
ATOM      3  C3  IND d   1       6.000   1.789  -5.761  0.00  0.00    -0.031 A 
ATOM      4  C4  IND d   1       4.053   3.403  -5.276  0.00  0.00     0.051 A 
ATOM      5  C5  IND d   1       2.689   3.455  -5.207  0.00  0.00    -0.031 A 
ATOM      6  C6  IND d   1       1.907   2.334  -5.390  0.00  0.00     0.015 A 
ATOM      7  C7  IND d   1       2.462   1.110  -5.639  0.00  0.00    -0.016 A 
ATOM      8  C8  IND d   1       3.846   1.055  -5.717  0.00  0.00    -0.047 A 
ATOM      9  C9  IND d   1       4.644   2.197  -5.575  0.00  0.00    -0.096 A 
ATOM     10  HN1 IND d   1       4.446  -0.819  -6.106  0.00  0.00     0.298 HD
ENDROOT
TORSDOF 0
ENDMDL
