MODEL 1
REMARK minimizedAffinity 3.30313635
REMARK minimizedRMSD -1
REMARK  0 active torsions:
REMARK  status: ('A' for Active; 'I' for Inactive)
ROOT
ATOM      1  N1  IND d   1       0.428  -1.915  -1.105  0.00  0.00    -0.196 N 
ATOM      2  C2  IND d   1       1.754  -1.657  -0.900  0.00  0.00     0.054 A 
ATOM      3  C3  IND d   1       2.251  -2.476   0.054  0.00  0.00    -0.031 A 
ATOM      4  C4  IND d   1       1.090  -4.381   1.339  0.00  0.00     0.051 A 
ATOM      5  C5  IND d   1      -0.129  -4.972   1.521  0.00  0.00    -0.031 A 
ATOM      6  C6  IND d   1      -1.247  -4.567   0.821  0.00  0.00     0.015 A 
ATOM      7  C7  IND d   1      -1.184  -3.560  -0.100  0.00  0.00    -0.016 A 
ATOM      8  C8  IND d   1       0.050  -2.953  -0.282  0.00  0.00    -0.047 A 
ATOM      9  C9  IND d   1       1.179  -3.331   0.456  0.00  0.00    -0.096 A 
ATOM     10  HN1 IND d   1      -0.085  -1.499  -1.656  0.00  0.00     0.298 HD
ENDROOT
TORSDOF 0
ENDMDL
