MODEL 1
REMARK minimizedAffinity -1.148072
REMARK minimizedRMSD -1
REMARK  0 active torsions:
REMARK  status: ('A' for Active; 'I' for Inactive)
ROOT
ATOM      1  N1  IND d   1      -4.402   2.331   6.000  0.00  0.00    -0.196 N 
ATOM      2  C2  IND d   1      -3.506   1.557   5.317  0.00  0.00     0.054 A 
ATOM      3  C3  IND d   1      -2.770   2.319   4.478  0.00  0.00    -0.031 A 
ATOM      4  C4  IND d   1      -2.797   4.870   4.136  0.00  0.00     0.051 A 
ATOM      5  C5  IND d   1      -3.469   6.000   4.509  0.00  0.00    -0.031 A 
ATOM      6  C6  IND d   1      -4.507   5.964   5.418  0.00  0.00     0.015 A 
ATOM      7  C7  IND d   1      -4.904   4.793   6.000  0.00  0.00    -0.016 A 
ATOM      8  C8  IND d   1      -4.228   3.643   5.618  0.00  0.00    -0.047 A 
ATOM      9  C9  IND d   1      -3.203   3.667   4.664  0.00  0.00    -0.096 A 
ATOM     10  HN1 IND d   1      -4.978   2.046   6.571  0.00  0.00     0.298 HD
ENDROOT
TORSDOF 0
ENDMDL
