MODEL 1
REMARK minimizedAffinity 6.11453152
REMARK minimizedRMSD -1
REMARK  0 active torsions:
REMARK  status: ('A' for Active; 'I' for Inactive)
ROOT
ATOM      1  N1  IND d   1       1.404  -2.847  -0.810  0.00  0.00    -0.196 N 
ATOM      2  C2  IND d   1       1.296  -1.855   0.124  0.00  0.00     0.054 A 
ATOM      3  C3  IND d   1       1.136  -0.656  -0.480  0.00  0.00    -0.031 A 
ATOM      4  C4  IND d   1       0.920  -0.101  -2.984  0.00  0.00     0.051 A 
ATOM      5  C5  IND d   1       0.992  -0.672  -4.224  0.00  0.00    -0.031 A 
ATOM      6  C6  IND d   1       1.207  -2.025  -4.393  0.00  0.00     0.015 A 
ATOM      7  C7  IND d   1       1.346  -2.863  -3.323  0.00  0.00    -0.016 A 
ATOM      8  C8  IND d   1       1.281  -2.285  -2.062  0.00  0.00    -0.047 A 
ATOM      9  C9  IND d   1       1.106  -0.907  -1.886  0.00  0.00    -0.096 A 
ATOM     10  HN1 IND d   1       1.527  -3.682  -0.644  0.00  0.00     0.298 HD
ENDROOT
TORSDOF 0
ENDMDL
