MODEL 1
REMARK minimizedAffinity 4.00683975
REMARK minimizedRMSD -1
REMARK  0 active torsions:
REMARK  status: ('A' for Active; 'I' for Inactive)
ROOT
ATOM      1  N1  IND d   1       1.634  -1.560  -4.707  0.00  0.00    -0.196 N 
ATOM      2  C2  IND d   1       1.901  -0.230  -4.877  0.00  0.00     0.054 A 
ATOM      3  C3  IND d   1       1.766   0.430  -3.705  0.00  0.00    -0.031 A 
ATOM      4  C4  IND d   1       1.214  -0.488  -1.364  0.00  0.00     0.051 A 
ATOM      5  C5  IND d   1       0.854  -1.635  -0.714  0.00  0.00    -0.031 A 
ATOM      6  C6  IND d   1       0.736  -2.841  -1.375  0.00  0.00     0.015 A 
ATOM      7  C7  IND d   1       0.986  -2.947  -2.714  0.00  0.00    -0.016 A 
ATOM      8  C8  IND d   1       1.345  -1.783  -3.379  0.00  0.00    -0.047 A 
ATOM      9  C9  IND d   1       1.425  -0.548  -2.722  0.00  0.00    -0.096 A 
ATOM     10  HN1 IND d   1       1.645  -2.158  -5.325  0.00  0.00     0.298 HD
ENDROOT
TORSDOF 0
ENDMDL
