MODEL 1
REMARK minimizedAffinity 3.77180219
REMARK minimizedRMSD -1
REMARK  0 active torsions:
REMARK  status: ('A' for Active; 'I' for Inactive)
ROOT
ATOM      1  N1  IND d   1       1.146  -2.716  -2.052  0.00  0.00    -0.196 N 
ATOM      2  C2  IND d   1       1.376  -3.032  -3.362  0.00  0.00     0.054 A 
ATOM      3  C3  IND d   1       1.345  -1.918  -4.127  0.00  0.00    -0.031 A 
ATOM      4  C4  IND d   1       1.036   0.540  -3.426  0.00  0.00     0.051 A 
ATOM      5  C5  IND d   1       0.757   1.324  -2.342  0.00  0.00    -0.031 A 
ATOM      6  C6  IND d   1       0.593   0.791  -1.080  0.00  0.00     0.015 A 
ATOM      7  C7  IND d   1       0.713  -0.551  -0.852  0.00  0.00    -0.016 A 
ATOM      8  C8  IND d   1       0.990  -1.351  -1.952  0.00  0.00    -0.047 A 
ATOM      9  C9  IND d   1       1.115  -0.821  -3.242  0.00  0.00    -0.096 A 
ATOM     10  HN1 IND d   1       1.106  -3.275  -1.401  0.00  0.00     0.298 HD
ENDROOT
TORSDOF 0
ENDMDL
