MODEL 1
REMARK minimizedAffinity 1.85036385
REMARK minimizedRMSD -1
REMARK  0 active torsions:
REMARK  status: ('A' for Active; 'I' for Inactive)
ROOT
ATOM      1  N1  IND d   1       4.668   4.236  -3.885  0.00  0.00    -0.196 N 
ATOM      2  C2  IND d   1       3.536   4.712  -4.487  0.00  0.00     0.054 A 
ATOM      3  C3  IND d   1       3.079   3.823  -5.397  0.00  0.00    -0.031 A 
ATOM      4  C4  IND d   1       3.972   1.483  -5.991  0.00  0.00     0.051 A 
ATOM      5  C5  IND d   1       5.006   0.628  -5.734  0.00  0.00    -0.031 A 
ATOM      6  C6  IND d   1       5.999   0.936  -4.827  0.00  0.00     0.015 A 
ATOM      7  C7  IND d   1       5.989   2.112  -4.132  0.00  0.00    -0.016 A 
ATOM      8  C8  IND d   1       4.944   2.987  -4.396  0.00  0.00    -0.047 A 
ATOM      9  C9  IND d   1       3.957   2.697  -5.347  0.00  0.00    -0.096 A 
ATOM     10  HN1 IND d   1       5.130   4.648  -3.289  0.00  0.00     0.298 HD
ENDROOT
TORSDOF 0
ENDMDL
