MODEL 1
REMARK minimizedAffinity 5.44340134
REMARK minimizedRMSD -1
REMARK  0 active torsions:
REMARK  status: ('A' for Active; 'I' for Inactive)
ROOT
ATOM      1  N1  IND d   1       1.091  -1.848  -1.942  0.00  0.00    -0.196 N 
ATOM      2  C2  IND d   1       0.854  -1.878  -0.596  0.00  0.00     0.054 A 
ATOM      3  C3  IND d   1       0.677  -0.624  -0.122  0.00  0.00    -0.031 A 
ATOM      4  C4  IND d   1       0.634   1.614  -1.394  0.00  0.00     0.051 A 
ATOM      5  C5  IND d   1       0.838   2.153  -2.633  0.00  0.00    -0.031 A 
ATOM      6  C6  IND d   1       1.140   1.370  -3.728  0.00  0.00     0.015 A 
ATOM      7  C7  IND d   1       1.239   0.011  -3.626  0.00  0.00    -0.016 A 
ATOM      8  C8  IND d   1       1.039  -0.539  -2.368  0.00  0.00    -0.047 A 
ATOM      9  C9  IND d   1       0.775   0.255  -1.245  0.00  0.00    -0.096 A 
ATOM     10  HN1 IND d   1       1.247  -2.532  -2.439  0.00  0.00     0.298 HD
ENDROOT
TORSDOF 0
ENDMDL
