MODEL 1
REMARK minimizedAffinity 5.25613022
REMARK minimizedRMSD -1
REMARK  0 active torsions:
REMARK  status: ('A' for Active; 'I' for Inactive)
ROOT
ATOM      1  N1  IND d   1       4.588   4.292  -3.820  0.00  0.00    -0.196 N 
ATOM      2  C2  IND d   1       3.377   4.727  -4.282  0.00  0.00     0.054 A 
ATOM      3  C3  IND d   1       2.881   3.858  -5.191  0.00  0.00    -0.031 A 
ATOM      4  C4  IND d   1       3.839   1.609  -5.997  0.00  0.00     0.051 A 
ATOM      5  C5  IND d   1       4.940   0.806  -5.888  0.00  0.00    -0.031 A 
ATOM      6  C6  IND d   1       6.000   1.130  -5.066  0.00  0.00     0.015 A 
ATOM      7  C7  IND d   1       5.993   2.267  -4.310  0.00  0.00    -0.016 A 
ATOM      8  C8  IND d   1       4.880   3.088  -4.423  0.00  0.00    -0.047 A 
ATOM      9  C9  IND d   1       3.821   2.787  -5.288  0.00  0.00    -0.096 A 
ATOM     10  HN1 IND d   1       5.084   4.702  -3.249  0.00  0.00     0.298 HD
ENDROOT
TORSDOF 0
ENDMDL
