MODEL 1
REMARK minimizedAffinity -1.64571059
REMARK minimizedRMSD -1
REMARK  0 active torsions:
REMARK  status: ('A' for Active; 'I' for Inactive)
ROOT
ATOM      1  N1  IND d   1       0.943  -2.386  -1.385  0.00  0.00    -0.196 N 
ATOM      2  C2  IND d   1       0.491  -2.442  -0.096  0.00  0.00     0.054 A 
ATOM      3  C3  IND d   1       0.227  -1.199   0.365  0.00  0.00    -0.031 A 
ATOM      4  C4  IND d   1       0.366   1.062  -0.858  0.00  0.00     0.051 A 
ATOM      5  C5  IND d   1       0.761   1.625  -2.039  0.00  0.00    -0.031 A 
ATOM      6  C6  IND d   1       1.244   0.865  -3.084  0.00  0.00     0.015 A 
ATOM      7  C7  IND d   1       1.340  -0.495  -2.991  0.00  0.00    -0.016 A 
ATOM      8  C8  IND d   1       0.946  -1.070  -1.791  0.00  0.00    -0.047 A 
ATOM      9  C9  IND d   1       0.495  -0.299  -0.711  0.00  0.00    -0.096 A 
ATOM     10  HN1 IND d   1       1.184  -3.060  -1.862  0.00  0.00     0.298 HD
ENDROOT
TORSDOF 0
ENDMDL
