MODEL 1
REMARK minimizedAffinity 4.0980196
REMARK minimizedRMSD -1
REMARK  0 active torsions:
REMARK  status: ('A' for Active; 'I' for Inactive)
ROOT
ATOM      1  N1  IND d   1       0.924  -0.365  -4.140  0.00  0.00    -0.196 N 
ATOM      2  C2  IND d   1       1.273  -1.683  -4.231  0.00  0.00     0.054 A 
ATOM      3  C3  IND d   1       1.470  -2.204  -2.999  0.00  0.00    -0.031 A 
ATOM      4  C4  IND d   1       1.174  -1.102  -0.692  0.00  0.00     0.051 A 
ATOM      5  C5  IND d   1       0.903   0.099  -0.098  0.00  0.00    -0.031 A 
ATOM      6  C6  IND d   1       0.616   1.229  -0.837  0.00  0.00     0.015 A 
ATOM      7  C7  IND d   1       0.578   1.197  -2.202  0.00  0.00    -0.016 A 
ATOM      8  C8  IND d   1       0.861  -0.019  -2.808  0.00  0.00    -0.047 A 
ATOM      9  C9  IND d   1       1.195  -1.159  -2.065  0.00  0.00    -0.096 A 
ATOM     10  HN1 IND d   1       0.770   0.161  -4.803  0.00  0.00     0.298 HD
ENDROOT
TORSDOF 0
ENDMDL
