MODEL 1
REMARK minimizedAffinity 3.85888886
REMARK minimizedRMSD -1
REMARK  0 active torsions:
REMARK  status: ('A' for Active; 'I' for Inactive)
ROOT
ATOM      1  N1  IND d   1       0.836  -1.937  -1.653  0.00  0.00    -0.196 N 
ATOM      2  C2  IND d   1       1.261  -2.625  -2.755  0.00  0.00     0.054 A 
ATOM      3  C3  IND d   1       1.521  -1.771  -3.770  0.00  0.00    -0.031 A 
ATOM      4  C4  IND d   1       1.415   0.801  -3.813  0.00  0.00     0.051 A 
ATOM      5  C5  IND d   1       1.046   1.876  -3.055  0.00  0.00    -0.031 A 
ATOM      6  C6  IND d   1       0.581   1.733  -1.764  0.00  0.00     0.015 A 
ATOM      7  C7  IND d   1       0.478   0.504  -1.176  0.00  0.00    -0.016 A 
ATOM      8  C8  IND d   1       0.845  -0.591  -1.945  0.00  0.00    -0.047 A 
ATOM      9  C9  IND d   1       1.278  -0.455  -3.270  0.00  0.00    -0.096 A 
ATOM     10  HN1 IND d   1       0.601  -2.287  -0.903  0.00  0.00     0.298 HD
ENDROOT
TORSDOF 0
ENDMDL
