MODEL 1
REMARK minimizedAffinity 1.29159236
REMARK minimizedRMSD -1
REMARK  0 active torsions:
REMARK  status: ('A' for Active; 'I' for Inactive)
ROOT
ATOM      1  N1  IND d   1       1.006  -2.006  -1.987  0.00  0.00    -0.196 N 
ATOM      2  C2  IND d   1       1.299  -2.278  -3.295  0.00  0.00     0.054 A 
ATOM      3  C3  IND d   1       1.438  -1.129  -3.994  0.00  0.00    -0.031 A 
ATOM      4  C4  IND d   1       1.327   1.308  -3.174  0.00  0.00     0.051 A 
ATOM      5  C5  IND d   1       1.049   2.061  -2.068  0.00  0.00    -0.031 A 
ATOM      6  C6  IND d   1       0.739   1.485  -0.853  0.00  0.00     0.015 A 
ATOM      7  C7  IND d   1       0.706   0.128  -0.696  0.00  0.00    -0.016 A 
ATOM      8  C8  IND d   1       0.981  -0.639  -1.819  0.00  0.00    -0.047 A 
ATOM      9  C9  IND d   1       1.255  -0.060  -3.064  0.00  0.00    -0.096 A 
ATOM     10  HN1 IND d   1       0.861  -2.591  -1.374  0.00  0.00     0.298 HD
ENDROOT
TORSDOF 0
ENDMDL
