MODEL 1
REMARK minimizedAffinity 3.52613211
REMARK minimizedRMSD -1
REMARK  0 active torsions:
REMARK  status: ('A' for Active; 'I' for Inactive)
ROOT
ATOM      1  N1  IND d   1      -4.134   2.393   6.000  0.00  0.00    -0.196 N 
ATOM      2  C2  IND d   1      -3.383   1.618   5.161  0.00  0.00     0.054 A 
ATOM      3  C3  IND d   1      -2.913   2.358   4.131  0.00  0.00    -0.031 A 
ATOM      4  C4  IND d   1      -3.169   4.880   3.679  0.00  0.00     0.051 A 
ATOM      5  C5  IND d   1      -3.798   6.000   4.146  0.00  0.00    -0.031 A 
ATOM      6  C6  IND d   1      -4.584   5.975   5.280  0.00  0.00     0.015 A 
ATOM      7  C7  IND d   1      -4.763   4.826   5.998  0.00  0.00    -0.016 A 
ATOM      8  C8  IND d   1      -4.132   3.686   5.522  0.00  0.00    -0.047 A 
ATOM      9  C9  IND d   1      -3.366   3.696   4.349  0.00  0.00    -0.096 A 
ATOM     10  HN1 IND d   1      -4.539   2.120   6.707  0.00  0.00     0.298 HD
ENDROOT
TORSDOF 0
ENDMDL
