MODEL 1
REMARK minimizedAffinity 0.686010063
REMARK minimizedRMSD -1
REMARK  0 active torsions:
REMARK  status: ('A' for Active; 'I' for Inactive)
ROOT
ATOM      1  N1  IND d   1       5.186  -0.114  -3.969  0.00  0.00    -0.196 N 
ATOM      2  C2  IND d   1       5.415   0.095  -5.300  0.00  0.00     0.054 A 
ATOM      3  C3  IND d   1       4.261  -0.004  -5.998  0.00  0.00    -0.031 A 
ATOM      4  C4  IND d   1       1.865  -0.403  -5.147  0.00  0.00     0.051 A 
ATOM      5  C5  IND d   1       1.158  -0.689  -4.012  0.00  0.00    -0.031 A 
ATOM      6  C6  IND d   1       1.770  -0.797  -2.780  0.00  0.00     0.015 A 
ATOM      7  C7  IND d   1       3.116  -0.611  -2.634  0.00  0.00    -0.016 A 
ATOM      8  C8  IND d   1       3.837  -0.328  -3.785  0.00  0.00    -0.047 A 
ATOM      9  C9  IND d   1       3.228  -0.260  -5.045  0.00  0.00    -0.096 A 
ATOM     10  HN1 IND d   1       5.783  -0.113  -3.351  0.00  0.00     0.298 HD
ENDROOT
TORSDOF 0
ENDMDL
