MODEL 1
REMARK minimizedAffinity -5.59770823
REMARK minimizedRMSD -1
REMARK  0 active torsions:
REMARK  status: ('A' for Active; 'I' for Inactive)
ROOT
ATOM      1  C   UNL d   1       2.713   0.065   2.743  0.00  0.00     0.077 C 
ATOM      2  C1  UNL d   1       1.260   0.421   2.637  0.00  0.00    -0.074 A 
ATOM      3  C2  UNL d   1       0.654   1.255   3.583  0.00  0.00    -0.005 A 
ATOM      4  C3  UNL d   1      -0.697   1.585   3.466  0.00  0.00     0.006 A 
ATOM      5  C4  UNL d   1      -1.453   1.086   2.405  0.00  0.00    -0.005 A 
ATOM      6  C5  UNL d   1      -0.864   0.251   1.450  0.00  0.00    -0.074 A 
ATOM      7  C6  UNL d   1      -1.660  -0.286   0.298  0.00  0.00     0.077 C 
ATOM      8  C7  UNL d   1       0.495  -0.070   1.570  0.00  0.00    -0.001 A 
ENDROOT
TORSDOF 0
ENDMDL
