MODEL 1
REMARK minimizedAffinity -5.48781729
REMARK minimizedRMSD -1
REMARK  0 active torsions:
REMARK  status: ('A' for Active; 'I' for Inactive)
ROOT
ATOM      1  C   UNL d   1      -0.416   0.978   4.020  0.00  0.00     0.077 C 
ATOM      2  C1  UNL d   1      -0.241   0.450   2.627  0.00  0.00    -0.074 A 
ATOM      3  C2  UNL d   1       1.025   0.107   2.142  0.00  0.00    -0.005 A 
ATOM      4  C3  UNL d   1       1.170  -0.393   0.848  0.00  0.00     0.006 A 
ATOM      5  C4  UNL d   1       0.053  -0.554   0.027  0.00  0.00    -0.005 A 
ATOM      6  C5  UNL d   1      -1.221  -0.217   0.495  0.00  0.00    -0.074 A 
ATOM      7  C6  UNL d   1      -2.433  -0.393  -0.370  0.00  0.00     0.077 C 
ATOM      8  C7  UNL d   1      -1.360   0.278   1.799  0.00  0.00    -0.001 A 
ENDROOT
TORSDOF 0
ENDMDL
