MODEL 1
REMARK minimizedAffinity 1.50896573
REMARK minimizedRMSD -1
REMARK  0 active torsions:
REMARK  status: ('A' for Active; 'I' for Inactive)
ROOT
ATOM      1  C   UNL d   1      -0.806   1.089   3.827  0.00  0.00     0.077 C 
ATOM      2  C1  UNL d   1      -0.196   0.622   2.539  0.00  0.00    -0.074 A 
ATOM      3  C2  UNL d   1       1.123   0.948   2.208  0.00  0.00    -0.005 A 
ATOM      4  C3  UNL d   1       1.680   0.498   1.011  0.00  0.00     0.006 A 
ATOM      5  C4  UNL d   1       0.925  -0.281   0.134  0.00  0.00    -0.005 A 
ATOM      6  C5  UNL d   1      -0.396  -0.617   0.447  0.00  0.00    -0.074 A 
ATOM      7  C6  UNL d   1      -1.219  -1.462  -0.480  0.00  0.00     0.077 C 
ATOM      8  C7  UNL d   1      -0.946  -0.167   1.656  0.00  0.00    -0.001 A 
ENDROOT
TORSDOF 0
ENDMDL
