MODEL 1
REMARK minimizedAffinity 0.757336915
REMARK minimizedRMSD -1
REMARK  0 active torsions:
REMARK  status: ('A' for Active; 'I' for Inactive)
ROOT
ATOM      1  C   UNL d   1       1.470  -0.234   0.406  0.00  0.00     0.077 C 
ATOM      2  C1  UNL d   1       0.077  -0.655   0.042  0.00  0.00    -0.074 A 
ATOM      3  C2  UNL d   1      -1.033   0.061   0.501  0.00  0.00    -0.005 A 
ATOM      4  C3  UNL d   1      -2.322  -0.336   0.147  0.00  0.00     0.006 A 
ATOM      5  C4  UNL d   1      -2.514  -1.452  -0.669  0.00  0.00    -0.005 A 
ATOM      6  C5  UNL d   1      -1.416  -2.180  -1.138  0.00  0.00    -0.074 A 
ATOM      7  C6  UNL d   1      -1.604  -3.376  -2.024  0.00  0.00     0.077 C 
ATOM      8  C7  UNL d   1      -0.123  -1.770  -0.783  0.00  0.00    -0.001 A 
ENDROOT
TORSDOF 0
ENDMDL
