MODEL 1
REMARK minimizedAffinity -1.14499843
REMARK minimizedRMSD -1
REMARK  0 active torsions:
REMARK  status: ('A' for Active; 'I' for Inactive)
ROOT
ATOM      1  C   UNL d   1       3.753  -0.929  -3.864  0.00  0.00     0.077 C 
ATOM      2  C1  UNL d   1       2.452  -0.316  -3.441  0.00  0.00    -0.074 A 
ATOM      3  C2  UNL d   1       1.843   0.681  -4.211  0.00  0.00    -0.005 A 
ATOM      4  C3  UNL d   1       0.628   1.236  -3.809  0.00  0.00     0.006 A 
ATOM      5  C4  UNL d   1       0.010   0.800  -2.637  0.00  0.00    -0.005 A 
ATOM      6  C5  UNL d   1       0.603  -0.197  -1.855  0.00  0.00    -0.074 A 
ATOM      7  C6  UNL d   1      -0.054  -0.684  -0.598  0.00  0.00     0.077 C 
ATOM      8  C7  UNL d   1       1.820  -0.754  -2.269  0.00  0.00    -0.001 A 
ENDROOT
TORSDOF 0
ENDMDL
