MODEL 1
REMARK minimizedAffinity -3.39408684
REMARK minimizedRMSD -1
REMARK  0 active torsions:
REMARK  status: ('A' for Active; 'I' for Inactive)
ROOT
ATOM      1  C   UNL d   1      -0.850   1.176   3.132  0.00  0.00     0.077 C 
ATOM      2  C1  UNL d   1      -0.656   0.697   1.724  0.00  0.00    -0.074 A 
ATOM      3  C2  UNL d   1       0.392   1.187   0.936  0.00  0.00    -0.005 A 
ATOM      4  C3  UNL d   1       0.566   0.725  -0.368  0.00  0.00     0.006 A 
ATOM      5  C4  UNL d   1      -0.304  -0.229  -0.898  0.00  0.00    -0.005 A 
ATOM      6  C5  UNL d   1      -1.356  -0.731  -0.125  0.00  0.00    -0.074 A 
ATOM      7  C6  UNL d   1      -2.294  -1.764  -0.675  0.00  0.00     0.077 C 
ATOM      8  C7  UNL d   1      -1.520  -0.267   1.187  0.00  0.00    -0.001 A 
ENDROOT
TORSDOF 0
ENDMDL
