MODEL 1
REMARK minimizedAffinity -5.24725056
REMARK minimizedRMSD -1
REMARK  0 active torsions:
REMARK  status: ('A' for Active; 'I' for Inactive)
ROOT
ATOM      1  C   UNL d   1      -5.100  -2.653  -1.304  0.00  0.00     0.077 C 
ATOM      2  C1  UNL d   1      -3.613  -2.488  -1.199  0.00  0.00    -0.074 A 
ATOM      3  C2  UNL d   1      -2.746  -3.502  -1.618  0.00  0.00    -0.005 A 
ATOM      4  C3  UNL d   1      -1.365  -3.331  -1.523  0.00  0.00     0.006 A 
ATOM      5  C4  UNL d   1      -0.838  -2.145  -1.009  0.00  0.00    -0.005 A 
ATOM      6  C5  UNL d   1      -1.689  -1.120  -0.586  0.00  0.00    -0.074 A 
ATOM      7  C6  UNL d   1      -1.139   0.164  -0.040  0.00  0.00     0.077 C 
ATOM      8  C7  UNL d   1      -3.076  -1.297  -0.691  0.00  0.00    -0.001 A 
ENDROOT
TORSDOF 0
ENDMDL
