MODEL 1
REMARK minimizedAffinity 1.52233005
REMARK minimizedRMSD -1
REMARK  0 active torsions:
REMARK  status: ('A' for Active; 'I' for Inactive)
ROOT
ATOM      1  C   UNL d   1       3.949  -0.368  -3.623  0.00  0.00     0.077 C 
ATOM      2  C1  UNL d   1       2.559   0.155  -3.416  0.00  0.00    -0.074 A 
ATOM      3  C2  UNL d   1       1.863   0.779  -4.457  0.00  0.00    -0.005 A 
ATOM      4  C3  UNL d   1       0.567   1.252  -4.252  0.00  0.00     0.006 A 
ATOM      5  C4  UNL d   1      -0.045   1.107  -3.006  0.00  0.00    -0.005 A 
ATOM      6  C5  UNL d   1       0.634   0.485  -1.954  0.00  0.00    -0.074 A 
ATOM      7  C6  UNL d   1      -0.013   0.312  -0.612  0.00  0.00     0.077 C 
ATOM      8  C7  UNL d   1       1.934   0.006  -2.170  0.00  0.00    -0.001 A 
ENDROOT
TORSDOF 0
ENDMDL
