MODEL 1
REMARK minimizedAffinity 3.1716783
REMARK minimizedRMSD -1
REMARK  0 active torsions:
REMARK  status: ('A' for Active; 'I' for Inactive)
ROOT
ATOM      1  C   UNL d   1       1.477   2.039   3.675  0.00  0.00     0.077 C 
ATOM      2  C1  UNL d   1       1.143   0.827   4.493  0.00  0.00    -0.074 A 
ATOM      3  C2  UNL d   1      -0.066   0.743   5.192  0.00  0.00    -0.005 A 
ATOM      4  C3  UNL d   1      -0.367  -0.395   5.941  0.00  0.00     0.006 A 
ATOM      5  C4  UNL d   1       0.535  -1.458   5.998  0.00  0.00    -0.005 A 
ATOM      6  C5  UNL d   1       1.748  -1.392   5.305  0.00  0.00    -0.074 A 
ATOM      7  C6  UNL d   1       2.724  -2.530   5.347  0.00  0.00     0.077 C 
ATOM      8  C7  UNL d   1       2.040  -0.249   4.549  0.00  0.00    -0.001 A 
ENDROOT
TORSDOF 0
ENDMDL
