MODEL 1
REMARK minimizedAffinity -2.80240989
REMARK minimizedRMSD -1
REMARK  0 active torsions:
REMARK  status: ('A' for Active; 'I' for Inactive)
ROOT
ATOM      1  C   UNL d   1       0.748  -0.393  -1.121  0.00  0.00     0.077 C 
ATOM      2  C1  UNL d   1       0.790   0.056  -2.551  0.00  0.00    -0.074 A 
ATOM      3  C2  UNL d   1       1.946   0.630  -3.090  0.00  0.00    -0.005 A 
ATOM      4  C3  UNL d   1       1.974   1.034  -4.425  0.00  0.00     0.006 A 
ATOM      5  C4  UNL d   1       0.847   0.869  -5.232  0.00  0.00    -0.005 A 
ATOM      6  C5  UNL d   1      -0.317   0.297  -4.711  0.00  0.00    -0.074 A 
ATOM      7  C6  UNL d   1      -1.533   0.103  -5.567  0.00  0.00     0.077 C 
ATOM      8  C7  UNL d   1      -0.334  -0.113  -3.371  0.00  0.00    -0.001 A 
ENDROOT
TORSDOF 0
ENDMDL
