MODEL 1
REMARK minimizedAffinity -2.61210513
REMARK minimizedRMSD -1
REMARK  1 active torsions:
REMARK  status: ('A' for Active; 'I' for Inactive)
REMARK    1  A    between atoms: N_2  and  C1_3 
ROOT
ATOM      1  C1  UNL d   1       0.134   0.182   0.003  0.00  0.00     0.143 A 
ATOM      2  C2  UNL d   1       0.827   0.812   1.041  0.00  0.00    -0.057 A 
ATOM      3  C3  UNL d   1       0.493   0.585   2.381  0.00  0.00     0.033 A 
ATOM      4  C4  UNL d   1      -0.564  -0.259   2.707  0.00  0.00    -0.042 A 
ATOM      5  C5  UNL d   1      -1.284  -0.877   1.691  0.00  0.00     0.033 A 
ATOM      6  C6  UNL d   1      -0.941  -0.651   0.354  0.00  0.00    -0.057 A 
ENDROOT
BRANCH   1   7
ATOM      7  N   UNL d   1       0.354   0.443  -1.352  0.00  0.00    -0.732 N 
ATOM      8  C   UNL d   1       0.010  -0.539  -2.358  0.00  0.00     0.284 C 
ATOM      9  H3  UNL d   1       0.118   1.400  -1.606  0.00  0.00     0.395 HD
ENDBRANCH   1   7
TORSDOF 1
ENDMDL
