MODEL 1
REMARK minimizedAffinity -5.55160236
REMARK minimizedRMSD -1
REMARK  1 active torsions:
REMARK  status: ('A' for Active; 'I' for Inactive)
REMARK    1  A    between atoms: N_2  and  C1_3 
ROOT
ATOM      1  C1  UNL d   1      -1.165  -0.135   0.220  0.00  0.00     0.143 A 
ATOM      2  C2  UNL d   1      -0.196  -0.358   1.204  0.00  0.00    -0.057 A 
ATOM      3  C3  UNL d   1      -0.531  -0.370   2.563  0.00  0.00     0.033 A 
ATOM      4  C4  UNL d   1      -1.840  -0.130   2.965  0.00  0.00    -0.042 A 
ATOM      5  C5  UNL d   1      -2.816   0.118   2.006  0.00  0.00     0.033 A 
ATOM      6  C6  UNL d   1      -2.477   0.123   0.650  0.00  0.00    -0.057 A 
ENDROOT
BRANCH   1   7
ATOM      7  N   UNL d   1      -0.878  -0.013  -1.142  0.00  0.00    -0.732 N 
ATOM      8  C   UNL d   1       0.491  -0.036  -1.611  0.00  0.00     0.284 C 
ATOM      9  H3  UNL d   1      -1.526  -0.538  -1.724  0.00  0.00     0.395 HD
ENDBRANCH   1   7
TORSDOF 1
ENDMDL
