MODEL 1
REMARK minimizedAffinity -1.96676826
REMARK minimizedRMSD -1
REMARK  1 active torsions:
REMARK  status: ('A' for Active; 'I' for Inactive)
REMARK    1  A    between atoms: N_2  and  C1_3 
ROOT
ATOM      1  C1  UNL d   1      -1.122  -0.492   1.083  0.00  0.00     0.143 A 
ATOM      2  C2  UNL d   1      -2.171  -0.128   0.232  0.00  0.00    -0.057 A 
ATOM      3  C3  UNL d   1      -1.935   0.228  -1.101  0.00  0.00     0.033 A 
ATOM      4  C4  UNL d   1      -0.637   0.253  -1.601  0.00  0.00    -0.042 A 
ATOM      5  C5  UNL d   1       0.424  -0.081  -0.766  0.00  0.00     0.033 A 
ATOM      6  C6  UNL d   1       0.180  -0.442   0.563  0.00  0.00    -0.057 A 
ENDROOT
BRANCH   1   7
ATOM      7  N   UNL d   1      -1.283  -0.760   2.445  0.00  0.00    -0.732 N 
ATOM      8  C   UNL d   1      -0.844   0.195   3.440  0.00  0.00     0.284 C 
ATOM      9  H3  UNL d   1      -2.179  -1.194   2.652  0.00  0.00     0.395 HD
ENDBRANCH   1   7
TORSDOF 1
ENDMDL
