MODEL 1
REMARK minimizedAffinity -3.99352288
REMARK minimizedRMSD -1
REMARK  1 active torsions:
REMARK  status: ('A' for Active; 'I' for Inactive)
REMARK    1  A    between atoms: N_2  and  C1_3 
ROOT
ATOM      1  C1  UNL d   1       0.301   0.268  -0.184  0.00  0.00     0.143 A 
ATOM      2  C2  UNL d   1       1.209   0.397   0.872  0.00  0.00    -0.057 A 
ATOM      3  C3  UNL d   1       0.838   0.103   2.190  0.00  0.00     0.033 A 
ATOM      4  C4  UNL d   1      -0.462  -0.298   2.479  0.00  0.00    -0.042 A 
ATOM      5  C5  UNL d   1      -1.389  -0.409   1.449  0.00  0.00     0.033 A 
ATOM      6  C6  UNL d   1      -1.010  -0.121   0.135  0.00  0.00    -0.057 A 
ENDROOT
BRANCH   1   7
ATOM      7  N   UNL d   1       0.581   0.639  -1.501  0.00  0.00    -0.732 N 
ATOM      8  C   UNL d   1       0.852  -0.365  -2.508  0.00  0.00     0.284 C 
ATOM      9  H3  UNL d   1      -0.009   1.402  -1.823  0.00  0.00     0.395 HD
ENDBRANCH   1   7
TORSDOF 1
ENDMDL
