MODEL 1
REMARK minimizedAffinity -4.90556288
REMARK minimizedRMSD -1
REMARK  1 active torsions:
REMARK  status: ('A' for Active; 'I' for Inactive)
REMARK    1  A    between atoms: N_2  and  C1_3 
ROOT
ATOM      1  C1  UNL d   1      -0.346   0.183   0.256  0.00  0.00     0.143 A 
ATOM      2  C2  UNL d   1       0.796   0.329   1.050  0.00  0.00    -0.057 A 
ATOM      3  C3  UNL d   1       0.796  -0.047   2.398  0.00  0.00     0.033 A 
ATOM      4  C4  UNL d   1      -0.359  -0.552   2.986  0.00  0.00    -0.042 A 
ATOM      5  C5  UNL d   1      -1.514  -0.682   2.222  0.00  0.00     0.033 A 
ATOM      6  C6  UNL d   1      -1.506  -0.310   0.874  0.00  0.00    -0.057 A 
ENDROOT
BRANCH   1   7
ATOM      7  N   UNL d   1      -0.439   0.631  -1.064  0.00  0.00    -0.732 N 
ATOM      8  C   UNL d   1       0.475   0.141  -2.074  0.00  0.00     0.284 C 
ATOM      9  H3  UNL d   1      -1.402   0.713  -1.380  0.00  0.00     0.395 HD
ENDBRANCH   1   7
TORSDOF 1
ENDMDL
