MODEL 1
REMARK minimizedAffinity -5.00064564
REMARK minimizedRMSD -1
REMARK  1 active torsions:
REMARK  status: ('A' for Active; 'I' for Inactive)
REMARK    1  A    between atoms: N_2  and  C1_3 
ROOT
ATOM      1  C1  UNL d   1      -1.052   0.108   0.735  0.00  0.00     0.143 A 
ATOM      2  C2  UNL d   1      -0.060  -0.154   1.687  0.00  0.00    -0.057 A 
ATOM      3  C3  UNL d   1      -0.390  -0.458   3.013  0.00  0.00     0.033 A 
ATOM      4  C4  UNL d   1      -1.720  -0.478   3.419  0.00  0.00    -0.042 A 
ATOM      5  C5  UNL d   1      -2.721  -0.197   2.495  0.00  0.00     0.033 A 
ATOM      6  C6  UNL d   1      -2.386   0.100   1.171  0.00  0.00    -0.057 A 
ENDROOT
BRANCH   1   7
ATOM      7  N   UNL d   1      -0.785   0.513  -0.575  0.00  0.00    -0.732 N 
ATOM      8  C   UNL d   1       0.459   0.151  -1.220  0.00  0.00     0.284 C 
ATOM      9  H3  UNL d   1      -1.601   0.442  -1.178  0.00  0.00     0.395 HD
ENDBRANCH   1   7
TORSDOF 1
ENDMDL
