MODEL 1
REMARK minimizedAffinity -4.6623702
REMARK minimizedRMSD -1
REMARK  1 active torsions:
REMARK  status: ('A' for Active; 'I' for Inactive)
REMARK    1  A    between atoms: N_2  and  C1_3 
ROOT
ATOM      1  C1  UNL d   1       2.961  -0.792  -3.760  0.00  0.00     0.143 A 
ATOM      2  C2  UNL d   1       2.371  -2.049  -3.933  0.00  0.00    -0.057 A 
ATOM      3  C3  UNL d   1       0.990  -2.230  -3.782  0.00  0.00     0.033 A 
ATOM      4  C4  UNL d   1       0.177  -1.159  -3.426  0.00  0.00    -0.042 A 
ATOM      5  C5  UNL d   1       0.745   0.093  -3.224  0.00  0.00     0.033 A 
ATOM      6  C6  UNL d   1       2.123   0.269  -3.383  0.00  0.00    -0.057 A 
ENDROOT
BRANCH   1   7
ATOM      7  N   UNL d   1       4.339  -0.568  -3.799  0.00  0.00    -0.732 N 
ATOM      8  C   UNL d   1       4.867   0.779  -3.790  0.00  0.00     0.284 C 
ATOM      9  H3  UNL d   1       4.855  -1.221  -3.215  0.00  0.00     0.395 HD
ENDBRANCH   1   7
TORSDOF 1
ENDMDL
