MODEL 1
REMARK minimizedAffinity -0.200228602
REMARK minimizedRMSD -1
REMARK  1 active torsions:
REMARK  status: ('A' for Active; 'I' for Inactive)
REMARK    1  A    between atoms: N_2  and  C1_3 
ROOT
ATOM      1  C1  UNL d   1      -0.336  -0.454  -0.269  0.00  0.00     0.143 A 
ATOM      2  C2  UNL d   1      -1.208   0.292   0.530  0.00  0.00    -0.057 A 
ATOM      3  C3  UNL d   1      -0.827   0.735   1.803  0.00  0.00     0.033 A 
ATOM      4  C4  UNL d   1       0.427   0.413   2.311  0.00  0.00    -0.042 A 
ATOM      5  C5  UNL d   1       1.301  -0.350   1.544  0.00  0.00     0.033 A 
ATOM      6  C6  UNL d   1       0.917  -0.783   0.271  0.00  0.00    -0.057 A 
ENDROOT
BRANCH   1   7
ATOM      7  N   UNL d   1      -0.692  -1.007  -1.502  0.00  0.00    -0.732 N 
ATOM      8  C   UNL d   1       0.274  -1.096  -2.576  0.00  0.00     0.284 C 
ATOM      9  H3  UNL d   1      -1.281  -1.830  -1.403  0.00  0.00     0.395 HD
ENDBRANCH   1   7
TORSDOF 1
ENDMDL
