MODEL 1
REMARK minimizedAffinity 1.97471476
REMARK minimizedRMSD -1
REMARK  1 active torsions:
REMARK  status: ('A' for Active; 'I' for Inactive)
REMARK    1  A    between atoms: N_2  and  C1_3 
ROOT
ATOM      1  C1  UNL d   1      -1.261   0.073   1.722  0.00  0.00     0.143 A 
ATOM      2  C2  UNL d   1      -0.641  -1.079   1.226  0.00  0.00    -0.057 A 
ATOM      3  C3  UNL d   1       0.644  -1.448   1.641  0.00  0.00     0.033 A 
ATOM      4  C4  UNL d   1       1.346  -0.653   2.541  0.00  0.00    -0.042 A 
ATOM      5  C5  UNL d   1       0.759   0.510   3.029  0.00  0.00     0.033 A 
ATOM      6  C6  UNL d   1      -0.527   0.869   2.616  0.00  0.00    -0.057 A 
ENDROOT
BRANCH   1   7
ATOM      7  N   UNL d   1      -2.497   0.546   1.274  0.00  0.00    -0.732 N 
ATOM      8  C   UNL d   1      -3.513   0.960   2.217  0.00  0.00     0.284 C 
ATOM      9  H3  UNL d   1      -2.409   1.154   0.463  0.00  0.00     0.395 HD
ENDBRANCH   1   7
TORSDOF 1
ENDMDL
