MODEL 1
REMARK minimizedAffinity 1.43393958
REMARK minimizedRMSD -1
REMARK  1 active torsions:
REMARK  status: ('A' for Active; 'I' for Inactive)
REMARK    1  A    between atoms: N_2  and  C1_3 
ROOT
ATOM      1  C1  UNL d   1       0.216  -0.136   2.606  0.00  0.00     0.143 A 
ATOM      2  C2  UNL d   1       1.294  -0.970   2.920  0.00  0.00    -0.057 A 
ATOM      3  C3  UNL d   1       2.578  -0.717   2.420  0.00  0.00     0.033 A 
ATOM      4  C4  UNL d   1       2.800   0.361   1.570  0.00  0.00    -0.042 A 
ATOM      5  C5  UNL d   1       1.738   1.189   1.224  0.00  0.00     0.033 A 
ATOM      6  C6  UNL d   1       0.460   0.936   1.732  0.00  0.00    -0.057 A 
ENDROOT
BRANCH   1   7
ATOM      7  N   UNL d   1      -1.102  -0.390   2.991  0.00  0.00    -0.732 N 
ATOM      8  C   UNL d   1      -2.205  -0.028   2.127  0.00  0.00     0.284 C 
ATOM      9  H3  UNL d   1      -1.207  -1.295   3.443  0.00  0.00     0.395 HD
ENDBRANCH   1   7
TORSDOF 1
ENDMDL
