MODEL 1
REMARK minimizedAffinity 3.13830233
REMARK minimizedRMSD -1
REMARK  1 active torsions:
REMARK  status: ('A' for Active; 'I' for Inactive)
REMARK    1  A    between atoms: N_2  and  C1_3 
ROOT
ATOM      1  C1  UNL d   1      -0.734  -0.576  -0.387  0.00  0.00     0.143 A 
ATOM      2  C2  UNL d   1      -0.647  -1.778  -1.098  0.00  0.00    -0.057 A 
ATOM      3  C3  UNL d   1      -0.134  -1.816  -2.400  0.00  0.00     0.033 A 
ATOM      4  C4  UNL d   1       0.276  -0.644  -3.027  0.00  0.00    -0.042 A 
ATOM      5  C5  UNL d   1       0.175   0.565  -2.349  0.00  0.00     0.033 A 
ATOM      6  C6  UNL d   1      -0.332   0.596  -1.046  0.00  0.00    -0.057 A 
ENDROOT
BRANCH   1   7
ATOM      7  N   UNL d   1      -1.326  -0.459   0.873  0.00  0.00    -0.732 N 
ATOM      8  C   UNL d   1      -0.574   0.062   1.995  0.00  0.00     0.284 C 
ATOM      9  H3  UNL d   1      -2.284  -0.121   0.822  0.00  0.00     0.395 HD
ENDBRANCH   1   7
TORSDOF 1
ENDMDL
