MODEL 1
REMARK minimizedAffinity 0.622302711
REMARK minimizedRMSD -1
REMARK  1 active torsions:
REMARK  status: ('A' for Active; 'I' for Inactive)
REMARK    1  A    between atoms: N_2  and  C1_3 
ROOT
ATOM      1  C1  UNL d   1       2.073   1.262  -5.551  0.00  0.00     0.143 A 
ATOM      2  C2  UNL d   1       1.365   2.139  -4.722  0.00  0.00    -0.057 A 
ATOM      3  C3  UNL d   1       1.960   3.303  -4.221  0.00  0.00     0.033 A 
ATOM      4  C4  UNL d   1       3.286   3.597  -4.518  0.00  0.00    -0.042 A 
ATOM      5  C5  UNL d   1       4.017   2.727  -5.320  0.00  0.00     0.033 A 
ATOM      6  C6  UNL d   1       3.415   1.569  -5.822  0.00  0.00    -0.057 A 
ENDROOT
BRANCH   1   7
ATOM      7  N   UNL d   1       1.569   0.039  -6.000  0.00  0.00    -0.732 N 
ATOM      8  C   UNL d   1       1.669  -1.147  -5.176  0.00  0.00     0.284 C 
ATOM      9  H3  UNL d   1       0.677   0.138  -6.478  0.00  0.00     0.395 HD
ENDBRANCH   1   7
TORSDOF 1
ENDMDL
