MODEL 1
REMARK minimizedAffinity -0.449132681
REMARK minimizedRMSD -1
REMARK  1 active torsions:
REMARK  status: ('A' for Active; 'I' for Inactive)
REMARK    1  A    between atoms: N_2  and  C1_3 
ROOT
ATOM      1  C1  UNL d   1      -1.708  -0.050   2.206  0.00  0.00     0.143 A 
ATOM      2  C2  UNL d   1      -0.740   0.867   1.783  0.00  0.00    -0.057 A 
ATOM      3  C3  UNL d   1       0.625   0.616   1.963  0.00  0.00     0.033 A 
ATOM      4  C4  UNL d   1       1.047  -0.548   2.597  0.00  0.00    -0.042 A 
ATOM      5  C5  UNL d   1       0.102  -1.462   3.049  0.00  0.00     0.033 A 
ATOM      6  C6  UNL d   1      -1.260  -1.209   2.860  0.00  0.00    -0.057 A 
ENDROOT
BRANCH   1   7
ATOM      7  N   UNL d   1      -3.084   0.187   2.145  0.00  0.00    -0.732 N 
ATOM      8  C   UNL d   1      -3.648   0.983   1.077  0.00  0.00     0.284 C 
ATOM      9  H3  UNL d   1      -3.631  -0.638   2.382  0.00  0.00     0.395 HD
ENDBRANCH   1   7
TORSDOF 1
ENDMDL
