MODEL 1
REMARK minimizedAffinity 3.10023999
REMARK minimizedRMSD -1
REMARK  2 active torsions:
REMARK  status: ('A' for Active; 'I' for Inactive)
REMARK    1  A    between atoms: C2'_3  and  C1'_4 
REMARK    2  A    between atoms: C1'_4  and  C1_5 
ROOT
ATOM      1  C1  I4B d   1       1.085  -0.769  -0.824  0.00  0.00    -0.075 A 
ATOM      2  C2  I4B d   1       1.976  -1.744  -1.197  0.00  0.00     0.003 A 
ATOM      3  C3  I4B d   1       3.361  -1.457  -1.260  0.00  0.00     0.002 A 
ATOM      4  C4  I4B d   1       3.803  -0.178  -0.991  0.00  0.00    -0.004 A 
ATOM      5  C5  I4B d   1       2.901   0.803  -0.590  0.00  0.00     0.002 A 
ATOM      6  C6  I4B d   1       1.534   0.503  -0.494  0.00  0.00     0.003 A 
ENDROOT
BRANCH   1   7
ATOM      7  C1' I4B d   1      -0.375  -1.097  -0.800  0.00  0.00     0.060 C 
BRANCH   7   8
ATOM      8  C2' I4B d   1      -0.937  -0.822  -2.180  0.00  0.00    -0.013 C 
ATOM      9  C4' I4B d   1      -1.432  -2.087  -2.829  0.00  0.00     0.013 C 
ATOM     10  C3' I4B d   1      -2.042   0.182  -2.038  0.00  0.00     0.013 C 
ENDBRANCH   7   8
ENDBRANCH   1   7
TORSDOF 2
ENDMDL
