MODEL 1
REMARK minimizedAffinity 4.44235754
REMARK minimizedRMSD -1
REMARK  2 active torsions:
REMARK  status: ('A' for Active; 'I' for Inactive)
REMARK    1  A    between atoms: C2'_3  and  C1'_4 
REMARK    2  A    between atoms: C1'_4  and  C1_5 
ROOT
ATOM      1  C1  I4B d   1       2.553   0.229  -0.582  0.00  0.00    -0.075 A 
ATOM      2  C2  I4B d   1       1.195   0.292  -0.391  0.00  0.00     0.003 A 
ATOM      3  C3  I4B d   1       0.434  -0.898  -0.289  0.00  0.00     0.002 A 
ATOM      4  C4  I4B d   1       1.059  -2.119  -0.434  0.00  0.00    -0.004 A 
ATOM      5  C5  I4B d   1       2.439  -2.182  -0.605  0.00  0.00     0.002 A 
ATOM      6  C6  I4B d   1       3.193  -1.001  -0.667  0.00  0.00     0.003 A 
ENDROOT
BRANCH   1   7
ATOM      7  C1' I4B d   1       3.322   1.505  -0.717  0.00  0.00     0.060 C 
BRANCH   7   8
ATOM      8  C2' I4B d   1       4.798   1.168  -0.672  0.00  0.00    -0.013 C 
ATOM      9  C4' I4B d   1       5.427   1.286  -2.035  0.00  0.00     0.013 C 
ATOM     10  C3' I4B d   1       5.455   2.093   0.309  0.00  0.00     0.013 C 
ENDBRANCH   7   8
ENDBRANCH   1   7
TORSDOF 2
ENDMDL
