MODEL 1
REMARK minimizedAffinity 13.7040586
REMARK minimizedRMSD -1
REMARK  2 active torsions:
REMARK  status: ('A' for Active; 'I' for Inactive)
REMARK    1  A    between atoms: C2'_3  and  C1'_4 
REMARK    2  A    between atoms: C1'_4  and  C1_5 
ROOT
ATOM      1  C1  I4B d   1       4.216   2.717   0.504  0.00  0.00    -0.075 A 
ATOM      2  C2  I4B d   1       4.190   1.585   1.280  0.00  0.00     0.003 A 
ATOM      3  C3  I4B d   1       3.787   0.348   0.722  0.00  0.00     0.002 A 
ATOM      4  C4  I4B d   1       3.372   0.298  -0.593  0.00  0.00    -0.004 A 
ATOM      5  C5  I4B d   1       3.420   1.442  -1.384  0.00  0.00     0.002 A 
ATOM      6  C6  I4B d   1       3.856   2.657  -0.836  0.00  0.00     0.003 A 
ENDROOT
BRANCH   1   7
ATOM      7  C1' I4B d   1       4.616   4.014   1.134  0.00  0.00     0.060 C 
BRANCH   7   8
ATOM      8  C2' I4B d   1       5.642   4.672   0.235  0.00  0.00    -0.013 C 
ATOM      9  C4' I4B d   1       5.116   4.833  -1.167  0.00  0.00     0.013 C 
ATOM     10  C3' I4B d   1       5.999   6.000   0.834  0.00  0.00     0.013 C 
ENDBRANCH   7   8
ENDBRANCH   1   7
TORSDOF 2
ENDMDL
