MODEL 1
REMARK minimizedAffinity 14.0884447
REMARK minimizedRMSD -1
REMARK  2 active torsions:
REMARK  status: ('A' for Active; 'I' for Inactive)
REMARK    1  A    between atoms: C2'_3  and  C1'_4 
REMARK    2  A    between atoms: C1'_4  and  C1_5 
ROOT
ATOM      1  C1  I4B d   1       3.443   1.736   1.277  0.00  0.00    -0.075 A 
ATOM      2  C2  I4B d   1       3.682   2.507   0.167  0.00  0.00     0.003 A 
ATOM      3  C3  I4B d   1       3.437   1.988  -1.127  0.00  0.00     0.002 A 
ATOM      4  C4  I4B d   1       3.005   0.685  -1.267  0.00  0.00    -0.004 A 
ATOM      5  C5  I4B d   1       2.741  -0.087  -0.140  0.00  0.00     0.002 A 
ATOM      6  C6  I4B d   1       2.950   0.445   1.141  0.00  0.00     0.003 A 
ENDROOT
BRANCH   1   7
ATOM      7  C1' I4B d   1       3.744   2.304   2.628  0.00  0.00     0.060 C 
BRANCH   7   8
ATOM      8  C2' I4B d   1       2.428   2.671   3.283  0.00  0.00    -0.013 C 
ATOM      9  C4' I4B d   1       2.224   1.905   4.564  0.00  0.00     0.013 C 
ATOM     10  C3' I4B d   1       2.432   4.150   3.532  0.00  0.00     0.013 C 
ENDBRANCH   7   8
ENDBRANCH   1   7
TORSDOF 2
ENDMDL
