MODEL 1
REMARK minimizedAffinity 11.931119
REMARK minimizedRMSD -1
REMARK  2 active torsions:
REMARK  status: ('A' for Active; 'I' for Inactive)
REMARK    1  A    between atoms: C2'_3  and  C1'_4 
REMARK    2  A    between atoms: C1'_4  and  C1_5 
ROOT
ATOM      1  C1  I4B d   1       3.755   1.998   1.258  0.00  0.00    -0.075 A 
ATOM      2  C2  I4B d   1       3.009   0.853   1.134  0.00  0.00     0.003 A 
ATOM      3  C3  I4B d   1       2.819   0.261  -0.139  0.00  0.00     0.002 A 
ATOM      4  C4  I4B d   1       3.347   0.871  -1.258  0.00  0.00    -0.004 A 
ATOM      5  C5  I4B d   1       4.123   2.019  -1.127  0.00  0.00     0.002 A 
ATOM      6  C6  I4B d   1       4.339   2.580   0.140  0.00  0.00     0.003 A 
ENDROOT
BRANCH   1   7
ATOM      7  C1' I4B d   1       3.908   2.615   2.612  0.00  0.00     0.060 C 
BRANCH   7   8
ATOM      8  C2' I4B d   1       2.523   2.919   3.146  0.00  0.00    -0.013 C 
ATOM      9  C4' I4B d   1       2.283   2.230   4.463  0.00  0.00     0.013 C 
ATOM     10  C3' I4B d   1       2.396   4.407   3.281  0.00  0.00     0.013 C 
ENDBRANCH   7   8
ENDBRANCH   1   7
TORSDOF 2
ENDMDL
