MODEL 1
REMARK minimizedAffinity -4.80287886
REMARK minimizedRMSD -1
REMARK  1 active torsions:
REMARK  status: ('A' for Active; 'I' for Inactive)
REMARK    1  A    between atoms: C1_2  and  C2_3 
ROOT
ATOM      1  C2  UNL d   1       1.769  -0.558   0.867  0.00  0.00    -0.073 A 
ATOM      2  C3  UNL d   1       2.243   0.757   0.949  0.00  0.00    -0.002 A 
ATOM      3  C4  UNL d   1       1.538   1.799   0.346  0.00  0.00     0.004 A 
ATOM      4  C5  UNL d   1       0.350   1.541  -0.337  0.00  0.00    -0.004 A 
ATOM      5  C6  UNL d   1      -0.146   0.236  -0.420  0.00  0.00    -0.075 A 
ATOM      6  C7  UNL d   1      -1.422  -0.060  -1.153  0.00  0.00     0.076 C 
ATOM      7  C8  UNL d   1       0.569  -0.806   0.186  0.00  0.00     0.001 A 
ENDROOT
BRANCH   1   8
ATOM      8  C1  UNL d   1       2.523  -1.686   1.521  0.00  0.00     0.053 C 
ATOM      9  C   UNL d   1       1.613  -2.852   1.872  0.00  0.00     0.018 C 
ENDBRANCH   1   8
TORSDOF 1
ENDMDL
