MODEL 1
REMARK minimizedAffinity -3.11345029
REMARK minimizedRMSD -1
REMARK  1 active torsions:
REMARK  status: ('A' for Active; 'I' for Inactive)
REMARK    1  A    between atoms: C1_2  and  C2_3 
ROOT
ATOM      1  C2  UNL d   1      -0.060   0.522  -0.689  0.00  0.00    -0.073 A 
ATOM      2  C3  UNL d   1      -0.509   0.062   0.555  0.00  0.00    -0.002 A 
ATOM      3  C4  UNL d   1      -1.761  -0.542   0.673  0.00  0.00     0.004 A 
ATOM      4  C5  UNL d   1      -2.574  -0.698  -0.449  0.00  0.00    -0.004 A 
ATOM      5  C6  UNL d   1      -2.139  -0.256  -1.703  0.00  0.00    -0.075 A 
ATOM      6  C7  UNL d   1      -3.002  -0.415  -2.920  0.00  0.00     0.076 C 
ATOM      7  C8  UNL d   1      -0.881   0.351  -1.813  0.00  0.00     0.001 A 
ENDROOT
BRANCH   1   8
ATOM      8  C1  UNL d   1       1.294   1.168  -0.823  0.00  0.00     0.053 C 
ATOM      9  C   UNL d   1       2.054   1.177   0.494  0.00  0.00     0.018 C 
ENDBRANCH   1   8
TORSDOF 1
ENDMDL
