MODEL 1
REMARK minimizedAffinity -4.26286745
REMARK minimizedRMSD -1
REMARK  1 active torsions:
REMARK  status: ('A' for Active; 'I' for Inactive)
REMARK    1  A    between atoms: C1_2  and  C2_3 
ROOT
ATOM      1  C2  UNL d   1      -0.208   0.442  -0.054  0.00  0.00    -0.073 A 
ATOM      2  C3  UNL d   1       0.092   1.754  -0.436  0.00  0.00    -0.002 A 
ATOM      3  C4  UNL d   1       1.392   2.245  -0.307  0.00  0.00     0.004 A 
ATOM      4  C5  UNL d   1       2.404   1.429   0.197  0.00  0.00    -0.004 A 
ATOM      5  C6  UNL d   1       2.126   0.111   0.573  0.00  0.00    -0.075 A 
ATOM      6  C7  UNL d   1       3.204  -0.779   1.120  0.00  0.00     0.076 C 
ATOM      7  C8  UNL d   1       0.818  -0.374   0.443  0.00  0.00     0.001 A 
ENDROOT
BRANCH   1   8
ATOM      8  C1  UNL d   1      -1.609  -0.095  -0.198  0.00  0.00     0.053 C 
ATOM      9  C   UNL d   1      -2.264   0.360  -1.492  0.00  0.00     0.018 C 
ENDBRANCH   1   8
TORSDOF 1
ENDMDL
