MODEL 1
REMARK minimizedAffinity 3.83702755
REMARK minimizedRMSD -1
REMARK  1 active torsions:
REMARK  status: ('A' for Active; 'I' for Inactive)
REMARK    1  A    between atoms: C3_4  and  O_7 
ROOT
ATOM      1  C   UNL d   1       0.337  -0.633  -0.963  0.00  0.00    -0.033 A 
ATOM      2  C1  UNL d   1       1.167  -1.419  -1.763  0.00  0.00     0.039 A 
ATOM      3  C2  UNL d   1       1.751  -0.879  -2.911  0.00  0.00    -0.080 A 
ATOM      4  C3  UNL d   1       1.496   0.448  -3.246  0.00  0.00     0.150 A 
ATOM      5  C4  UNL d   1       0.673   1.239  -2.452  0.00  0.00    -0.007 A 
ATOM      6  C5  UNL d   1       0.091   0.697  -1.307  0.00  0.00     0.039 A 
ENDROOT
BRANCH   4   7
ATOM      7  O   UNL d   1       2.039   1.019  -4.359  0.00  0.00    -0.526 OA
ATOM      8  H5  UNL d   1       2.562   0.346  -4.826  0.00  0.00     0.418 HD
ENDBRANCH   4   7
TORSDOF 1
ENDMDL
