MODEL 1
REMARK minimizedAffinity 5.64303303
REMARK minimizedRMSD -1
REMARK  1 active torsions:
REMARK  status: ('A' for Active; 'I' for Inactive)
REMARK    1  A    between atoms: C3_4  and  O_7 
ROOT
ATOM      1  C   UNL d   1      -5.830  -5.584  -1.323  0.00  0.00    -0.033 A 
ATOM      2  C1  UNL d   1      -5.926  -4.314  -1.894  0.00  0.00     0.039 A 
ATOM      3  C2  UNL d   1      -4.826  -3.454  -1.879  0.00  0.00    -0.080 A 
ATOM      4  C3  UNL d   1      -3.637  -3.877  -1.292  0.00  0.00     0.150 A 
ATOM      5  C4  UNL d   1      -3.532  -5.143  -0.725  0.00  0.00    -0.007 A 
ATOM      6  C5  UNL d   1      -4.632  -5.999  -0.740  0.00  0.00     0.039 A 
ENDROOT
BRANCH   4   7
ATOM      7  O   UNL d   1      -2.537  -3.072  -1.249  0.00  0.00    -0.526 OA
ATOM      8  H5  UNL d   1      -2.765  -2.218  -1.653  0.00  0.00     0.418 HD
ENDBRANCH   4   7
TORSDOF 1
ENDMDL
