MODEL 1
REMARK minimizedAffinity 9.37739754
REMARK minimizedRMSD -1
REMARK  1 active torsions:
REMARK  status: ('A' for Active; 'I' for Inactive)
REMARK    1  A    between atoms: C3_4  and  O_7 
ROOT
ATOM      1  C   UNL d   1      -0.732   5.272  -0.275  0.00  0.00    -0.033 A 
ATOM      2  C1  UNL d   1       0.245   5.998   0.408  0.00  0.00     0.039 A 
ATOM      3  C2  UNL d   1       1.232   5.330   1.136  0.00  0.00    -0.080 A 
ATOM      4  C3  UNL d   1       1.232   3.939   1.171  0.00  0.00     0.150 A 
ATOM      5  C4  UNL d   1       0.264   3.209   0.489  0.00  0.00    -0.007 A 
ATOM      6  C5  UNL d   1      -0.722   3.877  -0.236  0.00  0.00     0.039 A 
ENDROOT
BRANCH   4   7
ATOM      7  O   UNL d   1       2.172   3.243   1.871  0.00  0.00    -0.526 OA
ATOM      8  H5  UNL d   1       2.758   3.879   2.315  0.00  0.00     0.418 HD
ENDBRANCH   4   7
TORSDOF 1
ENDMDL
