MODEL 1
REMARK minimizedAffinity -2.33982301
REMARK minimizedRMSD -1
REMARK  1 active torsions:
REMARK  status: ('A' for Active; 'I' for Inactive)
REMARK    1  A    between atoms: C3_4  and  O_7 
ROOT
ATOM      1  C   UNL d   1      -1.237   0.432  -0.704  0.00  0.00    -0.033 A 
ATOM      2  C1  UNL d   1      -0.331   0.884  -1.665  0.00  0.00     0.039 A 
ATOM      3  C2  UNL d   1       0.725   0.065  -2.071  0.00  0.00    -0.080 A 
ATOM      4  C3  UNL d   1       0.863  -1.201  -1.509  0.00  0.00     0.150 A 
ATOM      5  C4  UNL d   1      -0.038  -1.658  -0.553  0.00  0.00    -0.007 A 
ATOM      6  C5  UNL d   1      -1.091  -0.839  -0.148  0.00  0.00     0.039 A 
ENDROOT
BRANCH   4   7
ATOM      7  O   UNL d   1       1.880  -2.034  -1.869  0.00  0.00    -0.526 OA
ATOM      8  H5  UNL d   1       2.440  -1.573  -2.517  0.00  0.00     0.418 HD
ENDBRANCH   4   7
TORSDOF 1
ENDMDL
