MODEL 1
REMARK minimizedAffinity -3.91754818
REMARK minimizedRMSD -1
REMARK  1 active torsions:
REMARK  status: ('A' for Active; 'I' for Inactive)
REMARK    1  A    between atoms: C3_4  and  O_7 
ROOT
ATOM      1  C   UNL d   1       1.327  -2.384  -0.821  0.00  0.00    -0.033 A 
ATOM      2  C1  UNL d   1       1.725  -1.216  -1.476  0.00  0.00     0.039 A 
ATOM      3  C2  UNL d   1       0.882  -0.103  -1.494  0.00  0.00    -0.080 A 
ATOM      4  C3  UNL d   1      -0.352  -0.169  -0.855  0.00  0.00     0.150 A 
ATOM      5  C4  UNL d   1      -0.753  -1.328  -0.198  0.00  0.00    -0.007 A 
ATOM      6  C5  UNL d   1       0.089  -2.439  -0.181  0.00  0.00     0.039 A 
ENDROOT
BRANCH   4   7
ATOM      7  O   UNL d   1      -1.210   0.890  -0.850  0.00  0.00    -0.526 OA
ATOM      8  H5  UNL d   1      -0.813   1.610  -1.367  0.00  0.00     0.418 HD
ENDBRANCH   4   7
TORSDOF 1
ENDMDL
