MODEL 1
REMARK minimizedAffinity -0.1852988
REMARK minimizedRMSD -1
REMARK  1 active torsions:
REMARK  status: ('A' for Active; 'I' for Inactive)
REMARK    1  A    between atoms: C3_4  and  O_7 
ROOT
ATOM      1  C   UNL d   1       0.609  -1.528  -0.349  0.00  0.00    -0.033 A 
ATOM      2  C1  UNL d   1       1.431  -2.221  -1.240  0.00  0.00     0.039 A 
ATOM      3  C2  UNL d   1       1.774  -1.647  -2.466  0.00  0.00    -0.080 A 
ATOM      4  C3  UNL d   1       1.290  -0.382  -2.788  0.00  0.00     0.150 A 
ATOM      5  C4  UNL d   1       0.474   0.315  -1.903  0.00  0.00    -0.007 A 
ATOM      6  C5  UNL d   1       0.132  -0.260  -0.680  0.00  0.00     0.039 A 
ENDROOT
BRANCH   4   7
ATOM      7  O   UNL d   1       1.594   0.216  -3.974  0.00  0.00    -0.526 OA
ATOM      8  H5  UNL d   1       2.141  -0.394  -4.496  0.00  0.00     0.418 HD
ENDBRANCH   4   7
TORSDOF 1
ENDMDL
