MODEL 1
REMARK minimizedAffinity -4.58100605
REMARK minimizedRMSD -1
REMARK  1 active torsions:
REMARK  status: ('A' for Active; 'I' for Inactive)
REMARK    1  A    between atoms: C3_4  and  O_7 
ROOT
ATOM      1  C   UNL d   1       1.729  -0.593  -1.842  0.00  0.00    -0.033 A 
ATOM      2  C1  UNL d   1       1.503   0.159  -2.997  0.00  0.00     0.039 A 
ATOM      3  C2  UNL d   1       1.422  -0.473  -4.239  0.00  0.00    -0.080 A 
ATOM      4  C3  UNL d   1       1.566  -1.855  -4.313  0.00  0.00     0.150 A 
ATOM      5  C4  UNL d   1       1.786  -2.611  -3.167  0.00  0.00    -0.007 A 
ATOM      6  C5  UNL d   1       1.869  -1.979  -1.927  0.00  0.00     0.039 A 
ENDROOT
BRANCH   4   7
ATOM      7  O   UNL d   1       1.498  -2.516  -5.504  0.00  0.00    -0.526 OA
ATOM      8  H5  UNL d   1       1.371  -1.863  -6.212  0.00  0.00     0.418 HD
ENDBRANCH   4   7
TORSDOF 1
ENDMDL
