MODEL 1
REMARK minimizedAffinity -4.22036552
REMARK minimizedRMSD -1
REMARK  1 active torsions:
REMARK  status: ('A' for Active; 'I' for Inactive)
REMARK    1  A    between atoms: C3_4  and  O_7 
ROOT
ATOM      1  C   UNL d   1      -0.905   0.734  -0.250  0.00  0.00    -0.033 A 
ATOM      2  C1  UNL d   1      -0.888  -0.555   0.288  0.00  0.00     0.039 A 
ATOM      3  C2  UNL d   1       0.140  -1.439  -0.046  0.00  0.00    -0.080 A 
ATOM      4  C3  UNL d   1       1.143  -1.022  -0.916  0.00  0.00     0.150 A 
ATOM      5  C4  UNL d   1       1.135   0.261  -1.452  0.00  0.00    -0.007 A 
ATOM      6  C5  UNL d   1       0.107   1.142  -1.119  0.00  0.00     0.039 A 
ENDROOT
BRANCH   4   7
ATOM      7  O   UNL d   1       2.164  -1.851  -1.275  0.00  0.00    -0.526 OA
ATOM      8  H5  UNL d   1       2.024  -2.714  -0.851  0.00  0.00     0.418 HD
ENDBRANCH   4   7
TORSDOF 1
ENDMDL
