MODEL 1
REMARK minimizedAffinity -2.55163622
REMARK minimizedRMSD -1
REMARK  1 active torsions:
REMARK  status: ('A' for Active; 'I' for Inactive)
REMARK    1  A    between atoms: C3_4  and  O_7 
ROOT
ATOM      1  C   UNL d   1       0.942  -1.151  -0.420  0.00  0.00    -0.033 A 
ATOM      2  C1  UNL d   1       1.757  -1.605  -1.459  0.00  0.00     0.039 A 
ATOM      3  C2  UNL d   1       1.827  -0.892  -2.657  0.00  0.00    -0.080 A 
ATOM      4  C3  UNL d   1       1.079   0.273  -2.803  0.00  0.00     0.150 A 
ATOM      5  C4  UNL d   1       0.268   0.734  -1.771  0.00  0.00    -0.007 A 
ATOM      6  C5  UNL d   1       0.199   0.019  -0.576  0.00  0.00     0.039 A 
ENDROOT
BRANCH   4   7
ATOM      7  O   UNL d   1       1.111   1.001  -3.955  0.00  0.00    -0.526 OA
ATOM      8  H5  UNL d   1       1.691   0.548  -4.590  0.00  0.00     0.418 HD
ENDBRANCH   4   7
TORSDOF 1
ENDMDL
