MODEL 1
REMARK minimizedAffinity -2.76030588
REMARK minimizedRMSD -1
REMARK  1 active torsions:
REMARK  status: ('A' for Active; 'I' for Inactive)
REMARK    1  A    between atoms: C3_4  and  O_7 
ROOT
ATOM      1  C   UNL d   1      -0.155  -1.243   1.350  0.00  0.00    -0.033 A 
ATOM      2  C1  UNL d   1      -0.276  -1.855   0.101  0.00  0.00     0.039 A 
ATOM      3  C2  UNL d   1      -0.213  -1.088  -1.064  0.00  0.00    -0.080 A 
ATOM      4  C3  UNL d   1      -0.029   0.288  -0.966  0.00  0.00     0.150 A 
ATOM      5  C4  UNL d   1       0.096   0.905   0.275  0.00  0.00    -0.007 A 
ATOM      6  C5  UNL d   1       0.032   0.137   1.437  0.00  0.00     0.039 A 
ENDROOT
BRANCH   4   7
ATOM      7  O   UNL d   1       0.034   1.079  -2.075  0.00  0.00    -0.526 OA
ATOM      8  H5  UNL d   1      -0.096   0.520  -2.859  0.00  0.00     0.418 HD
ENDBRANCH   4   7
TORSDOF 1
ENDMDL
