MODEL 1
REMARK minimizedAffinity -0.690813243
REMARK minimizedRMSD -1
REMARK  1 active torsions:
REMARK  status: ('A' for Active; 'I' for Inactive)
REMARK    1  A    between atoms: C3_4  and  O_7 
ROOT
ATOM      1  C   UNL d   1       1.561  -1.961  -2.030  0.00  0.00    -0.033 A 
ATOM      2  C1  UNL d   1       1.489  -0.774  -2.762  0.00  0.00     0.039 A 
ATOM      3  C2  UNL d   1       0.727   0.295  -2.287  0.00  0.00    -0.080 A 
ATOM      4  C3  UNL d   1       0.044   0.166  -1.081  0.00  0.00     0.150 A 
ATOM      5  C4  UNL d   1       0.115  -1.012  -0.345  0.00  0.00    -0.007 A 
ATOM      6  C5  UNL d   1       0.876  -2.079  -0.820  0.00  0.00     0.039 A 
ENDROOT
BRANCH   4   7
ATOM      7  O   UNL d   1      -0.716   1.181  -0.580  0.00  0.00    -0.526 OA
ATOM      8  H5  UNL d   1      -0.694   1.921  -1.209  0.00  0.00     0.418 HD
ENDBRANCH   4   7
TORSDOF 1
ENDMDL
