MODEL 1
REMARK minimizedAffinity 0.438497305
REMARK minimizedRMSD -1
REMARK  1 active torsions:
REMARK  status: ('A' for Active; 'I' for Inactive)
REMARK    1  A    between atoms: C3_4  and  O_7 
ROOT
ATOM      1  C   UNL d   1       6.000  -0.200   2.813  0.00  0.00    -0.033 A 
ATOM      2  C1  UNL d   1       5.999   0.188   4.154  0.00  0.00     0.039 A 
ATOM      3  C2  UNL d   1       5.965  -0.778   5.162  0.00  0.00    -0.080 A 
ATOM      4  C3  UNL d   1       5.932  -2.126   4.816  0.00  0.00     0.150 A 
ATOM      5  C4  UNL d   1       5.936  -2.519   3.482  0.00  0.00    -0.007 A 
ATOM      6  C5  UNL d   1       5.970  -1.554   2.477  0.00  0.00     0.039 A 
ENDROOT
BRANCH   4   7
ATOM      7  O   UNL d   1       5.893  -3.104   5.764  0.00  0.00    -0.526 OA
ATOM      8  H5  UNL d   1       5.865  -2.683   6.640  0.00  0.00     0.418 HD
ENDBRANCH   4   7
TORSDOF 1
ENDMDL
