MODEL 1
REMARK minimizedAffinity -3.35064912
REMARK minimizedRMSD -1
REMARK  1 active torsions:
REMARK  status: ('A' for Active; 'I' for Inactive)
REMARK    1  A    between atoms: C3_4  and  O_7 
ROOT
ATOM      1  C   UNL d   1       1.040  -1.768  -1.866  0.00  0.00    -0.033 A 
ATOM      2  C1  UNL d   1       0.410  -0.553  -2.144  0.00  0.00     0.039 A 
ATOM      3  C2  UNL d   1      -0.039   0.258  -1.100  0.00  0.00    -0.080 A 
ATOM      4  C3  UNL d   1       0.148  -0.157   0.216  0.00  0.00     0.150 A 
ATOM      5  C4  UNL d   1       0.778  -1.364   0.501  0.00  0.00    -0.007 A 
ATOM      6  C5  UNL d   1       1.225  -2.172  -0.543  0.00  0.00     0.039 A 
ENDROOT
BRANCH   4   7
ATOM      7  O   UNL d   1      -0.278   0.598   1.268  0.00  0.00    -0.526 OA
ATOM      8  H5  UNL d   1      -0.720   1.390   0.920  0.00  0.00     0.418 HD
ENDBRANCH   4   7
TORSDOF 1
ENDMDL
