MODEL 1
REMARK minimizedAffinity 0.695780575
REMARK minimizedRMSD -1
REMARK  1 active torsions:
REMARK  status: ('A' for Active; 'I' for Inactive)
REMARK    1  A    between atoms: C3_4  and  O_7 
ROOT
ATOM      1  C   UNL d   1       0.238   2.345   1.561  0.00  0.00    -0.033 A 
ATOM      2  C1  UNL d   1      -0.601   1.385   2.129  0.00  0.00     0.039 A 
ATOM      3  C2  UNL d   1      -0.811   0.167   1.479  0.00  0.00    -0.080 A 
ATOM      4  C3  UNL d   1      -0.175  -0.078   0.265  0.00  0.00     0.150 A 
ATOM      5  C4  UNL d   1       0.665   0.873  -0.305  0.00  0.00    -0.007 A 
ATOM      6  C5  UNL d   1       0.872   2.089   0.345  0.00  0.00     0.039 A 
ENDROOT
BRANCH   4   7
ATOM      7  O   UNL d   1      -0.353  -1.250  -0.408  0.00  0.00    -0.526 OA
ATOM      8  H5  UNL d   1      -0.981  -1.799   0.090  0.00  0.00     0.418 HD
ENDBRANCH   4   7
TORSDOF 1
ENDMDL
