MODEL 1
REMARK minimizedAffinity -3.33319163
REMARK minimizedRMSD -1
REMARK  1 active torsions:
REMARK  status: ('A' for Active; 'I' for Inactive)
REMARK    1  A    between atoms: C3_4  and  O_7 
ROOT
ATOM      1  C   UNL d   1      -1.103   1.803  -0.956  0.00  0.00    -0.033 A 
ATOM      2  C1  UNL d   1      -1.770   0.821  -0.221  0.00  0.00     0.039 A 
ATOM      3  C2  UNL d   1      -1.159  -0.412   0.017  0.00  0.00    -0.080 A 
ATOM      4  C3  UNL d   1       0.118  -0.650  -0.484  0.00  0.00     0.150 A 
ATOM      5  C4  UNL d   1       0.790   0.325  -1.214  0.00  0.00    -0.007 A 
ATOM      6  C5  UNL d   1       0.178   1.555  -1.451  0.00  0.00     0.039 A 
ENDROOT
BRANCH   4   7
ATOM      7  O   UNL d   1       0.753  -1.839  -0.282  0.00  0.00    -0.526 OA
ATOM      8  H5  UNL d   1       0.157  -2.426   0.213  0.00  0.00     0.418 HD
ENDBRANCH   4   7
TORSDOF 1
ENDMDL
