MODEL 1
REMARK minimizedAffinity 8.59437084
REMARK minimizedRMSD -1
REMARK  0 active torsions:
REMARK  status: ('A' for Active; 'I' for Inactive)
ROOT
ATOM      1  N1  IND d   1       3.018   5.163   5.380  0.00  0.00    -0.196 N 
ATOM      2  C2  IND d   1       2.009   6.000   5.766  0.00  0.00     0.054 A 
ATOM      3  C3  IND d   1       1.017   5.997   4.847  0.00  0.00    -0.031 A 
ATOM      4  C4  IND d   1       0.795   4.617   2.685  0.00  0.00     0.051 A 
ATOM      5  C5  IND d   1       1.481   3.741   1.892  0.00  0.00    -0.031 A 
ATOM      6  C6  IND d   1       2.738   3.282   2.229  0.00  0.00     0.015 A 
ATOM      7  C7  IND d   1       3.354   3.675   3.383  0.00  0.00    -0.016 A 
ATOM      8  C8  IND d   1       2.664   4.571   4.187  0.00  0.00    -0.047 A 
ATOM      9  C9  IND d   1       1.406   5.073   3.829  0.00  0.00    -0.096 A 
ATOM     10  HN1 IND d   1       3.751   5.028   5.810  0.00  0.00     0.298 HD
ENDROOT
TORSDOF 0
ENDMDL
