MODEL 1
REMARK minimizedAffinity 6.61445665
REMARK minimizedRMSD -1
REMARK  0 active torsions:
REMARK  status: ('A' for Active; 'I' for Inactive)
ROOT
ATOM      1  N1  IND d   1       4.577  -4.282   5.793  0.00  0.00    -0.196 N 
ATOM      2  C2  IND d   1       5.003  -3.000   6.000  0.00  0.00     0.054 A 
ATOM      3  C3  IND d   1       5.226  -2.382   4.818  0.00  0.00    -0.031 A 
ATOM      4  C4  IND d   1       4.861  -3.252   2.423  0.00  0.00     0.051 A 
ATOM      5  C5  IND d   1       4.518  -4.376   1.726  0.00  0.00    -0.031 A 
ATOM      6  C6  IND d   1       4.168  -5.550   2.362  0.00  0.00     0.015 A 
ATOM      7  C7  IND d   1       4.137  -5.640   3.724  0.00  0.00    -0.016 A 
ATOM      8  C8  IND d   1       4.491  -4.502   4.436  0.00  0.00    -0.047 A 
ATOM      9  C9  IND d   1       4.888  -3.321   3.796  0.00  0.00    -0.096 A 
ATOM     10  HN1 IND d   1       4.395  -4.856   6.407  0.00  0.00     0.298 HD
ENDROOT
TORSDOF 0
ENDMDL
