MODEL 1
REMARK minimizedAffinity -2.01993465
REMARK minimizedRMSD -1
REMARK  0 active torsions:
REMARK  status: ('A' for Active; 'I' for Inactive)
ROOT
ATOM      1  N1  IND d   1       2.716   5.529   3.785  0.00  0.00    -0.196 N 
ATOM      2  C2  IND d   1       3.419   5.748   4.937  0.00  0.00     0.054 A 
ATOM      3  C3  IND d   1       2.574   5.999   5.963  0.00  0.00    -0.031 A 
ATOM      4  C4  IND d   1       0.000   6.000   6.000  0.00  0.00     0.051 A 
ATOM      5  C5  IND d   1      -1.089   5.889   5.182  0.00  0.00    -0.031 A 
ATOM      6  C6  IND d   1      -0.963   5.645   3.829  0.00  0.00     0.015 A 
ATOM      7  C7  IND d   1       0.262   5.491   3.244  0.00  0.00    -0.016 A 
ATOM      8  C8  IND d   1       1.370   5.609   4.071  0.00  0.00    -0.047 A 
ATOM      9  C9  IND d   1       1.250   5.899   5.436  0.00  0.00    -0.096 A 
ATOM     10  HN1 IND d   1       3.056   5.368   3.013  0.00  0.00     0.298 HD
ENDROOT
TORSDOF 0
ENDMDL
