MODEL 1
REMARK minimizedAffinity -3.43238401
REMARK minimizedRMSD -1
REMARK  0 active torsions:
REMARK  status: ('A' for Active; 'I' for Inactive)
ROOT
ATOM      1  N1  IND d   1       5.953   4.274  -5.636  0.00  0.00    -0.196 N 
ATOM      2  C2  IND d   1       5.999   2.908  -5.623  0.00  0.00     0.054 A 
ATOM      3  C3  IND d   1       4.751   2.394  -5.698  0.00  0.00    -0.031 A 
ATOM      4  C4  IND d   1       2.495   3.608  -5.953  0.00  0.00     0.051 A 
ATOM      5  C5  IND d   1       1.940   4.857  -5.976  0.00  0.00    -0.031 A 
ATOM      6  C6  IND d   1       2.711   5.999  -5.887  0.00  0.00     0.015 A 
ATOM      7  C7  IND d   1       4.071   5.934  -5.783  0.00  0.00    -0.016 A 
ATOM      8  C8  IND d   1       4.637   4.667  -5.753  0.00  0.00    -0.047 A 
ATOM      9  C9  IND d   1       3.857   3.504  -5.800  0.00  0.00    -0.096 A 
ATOM     10  HN1 IND d   1       6.631   4.800  -5.580  0.00  0.00     0.298 HD
ENDROOT
TORSDOF 0
ENDMDL
