MODEL 1
REMARK minimizedAffinity -0.601422787
REMARK minimizedRMSD -1
REMARK  0 active torsions:
REMARK  status: ('A' for Active; 'I' for Inactive)
ROOT
ATOM      1  N1  IND d   1       1.903   4.762  -5.932  0.00  0.00    -0.196 N 
ATOM      2  C2  IND d   1       1.452   3.472  -5.948  0.00  0.00     0.054 A 
ATOM      3  C3  IND d   1       2.492   2.610  -5.999  0.00  0.00    -0.031 A 
ATOM      4  C4  IND d   1       5.020   3.095  -5.962  0.00  0.00     0.051 A 
ATOM      5  C5  IND d   1       5.921   4.122  -5.987  0.00  0.00    -0.031 A 
ATOM      6  C6  IND d   1       5.520   5.443  -5.993  0.00  0.00     0.015 A 
ATOM      7  C7  IND d   1       4.198   5.786  -5.961  0.00  0.00    -0.016 A 
ATOM      8  C8  IND d   1       3.281   4.745  -5.943  0.00  0.00    -0.047 A 
ATOM      9  C9  IND d   1       3.681   3.403  -5.980  0.00  0.00    -0.096 A 
ATOM     10  HN1 IND d   1       1.410   5.467  -5.917  0.00  0.00     0.298 HD
ENDROOT
TORSDOF 0
ENDMDL
