MODEL 1
REMARK minimizedAffinity -2.26465321
REMARK minimizedRMSD -1
REMARK  0 active torsions:
REMARK  status: ('A' for Active; 'I' for Inactive)
ROOT
ATOM      1  N1  IND d   1       4.734   5.855  -5.961  0.00  0.00    -0.196 N 
ATOM      2  C2  IND d   1       5.859   5.079  -6.000  0.00  0.00     0.054 A 
ATOM      3  C3  IND d   1       5.528   3.769  -5.980  0.00  0.00    -0.031 A 
ATOM      4  C4  IND d   1       3.199   2.671  -5.987  0.00  0.00     0.051 A 
ATOM      5  C5  IND d   1       1.867   2.969  -5.915  0.00  0.00    -0.031 A 
ATOM      6  C6  IND d   1       1.414   4.271  -5.856  0.00  0.00     0.015 A 
ATOM      7  C7  IND d   1       2.279   5.328  -5.879  0.00  0.00    -0.016 A 
ATOM      8  C8  IND d   1       3.632   5.029  -5.945  0.00  0.00    -0.047 A 
ATOM      9  C9  IND d   1       4.100   3.709  -5.961  0.00  0.00    -0.096 A 
ATOM     10  HN1 IND d   1       4.718   6.715  -5.948  0.00  0.00     0.298 HD
ENDROOT
TORSDOF 0
ENDMDL
