MODEL 1
REMARK minimizedAffinity 9.80859661
REMARK minimizedRMSD -1
REMARK  0 active torsions:
REMARK  status: ('A' for Active; 'I' for Inactive)
ROOT
ATOM      1  N1  IND d   1       2.632   5.948   5.904  0.00  0.00    -0.196 N 
ATOM      2  C2  IND d   1       3.532   5.897   4.876  0.00  0.00     0.054 A 
ATOM      3  C3  IND d   1       2.888   5.858   3.688  0.00  0.00    -0.031 A 
ATOM      4  C4  IND d   1       0.364   5.973   3.192  0.00  0.00     0.051 A 
ATOM      5  C5  IND d   1      -0.855   5.990   3.809  0.00  0.00    -0.031 A 
ATOM      6  C6  IND d   1      -0.977   5.998   5.184  0.00  0.00     0.015 A 
ATOM      7  C7  IND d   1       0.122   5.999   5.996  0.00  0.00    -0.016 A 
ATOM      8  C8  IND d   1       1.361   5.974   5.373  0.00  0.00    -0.047 A 
ATOM      9  C9  IND d   1       1.490   5.924   3.979  0.00  0.00    -0.096 A 
ATOM     10  HN1 IND d   1       2.827   5.962   6.741  0.00  0.00     0.298 HD
ENDROOT
TORSDOF 0
ENDMDL
