MODEL 1
REMARK minimizedAffinity -1.26862776
REMARK minimizedRMSD -1
REMARK  0 active torsions:
REMARK  status: ('A' for Active; 'I' for Inactive)
ROOT
ATOM      1  N1  IND d   1       3.840  -3.339   3.263  0.00  0.00    -0.196 N 
ATOM      2  C2  IND d   1       4.639  -4.443   3.158  0.00  0.00     0.054 A 
ATOM      3  C3  IND d   1       4.750  -4.822   1.865  0.00  0.00    -0.031 A 
ATOM      4  C4  IND d   1       3.789  -3.716  -0.252  0.00  0.00     0.051 A 
ATOM      5  C5  IND d   1       2.965  -2.705  -0.659  0.00  0.00    -0.031 A 
ATOM      6  C6  IND d   1       2.381  -1.834   0.238  0.00  0.00     0.015 A 
ATOM      7  C7  IND d   1       2.609  -1.936   1.581  0.00  0.00    -0.016 A 
ATOM      8  C8  IND d   1       3.440  -2.966   1.999  0.00  0.00    -0.047 A 
ATOM      9  C9  IND d   1       4.002  -3.878   1.097  0.00  0.00    -0.096 A 
ATOM     10  HN1 IND d   1       3.624  -2.944   3.996  0.00  0.00     0.298 HD
ENDROOT
TORSDOF 0
ENDMDL
