MODEL 1
REMARK minimizedAffinity -1.13260305
REMARK minimizedRMSD -1
REMARK  0 active torsions:
REMARK  status: ('A' for Active; 'I' for Inactive)
ROOT
ATOM      1  N1  IND d   1       4.976   4.565  -5.997  0.00  0.00    -0.196 N 
ATOM      2  C2  IND d   1       4.446   5.826  -5.992  0.00  0.00     0.054 A 
ATOM      3  C3  IND d   1       3.096   5.769  -5.999  0.00  0.00    -0.031 A 
ATOM      4  C4  IND d   1       1.545   3.715  -5.916  0.00  0.00     0.051 A 
ATOM      5  C5  IND d   1       1.564   2.349  -5.946  0.00  0.00    -0.031 A 
ATOM      6  C6  IND d   1       2.745   1.637  -5.993  0.00  0.00     0.015 A 
ATOM      7  C7  IND d   1       3.957   2.268  -6.000  0.00  0.00    -0.016 A 
ATOM      8  C8  IND d   1       3.941   3.655  -5.977  0.00  0.00    -0.047 A 
ATOM      9  C9  IND d   1       2.745   4.384  -5.972  0.00  0.00    -0.096 A 
ATOM     10  HN1 IND d   1       5.814   4.373  -6.011  0.00  0.00     0.298 HD
ENDROOT
TORSDOF 0
ENDMDL
