MODEL 1
REMARK minimizedAffinity -6.06846714
REMARK minimizedRMSD -1
REMARK  3 active torsions:
REMARK  status: ('A' for Active; 'I' for Inactive)
REMARK    1  A    between atoms: C3'_2  and  C2'_3 
REMARK    2  A    between atoms: C2'_3  and  C1'_4 
REMARK    3  A    between atoms: C1'_4  and  C1_5 
ROOT
ATOM      1  C1  N4B d   1       0.137  -0.094   0.171  0.00  0.00    -0.075 A 
ATOM      2  C2  N4B d   1      -1.275  -0.063   0.156  0.00  0.00     0.002 A 
ATOM      3  C3  N4B d   1      -1.960   0.510   1.199  0.00  0.00     0.002 A 
ATOM      4  C4  N4B d   1      -1.259   1.039   2.272  0.00  0.00    -0.004 A 
ATOM      5  C5  N4B d   1       0.106   1.028   2.267  0.00  0.00     0.002 A 
ATOM      6  C6  N4B d   1       0.808   0.459   1.223  0.00  0.00     0.002 A 
ENDROOT
BRANCH   1   7
ATOM      7  C1' N4B d   1       0.928  -0.786  -0.906  0.00  0.00     0.057 C 
BRANCH   7   8
ATOM      8  C2' N4B d   1       0.444  -0.304  -2.270  0.00  0.00     0.009 C 
BRANCH   8   9
ATOM      9  C3' N4B d   1       1.429   0.654  -2.917  0.00  0.00     0.004 C 
ATOM     10  C4' N4B d   1       0.977   1.130  -4.265  0.00  0.00     0.003 C 
ENDBRANCH   8   9
ENDBRANCH   7   8
ENDBRANCH   1   7
TORSDOF 3
ENDMDL
