MODEL 1
REMARK minimizedAffinity -2.69691777
REMARK minimizedRMSD -1
REMARK  3 active torsions:
REMARK  status: ('A' for Active; 'I' for Inactive)
REMARK    1  A    between atoms: C3'_2  and  C2'_3 
REMARK    2  A    between atoms: C2'_3  and  C1'_4 
REMARK    3  A    between atoms: C1'_4  and  C1_5 
ROOT
ATOM      1  C1  N4B d   1       0.262   0.247   0.366  0.00  0.00    -0.075 A 
ATOM      2  C2  N4B d   1       1.011   0.869   1.389  0.00  0.00     0.002 A 
ATOM      3  C3  N4B d   1       0.374   1.379   2.494  0.00  0.00     0.002 A 
ATOM      4  C4  N4B d   1      -1.007   1.295   2.588  0.00  0.00    -0.004 A 
ATOM      5  C5  N4B d   1      -1.721   0.671   1.608  0.00  0.00     0.002 A 
ATOM      6  C6  N4B d   1      -1.094   0.150   0.494  0.00  0.00     0.002 A 
ENDROOT
BRANCH   1   7
ATOM      7  C1' N4B d   1       0.905  -0.248  -0.900  0.00  0.00     0.057 C 
BRANCH   7   8
ATOM      8  C2' N4B d   1       0.647   0.757  -2.019  0.00  0.00     0.009 C 
BRANCH   8   9
ATOM      9  C3' N4B d   1       1.821   0.853  -2.979  0.00  0.00     0.004 C 
ATOM     10  C4' N4B d   1       1.413   0.694  -4.413  0.00  0.00     0.003 C 
ENDBRANCH   8   9
ENDBRANCH   7   8
ENDBRANCH   1   7
TORSDOF 3
ENDMDL
