MODEL 1
REMARK minimizedAffinity 0.658014774
REMARK minimizedRMSD -1
REMARK  3 active torsions:
REMARK  status: ('A' for Active; 'I' for Inactive)
REMARK    1  A    between atoms: C3'_2  and  C2'_3 
REMARK    2  A    between atoms: C2'_3  and  C1'_4 
REMARK    3  A    between atoms: C1'_4  and  C1_5 
ROOT
ATOM      1  C1  N4B d   1       0.170  -1.285  -2.803  0.00  0.00    -0.075 A 
ATOM      2  C2  N4B d   1       0.762  -0.036  -3.089  0.00  0.00     0.002 A 
ATOM      3  C3  N4B d   1       1.129   0.800  -2.063  0.00  0.00     0.002 A 
ATOM      4  C4  N4B d   1       0.898   0.418  -0.750  0.00  0.00    -0.004 A 
ATOM      5  C5  N4B d   1       0.348  -0.802  -0.482  0.00  0.00     0.002 A 
ATOM      6  C6  N4B d   1      -0.022  -1.654  -1.503  0.00  0.00     0.002 A 
ENDROOT
BRANCH   1   7
ATOM      7  C1' N4B d   1      -0.327  -2.196  -3.893  0.00  0.00     0.057 C 
BRANCH   7   8
ATOM      8  C2' N4B d   1       0.227  -3.599  -3.664  0.00  0.00     0.009 C 
BRANCH   8   9
ATOM      9  C3' N4B d   1      -0.016  -4.508  -4.857  0.00  0.00     0.004 C 
ATOM     10  C4' N4B d   1       1.254  -5.044  -5.447  0.00  0.00     0.003 C 
ENDBRANCH   8   9
ENDBRANCH   7   8
ENDBRANCH   1   7
TORSDOF 3
ENDMDL
