MODEL 1
REMARK minimizedAffinity -4.25449085
REMARK minimizedRMSD -1
REMARK  3 active torsions:
REMARK  status: ('A' for Active; 'I' for Inactive)
REMARK    1  A    between atoms: C3'_2  and  C2'_3 
REMARK    2  A    between atoms: C2'_3  and  C1'_4 
REMARK    3  A    between atoms: C1'_4  and  C1_5 
ROOT
ATOM      1  C1  N4B d   1      -0.015   0.529   0.134  0.00  0.00    -0.075 A 
ATOM      2  C2  N4B d   1       1.021   0.573   1.092  0.00  0.00     0.002 A 
ATOM      3  C3  N4B d   1       0.718   0.674   2.428  0.00  0.00     0.002 A 
ATOM      4  C4  N4B d   1      -0.608   0.752   2.826  0.00  0.00    -0.004 A 
ATOM      5  C5  N4B d   1      -1.604   0.683   1.896  0.00  0.00     0.002 A 
ATOM      6  C6  N4B d   1      -1.314   0.578   0.551  0.00  0.00     0.002 A 
ENDROOT
BRANCH   1   7
ATOM      7  C1' N4B d   1       0.269   0.505  -1.343  0.00  0.00     0.057 C 
BRANCH   7   8
ATOM      8  C2' N4B d   1       1.430   1.448  -1.645  0.00  0.00     0.009 C 
BRANCH   8   9
ATOM      9  C3' N4B d   1       1.887   1.343  -3.090  0.00  0.00     0.004 C 
ATOM     10  C4' N4B d   1       0.789   1.637  -4.068  0.00  0.00     0.003 C 
ENDBRANCH   8   9
ENDBRANCH   7   8
ENDBRANCH   1   7
TORSDOF 3
ENDMDL
