MODEL 1
REMARK minimizedAffinity -5.56554317
REMARK minimizedRMSD -1
REMARK  3 active torsions:
REMARK  status: ('A' for Active; 'I' for Inactive)
REMARK    1  A    between atoms: C3'_2  and  C2'_3 
REMARK    2  A    between atoms: C2'_3  and  C1'_4 
REMARK    3  A    between atoms: C1'_4  and  C1_5 
ROOT
ATOM      1  C1  N4B d   1       0.363  -0.118  -1.472  0.00  0.00    -0.075 A 
ATOM      2  C2  N4B d   1      -0.301   0.720  -2.395  0.00  0.00     0.002 A 
ATOM      3  C3  N4B d   1       0.151   0.809  -3.689  0.00  0.00     0.002 A 
ATOM      4  C4  N4B d   1       1.271   0.088  -4.075  0.00  0.00    -0.004 A 
ATOM      5  C5  N4B d   1       1.891  -0.738  -3.184  0.00  0.00     0.002 A 
ATOM      6  C6  N4B d   1       1.445  -0.840  -1.882  0.00  0.00     0.002 A 
ENDROOT
BRANCH   1   7
ATOM      7  C1' N4B d   1      -0.043  -0.182  -0.024  0.00  0.00     0.057 C 
BRANCH   7   8
ATOM      8  C2' N4B d   1      -1.535   0.113   0.091  0.00  0.00     0.009 C 
BRANCH   8   9
ATOM      9  C3' N4B d   1      -1.851   0.988   1.292  0.00  0.00     0.004 C 
ATOM     10  C4' N4B d   1      -1.996   0.202   2.561  0.00  0.00     0.003 C 
ENDBRANCH   8   9
ENDBRANCH   7   8
ENDBRANCH   1   7
TORSDOF 3
ENDMDL
