MODEL 1
REMARK minimizedAffinity -2.36376143
REMARK minimizedRMSD -1
REMARK  2 active torsions:
REMARK  status: ('A' for Active; 'I' for Inactive)
REMARK    1  A    between atoms: C2'_3  and  C1'_4 
REMARK    2  A    between atoms: C1'_4  and  C1_5 
ROOT
ATOM      1  C1  I4B d   1      -3.579  -4.006  -5.343  0.00  0.00    -0.075 A 
ATOM      2  C2  I4B d   1      -3.588  -3.301  -4.165  0.00  0.00     0.003 A 
ATOM      3  C3  I4B d   1      -4.812  -2.852  -3.613  0.00  0.00     0.002 A 
ATOM      4  C4  I4B d   1      -5.990  -3.083  -4.294  0.00  0.00    -0.004 A 
ATOM      5  C5  I4B d   1      -5.981  -3.817  -5.476  0.00  0.00     0.002 A 
ATOM      6  C6  I4B d   1      -4.769  -4.292  -5.998  0.00  0.00     0.003 A 
ENDROOT
BRANCH   1   7
ATOM      7  C1' I4B d   1      -2.265  -4.437  -5.915  0.00  0.00     0.060 C 
BRANCH   7   8
ATOM      8  C2' I4B d   1      -1.928  -5.795  -5.335  0.00  0.00    -0.013 C 
ATOM      9  C4' I4B d   1      -0.461  -5.899  -5.008  0.00  0.00     0.013 C 
ATOM     10  C3' I4B d   1      -2.771  -6.000  -4.112  0.00  0.00     0.013 C 
ENDBRANCH   7   8
ENDBRANCH   1   7
TORSDOF 2
ENDMDL
