MODEL 1
REMARK minimizedAffinity -3.27255678
REMARK minimizedRMSD -1
REMARK  2 active torsions:
REMARK  status: ('A' for Active; 'I' for Inactive)
REMARK    1  A    between atoms: C2'_3  and  C1'_4 
REMARK    2  A    between atoms: C1'_4  and  C1_5 
ROOT
ATOM      1  C1  I4B d   1      -4.412  -4.383  -5.592  0.00  0.00    -0.075 A 
ATOM      2  C2  I4B d   1      -3.296  -3.679  -5.970  0.00  0.00     0.003 A 
ATOM      3  C3  I4B d   1      -2.006  -4.141  -5.611  0.00  0.00     0.002 A 
ATOM      4  C4  I4B d   1      -1.882  -5.275  -4.835  0.00  0.00    -0.004 A 
ATOM      5  C5  I4B d   1      -3.014  -6.000  -4.472  0.00  0.00     0.002 A 
ATOM      6  C6  I4B d   1      -4.286  -5.558  -4.863  0.00  0.00     0.003 A 
ENDROOT
BRANCH   1   7
ATOM      7  C1' I4B d   1      -5.760  -3.849  -5.960  0.00  0.00     0.060 C 
BRANCH   7   8
ATOM      8  C2' I4B d   1      -6.000  -2.590  -5.152  0.00  0.00    -0.013 C 
ATOM      9  C4' I4B d   1      -5.993  -2.881  -3.674  0.00  0.00     0.013 C 
ATOM     10  C3' I4B d   1      -4.935  -1.598  -5.513  0.00  0.00     0.013 C 
ENDBRANCH   7   8
ENDBRANCH   1   7
TORSDOF 2
ENDMDL
