MODEL 1
REMARK minimizedAffinity -0.719126523
REMARK minimizedRMSD -1
REMARK  2 active torsions:
REMARK  status: ('A' for Active; 'I' for Inactive)
REMARK    1  A    between atoms: C2'_3  and  C1'_4 
REMARK    2  A    between atoms: C1'_4  and  C1_5 
ROOT
ATOM      1  C1  I4B d   1      -0.108   2.720  -3.283  0.00  0.00    -0.075 A 
ATOM      2  C2  I4B d   1      -0.854   2.125  -2.296  0.00  0.00     0.003 A 
ATOM      3  C3  I4B d   1      -1.880   2.851  -1.642  0.00  0.00     0.002 A 
ATOM      4  C4  I4B d   1      -2.090   4.175  -1.970  0.00  0.00    -0.004 A 
ATOM      5  C5  I4B d   1      -1.348   4.769  -2.986  0.00  0.00     0.002 A 
ATOM      6  C6  I4B d   1      -0.359   4.034  -3.656  0.00  0.00     0.003 A 
ENDROOT
BRANCH   1   7
ATOM      7  C1' I4B d   1       0.988   1.935  -3.930  0.00  0.00     0.060 C 
BRANCH   7   8
ATOM      8  C2' I4B d   1       1.943   1.484  -2.843  0.00  0.00    -0.013 C 
ATOM      9  C4' I4B d   1       1.890  -0.009  -2.655  0.00  0.00     0.013 C 
ATOM     10  C3' I4B d   1       3.323   1.933  -3.224  0.00  0.00     0.013 C 
ENDBRANCH   7   8
ENDBRANCH   1   7
TORSDOF 2
ENDMDL
