MODEL 1
REMARK minimizedAffinity -3.69586182
REMARK minimizedRMSD -1
REMARK  2 active torsions:
REMARK  status: ('A' for Active; 'I' for Inactive)
REMARK    1  A    between atoms: C2'_3  and  C1'_4 
REMARK    2  A    between atoms: C1'_4  and  C1_5 
ROOT
ATOM      1  C1  I4B d   1      -4.213  -4.380  -4.502  0.00  0.00    -0.075 A 
ATOM      2  C2  I4B d   1      -4.276  -5.441  -5.372  0.00  0.00     0.003 A 
ATOM      3  C3  I4B d   1      -3.092  -5.963  -5.947  0.00  0.00     0.002 A 
ATOM      4  C4  I4B d   1      -1.880  -5.366  -5.667  0.00  0.00    -0.004 A 
ATOM      5  C5  I4B d   1      -1.815  -4.306  -4.767  0.00  0.00     0.002 A 
ATOM      6  C6  I4B d   1      -2.987  -3.817  -4.172  0.00  0.00     0.003 A 
ENDROOT
BRANCH   1   7
ATOM      7  C1' I4B d   1      -5.486  -3.833  -3.939  0.00  0.00     0.060 C 
BRANCH   7   8
ATOM      8  C2' I4B d   1      -5.360  -2.325  -3.880  0.00  0.00    -0.013 C 
ATOM      9  C4' I4B d   1      -5.999  -1.677  -5.080  0.00  0.00     0.013 C 
ATOM     10  C3' I4B d   1      -5.999  -1.856  -2.607  0.00  0.00     0.013 C 
ENDBRANCH   7   8
ENDBRANCH   1   7
TORSDOF 2
ENDMDL
