MODEL 1
REMARK minimizedAffinity -3.69363046
REMARK minimizedRMSD -1
REMARK  2 active torsions:
REMARK  status: ('A' for Active; 'I' for Inactive)
REMARK    1  A    between atoms: C2'_3  and  C1'_4 
REMARK    2  A    between atoms: C1'_4  and  C1_5 
ROOT
ATOM      1  C1  I4B d   1      -4.123  -4.486  -5.699  0.00  0.00    -0.075 A 
ATOM      2  C2  I4B d   1      -3.635  -5.759  -5.536  0.00  0.00     0.003 A 
ATOM      3  C3  I4B d   1      -2.241  -6.000  -5.589  0.00  0.00     0.002 A 
ATOM      4  C4  I4B d   1      -1.380  -4.955  -5.856  0.00  0.00    -0.004 A 
ATOM      5  C5  I4B d   1      -1.875  -3.662  -5.999  0.00  0.00     0.002 A 
ATOM      6  C6  I4B d   1      -3.254  -3.423  -5.908  0.00  0.00     0.003 A 
ENDROOT
BRANCH   1   7
ATOM      7  C1' I4B d   1      -5.604  -4.273  -5.670  0.00  0.00     0.060 C 
BRANCH   7   8
ATOM      8  C2' I4B d   1      -5.994  -3.906  -4.253  0.00  0.00    -0.013 C 
ATOM      9  C4' I4B d   1      -5.059  -4.529  -3.251  0.00  0.00     0.013 C 
ATOM     10  C3' I4B d   1      -5.988  -2.411  -4.143  0.00  0.00     0.013 C 
ENDBRANCH   7   8
ENDBRANCH   1   7
TORSDOF 2
ENDMDL
