MODEL 1
REMARK minimizedAffinity 2.78996849
REMARK minimizedRMSD -1
REMARK  2 active torsions:
REMARK  status: ('A' for Active; 'I' for Inactive)
REMARK    1  A    between atoms: C2'_3  and  C1'_4 
REMARK    2  A    between atoms: C1'_4  and  C1_5 
ROOT
ATOM      1  C1  I4B d   1      -4.961  -3.767  -4.415  0.00  0.00    -0.075 A 
ATOM      2  C2  I4B d   1      -5.998  -3.134  -5.055  0.00  0.00     0.003 A 
ATOM      3  C3  I4B d   1      -5.787  -1.887  -5.691  0.00  0.00     0.002 A 
ATOM      4  C4  I4B d   1      -4.545  -1.289  -5.621  0.00  0.00    -0.004 A 
ATOM      5  C5  I4B d   1      -3.490  -1.943  -4.992  0.00  0.00     0.002 A 
ATOM      6  C6  I4B d   1      -3.696  -3.196  -4.395  0.00  0.00     0.003 A 
ENDROOT
BRANCH   1   7
ATOM      7  C1' I4B d   1      -5.227  -5.067  -3.725  0.00  0.00     0.060 C 
BRANCH   7   8
ATOM      8  C2' I4B d   1      -4.070  -5.999  -4.022  0.00  0.00    -0.013 C 
ATOM      9  C4' I4B d   1      -3.602  -5.850  -5.446  0.00  0.00     0.013 C 
ATOM     10  C3' I4B d   1      -2.967  -5.690  -3.055  0.00  0.00     0.013 C 
ENDBRANCH   7   8
ENDBRANCH   1   7
TORSDOF 2
ENDMDL
