MODEL 1
REMARK minimizedAffinity -3.27187705
REMARK minimizedRMSD -1
REMARK  2 active torsions:
REMARK  status: ('A' for Active; 'I' for Inactive)
REMARK    1  A    between atoms: C2'_3  and  C1'_4 
REMARK    2  A    between atoms: C1'_4  and  C1_5 
ROOT
ATOM      1  C1  I4B d   1      -3.806  -3.587  -4.726  0.00  0.00    -0.075 A 
ATOM      2  C2  I4B d   1      -4.293  -4.770  -4.228  0.00  0.00     0.003 A 
ATOM      3  C3  I4B d   1      -3.682  -5.997  -4.582  0.00  0.00     0.002 A 
ATOM      4  C4  I4B d   1      -2.626  -6.000  -5.470  0.00  0.00    -0.004 A 
ATOM      5  C5  I4B d   1      -2.119  -4.798  -5.956  0.00  0.00     0.002 A 
ATOM      6  C6  I4B d   1      -2.704  -3.583  -5.572  0.00  0.00     0.003 A 
ENDROOT
BRANCH   1   7
ATOM      7  C1' I4B d   1      -4.495  -2.311  -4.358  0.00  0.00     0.060 C 
BRANCH   7   8
ATOM      8  C2' I4B d   1      -5.827  -2.276  -5.079  0.00  0.00    -0.013 C 
ATOM      9  C4' I4B d   1      -5.999  -0.991  -5.845  0.00  0.00     0.013 C 
ATOM     10  C3' I4B d   1      -5.891  -3.464  -5.993  0.00  0.00     0.013 C 
ENDBRANCH   7   8
ENDBRANCH   1   7
TORSDOF 2
ENDMDL
