MODEL 1
REMARK minimizedAffinity -2.73035479
REMARK minimizedRMSD -1
REMARK  2 active torsions:
REMARK  status: ('A' for Active; 'I' for Inactive)
REMARK    1  A    between atoms: C2'_3  and  C1'_4 
REMARK    2  A    between atoms: C1'_4  and  C1_5 
ROOT
ATOM      1  C1  I4B d   1      -3.601  -3.619  -4.263  0.00  0.00    -0.075 A 
ATOM      2  C2  I4B d   1      -3.875  -2.684  -5.230  0.00  0.00     0.003 A 
ATOM      3  C3  I4B d   1      -5.080  -1.942  -5.183  0.00  0.00     0.002 A 
ATOM      4  C4  I4B d   1      -6.000  -2.202  -4.188  0.00  0.00    -0.004 A 
ATOM      5  C5  I4B d   1      -5.711  -3.133  -3.195  0.00  0.00     0.002 A 
ATOM      6  C6  I4B d   1      -4.498  -3.838  -3.225  0.00  0.00     0.003 A 
ENDROOT
BRANCH   1   7
ATOM      7  C1' I4B d   1      -2.334  -4.408  -4.361  0.00  0.00     0.060 C 
BRANCH   7   8
ATOM      8  C2' I4B d   1      -2.350  -5.155  -5.679  0.00  0.00    -0.013 C 
ATOM      9  C4' I4B d   1      -1.113  -5.999  -5.842  0.00  0.00     0.013 C 
ATOM     10  C3' I4B d   1      -3.590  -5.997  -5.718  0.00  0.00     0.013 C 
ENDBRANCH   7   8
ENDBRANCH   1   7
TORSDOF 2
ENDMDL
