MODEL 1
REMARK minimizedAffinity -3.33502078
REMARK minimizedRMSD -1
REMARK  2 active torsions:
REMARK  status: ('A' for Active; 'I' for Inactive)
REMARK    1  A    between atoms: C2'_3  and  C1'_4 
REMARK    2  A    between atoms: C1'_4  and  C1_5 
ROOT
ATOM      1  C1  I4B d   1      -5.403  -3.833  -5.122  0.00  0.00    -0.075 A 
ATOM      2  C2  I4B d   1      -5.505  -3.642  -3.767  0.00  0.00     0.003 A 
ATOM      3  C3  I4B d   1      -5.832  -2.365  -3.250  0.00  0.00     0.002 A 
ATOM      4  C4  I4B d   1      -5.998  -1.303  -4.115  0.00  0.00    -0.004 A 
ATOM      5  C5  I4B d   1      -5.917  -1.504  -5.490  0.00  0.00     0.002 A 
ATOM      6  C6  I4B d   1      -5.630  -2.780  -5.998  0.00  0.00     0.003 A 
ENDROOT
BRANCH   1   7
ATOM      7  C1' I4B d   1      -5.024  -5.187  -5.633  0.00  0.00     0.060 C 
BRANCH   7   8
ATOM      8  C2' I4B d   1      -3.512  -5.249  -5.712  0.00  0.00    -0.013 C 
ATOM      9  C4' I4B d   1      -2.912  -3.869  -5.778  0.00  0.00     0.013 C 
ATOM     10  C3' I4B d   1      -3.016  -5.999  -4.512  0.00  0.00     0.013 C 
ENDBRANCH   7   8
ENDBRANCH   1   7
TORSDOF 2
ENDMDL
