MODEL 1
REMARK minimizedAffinity -2.35656285
REMARK minimizedRMSD -1
REMARK  2 active torsions:
REMARK  status: ('A' for Active; 'I' for Inactive)
REMARK    1  A    between atoms: C2'_3  and  C1'_4 
REMARK    2  A    between atoms: C1'_4  and  C1_5 
ROOT
ATOM      1  C1  I4B d   1      -4.423  -4.308  -5.391  0.00  0.00    -0.075 A 
ATOM      2  C2  I4B d   1      -3.077  -4.519  -5.558  0.00  0.00     0.003 A 
ATOM      3  C3  I4B d   1      -2.214  -3.432  -5.839  0.00  0.00     0.002 A 
ATOM      4  C4  I4B d   1      -2.743  -2.167  -5.993  0.00  0.00    -0.004 A 
ATOM      5  C5  I4B d   1      -4.105  -1.951  -5.801  0.00  0.00     0.002 A 
ATOM      6  C6  I4B d   1      -4.949  -3.026  -5.486  0.00  0.00     0.003 A 
ENDROOT
BRANCH   1   7
ATOM      7  C1' I4B d   1      -5.309  -5.484  -5.128  0.00  0.00     0.060 C 
BRANCH   7   8
ATOM      8  C2' I4B d   1      -5.362  -5.703  -3.630  0.00  0.00    -0.013 C 
ATOM      9  C4' I4B d   1      -3.988  -5.956  -3.068  0.00  0.00     0.013 C 
ATOM     10  C3' I4B d   1      -5.988  -4.491  -3.007  0.00  0.00     0.013 C 
ENDBRANCH   7   8
ENDBRANCH   1   7
TORSDOF 2
ENDMDL
