MODEL 1
REMARK minimizedAffinity -1.13138735
REMARK minimizedRMSD -1
REMARK  2 active torsions:
REMARK  status: ('A' for Active; 'I' for Inactive)
REMARK    1  A    between atoms: C2'_3  and  C1'_4 
REMARK    2  A    between atoms: C1'_4  and  C1_5 
ROOT
ATOM      1  C1  I4B d   1      -4.085  -3.575  -5.375  0.00  0.00    -0.075 A 
ATOM      2  C2  I4B d   1      -4.194  -4.794  -5.997  0.00  0.00     0.003 A 
ATOM      3  C3  I4B d   1      -3.549  -5.932  -5.454  0.00  0.00     0.002 A 
ATOM      4  C4  I4B d   1      -2.768  -5.795  -4.324  0.00  0.00    -0.004 A 
ATOM      5  C5  I4B d   1      -2.677  -4.563  -3.683  0.00  0.00     0.002 A 
ATOM      6  C6  I4B d   1      -3.349  -3.449  -4.204  0.00  0.00     0.003 A 
ENDROOT
BRANCH   1   7
ATOM      7  C1' I4B d   1      -4.752  -2.388  -5.994  0.00  0.00     0.060 C 
BRANCH   7   8
ATOM      8  C2' I4B d   1      -5.915  -1.992  -5.108  0.00  0.00    -0.013 C 
ATOM      9  C4' I4B d   1      -5.999  -2.875  -3.891  0.00  0.00     0.013 C 
ATOM     10  C3' I4B d   1      -5.734  -0.554  -4.721  0.00  0.00     0.013 C 
ENDBRANCH   7   8
ENDBRANCH   1   7
TORSDOF 2
ENDMDL
