MODEL 1
REMARK minimizedAffinity -1.25182903
REMARK minimizedRMSD -1
REMARK  2 active torsions:
REMARK  status: ('A' for Active; 'I' for Inactive)
REMARK    1  A    between atoms: C2'_3  and  C1'_4 
REMARK    2  A    between atoms: C1'_4  and  C1_5 
ROOT
ATOM      1  C1  I4B d   1      -4.101  -4.383  -5.637  0.00  0.00    -0.075 A 
ATOM      2  C2  I4B d   1      -3.082  -3.530  -5.979  0.00  0.00     0.003 A 
ATOM      3  C3  I4B d   1      -1.746  -3.837  -5.624  0.00  0.00     0.002 A 
ATOM      4  C4  I4B d   1      -1.483  -4.974  -4.887  0.00  0.00    -0.004 A 
ATOM      5  C5  I4B d   1      -2.515  -5.849  -4.560  0.00  0.00     0.002 A 
ATOM      6  C6  I4B d   1      -3.831  -5.558  -4.948  0.00  0.00     0.003 A 
ENDROOT
BRANCH   1   7
ATOM      7  C1' I4B d   1      -5.504  -4.011  -6.000  0.00  0.00     0.060 C 
BRANCH   7   8
ATOM      8  C2' I4B d   1      -6.000  -3.007  -4.979  0.00  0.00    -0.013 C 
ATOM      9  C4' I4B d   1      -5.741  -3.484  -3.575  0.00  0.00     0.013 C 
ATOM     10  C3' I4B d   1      -5.312  -1.701  -5.243  0.00  0.00     0.013 C 
ENDBRANCH   7   8
ENDBRANCH   1   7
TORSDOF 2
ENDMDL
