MODEL 1
REMARK minimizedAffinity -1.14043689
REMARK minimizedRMSD -1
REMARK  2 active torsions:
REMARK  status: ('A' for Active; 'I' for Inactive)
REMARK    1  A    between atoms: C2'_3  and  C1'_4 
REMARK    2  A    between atoms: C1'_4  and  C1_5 
ROOT
ATOM      1  C1  I4B d   1      -4.206  -4.057  -5.157  0.00  0.00    -0.075 A 
ATOM      2  C2  I4B d   1      -4.039  -5.357  -4.747  0.00  0.00     0.003 A 
ATOM      3  C3  I4B d   1      -2.776  -5.985  -4.866  0.00  0.00     0.002 A 
ATOM      4  C4  I4B d   1      -1.727  -5.298  -5.442  0.00  0.00    -0.004 A 
ATOM      5  C5  I4B d   1      -1.892  -3.973  -5.835  0.00  0.00     0.002 A 
ATOM      6  C6  I4B d   1      -3.136  -3.344  -5.680  0.00  0.00     0.003 A 
ENDROOT
BRANCH   1   7
ATOM      7  C1' I4B d   1      -5.562  -3.436  -5.047  0.00  0.00     0.060 C 
BRANCH   7   8
ATOM      8  C2' I4B d   1      -5.378  -1.943  -4.864  0.00  0.00    -0.013 C 
ATOM      9  C4' I4B d   1      -5.999  -1.174  -6.000  0.00  0.00     0.013 C 
ATOM     10  C3' I4B d   1      -5.991  -1.559  -3.550  0.00  0.00     0.013 C 
ENDBRANCH   7   8
ENDBRANCH   1   7
TORSDOF 2
ENDMDL
