MODEL 1
REMARK minimizedAffinity -1.01781619
REMARK minimizedRMSD -1
REMARK  2 active torsions:
REMARK  status: ('A' for Active; 'I' for Inactive)
REMARK    1  A    between atoms: C2'_3  and  C1'_4 
REMARK    2  A    between atoms: C1'_4  and  C1_5 
ROOT
ATOM      1  C1  I4B d   1      -4.565  -4.644  -5.413  0.00  0.00    -0.075 A 
ATOM      2  C2  I4B d   1      -5.297  -4.847  -4.270  0.00  0.00     0.003 A 
ATOM      3  C3  I4B d   1      -5.999  -3.773  -3.673  0.00  0.00     0.002 A 
ATOM      4  C4  I4B d   1      -5.900  -2.509  -4.219  0.00  0.00    -0.004 A 
ATOM      5  C5  I4B d   1      -5.176  -2.309  -5.390  0.00  0.00     0.002 A 
ATOM      6  C6  I4B d   1      -4.514  -3.386  -5.999  0.00  0.00     0.003 A 
ENDROOT
BRANCH   1   7
ATOM      7  C1' I4B d   1      -3.810  -5.794  -6.000  0.00  0.00     0.060 C 
BRANCH   7   8
ATOM      8  C2' I4B d   1      -2.494  -5.915  -5.259  0.00  0.00    -0.013 C 
ATOM      9  C4' I4B d   1      -1.589  -4.750  -5.563  0.00  0.00     0.013 C 
ATOM     10  C3' I4B d   1      -2.794  -6.000  -3.792  0.00  0.00     0.013 C 
ENDBRANCH   7   8
ENDBRANCH   1   7
TORSDOF 2
ENDMDL
