MODEL 1
REMARK minimizedAffinity -3.96738911
REMARK minimizedRMSD -1
REMARK  2 active torsions:
REMARK  status: ('A' for Active; 'I' for Inactive)
REMARK    1  A    between atoms: C2'_3  and  C1'_4 
REMARK    2  A    between atoms: C1'_4  and  C1_5 
ROOT
ATOM      1  C1  I4B d   1      -4.362  -4.630  -5.263  0.00  0.00    -0.075 A 
ATOM      2  C2  I4B d   1      -4.123  -3.342  -5.671  0.00  0.00     0.003 A 
ATOM      3  C3  I4B d   1      -4.804  -2.262  -5.059  0.00  0.00     0.002 A 
ATOM      4  C4  I4B d   1      -5.748  -2.518  -4.085  0.00  0.00    -0.004 A 
ATOM      5  C5  I4B d   1      -5.972  -3.824  -3.657  0.00  0.00     0.002 A 
ATOM      6  C6  I4B d   1      -5.266  -4.886  -4.241  0.00  0.00     0.003 A 
ENDROOT
BRANCH   1   7
ATOM      7  C1' I4B d   1      -3.649  -5.749  -5.954  0.00  0.00     0.060 C 
BRANCH   7   8
ATOM      8  C2' I4B d   1      -2.349  -5.999  -5.217  0.00  0.00    -0.013 C 
ATOM      9  C4' I4B d   1      -1.316  -4.959  -5.565  0.00  0.00     0.013 C 
ATOM     10  C3' I4B d   1      -2.643  -6.000  -3.747  0.00  0.00     0.013 C 
ENDBRANCH   7   8
ENDBRANCH   1   7
TORSDOF 2
ENDMDL
