MODEL 1
REMARK minimizedAffinity 6.02802753
REMARK minimizedRMSD -1
REMARK  0 active torsions:
REMARK  status: ('A' for Active; 'I' for Inactive)
ROOT
ATOM      1  C1  BNZ d   1       3.891  -2.218   4.524  0.00  0.00     0.000 A 
ATOM      2  C2  BNZ d   1       3.996  -1.249   3.563  0.00  0.00     0.000 A 
ATOM      3  C3  BNZ d   1       2.882  -0.749   2.947  0.00  0.00     0.000 A 
ATOM      4  C4  BNZ d   1       1.670  -1.248   3.264  0.00  0.00     0.000 A 
ATOM      5  C5  BNZ d   1       1.548  -2.232   4.224  0.00  0.00     0.000 A 
ATOM      6  C6  BNZ d   1       2.668  -2.705   4.870  0.00  0.00     0.000 A 
ENDROOT
TORSDOF 0
ENDMDL
