MODEL 1
REMARK minimizedAffinity 6.10164022
REMARK minimizedRMSD -1
REMARK  0 active torsions:
REMARK  status: ('A' for Active; 'I' for Inactive)
ROOT
ATOM      1  C1  BNZ d   1       3.969  -2.308   5.985  0.00  0.00     0.000 A 
ATOM      2  C2  BNZ d   1       2.616  -2.096   5.978  0.00  0.00     0.000 A 
ATOM      3  C3  BNZ d   1       1.919  -2.064   4.803  0.00  0.00     0.000 A 
ATOM      4  C4  BNZ d   1       2.581  -2.204   3.636  0.00  0.00     0.000 A 
ATOM      5  C5  BNZ d   1       3.946  -2.410   3.626  0.00  0.00     0.000 A 
ATOM      6  C6  BNZ d   1       4.638  -2.480   4.813  0.00  0.00     0.000 A 
ENDROOT
TORSDOF 0
ENDMDL
