MODEL 1
REMARK minimizedAffinity -1.4525305
REMARK minimizedRMSD -1
REMARK  0 active torsions:
REMARK  status: ('A' for Active; 'I' for Inactive)
ROOT
ATOM      1  C1  BNZ d   1       1.998  -2.230   4.337  0.00  0.00     0.000 A 
ATOM      2  C2  BNZ d   1       3.176  -2.840   4.676  0.00  0.00     0.000 A 
ATOM      3  C3  BNZ d   1       4.338  -2.526   4.029  0.00  0.00     0.000 A 
ATOM      4  C4  BNZ d   1       4.314  -1.634   3.018  0.00  0.00     0.000 A 
ATOM      5  C5  BNZ d   1       3.133  -1.016   2.659  0.00  0.00     0.000 A 
ATOM      6  C6  BNZ d   1       1.972  -1.306   3.338  0.00  0.00     0.000 A 
ENDROOT
TORSDOF 0
ENDMDL
