MODEL 1
REMARK minimizedAffinity 1.75577128
REMARK minimizedRMSD -1
REMARK  0 active torsions:
REMARK  status: ('A' for Active; 'I' for Inactive)
ROOT
ATOM      1  C1  BNZ d   1      -5.987   2.233  -5.603  0.00  0.00     0.000 A 
ATOM      2  C2  BNZ d   1      -5.997   3.101  -4.544  0.00  0.00     0.000 A 
ATOM      3  C3  BNZ d   1      -5.983   2.637  -3.258  0.00  0.00     0.000 A 
ATOM      4  C4  BNZ d   1      -5.999   1.307  -3.033  0.00  0.00     0.000 A 
ATOM      5  C5  BNZ d   1      -5.998   0.419  -4.090  0.00  0.00     0.000 A 
ATOM      6  C6  BNZ d   1      -5.973   0.890  -5.383  0.00  0.00     0.000 A 
ENDROOT
TORSDOF 0
ENDMDL
