MODEL 1
REMARK minimizedAffinity 1.49363565
REMARK minimizedRMSD -1
REMARK  0 active torsions:
REMARK  status: ('A' for Active; 'I' for Inactive)
ROOT
ATOM      1  C1  BNZ d   1       1.567  -2.396   4.105  0.00  0.00     0.000 A 
ATOM      2  C2  BNZ d   1       2.582  -2.920   4.860  0.00  0.00     0.000 A 
ATOM      3  C3  BNZ d   1       3.869  -2.488   4.699  0.00  0.00     0.000 A 
ATOM      4  C4  BNZ d   1       4.145  -1.563   3.757  0.00  0.00     0.000 A 
ATOM      5  C5  BNZ d   1       3.134  -1.032   2.981  0.00  0.00     0.000 A 
ATOM      6  C6  BNZ d   1       1.834  -1.440   3.173  0.00  0.00     0.000 A 
ENDROOT
TORSDOF 0
ENDMDL
