MODEL 1
REMARK minimizedAffinity 1.55429244
REMARK minimizedRMSD -1
REMARK  0 active torsions:
REMARK  status: ('A' for Active; 'I' for Inactive)
ROOT
ATOM      1  C1  BNZ d   1       4.491  -2.709   6.000  0.00  0.00     0.000 A 
ATOM      2  C2  BNZ d   1       3.126  -2.620   5.937  0.00  0.00     0.000 A 
ATOM      3  C3  BNZ d   1       2.505  -2.163   4.808  0.00  0.00     0.000 A 
ATOM      4  C4  BNZ d   1       3.251  -1.759   3.759  0.00  0.00     0.000 A 
ATOM      5  C5  BNZ d   1       4.628  -1.834   3.811  0.00  0.00     0.000 A 
ATOM      6  C6  BNZ d   1       5.248  -2.331   4.934  0.00  0.00     0.000 A 
ENDROOT
TORSDOF 0
ENDMDL
