MODEL 1
REMARK minimizedAffinity -4.14070988
REMARK minimizedRMSD -1
REMARK  1 active torsions:
REMARK  status: ('A' for Active; 'I' for Inactive)
REMARK    1  A    between atoms: C1_2  and  C2_3 
ROOT
ATOM      1  C2  UNL d   1      -2.921   3.148  -3.599  0.00  0.00    -0.077 A 
ATOM      2  C3  UNL d   1      -2.762   4.104  -2.585  0.00  0.00     0.002 A 
ATOM      3  C4  UNL d   1      -2.458   5.428  -2.905  0.00  0.00     0.002 A 
ATOM      4  C5  UNL d   1      -2.316   5.810  -4.238  0.00  0.00    -0.004 A 
ATOM      5  C6  UNL d   1      -2.470   4.867  -5.253  0.00  0.00     0.002 A 
ATOM      6  C7  UNL d   1      -2.772   3.542  -4.935  0.00  0.00     0.002 A 
ENDROOT
BRANCH   1   7
ATOM      7  C1  UNL d   1      -3.296   1.729  -3.258  0.00  0.00     0.055 C 
ATOM      8  C   UNL d   1      -2.293   1.106  -2.299  0.00  0.00     0.019 C 
ENDBRANCH   1   7
TORSDOF 1
ENDMDL
