MODEL 1
REMARK minimizedAffinity -3.30486321
REMARK minimizedRMSD -1
REMARK  1 active torsions:
REMARK  status: ('A' for Active; 'I' for Inactive)
REMARK    1  A    between atoms: C1_2  and  C2_3 
ROOT
ATOM      1  C2  UNL d   1      -2.236   3.431  -3.414  0.00  0.00    -0.077 A 
ATOM      2  C3  UNL d   1      -2.995   4.304  -2.622  0.00  0.00     0.002 A 
ATOM      3  C4  UNL d   1      -3.314   5.581  -3.086  0.00  0.00     0.002 A 
ATOM      4  C5  UNL d   1      -2.883   5.995  -4.345  0.00  0.00    -0.004 A 
ATOM      5  C6  UNL d   1      -2.126   5.135  -5.139  0.00  0.00     0.002 A 
ATOM      6  C7  UNL d   1      -1.805   3.858  -4.676  0.00  0.00     0.002 A 
ENDROOT
BRANCH   1   7
ATOM      7  C1  UNL d   1      -1.933   2.035  -2.935  0.00  0.00     0.055 C 
ATOM      8  C   UNL d   1      -3.175   1.156  -2.967  0.00  0.00     0.019 C 
ENDBRANCH   1   7
TORSDOF 1
ENDMDL
