MODEL 1
REMARK minimizedAffinity 1.05850601
REMARK minimizedRMSD -1
REMARK  1 active torsions:
REMARK  status: ('A' for Active; 'I' for Inactive)
REMARK    1  A    between atoms: C1_2  and  C2_3 
ROOT
ATOM      1  C2  UNL d   1      -3.699   3.457  -2.325  0.00  0.00    -0.077 A 
ATOM      2  C3  UNL d   1      -3.456   4.807  -2.612  0.00  0.00     0.002 A 
ATOM      3  C4  UNL d   1      -3.146   5.208  -3.913  0.00  0.00     0.002 A 
ATOM      4  C5  UNL d   1      -3.081   4.266  -4.937  0.00  0.00    -0.004 A 
ATOM      5  C6  UNL d   1      -3.320   2.920  -4.662  0.00  0.00     0.002 A 
ATOM      6  C7  UNL d   1      -3.628   2.517  -3.362  0.00  0.00     0.002 A 
ENDROOT
BRANCH   1   7
ATOM      7  C1  UNL d   1      -4.081   3.029  -0.932  0.00  0.00     0.055 C 
ATOM      8  C   UNL d   1      -5.586   3.111  -0.721  0.00  0.00     0.019 C 
ENDBRANCH   1   7
TORSDOF 1
ENDMDL
