MODEL 1
REMARK minimizedAffinity 1.35001934
REMARK minimizedRMSD -1
REMARK  1 active torsions:
REMARK  status: ('A' for Active; 'I' for Inactive)
REMARK    1  A    between atoms: C1_2  and  C2_3 
ROOT
ATOM      1  C2  UNL d   1      -3.738   3.611  -2.436  0.00  0.00    -0.077 A 
ATOM      2  C3  UNL d   1      -4.268   4.907  -2.508  0.00  0.00     0.002 A 
ATOM      3  C4  UNL d   1      -3.893   5.767  -3.542  0.00  0.00     0.002 A 
ATOM      4  C5  UNL d   1      -2.990   5.340  -4.513  0.00  0.00    -0.004 A 
ATOM      5  C6  UNL d   1      -2.456   4.054  -4.449  0.00  0.00     0.002 A 
ATOM      6  C7  UNL d   1      -2.829   3.193  -3.416  0.00  0.00     0.002 A 
ENDROOT
BRANCH   1   7
ATOM      7  C1  UNL d   1      -4.179   2.665  -1.350  0.00  0.00     0.055 C 
ATOM      8  C   UNL d   1      -5.691   2.688  -1.176  0.00  0.00     0.019 C 
ENDBRANCH   1   7
TORSDOF 1
ENDMDL
