MODEL 1
REMARK minimizedAffinity 0.130805388
REMARK minimizedRMSD -1
REMARK  1 active torsions:
REMARK  status: ('A' for Active; 'I' for Inactive)
REMARK    1  A    between atoms: C1_2  and  C2_3 
ROOT
ATOM      1  C2  UNL d   1      -1.481  -1.316   2.729  0.00  0.00    -0.077 A 
ATOM      2  C3  UNL d   1      -2.606  -1.058   1.933  0.00  0.00     0.002 A 
ATOM      3  C4  UNL d   1      -3.705  -0.379   2.462  0.00  0.00     0.002 A 
ATOM      4  C5  UNL d   1      -3.688   0.051   3.787  0.00  0.00    -0.004 A 
ATOM      5  C6  UNL d   1      -2.575  -0.203   4.588  0.00  0.00     0.002 A 
ATOM      6  C7  UNL d   1      -1.476  -0.882   4.061  0.00  0.00     0.002 A 
ENDROOT
BRANCH   1   7
ATOM      7  C1  UNL d   1      -0.275  -2.005   2.146  0.00  0.00     0.055 C 
ATOM      8  C   UNL d   1       0.339  -1.187   1.019  0.00  0.00     0.019 C 
ENDBRANCH   1   7
TORSDOF 1
ENDMDL
