MODEL 1
REMARK minimizedAffinity -3.78791881
REMARK minimizedRMSD -1
REMARK  1 active torsions:
REMARK  status: ('A' for Active; 'I' for Inactive)
REMARK    1  A    between atoms: C1_2  and  C2_3 
ROOT
ATOM      1  C2  UNL d   1      -1.696   1.765  -2.181  0.00  0.00    -0.077 A 
ATOM      2  C3  UNL d   1      -1.149   3.055  -2.177  0.00  0.00     0.002 A 
ATOM      3  C4  UNL d   1      -1.725   4.068  -2.946  0.00  0.00     0.002 A 
ATOM      4  C5  UNL d   1      -2.853   3.803  -3.720  0.00  0.00    -0.004 A 
ATOM      5  C6  UNL d   1      -3.403   2.522  -3.731  0.00  0.00     0.002 A 
ATOM      6  C7  UNL d   1      -2.828   1.508  -2.964  0.00  0.00     0.002 A 
ENDROOT
BRANCH   1   7
ATOM      7  C1  UNL d   1      -1.106   0.683  -1.314  0.00  0.00     0.055 C 
ATOM      8  C   UNL d   1      -1.865  -0.627  -1.469  0.00  0.00     0.019 C 
ENDBRANCH   1   7
TORSDOF 1
ENDMDL
