MODEL 1
REMARK minimizedAffinity -2.47838831
REMARK minimizedRMSD -1
REMARK  1 active torsions:
REMARK  status: ('A' for Active; 'I' for Inactive)
REMARK    1  A    between atoms: C1_2  and  C2_3 
ROOT
ATOM      1  C2  UNL d   1      -2.197   2.014  -2.934  0.00  0.00    -0.077 A 
ATOM      2  C3  UNL d   1      -3.472   2.550  -3.164  0.00  0.00     0.002 A 
ATOM      3  C4  UNL d   1      -3.623   3.897  -3.496  0.00  0.00     0.002 A 
ATOM      4  C5  UNL d   1      -2.503   4.719  -3.606  0.00  0.00    -0.004 A 
ATOM      5  C6  UNL d   1      -1.231   4.196  -3.377  0.00  0.00     0.002 A 
ATOM      6  C7  UNL d   1      -1.079   2.849  -3.044  0.00  0.00     0.002 A 
ENDROOT
BRANCH   1   7
ATOM      7  C1  UNL d   1      -2.029   0.549  -2.624  0.00  0.00     0.055 C 
ATOM      8  C   UNL d   1      -0.717   0.283  -1.902  0.00  0.00     0.019 C 
ENDBRANCH   1   7
TORSDOF 1
ENDMDL
