MODEL 1
REMARK minimizedAffinity -3.57571507
REMARK minimizedRMSD -1
REMARK  1 active torsions:
REMARK  status: ('A' for Active; 'I' for Inactive)
REMARK    1  A    between atoms: C1_2  and  C2_3 
ROOT
ATOM      1  C2  UNL d   1      -2.192   3.683  -3.920  0.00  0.00    -0.077 A 
ATOM      2  C3  UNL d   1      -2.735   4.401  -2.845  0.00  0.00     0.002 A 
ATOM      3  C4  UNL d   1      -3.020   3.759  -1.639  0.00  0.00     0.002 A 
ATOM      4  C5  UNL d   1      -2.760   2.397  -1.494  0.00  0.00    -0.004 A 
ATOM      5  C6  UNL d   1      -2.221   1.674  -2.558  0.00  0.00     0.002 A 
ATOM      6  C7  UNL d   1      -1.937   2.315  -3.765  0.00  0.00     0.002 A 
ENDROOT
BRANCH   1   7
ATOM      7  C1  UNL d   1      -1.839   4.385  -5.206  0.00  0.00     0.055 C 
ATOM      8  C   UNL d   1      -0.342   4.332  -5.472  0.00  0.00     0.019 C 
ENDBRANCH   1   7
TORSDOF 1
ENDMDL
