MODEL 1
REMARK minimizedAffinity -3.42706847
REMARK minimizedRMSD -1
REMARK  0 active torsions:
REMARK  status: ('A' for Active; 'I' for Inactive)
ROOT
ATOM      1  C   UNL d   1       3.157  -0.396  -1.131  0.00  0.00    -0.002 A 
ATOM      2  C1  UNL d   1       2.686   0.372  -2.186  0.00  0.00     0.010 A 
ATOM      3  C2  UNL d   1       1.444   1.006  -2.105  0.00  0.00     0.041 A 
ATOM      4  C3  UNL d   1       0.678   0.855  -0.933  0.00  0.00    -0.075 A 
ATOM      5  S   UNL d   1      -0.872   1.539  -0.609  0.00  0.00     0.015 SA
ATOM      6  C4  UNL d   1      -0.944   0.829   0.939  0.00  0.00     0.022 A 
ATOM      7  C5  UNL d   1       0.178   0.084   1.218  0.00  0.00     0.026 A 
ATOM      8  C6  UNL d   1       1.131   0.087   0.144  0.00  0.00    -0.082 A 
ATOM      9  C7  UNL d   1       2.393  -0.543   0.030  0.00  0.00     0.045 A 
ENDROOT
TORSDOF 0
ENDMDL
