MODEL 1
REMARK minimizedAffinity 0.260515064
REMARK minimizedRMSD -1
REMARK  0 active torsions:
REMARK  status: ('A' for Active; 'I' for Inactive)
ROOT
ATOM      1  C   UNL d   1       1.764  -1.868  -1.879  0.00  0.00    -0.002 A 
ATOM      2  C1  UNL d   1       1.098  -2.429  -0.798  0.00  0.00     0.010 A 
ATOM      3  C2  UNL d   1       0.187  -1.675  -0.056  0.00  0.00     0.041 A 
ATOM      4  C3  UNL d   1      -0.047  -0.335  -0.422  0.00  0.00    -0.075 A 
ATOM      5  S   UNL d   1      -1.119   0.779   0.340  0.00  0.00     0.015 SA
ATOM      6  C4  UNL d   1      -0.720   2.026  -0.751  0.00  0.00     0.022 A 
ATOM      7  C5  UNL d   1       0.208   1.619  -1.681  0.00  0.00     0.026 A 
ATOM      8  C6  UNL d   1       0.610   0.252  -1.507  0.00  0.00    -0.082 A 
ATOM      9  C7  UNL d   1       1.529  -0.539  -2.239  0.00  0.00     0.045 A 
ENDROOT
TORSDOF 0
ENDMDL
