MODEL 1
REMARK minimizedAffinity -1.85980558
REMARK minimizedRMSD -1
REMARK  0 active torsions:
REMARK  status: ('A' for Active; 'I' for Inactive)
ROOT
ATOM      1  C   UNL d   1       1.869  -1.737  -0.954  0.00  0.00    -0.002 A 
ATOM      2  C1  UNL d   1       2.018  -0.667  -1.824  0.00  0.00     0.010 A 
ATOM      3  C2  UNL d   1       1.131   0.411  -1.783  0.00  0.00     0.041 A 
ATOM      4  C3  UNL d   1       0.083   0.395  -0.841  0.00  0.00    -0.075 A 
ATOM      5  S   UNL d   1      -1.123   1.605  -0.607  0.00  0.00     0.015 SA
ATOM      6  C4  UNL d   1      -1.862   0.730   0.655  0.00  0.00     0.022 A 
ATOM      7  C5  UNL d   1      -1.219  -0.459   0.904  0.00  0.00     0.026 A 
ATOM      8  C6  UNL d   1      -0.087  -0.671   0.047  0.00  0.00    -0.082 A 
ATOM      9  C7  UNL d   1       0.829  -1.749  -0.021  0.00  0.00     0.045 A 
ENDROOT
TORSDOF 0
ENDMDL
