MODEL 1
REMARK minimizedAffinity 3.47414851
REMARK minimizedRMSD -1
REMARK  0 active torsions:
REMARK  status: ('A' for Active; 'I' for Inactive)
ROOT
ATOM      1  C   UNL d   1      -1.606   1.872   4.244  0.00  0.00    -0.002 A 
ATOM      2  C1  UNL d   1      -0.335   1.755   4.788  0.00  0.00     0.010 A 
ATOM      3  C2  UNL d   1       0.678   1.096   4.088  0.00  0.00     0.041 A 
ATOM      4  C3  UNL d   1       0.390   0.555   2.820  0.00  0.00    -0.075 A 
ATOM      5  S   UNL d   1       1.474  -0.293   1.781  0.00  0.00     0.015 SA
ATOM      6  C4  UNL d   1       0.276  -0.518   0.591  0.00  0.00     0.022 A 
ATOM      7  C5  UNL d   1      -0.928   0.033   0.961  0.00  0.00     0.026 A 
ATOM      8  C6  UNL d   1      -0.882   0.661   2.251  0.00  0.00    -0.082 A 
ATOM      9  C7  UNL d   1      -1.888   1.334   2.986  0.00  0.00     0.045 A 
ENDROOT
TORSDOF 0
ENDMDL
