MODEL 1
REMARK minimizedAffinity 0.572020948
REMARK minimizedRMSD -1
REMARK  0 active torsions:
REMARK  status: ('A' for Active; 'I' for Inactive)
ROOT
ATOM      1  C   UNL d   1       0.981  -0.952  -0.861  0.00  0.00    -0.002 A 
ATOM      2  C1  UNL d   1       1.254  -1.682   0.287  0.00  0.00     0.010 A 
ATOM      3  C2  UNL d   1       0.501  -1.491   1.447  0.00  0.00     0.041 A 
ATOM      4  C3  UNL d   1      -0.544  -0.546   1.433  0.00  0.00    -0.075 A 
ATOM      5  S   UNL d   1      -1.600  -0.145   2.735  0.00  0.00     0.015 SA
ATOM      6  C4  UNL d   1      -2.440   1.005   1.798  0.00  0.00     0.022 A 
ATOM      7  C5  UNL d   1      -1.940   1.094   0.520  0.00  0.00     0.026 A 
ATOM      8  C6  UNL d   1      -0.839   0.201   0.289  0.00  0.00    -0.082 A 
ATOM      9  C7  UNL d   1      -0.056  -0.015  -0.871  0.00  0.00     0.045 A 
ENDROOT
TORSDOF 0
ENDMDL
