MODEL 1
REMARK minimizedAffinity -5.19338131
REMARK minimizedRMSD -1
REMARK  0 active torsions:
REMARK  status: ('A' for Active; 'I' for Inactive)
ROOT
ATOM      1  C   UNL d   1       2.543   0.940  -2.933  0.00  0.00    -0.002 A 
ATOM      2  C1  UNL d   1       1.511   1.821  -2.645  0.00  0.00     0.010 A 
ATOM      3  C2  UNL d   1       0.678   1.604  -1.545  0.00  0.00     0.041 A 
ATOM      4  C3  UNL d   1       0.905   0.477  -0.731  0.00  0.00    -0.075 A 
ATOM      5  S   UNL d   1       0.013   0.010   0.669  0.00  0.00     0.015 SA
ATOM      6  C4  UNL d   1       0.983  -1.369   0.918  0.00  0.00     0.022 A 
ATOM      7  C5  UNL d   1       1.967  -1.486  -0.034  0.00  0.00     0.026 A 
ATOM      8  C6  UNL d   1       1.939  -0.424  -1.000  0.00  0.00    -0.082 A 
ATOM      9  C7  UNL d   1       2.765  -0.177  -2.123  0.00  0.00     0.045 A 
ENDROOT
TORSDOF 0
ENDMDL
