MODEL 1
REMARK minimizedAffinity 7.24837732
REMARK minimizedRMSD -1
REMARK  0 active torsions:
REMARK  status: ('A' for Active; 'I' for Inactive)
ROOT
ATOM      1  C   UNL d   1      -6.000  -0.618   1.868  0.00  0.00    -0.002 A 
ATOM      2  C1  UNL d   1      -4.887  -1.446   1.826  0.00  0.00     0.010 A 
ATOM      3  C2  UNL d   1      -3.679  -1.041   2.398  0.00  0.00     0.041 A 
ATOM      4  C3  UNL d   1      -3.609   0.221   3.020  0.00  0.00    -0.075 A 
ATOM      5  S   UNL d   1      -2.236   0.927   3.788  0.00  0.00     0.015 SA
ATOM      6  C4  UNL d   1      -3.095   2.343   4.190  0.00  0.00     0.022 A 
ATOM      7  C5  UNL d   1      -4.399   2.295   3.757  0.00  0.00     0.026 A 
ATOM      8  C6  UNL d   1      -4.717   1.072   3.076  0.00  0.00    -0.082 A 
ATOM      9  C7  UNL d   1      -5.927   0.633   2.486  0.00  0.00     0.045 A 
ENDROOT
TORSDOF 0
ENDMDL
