MODEL 1
REMARK minimizedAffinity -2.60647631
REMARK minimizedRMSD -1
REMARK  0 active torsions:
REMARK  status: ('A' for Active; 'I' for Inactive)
ROOT
ATOM      1  C   UNL d   1       0.135  -0.276  -0.953  0.00  0.00    -0.002 A 
ATOM      2  C1  UNL d   1       0.951  -0.900  -0.020  0.00  0.00     0.010 A 
ATOM      3  C2  UNL d   1       0.799  -0.640   1.343  0.00  0.00     0.041 A 
ATOM      4  C3  UNL d   1      -0.198   0.266   1.757  0.00  0.00    -0.075 A 
ATOM      5  S   UNL d   1      -0.567   0.737   3.374  0.00  0.00     0.015 SA
ATOM      6  C4  UNL d   1      -1.817   1.778   2.864  0.00  0.00     0.022 A 
ATOM      7  C5  UNL d   1      -1.962   1.778   1.497  0.00  0.00     0.026 A 
ATOM      8  C6  UNL d   1      -1.032   0.906   0.836  0.00  0.00    -0.082 A 
ATOM      9  C7  UNL d   1      -0.852   0.622  -0.539  0.00  0.00     0.045 A 
ENDROOT
TORSDOF 0
ENDMDL
