MODEL 1
REMARK minimizedAffinity 3.25034332
REMARK minimizedRMSD -1
REMARK  0 active torsions:
REMARK  status: ('A' for Active; 'I' for Inactive)
ROOT
ATOM      1  C   UNL d   1      -3.105  -2.365   3.719  0.00  0.00    -0.002 A 
ATOM      2  C1  UNL d   1      -3.106  -1.413   2.710  0.00  0.00     0.010 A 
ATOM      3  C2  UNL d   1      -1.945  -0.700   2.404  0.00  0.00     0.041 A 
ATOM      4  C3  UNL d   1      -0.771  -0.964   3.136  0.00  0.00    -0.075 A 
ATOM      5  S   UNL d   1       0.769  -0.214   2.936  0.00  0.00     0.015 SA
ATOM      6  C4  UNL d   1       1.465  -1.141   4.186  0.00  0.00     0.022 A 
ATOM      7  C5  UNL d   1       0.559  -2.006   4.753  0.00  0.00     0.026 A 
ATOM      8  C6  UNL d   1      -0.744  -1.919   4.157  0.00  0.00    -0.082 A 
ATOM      9  C7  UNL d   1      -1.938  -2.624   4.443  0.00  0.00     0.045 A 
ENDROOT
TORSDOF 0
ENDMDL
