MODEL 1
REMARK minimizedAffinity 9.60564613
REMARK minimizedRMSD -1
REMARK  0 active torsions:
REMARK  status: ('A' for Active; 'I' for Inactive)
ROOT
ATOM      1  C   UNL d   1      -2.004   1.638  -2.102  0.00  0.00    -0.002 A 
ATOM      2  C1  UNL d   1      -2.628   0.404  -1.982  0.00  0.00     0.010 A 
ATOM      3  C2  UNL d   1      -2.397  -0.603  -2.921  0.00  0.00     0.041 A 
ATOM      4  C3  UNL d   1      -1.519  -0.348  -3.992  0.00  0.00    -0.075 A 
ATOM      5  S   UNL d   1      -1.084  -1.431  -5.261  0.00  0.00     0.015 SA
ATOM      6  C4  UNL d   1      -0.060  -0.282  -5.992  0.00  0.00     0.022 A 
ATOM      7  C5  UNL d   1      -0.038   0.904  -5.299  0.00  0.00     0.026 A 
ATOM      8  C6  UNL d   1      -0.878   0.886  -4.134  0.00  0.00    -0.082 A 
ATOM      9  C7  UNL d   1      -1.133   1.887  -3.166  0.00  0.00     0.045 A 
ENDROOT
TORSDOF 0
ENDMDL
