MODEL 1
REMARK minimizedAffinity 4.80807686
REMARK minimizedRMSD -1
REMARK  0 active torsions:
REMARK  status: ('A' for Active; 'I' for Inactive)
ROOT
ATOM      1  C   UNL d   1      -0.780  -1.195   2.949  0.00  0.00    -0.002 A 
ATOM      2  C1  UNL d   1       0.404  -1.822   3.311  0.00  0.00     0.010 A 
ATOM      3  C2  UNL d   1       1.627  -1.374   2.810  0.00  0.00     0.041 A 
ATOM      4  C3  UNL d   1       1.642  -0.273   1.931  0.00  0.00    -0.075 A 
ATOM      5  S   UNL d   1       3.023   0.450   1.194  0.00  0.00     0.015 SA
ATOM      6  C4  UNL d   1       2.074   1.609   0.381  0.00  0.00     0.022 A 
ATOM      7  C5  UNL d   1       0.734   1.462   0.653  0.00  0.00     0.026 A 
ATOM      8  C6  UNL d   1       0.463   0.375   1.552  0.00  0.00    -0.082 A 
ATOM      9  C7  UNL d   1      -0.761  -0.103   2.076  0.00  0.00     0.045 A 
ENDROOT
TORSDOF 0
ENDMDL
