MODEL 1
REMARK minimizedAffinity 6.25419331
REMARK minimizedRMSD -1
REMARK  3 active torsions:
REMARK  status: ('A' for Active; 'I' for Inactive)
REMARK    1  A    between atoms: C3'_2  and  C2'_3 
REMARK    2  A    between atoms: C2'_3  and  C1'_4 
REMARK    3  A    between atoms: C1'_4  and  C1_5 
ROOT
ATOM      1  C1  N4B d   1      -0.496  -0.281   1.955  0.00  0.00    -0.075 A 
ATOM      2  C2  N4B d   1      -0.568  -0.617   3.324  0.00  0.00     0.002 A 
ATOM      3  C3  N4B d   1       0.566  -0.999   3.998  0.00  0.00     0.002 A 
ATOM      4  C4  N4B d   1       1.774  -1.071   3.321  0.00  0.00    -0.004 A 
ATOM      5  C5  N4B d   1       1.840  -0.720   2.004  0.00  0.00     0.002 A 
ATOM      6  C6  N4B d   1       0.709  -0.330   1.316  0.00  0.00     0.002 A 
ENDROOT
BRANCH   1   7
ATOM      7  C1' N4B d   1      -1.724   0.060   1.155  0.00  0.00     0.057 C 
BRANCH   7   8
ATOM      8  C2' N4B d   1      -1.385   0.003  -0.332  0.00  0.00     0.009 C 
BRANCH   8   9
ATOM      9  C3' N4B d   1      -2.273  -0.977  -1.079  0.00  0.00     0.004 C 
ATOM     10  C4' N4B d   1      -1.995  -2.405  -0.717  0.00  0.00     0.003 C 
ENDBRANCH   8   9
ENDBRANCH   7   8
ENDBRANCH   1   7
TORSDOF 3
ENDMDL
