MODEL 1
REMARK minimizedAffinity 0.329197943
REMARK minimizedRMSD -1
REMARK  3 active torsions:
REMARK  status: ('A' for Active; 'I' for Inactive)
REMARK    1  A    between atoms: C3'_2  and  C2'_3 
REMARK    2  A    between atoms: C2'_3  and  C1'_4 
REMARK    3  A    between atoms: C1'_4  and  C1_5 
ROOT
ATOM      1  C1  N4B d   1       0.327  -0.216   2.486  0.00  0.00    -0.075 A 
ATOM      2  C2  N4B d   1       0.356   1.053   1.867  0.00  0.00     0.002 A 
ATOM      3  C3  N4B d   1      -0.749   1.512   1.191  0.00  0.00     0.002 A 
ATOM      4  C4  N4B d   1      -1.881   0.716   1.106  0.00  0.00    -0.004 A 
ATOM      5  C5  N4B d   1      -1.909  -0.498   1.728  0.00  0.00     0.002 A 
ATOM      6  C6  N4B d   1      -0.808  -0.970   2.414  0.00  0.00     0.002 A 
ENDROOT
BRANCH   1   7
ATOM      7  C1' N4B d   1       1.539  -0.796   3.162  0.00  0.00     0.057 C 
BRANCH   7   8
ATOM      8  C2' N4B d   1       1.123  -1.409   4.496  0.00  0.00     0.009 C 
BRANCH   8   9
ATOM      9  C3' N4B d   1       1.849  -0.769   5.666  0.00  0.00     0.004 C 
ATOM     10  C4' N4B d   1       3.137  -1.461   5.999  0.00  0.00     0.003 C 
ENDBRANCH   8   9
ENDBRANCH   7   8
ENDBRANCH   1   7
TORSDOF 3
ENDMDL
