MODEL 1
REMARK minimizedAffinity 5.82246685
REMARK minimizedRMSD -1
REMARK  3 active torsions:
REMARK  status: ('A' for Active; 'I' for Inactive)
REMARK    1  A    between atoms: C3'_2  and  C2'_3 
REMARK    2  A    between atoms: C2'_3  and  C1'_4 
REMARK    3  A    between atoms: C1'_4  and  C1_5 
ROOT
ATOM      1  C1  N4B d   1       1.409  -1.437   3.641  0.00  0.00    -0.075 A 
ATOM      2  C2  N4B d   1       0.808  -2.699   3.845  0.00  0.00     0.002 A 
ATOM      3  C3  N4B d   1       1.014  -3.375   5.023  0.00  0.00     0.002 A 
ATOM      4  C4  N4B d   1       1.829  -2.820   5.998  0.00  0.00    -0.004 A 
ATOM      5  C5  N4B d   1       2.384  -1.590   5.804  0.00  0.00     0.002 A 
ATOM      6  C6  N4B d   1       2.183  -0.897   4.627  0.00  0.00     0.002 A 
ENDROOT
BRANCH   1   7
ATOM      7  C1' N4B d   1       1.282  -0.699   2.336  0.00  0.00     0.057 C 
BRANCH   7   8
ATOM      8  C2' N4B d   1      -0.072  -1.018   1.710  0.00  0.00     0.009 C 
BRANCH   8   9
ATOM      9  C3' N4B d   1      -1.066   0.115   1.898  0.00  0.00     0.004 C 
ATOM     10  C4' N4B d   1      -0.646   1.377   1.206  0.00  0.00     0.003 C 
ENDBRANCH   8   9
ENDBRANCH   7   8
ENDBRANCH   1   7
TORSDOF 3
ENDMDL
