MODEL 1
REMARK minimizedAffinity 2.06710076
REMARK minimizedRMSD -1
REMARK  3 active torsions:
REMARK  status: ('A' for Active; 'I' for Inactive)
REMARK    1  A    between atoms: C3'_2  and  C2'_3 
REMARK    2  A    between atoms: C2'_3  and  C1'_4 
REMARK    3  A    between atoms: C1'_4  and  C1_5 
ROOT
ATOM      1  C1  N4B d   1      -0.523  -0.041   1.631  0.00  0.00    -0.075 A 
ATOM      2  C2  N4B d   1      -0.485  -0.617   2.920  0.00  0.00     0.002 A 
ATOM      3  C3  N4B d   1       0.687  -1.143   3.403  0.00  0.00     0.002 A 
ATOM      4  C4  N4B d   1       1.826  -1.123   2.612  0.00  0.00    -0.004 A 
ATOM      5  C5  N4B d   1       1.788  -0.543   1.378  0.00  0.00     0.002 A 
ATOM      6  C6  N4B d   1       0.617  -0.006   0.881  0.00  0.00     0.002 A 
ENDROOT
BRANCH   1   7
ATOM      7  C1' N4B d   1      -1.802   0.470   1.026  0.00  0.00     0.057 C 
BRANCH   7   8
ATOM      8  C2' N4B d   1      -1.652   0.522  -0.491  0.00  0.00     0.009 C 
BRANCH   8   9
ATOM      9  C3' N4B d   1      -2.948   0.171  -1.202  0.00  0.00     0.004 C 
ATOM     10  C4' N4B d   1      -2.895  -1.167  -1.878  0.00  0.00     0.003 C 
ENDBRANCH   8   9
ENDBRANCH   7   8
ENDBRANCH   1   7
TORSDOF 3
ENDMDL
