MODEL 1
REMARK minimizedAffinity 8.27229881
REMARK minimizedRMSD -1
REMARK  3 active torsions:
REMARK  status: ('A' for Active; 'I' for Inactive)
REMARK    1  A    between atoms: C3'_2  and  C2'_3 
REMARK    2  A    between atoms: C2'_3  and  C1'_4 
REMARK    3  A    between atoms: C1'_4  and  C1_5 
ROOT
ATOM      1  C1  N4B d   1       0.410  -0.698   2.617  0.00  0.00    -0.075 A 
ATOM      2  C2  N4B d   1       0.599   0.643   2.216  0.00  0.00     0.002 A 
ATOM      3  C3  N4B d   1      -0.361   1.277   1.467  0.00  0.00     0.002 A 
ATOM      4  C4  N4B d   1      -1.505   0.588   1.093  0.00  0.00    -0.004 A 
ATOM      5  C5  N4B d   1      -1.692  -0.698   1.506  0.00  0.00     0.002 A 
ATOM      6  C6  N4B d   1      -0.737  -1.347   2.262  0.00  0.00     0.002 A 
ENDROOT
BRANCH   1   7
ATOM      7  C1' N4B d   1       1.470  -1.460   3.364  0.00  0.00     0.057 C 
BRANCH   7   8
ATOM      8  C2' N4B d   1       0.942  -1.827   4.748  0.00  0.00     0.009 C 
BRANCH   8   9
ATOM      9  C3' N4B d   1       1.479  -0.901   5.825  0.00  0.00     0.004 C 
ATOM     10  C4' N4B d   1       2.965  -1.009   5.997  0.00  0.00     0.003 C 
ENDBRANCH   8   9
ENDBRANCH   7   8
ENDBRANCH   1   7
TORSDOF 3
ENDMDL
