MODEL 1
REMARK minimizedAffinity 1.05250466
REMARK minimizedRMSD -1
REMARK  0 active torsions:
REMARK  status: ('A' for Active; 'I' for Inactive)
ROOT
ATOM      1  O1  BZF d   1       0.644  -3.288   3.057  0.00  0.00    -0.204 OA
ATOM      2  C2  BZF d   1       1.711  -4.043   2.611  0.00  0.00     0.174 A 
ATOM      3  C3  BZF d   1       2.082  -3.662   1.372  0.00  0.00    -0.012 A 
ATOM      4  C3A BZF d   1       1.251  -2.541   1.058  0.00  0.00    -0.107 A 
ATOM      5  C4  BZF d   1       1.155  -1.718  -0.027  0.00  0.00     0.055 A 
ATOM      6  C5  BZF d   1       0.188  -0.763  -0.049  0.00  0.00    -0.016 A 
ATOM      7  C6  BZF d   1      -0.702  -0.607   0.994  0.00  0.00     0.022 A 
ATOM      8  C7  BZF d   1      -0.643  -1.397   2.094  0.00  0.00     0.029 A 
ATOM      9  C7A BZF d   1       0.354  -2.341   2.133  0.00  0.00     0.058 A 
ENDROOT
TORSDOF 0
ENDMDL
