MODEL 1
REMARK minimizedAffinity 4.26242971
REMARK minimizedRMSD -1
REMARK  0 active torsions:
REMARK  status: ('A' for Active; 'I' for Inactive)
ROOT
ATOM      1  O1  BZF d   1      -0.753  -2.529   2.693  0.00  0.00    -0.204 OA
ATOM      2  C2  BZF d   1       0.578  -2.715   2.373  0.00  0.00     0.174 A 
ATOM      3  C3  BZF d   1       0.899  -2.039   1.251  0.00  0.00    -0.012 A 
ATOM      4  C3A BZF d   1      -0.283  -1.315   0.896  0.00  0.00    -0.107 A 
ATOM      5  C4  BZF d   1      -0.586  -0.450  -0.116  0.00  0.00     0.055 A 
ATOM      6  C5  BZF d   1      -1.855   0.026  -0.221  0.00  0.00    -0.016 A 
ATOM      7  C6  BZF d   1      -2.845  -0.345   0.665  0.00  0.00     0.022 A 
ATOM      8  C7  BZF d   1      -2.591  -1.197   1.689  0.00  0.00     0.029 A 
ATOM      9  C7A BZF d   1      -1.302  -1.654   1.816  0.00  0.00     0.058 A 
ENDROOT
TORSDOF 0
ENDMDL
