MODEL 1
REMARK minimizedAffinity 0.897149742
REMARK minimizedRMSD -1
REMARK  0 active torsions:
REMARK  status: ('A' for Active; 'I' for Inactive)
ROOT
ATOM      1  O1  BZF d   1      -1.111  -2.074   2.922  0.00  0.00    -0.204 OA
ATOM      2  C2  BZF d   1       0.220  -1.835   2.641  0.00  0.00     0.174 A 
ATOM      3  C3  BZF d   1       0.356  -1.241   1.438  0.00  0.00    -0.012 A 
ATOM      4  C3A BZF d   1      -0.980  -1.017   0.976  0.00  0.00    -0.107 A 
ATOM      5  C4  BZF d   1      -1.501  -0.447  -0.150  0.00  0.00     0.055 A 
ATOM      6  C5  BZF d   1      -2.848  -0.451  -0.330  0.00  0.00    -0.016 A 
ATOM      7  C6  BZF d   1      -3.702  -1.020   0.592  0.00  0.00     0.022 A 
ATOM      8  C7  BZF d   1      -3.232  -1.593   1.727  0.00  0.00     0.029 A 
ATOM      9  C7A BZF d   1      -1.874  -1.561   1.927  0.00  0.00     0.058 A 
ENDROOT
TORSDOF 0
ENDMDL
