MODEL 1
REMARK minimizedAffinity -3.63733649
REMARK minimizedRMSD -1
REMARK  0 active torsions:
REMARK  status: ('A' for Active; 'I' for Inactive)
ROOT
ATOM      1  O1  BZF d   1       1.650  -2.515   0.259  0.00  0.00    -0.204 OA
ATOM      2  C2  BZF d   1       2.045  -3.743   0.752  0.00  0.00     0.174 A 
ATOM      3  C3  BZF d   1       1.408  -4.023   1.907  0.00  0.00    -0.012 A 
ATOM      4  C3A BZF d   1       0.493  -2.940   2.104  0.00  0.00    -0.107 A 
ATOM      5  C4  BZF d   1      -0.431  -2.655   3.068  0.00  0.00     0.055 A 
ATOM      6  C5  BZF d   1      -1.110  -1.480   3.005  0.00  0.00    -0.016 A 
ATOM      7  C6  BZF d   1      -0.887  -0.566   1.996  0.00  0.00     0.022 A 
ATOM      8  C7  BZF d   1       0.015  -0.807   1.014  0.00  0.00     0.029 A 
ATOM      9  C7A BZF d   1       0.680  -2.008   1.057  0.00  0.00     0.058 A 
ENDROOT
TORSDOF 0
ENDMDL
