MODEL 1
REMARK minimizedAffinity -2.41053367
REMARK minimizedRMSD -1
REMARK  0 active torsions:
REMARK  status: ('A' for Active; 'I' for Inactive)
ROOT
ATOM      1  O1  BZF d   1      -2.141  -1.280   3.521  0.00  0.00    -0.204 OA
ATOM      2  C2  BZF d   1      -3.109  -0.457   2.978  0.00  0.00     0.174 A 
ATOM      3  C3  BZF d   1      -2.741  -0.031   1.752  0.00  0.00    -0.012 A 
ATOM      4  C3A BZF d   1      -1.506  -0.698   1.477  0.00  0.00    -0.107 A 
ATOM      5  C4  BZF d   1      -0.656  -0.696   0.408  0.00  0.00     0.055 A 
ATOM      6  C5  BZF d   1       0.503  -1.401   0.485  0.00  0.00    -0.016 A 
ATOM      7  C6  BZF d   1       0.846  -2.113   1.615  0.00  0.00     0.022 A 
ATOM      8  C7  BZF d   1       0.033  -2.149   2.698  0.00  0.00     0.029 A 
ATOM      9  C7A BZF d   1      -1.155  -1.465   2.612  0.00  0.00     0.058 A 
ENDROOT
TORSDOF 0
ENDMDL
