MODEL 1
REMARK minimizedAffinity 1.51159656
REMARK minimizedRMSD -1
REMARK  0 active torsions:
REMARK  status: ('A' for Active; 'I' for Inactive)
ROOT
ATOM      1  O1  BZF d   1       2.668   6.000   4.728  0.00  0.00    -0.204 OA
ATOM      2  C2  BZF d   1       3.028   5.579   3.462  0.00  0.00     0.174 A 
ATOM      3  C3  BZF d   1       1.975   5.027   2.825  0.00  0.00    -0.012 A 
ATOM      4  C3A BZF d   1       0.867   5.190   3.715  0.00  0.00    -0.107 A 
ATOM      5  C4  BZF d   1      -0.455   4.859   3.640  0.00  0.00     0.055 A 
ATOM      6  C5  BZF d   1      -1.257   5.092   4.712  0.00  0.00    -0.016 A 
ATOM      7  C6  BZF d   1      -0.769   5.649   5.876  0.00  0.00     0.022 A 
ATOM      8  C7  BZF d   1       0.535   5.999   5.997  0.00  0.00     0.029 A 
ATOM      9  C7A BZF d   1       1.340   5.795   4.903  0.00  0.00     0.058 A 
ENDROOT
TORSDOF 0
ENDMDL
