MODEL 1
REMARK minimizedAffinity -4.13991117
REMARK minimizedRMSD -1
REMARK  0 active torsions:
REMARK  status: ('A' for Active; 'I' for Inactive)
ROOT
ATOM      1  O1  BZF d   1       0.900  -2.176   0.675  0.00  0.00    -0.204 OA
ATOM      2  C2  BZF d   1       1.198  -1.849  -0.633  0.00  0.00     0.174 A 
ATOM      3  C3  BZF d   1       0.156  -1.226  -1.221  0.00  0.00    -0.012 A 
ATOM      4  C3A BZF d   1      -0.824  -1.078  -0.188  0.00  0.00    -0.107 A 
ATOM      5  C4  BZF d   1      -2.070  -0.522  -0.150  0.00  0.00     0.055 A 
ATOM      6  C5  BZF d   1      -2.796  -0.606   0.996  0.00  0.00    -0.016 A 
ATOM      7  C6  BZF d   1      -2.310  -1.244   2.118  0.00  0.00     0.022 A 
ATOM      8  C7  BZF d   1      -1.077  -1.807   2.130  0.00  0.00     0.029 A 
ATOM      9  C7A BZF d   1      -0.328  -1.694   0.984  0.00  0.00     0.058 A 
ENDROOT
TORSDOF 0
ENDMDL
