MODEL 1
REMARK minimizedAffinity 1.13986015
REMARK minimizedRMSD -1
REMARK  0 active torsions:
REMARK  status: ('A' for Active; 'I' for Inactive)
ROOT
ATOM      1  O1  BZF d   1      -3.606   0.044   4.461  0.00  0.00    -0.204 OA
ATOM      2  C2  BZF d   1      -4.731   0.671   3.962  0.00  0.00     0.174 A 
ATOM      3  C3  BZF d   1      -4.572   0.971   2.657  0.00  0.00    -0.012 A 
ATOM      4  C3A BZF d   1      -3.303   0.418   2.296  0.00  0.00    -0.107 A 
ATOM      5  C4  BZF d   1      -2.595   0.376   1.128  0.00  0.00     0.055 A 
ATOM      6  C5  BZF d   1      -1.353  -0.176   1.129  0.00  0.00    -0.016 A 
ATOM      7  C6  BZF d   1      -0.787  -0.688   2.277  0.00  0.00     0.022 A 
ATOM      8  C7  BZF d   1      -1.452  -0.673   3.458  0.00  0.00     0.029 A 
ATOM      9  C7A BZF d   1      -2.721  -0.146   3.454  0.00  0.00     0.058 A 
ENDROOT
TORSDOF 0
ENDMDL
