MODEL 1
REMARK minimizedAffinity 4.60876465
REMARK minimizedRMSD -1
REMARK  0 active torsions:
REMARK  status: ('A' for Active; 'I' for Inactive)
ROOT
ATOM      1  O1  BZF d   1      -2.583  -0.300  -1.264  0.00  0.00    -0.204 OA
ATOM      2  C2  BZF d   1      -3.378  -0.287  -0.134  0.00  0.00     0.174 A 
ATOM      3  C3  BZF d   1      -2.646  -0.544   0.969  0.00  0.00    -0.012 A 
ATOM      4  C3A BZF d   1      -1.295  -0.638   0.510  0.00  0.00    -0.107 A 
ATOM      5  C4  BZF d   1      -0.103  -0.864   1.139  0.00  0.00     0.055 A 
ATOM      6  C5  BZF d   1       1.028  -0.969   0.392  0.00  0.00    -0.016 A 
ATOM      7  C6  BZF d   1       1.003  -0.859  -0.982  0.00  0.00     0.022 A 
ATOM      8  C7  BZF d   1      -0.154  -0.630  -1.650  0.00  0.00     0.029 A 
ATOM      9  C7A BZF d   1      -1.294  -0.491  -0.896  0.00  0.00     0.058 A 
ENDROOT
TORSDOF 0
ENDMDL
