MODEL 1
REMARK minimizedAffinity 0.118518248
REMARK minimizedRMSD -1
REMARK  0 active torsions:
REMARK  status: ('A' for Active; 'I' for Inactive)
ROOT
ATOM      1  O1  BZF d   1       1.044  -1.629  -0.055  0.00  0.00    -0.204 OA
ATOM      2  C2  BZF d   1       0.591  -1.010  -1.204  0.00  0.00     0.174 A 
ATOM      3  C3  BZF d   1      -0.602  -0.419  -0.990  0.00  0.00    -0.012 A 
ATOM      4  C3A BZF d   1      -0.871  -0.607   0.403  0.00  0.00    -0.107 A 
ATOM      5  C4  BZF d   1      -1.899  -0.232   1.219  0.00  0.00     0.055 A 
ATOM      6  C5  BZF d   1      -1.894  -0.637   2.516  0.00  0.00    -0.016 A 
ATOM      7  C6  BZF d   1      -0.881  -1.421   3.028  0.00  0.00     0.022 A 
ATOM      8  C7  BZF d   1       0.163  -1.814   2.258  0.00  0.00     0.029 A 
ATOM      9  C7A BZF d   1       0.177  -1.379   0.955  0.00  0.00     0.058 A 
ENDROOT
TORSDOF 0
ENDMDL
