MODEL 1
REMARK minimizedAffinity -0.715423942
REMARK minimizedRMSD -1
REMARK  0 active torsions:
REMARK  status: ('A' for Active; 'I' for Inactive)
ROOT
ATOM      1  O1  BZF d   1       1.074  -1.287  -0.974  0.00  0.00    -0.204 OA
ATOM      2  C2  BZF d   1       0.539  -0.208  -1.651  0.00  0.00     0.174 A 
ATOM      3  C3  BZF d   1      -0.487   0.329  -0.960  0.00  0.00    -0.012 A 
ATOM      4  C3A BZF d   1      -0.541  -0.406   0.266  0.00  0.00    -0.107 A 
ATOM      5  C4  BZF d   1      -1.338  -0.330   1.372  0.00  0.00     0.055 A 
ATOM      6  C5  BZF d   1      -1.178  -1.243   2.366  0.00  0.00    -0.016 A 
ATOM      7  C6  BZF d   1      -0.234  -2.246   2.285  0.00  0.00     0.022 A 
ATOM      8  C7  BZF d   1       0.583  -2.359   1.210  0.00  0.00     0.029 A 
ATOM      9  C7A BZF d   1       0.446  -1.418   0.219  0.00  0.00     0.058 A 
ENDROOT
TORSDOF 0
ENDMDL
