MODEL 1
REMARK minimizedAffinity 14.1167345
REMARK minimizedRMSD -1
REMARK  0 active torsions:
REMARK  status: ('A' for Active; 'I' for Inactive)
ROOT
ATOM      1  O1  BZF d   1      -3.019   3.370  -4.771  0.00  0.00    -0.204 OA
ATOM      2  C2  BZF d   1      -3.714   3.146  -5.944  0.00  0.00     0.174 A 
ATOM      3  C3  BZF d   1      -4.160   1.874  -5.999  0.00  0.00    -0.012 A 
ATOM      4  C3A BZF d   1      -3.794   1.292  -4.745  0.00  0.00    -0.107 A 
ATOM      5  C4  BZF d   1      -3.976   0.055  -4.195  0.00  0.00     0.055 A 
ATOM      6  C5  BZF d   1      -3.433  -0.214  -2.979  0.00  0.00    -0.016 A 
ATOM      7  C6  BZF d   1      -2.698   0.728  -2.288  0.00  0.00     0.022 A 
ATOM      8  C7  BZF d   1      -2.496   1.970  -2.790  0.00  0.00     0.029 A 
ATOM      9  C7A BZF d   1      -3.071   2.255  -4.004  0.00  0.00     0.058 A 
ENDROOT
TORSDOF 0
ENDMDL
