MODEL 1
REMARK minimizedAffinity 9.20189381
REMARK minimizedRMSD -1
REMARK  0 active torsions:
REMARK  status: ('A' for Active; 'I' for Inactive)
ROOT
ATOM      1  O1  BZF d   1       1.208  -0.428   3.155  0.00  0.00    -0.204 OA
ATOM      2  C2  BZF d   1       1.576  -0.744   1.862  0.00  0.00     0.174 A 
ATOM      3  C3  BZF d   1       2.244  -1.916   1.827  0.00  0.00    -0.012 A 
ATOM      4  C3A BZF d   1       2.216  -2.405   3.171  0.00  0.00    -0.107 A 
ATOM      5  C4  BZF d   1       2.699  -3.533   3.770  0.00  0.00     0.055 A 
ATOM      6  C5  BZF d   1       2.569  -3.675   5.115  0.00  0.00    -0.016 A 
ATOM      7  C6  BZF d   1       1.966  -2.707   5.892  0.00  0.00     0.022 A 
ATOM      8  C7  BZF d   1       1.466  -1.573   5.342  0.00  0.00     0.029 A 
ATOM      9  C7A BZF d   1       1.567  -1.442   3.979  0.00  0.00     0.058 A 
ENDROOT
TORSDOF 0
ENDMDL
