MODEL 1
REMARK minimizedAffinity 16.9486065
REMARK minimizedRMSD -1
REMARK  0 active torsions:
REMARK  status: ('A' for Active; 'I' for Inactive)
ROOT
ATOM      1  O1  BZF d   1       1.896  -3.172   5.045  0.00  0.00    -0.204 OA
ATOM      2  C2  BZF d   1       1.470  -2.268   5.999  0.00  0.00     0.174 A 
ATOM      3  C3  BZF d   1       1.252  -1.057   5.447  0.00  0.00    -0.012 A 
ATOM      4  C3A BZF d   1       1.471  -1.238   4.045  0.00  0.00    -0.107 A 
ATOM      5  C4  BZF d   1       1.393  -0.404   2.966  0.00  0.00     0.055 A 
ATOM      6  C5  BZF d   1       1.742  -0.874   1.740  0.00  0.00    -0.016 A 
ATOM      7  C6  BZF d   1       2.177  -2.170   1.557  0.00  0.00     0.022 A 
ATOM      8  C7  BZF d   1       2.266  -3.037   2.595  0.00  0.00     0.029 A 
ATOM      9  C7A BZF d   1       1.883  -2.574   3.830  0.00  0.00     0.058 A 
ENDROOT
TORSDOF 0
ENDMDL
