MODEL 1
REMARK minimizedAffinity 7.83623743
REMARK minimizedRMSD -1
REMARK  0 active torsions:
REMARK  status: ('A' for Active; 'I' for Inactive)
ROOT
ATOM      1  O1  BZF d   1       3.000  -4.121   3.489  0.00  0.00    -0.204 OA
ATOM      2  C2  BZF d   1       3.049  -3.751   2.159  0.00  0.00     0.174 A 
ATOM      3  C3  BZF d   1       2.551  -2.509   1.989  0.00  0.00    -0.012 A 
ATOM      4  C3A BZF d   1       2.251  -2.040   3.307  0.00  0.00    -0.107 A 
ATOM      5  C4  BZF d   1       1.746  -0.869   3.795  0.00  0.00     0.055 A 
ATOM      6  C5  BZF d   1       1.506  -0.757   5.128  0.00  0.00    -0.016 A 
ATOM      7  C6  BZF d   1       1.755  -1.796   6.000  0.00  0.00     0.022 A 
ATOM      8  C7  BZF d   1       2.262  -2.975   5.564  0.00  0.00     0.029 A 
ATOM      9  C7A BZF d   1       2.536  -3.080   4.222  0.00  0.00     0.058 A 
ENDROOT
TORSDOF 0
ENDMDL
