MODEL 1
REMARK minimizedAffinity 12.3128624
REMARK minimizedRMSD -1
REMARK  0 active torsions:
REMARK  status: ('A' for Active; 'I' for Inactive)
ROOT
ATOM      1  O1  BZF d   1      -2.624   0.486  -3.145  0.00  0.00    -0.204 OA
ATOM      2  C2  BZF d   1      -2.534   0.359  -1.773  0.00  0.00     0.174 A 
ATOM      3  C3  BZF d   1      -2.935   1.491  -1.159  0.00  0.00    -0.012 A 
ATOM      4  C3A BZF d   1      -3.385   2.349  -2.212  0.00  0.00    -0.107 A 
ATOM      5  C4  BZF d   1      -3.915   3.608  -2.235  0.00  0.00     0.055 A 
ATOM      6  C5  BZF d   1      -4.181   4.191  -3.433  0.00  0.00    -0.016 A 
ATOM      7  C6  BZF d   1      -3.926   3.547  -4.626  0.00  0.00     0.022 A 
ATOM      8  C7  BZF d   1      -3.405   2.296  -4.654  0.00  0.00     0.029 A 
ATOM      9  C7A BZF d   1      -3.166   1.691  -3.444  0.00  0.00     0.058 A 
ENDROOT
TORSDOF 0
ENDMDL
