MODEL 1
REMARK minimizedAffinity 5.82087612
REMARK minimizedRMSD -1
REMARK  0 active torsions:
REMARK  status: ('A' for Active; 'I' for Inactive)
ROOT
ATOM      1  O1  BZF d   1      -3.646   1.514  -4.454  0.00  0.00    -0.204 OA
ATOM      2  C2  BZF d   1      -3.730   1.379  -3.082  0.00  0.00     0.174 A 
ATOM      3  C3  BZF d   1      -3.871   2.583  -2.490  0.00  0.00    -0.012 A 
ATOM      4  C3A BZF d   1      -3.967   3.521  -3.566  0.00  0.00    -0.107 A 
ATOM      5  C4  BZF d   1      -4.134   4.876  -3.618  0.00  0.00     0.055 A 
ATOM      6  C5  BZF d   1      -4.113   5.498  -4.826  0.00  0.00    -0.016 A 
ATOM      7  C6  BZF d   1      -3.923   4.798  -6.000  0.00  0.00     0.022 A 
ATOM      8  C7  BZF d   1      -3.758   3.453  -5.999  0.00  0.00     0.029 A 
ATOM      9  C7A BZF d   1      -3.812   2.817  -4.783  0.00  0.00     0.058 A 
ENDROOT
TORSDOF 0
ENDMDL
