MODEL 1
REMARK minimizedAffinity 3.21762347
REMARK minimizedRMSD -1
REMARK  0 active torsions:
REMARK  status: ('A' for Active; 'I' for Inactive)
ROOT
ATOM      1  O1  BZF d   1       2.503  -3.611   4.870  0.00  0.00    -0.204 OA
ATOM      2  C2  BZF d   1       2.017  -2.972   5.994  0.00  0.00     0.174 A 
ATOM      3  C3  BZF d   1       1.468  -1.784   5.670  0.00  0.00    -0.012 A 
ATOM      4  C3A BZF d   1       1.537  -1.714   4.243  0.00  0.00    -0.107 A 
ATOM      5  C4  BZF d   1       1.138  -0.783   3.327  0.00  0.00     0.055 A 
ATOM      6  C5  BZF d   1       1.419  -0.985   2.013  0.00  0.00    -0.016 A 
ATOM      7  C6  BZF d   1       2.101  -2.104   1.580  0.00  0.00     0.022 A 
ATOM      8  C7  BZF d   1       2.513  -3.058   2.450  0.00  0.00     0.029 A 
ATOM      9  C7A BZF d   1       2.201  -2.872   3.775  0.00  0.00     0.058 A 
ENDROOT
TORSDOF 0
ENDMDL
