MODEL 1
REMARK minimizedAffinity 11.6267529
REMARK minimizedRMSD -1
REMARK  0 active torsions:
REMARK  status: ('A' for Active; 'I' for Inactive)
ROOT
ATOM      1  O1  BZF d   1       0.713  -1.004   4.946  0.00  0.00    -0.204 OA
ATOM      2  C2  BZF d   1       1.021  -1.844   5.999  0.00  0.00     0.174 A 
ATOM      3  C3  BZF d   1       1.641  -2.958   5.558  0.00  0.00    -0.012 A 
ATOM      4  C3A BZF d   1       1.808  -2.762   4.150  0.00  0.00    -0.107 A 
ATOM      5  C4  BZF d   1       2.372  -3.513   3.159  0.00  0.00     0.055 A 
ATOM      6  C5  BZF d   1       2.307  -3.068   1.876  0.00  0.00    -0.016 A 
ATOM      7  C6  BZF d   1       1.683  -1.883   1.549  0.00  0.00     0.022 A 
ATOM      8  C7  BZF d   1       1.114  -1.101   2.499  0.00  0.00     0.029 A 
ATOM      9  C7A BZF d   1       1.206  -1.531   3.800  0.00  0.00     0.058 A 
ENDROOT
TORSDOF 0
ENDMDL
