MODEL 1
REMARK minimizedAffinity 8.33797073
REMARK minimizedRMSD -1
REMARK  0 active torsions:
REMARK  status: ('A' for Active; 'I' for Inactive)
ROOT
ATOM      1  O1  BZF d   1       0.841  -0.205   4.132  0.00  0.00    -0.204 OA
ATOM      2  C2  BZF d   1       1.008  -0.127   2.763  0.00  0.00     0.174 A 
ATOM      3  C3  BZF d   1       1.727  -1.174   2.308  0.00  0.00    -0.012 A 
ATOM      4  C3A BZF d   1       1.949  -2.003   3.453  0.00  0.00    -0.107 A 
ATOM      5  C4  BZF d   1       2.589  -3.196   3.638  0.00  0.00     0.055 A 
ATOM      6  C5  BZF d   1       2.690  -3.702   4.895  0.00  0.00    -0.016 A 
ATOM      7  C6  BZF d   1       2.169  -3.042   5.988  0.00  0.00     0.022 A 
ATOM      8  C7  BZF d   1       1.521  -1.859   5.854  0.00  0.00     0.029 A 
ATOM      9  C7A BZF d   1       1.389  -1.360   4.581  0.00  0.00     0.058 A 
ENDROOT
TORSDOF 0
ENDMDL
