MODEL 1
REMARK minimizedAffinity 10.0551071
REMARK minimizedRMSD -1
REMARK  1 active torsions:
REMARK  status: ('A' for Active; 'I' for Inactive)
REMARK    1  A    between atoms: C1_2  and  C2_3 
ROOT
ATOM      1  C2  UNL d   1       4.877   1.506  -1.379  0.00  0.00    -0.076 A 
ATOM      2  C3  UNL d   1       3.865   0.798  -2.051  0.00  0.00     0.004 A 
ATOM      3  C4  UNL d   1       2.821   0.199  -1.348  0.00  0.00    -0.003 A 
ATOM      4  C5  UNL d   1       2.771   0.299   0.038  0.00  0.00     0.000 A 
ATOM      5  C6  UNL d   1       3.756   1.012   0.719  0.00  0.00     0.000 A 
ATOM      6  C7  UNL d   1       4.807   1.636   0.025  0.00  0.00    -0.073 A 
ATOM      7  C8  UNL d   1       5.846   2.387   0.811  0.00  0.00     0.078 C 
ENDROOT
BRANCH   1   8
ATOM      8  C1  UNL d   1       5.999   2.111  -2.191  0.00  0.00     0.053 C 
ATOM      9  C   UNL d   1       5.577   3.382  -2.912  0.00  0.00     0.018 C 
ENDBRANCH   1   8
TORSDOF 1
ENDMDL
