MODEL 1
REMARK minimizedAffinity 7.251019
REMARK minimizedRMSD -1
REMARK  1 active torsions:
REMARK  status: ('A' for Active; 'I' for Inactive)
REMARK    1  A    between atoms: C1_2  and  C2_3 
ROOT
ATOM      1  C2  UNL d   1       3.927   0.440   0.277  0.00  0.00    -0.076 A 
ATOM      2  C3  UNL d   1       5.020   1.324   0.277  0.00  0.00     0.004 A 
ATOM      3  C4  UNL d   1       5.527   1.838  -0.915  0.00  0.00    -0.003 A 
ATOM      4  C5  UNL d   1       4.948   1.478  -2.127  0.00  0.00     0.000 A 
ATOM      5  C6  UNL d   1       3.851   0.617  -2.144  0.00  0.00     0.000 A 
ATOM      6  C7  UNL d   1       3.318   0.102  -0.950  0.00  0.00    -0.073 A 
ATOM      7  C8  UNL d   1       2.138  -0.828  -1.028  0.00  0.00     0.078 C 
ENDROOT
BRANCH   1   8
ATOM      8  C1  UNL d   1       3.438  -0.107   1.599  0.00  0.00     0.053 C 
ATOM      9  C   UNL d   1       4.512  -0.887   2.340  0.00  0.00     0.018 C 
ENDBRANCH   1   8
TORSDOF 1
ENDMDL
