MODEL 1
REMARK minimizedAffinity 9.984375
REMARK minimizedRMSD -1
REMARK  1 active torsions:
REMARK  status: ('A' for Active; 'I' for Inactive)
REMARK    1  A    between atoms: C1_2  and  C2_3 
ROOT
ATOM      1  C2  UNL d   1       3.726   0.430   0.119  0.00  0.00    -0.076 A 
ATOM      2  C3  UNL d   1       4.938   1.141   0.070  0.00  0.00     0.004 A 
ATOM      3  C4  UNL d   1       5.479   1.554  -1.146  0.00  0.00    -0.003 A 
ATOM      4  C5  UNL d   1       4.817   1.264  -2.333  0.00  0.00     0.000 A 
ATOM      5  C6  UNL d   1       3.605   0.575  -2.303  0.00  0.00     0.000 A 
ATOM      6  C7  UNL d   1       3.037   0.165  -1.084  0.00  0.00    -0.073 A 
ATOM      7  C8  UNL d   1       1.731  -0.580  -1.110  0.00  0.00     0.078 C 
ENDROOT
BRANCH   1   8
ATOM      8  C1  UNL d   1       3.202  -0.016   1.465  0.00  0.00     0.053 C 
ATOM      9  C   UNL d   1       4.152  -0.968   2.175  0.00  0.00     0.018 C 
ENDBRANCH   1   8
TORSDOF 1
ENDMDL
