MODEL 1
REMARK minimizedAffinity 12.8660707
REMARK minimizedRMSD -1
REMARK  1 active torsions:
REMARK  status: ('A' for Active; 'I' for Inactive)
REMARK    1  A    between atoms: C1_2  and  C2_3 
ROOT
ATOM      1  C2  UNL d   1      -4.874   4.737   1.823  0.00  0.00    -0.076 A 
ATOM      2  C3  UNL d   1      -4.840   5.936   1.090  0.00  0.00     0.004 A 
ATOM      3  C4  UNL d   1      -4.211   5.998  -0.153  0.00  0.00    -0.003 A 
ATOM      4  C5  UNL d   1      -3.608   4.863  -0.682  0.00  0.00     0.000 A 
ATOM      5  C6  UNL d   1      -3.648   3.661   0.024  0.00  0.00     0.000 A 
ATOM      6  C7  UNL d   1      -4.291   3.577   1.270  0.00  0.00    -0.073 A 
ATOM      7  C8  UNL d   1      -4.299   2.257   1.991  0.00  0.00     0.078 C 
ENDROOT
BRANCH   1   8
ATOM      8  C1  UNL d   1      -5.547   4.736   3.178  0.00  0.00     0.053 C 
ATOM      9  C   UNL d   1      -5.254   5.999   3.974  0.00  0.00     0.018 C 
ENDBRANCH   1   8
TORSDOF 1
ENDMDL
