MODEL 1
REMARK minimizedAffinity 8.30382919
REMARK minimizedRMSD -1
REMARK  1 active torsions:
REMARK  status: ('A' for Active; 'I' for Inactive)
REMARK    1  A    between atoms: C1_2  and  C2_3 
ROOT
ATOM      1  C2  UNL d   1      -2.696  -4.539  -4.508  0.00  0.00    -0.076 A 
ATOM      2  C3  UNL d   1      -1.713  -3.605  -4.136  0.00  0.00     0.004 A 
ATOM      3  C4  UNL d   1      -1.731  -2.306  -4.639  0.00  0.00    -0.003 A 
ATOM      4  C5  UNL d   1      -2.732  -1.918  -5.522  0.00  0.00     0.000 A 
ATOM      5  C6  UNL d   1      -3.726  -2.826  -5.888  0.00  0.00     0.000 A 
ATOM      6  C7  UNL d   1      -3.731  -4.135  -5.377  0.00  0.00    -0.073 A 
ATOM      7  C8  UNL d   1      -4.823  -5.074  -5.811  0.00  0.00     0.078 C 
ENDROOT
BRANCH   1   8
ATOM      8  C1  UNL d   1      -2.610  -5.942  -3.951  0.00  0.00     0.053 C 
ATOM      9  C   UNL d   1      -1.854  -6.000  -2.632  0.00  0.00     0.018 C 
ENDBRANCH   1   8
TORSDOF 1
ENDMDL
