MODEL 1
REMARK minimizedAffinity 10.8760338
REMARK minimizedRMSD -1
REMARK  1 active torsions:
REMARK  status: ('A' for Active; 'I' for Inactive)
REMARK    1  A    between atoms: C1_2  and  C2_3 
ROOT
ATOM      1  C2  UNL d   1       4.507   1.350  -2.173  0.00  0.00    -0.076 A 
ATOM      2  C3  UNL d   1       4.443   1.939  -0.899  0.00  0.00     0.004 A 
ATOM      3  C4  UNL d   1       3.467   1.556   0.020  0.00  0.00    -0.003 A 
ATOM      4  C5  UNL d   1       2.540   0.578  -0.321  0.00  0.00     0.000 A 
ATOM      5  C6  UNL d   1       2.600  -0.030  -1.575  0.00  0.00     0.000 A 
ATOM      6  C7  UNL d   1       3.587   0.333  -2.507  0.00  0.00    -0.073 A 
ATOM      7  C8  UNL d   1       3.601  -0.351  -3.846  0.00  0.00     0.078 C 
ENDROOT
BRANCH   1   8
ATOM      8  C1  UNL d   1       5.571   1.825  -3.138  0.00  0.00     0.053 C 
ATOM      9  C   UNL d   1       5.592   3.338  -3.283  0.00  0.00     0.018 C 
ENDBRANCH   1   8
TORSDOF 1
ENDMDL
