MODEL 1
REMARK minimizedAffinity 4.48398018
REMARK minimizedRMSD -1
REMARK  1 active torsions:
REMARK  status: ('A' for Active; 'I' for Inactive)
REMARK    1  A    between atoms: C1_2  and  C2_3 
ROOT
ATOM      1  C2  UNL d   1       2.066   4.900   3.782  0.00  0.00    -0.076 A 
ATOM      2  C3  UNL d   1       3.252   4.875   4.537  0.00  0.00     0.004 A 
ATOM      3  C4  UNL d   1       4.483   5.156   3.947  0.00  0.00    -0.003 A 
ATOM      4  C5  UNL d   1       4.549   5.468   2.594  0.00  0.00     0.000 A 
ATOM      5  C6  UNL d   1       3.380   5.515   1.834  0.00  0.00     0.000 A 
ATOM      6  C7  UNL d   1       2.129   5.250   2.416  0.00  0.00    -0.073 A 
ATOM      7  C8  UNL d   1       0.902   5.309   1.549  0.00  0.00     0.078 C 
ENDROOT
BRANCH   1   8
ATOM      8  C1  UNL d   1       0.763   4.560   4.470  0.00  0.00     0.053 C 
ATOM      9  C   UNL d   1       0.529   3.061   4.566  0.00  0.00     0.018 C 
ENDBRANCH   1   8
TORSDOF 1
ENDMDL
