MODEL 1
REMARK minimizedAffinity 8.32257557
REMARK minimizedRMSD -1
REMARK  1 active torsions:
REMARK  status: ('A' for Active; 'I' for Inactive)
REMARK    1  A    between atoms: C1_2  and  C2_3 
ROOT
ATOM      1  C2  UNL d   1      -4.784   1.342   1.065  0.00  0.00    -0.076 A 
ATOM      2  C3  UNL d   1      -3.640   2.156   1.132  0.00  0.00     0.004 A 
ATOM      3  C4  UNL d   1      -2.483   1.829   0.426  0.00  0.00    -0.003 A 
ATOM      4  C5  UNL d   1      -2.453   0.682  -0.360  0.00  0.00     0.000 A 
ATOM      5  C6  UNL d   1      -3.584  -0.128  -0.452  0.00  0.00     0.000 A 
ATOM      6  C7  UNL d   1      -4.763   0.197   0.240  0.00  0.00    -0.073 A 
ATOM      7  C8  UNL d   1      -5.952  -0.715   0.109  0.00  0.00     0.078 C 
ENDROOT
BRANCH   1   8
ATOM      8  C1  UNL d   1      -6.000   1.733   1.874  0.00  0.00     0.053 C 
ATOM      9  C   UNL d   1      -5.994   3.205   2.260  0.00  0.00     0.018 C 
ENDBRANCH   1   8
TORSDOF 1
ENDMDL
