MODEL 1
REMARK minimizedAffinity 9.88226318
REMARK minimizedRMSD -1
REMARK  1 active torsions:
REMARK  status: ('A' for Active; 'I' for Inactive)
REMARK    1  A    between atoms: C1_2  and  C2_3 
ROOT
ATOM      1  C2  UNL d   1       4.933   1.879  -0.998  0.00  0.00    -0.076 A 
ATOM      2  C3  UNL d   1       3.925   1.104  -1.599  0.00  0.00     0.004 A 
ATOM      3  C4  UNL d   1       2.934   0.496  -0.830  0.00  0.00    -0.003 A 
ATOM      4  C5  UNL d   1       2.934   0.654   0.551  0.00  0.00     0.000 A 
ATOM      5  C6  UNL d   1       3.915   1.434   1.162  0.00  0.00     0.000 A 
ATOM      6  C7  UNL d   1       4.912   2.067   0.401  0.00  0.00    -0.073 A 
ATOM      7  C8  UNL d   1       5.949   2.892   1.112  0.00  0.00     0.078 C 
ENDROOT
BRANCH   1   8
ATOM      8  C1  UNL d   1       5.997   2.492  -1.880  0.00  0.00     0.053 C 
ATOM      9  C   UNL d   1       5.644   3.903  -2.324  0.00  0.00     0.018 C 
ENDBRANCH   1   8
TORSDOF 1
ENDMDL
