MODEL 1
REMARK minimizedAffinity 12.1575661
REMARK minimizedRMSD -1
REMARK  1 active torsions:
REMARK  status: ('A' for Active; 'I' for Inactive)
REMARK    1  A    between atoms: C1_2  and  C2_3 
ROOT
ATOM      1  C2  UNL d   1       3.742   1.286  -0.910  0.00  0.00    -0.076 A 
ATOM      2  C3  UNL d   1       4.028   1.169  -2.282  0.00  0.00     0.004 A 
ATOM      3  C4  UNL d   1       5.146   1.790  -2.837  0.00  0.00    -0.003 A 
ATOM      4  C5  UNL d   1       5.996   2.538  -2.029  0.00  0.00     0.000 A 
ATOM      5  C6  UNL d   1       5.738   2.650  -0.664  0.00  0.00     0.000 A 
ATOM      6  C7  UNL d   1       4.624   2.017  -0.085  0.00  0.00    -0.073 A 
ATOM      7  C8  UNL d   1       4.390   2.176   1.392  0.00  0.00     0.078 C 
ENDROOT
BRANCH   1   8
ATOM      8  C1  UNL d   1       2.501   0.614  -0.370  0.00  0.00     0.053 C 
ATOM      9  C   UNL d   1       2.807  -0.344   0.772  0.00  0.00     0.018 C 
ENDBRANCH   1   8
TORSDOF 1
ENDMDL
