MODEL 1
REMARK minimizedAffinity 0.374195904
REMARK minimizedRMSD -1
REMARK  0 active torsions:
REMARK  status: ('A' for Active; 'I' for Inactive)
ROOT
ATOM      1  C   UNL d   1       0.902   5.972   5.997  0.00  0.00     0.172 C 
ATOM      2  N   UNL d   1       2.202   5.344   5.997  0.00  0.00    -0.070 N 
ATOM      3  C1  UNL d   1       3.405   5.999   5.995  0.00  0.00    -0.004 A 
ATOM      4  C2  UNL d   1       4.403   5.049   5.996  0.00  0.00    -0.047 A 
ATOM      5  C3  UNL d   1       3.778   3.779   5.997  0.00  0.00    -0.047 A 
ATOM      6  C4  UNL d   1       2.416   3.991   5.998  0.00  0.00    -0.004 A 
ENDROOT
TORSDOF 0
ENDMDL
