MODEL 1
REMARK minimizedAffinity -0.560158908
REMARK minimizedRMSD -1
REMARK  0 active torsions:
REMARK  status: ('A' for Active; 'I' for Inactive)
ROOT
ATOM      1  C   UNL d   1       1.621   4.973   5.997  0.00  0.00     0.172 C 
ATOM      2  N   UNL d   1       2.961   4.438   5.949  0.00  0.00    -0.070 N 
ATOM      3  C1  UNL d   1       3.289   3.108   5.936  0.00  0.00    -0.004 A 
ATOM      4  C2  UNL d   1       4.663   3.013   5.887  0.00  0.00    -0.047 A 
ATOM      5  C3  UNL d   1       5.178   4.331   5.871  0.00  0.00    -0.047 A 
ATOM      6  C4  UNL d   1       4.103   5.193   5.910  0.00  0.00    -0.004 A 
ENDROOT
TORSDOF 0
ENDMDL
