MODEL 1
REMARK minimizedAffinity -0.969738722
REMARK minimizedRMSD -1
REMARK  0 active torsions:
REMARK  status: ('A' for Active; 'I' for Inactive)
ROOT
ATOM      1  C   UNL d   1       1.498  -1.223   4.496  0.00  0.00     0.172 C 
ATOM      2  N   UNL d   1       1.195  -2.583   4.878  0.00  0.00    -0.070 N 
ATOM      3  C1  UNL d   1       1.661  -3.220   5.997  0.00  0.00    -0.004 A 
ATOM      4  C2  UNL d   1       1.145  -4.498   6.000  0.00  0.00    -0.047 A 
ATOM      5  C3  UNL d   1       0.342  -4.634   4.842  0.00  0.00    -0.047 A 
ATOM      6  C4  UNL d   1       0.391  -3.433   4.166  0.00  0.00    -0.004 A 
ENDROOT
TORSDOF 0
ENDMDL
