MODEL 1
REMARK minimizedAffinity -2.09872746
REMARK minimizedRMSD -1
REMARK  0 active torsions:
REMARK  status: ('A' for Active; 'I' for Inactive)
ROOT
ATOM      1  C   UNL d   1       3.661   2.370   6.000  0.00  0.00     0.172 C 
ATOM      2  N   UNL d   1       3.441   3.793   5.895  0.00  0.00    -0.070 N 
ATOM      3  C1  UNL d   1       2.232   4.400   5.680  0.00  0.00    -0.004 A 
ATOM      4  C2  UNL d   1       2.444   5.762   5.645  0.00  0.00    -0.047 A 
ATOM      5  C3  UNL d   1       3.827   5.980   5.845  0.00  0.00    -0.047 A 
ATOM      6  C4  UNL d   1       4.421   4.745   5.997  0.00  0.00    -0.004 A 
ENDROOT
TORSDOF 0
ENDMDL
