MODEL 1
REMARK minimizedAffinity -1.16370857
REMARK minimizedRMSD -1
REMARK  0 active torsions:
REMARK  status: ('A' for Active; 'I' for Inactive)
ROOT
ATOM      1  C   UNL d   1       0.371  -1.158   4.129  0.00  0.00     0.172 C 
ATOM      2  N   UNL d   1       0.274  -2.463   4.738  0.00  0.00    -0.070 N 
ATOM      3  C1  UNL d   1      -0.709  -3.386   4.499  0.00  0.00    -0.004 A 
ATOM      4  C2  UNL d   1      -0.443  -4.496   5.271  0.00  0.00    -0.047 A 
ATOM      5  C3  UNL d   1       0.740  -4.232   6.000  0.00  0.00    -0.047 A 
ATOM      6  C4  UNL d   1       1.163  -2.967   5.651  0.00  0.00    -0.004 A 
ENDROOT
TORSDOF 0
ENDMDL
