MODEL 1
REMARK minimizedAffinity -1.8808912
REMARK minimizedRMSD -1
REMARK  0 active torsions:
REMARK  status: ('A' for Active; 'I' for Inactive)
ROOT
ATOM      1  C   UNL d   1       2.394   4.580   5.997  0.00  0.00     0.172 C 
ATOM      2  N   UNL d   1       3.393   3.602   5.636  0.00  0.00    -0.070 N 
ATOM      3  C1  UNL d   1       3.381   2.280   5.990  0.00  0.00    -0.004 A 
ATOM      4  C2  UNL d   1       4.502   1.687   5.451  0.00  0.00    -0.047 A 
ATOM      5  C3  UNL d   1       5.214   2.689   4.749  0.00  0.00    -0.047 A 
ATOM      6  C4  UNL d   1       4.505   3.865   4.880  0.00  0.00    -0.004 A 
ENDROOT
TORSDOF 0
ENDMDL
