MODEL 1
REMARK minimizedAffinity -3.06150794
REMARK minimizedRMSD -1
REMARK  0 active torsions:
REMARK  status: ('A' for Active; 'I' for Inactive)
ROOT
ATOM      1  C   UNL d   1       5.769   5.306   5.623  0.00  0.00     0.172 C 
ATOM      2  N   UNL d   1       5.131   4.060   5.269  0.00  0.00    -0.070 N 
ATOM      3  C1  UNL d   1       4.165   3.422   5.999  0.00  0.00    -0.004 A 
ATOM      4  C2  UNL d   1       3.818   2.270   5.325  0.00  0.00    -0.047 A 
ATOM      5  C3  UNL d   1       4.605   2.214   4.150  0.00  0.00    -0.047 A 
ATOM      6  C4  UNL d   1       5.409   3.334   4.140  0.00  0.00    -0.004 A 
ENDROOT
TORSDOF 0
ENDMDL
