MODEL 1
REMARK minimizedAffinity 5.99443626
REMARK minimizedRMSD -1
REMARK  0 active torsions:
REMARK  status: ('A' for Active; 'I' for Inactive)
ROOT
ATOM      1  C   UNL d   1       3.028   4.128   5.934  0.00  0.00     0.172 C 
ATOM      2  N   UNL d   1       4.011   3.846   4.914  0.00  0.00    -0.070 N 
ATOM      3  C1  UNL d   1       4.051   2.723   4.132  0.00  0.00    -0.004 A 
ATOM      4  C2  UNL d   1       5.135   2.835   3.288  0.00  0.00    -0.047 A 
ATOM      5  C3  UNL d   1       5.769   4.067   3.574  0.00  0.00    -0.047 A 
ATOM      6  C4  UNL d   1       5.053   4.673   4.584  0.00  0.00    -0.004 A 
ENDROOT
TORSDOF 0
ENDMDL
