MODEL 1
REMARK minimizedAffinity 7.28834867
REMARK minimizedRMSD -1
REMARK  0 active torsions:
REMARK  status: ('A' for Active; 'I' for Inactive)
ROOT
ATOM      1  C   UNL d   1      -5.995   3.907  -3.850  0.00  0.00     0.172 C 
ATOM      2  N   UNL d   1      -5.359   2.674  -4.249  0.00  0.00    -0.070 N 
ATOM      3  C1  UNL d   1      -5.997   1.484  -4.478  0.00  0.00    -0.004 A 
ATOM      4  C2  UNL d   1      -5.044   0.556  -4.838  0.00  0.00    -0.047 A 
ATOM      5  C3  UNL d   1      -3.789   1.211  -4.823  0.00  0.00    -0.047 A 
ATOM      6  C4  UNL d   1      -4.014   2.520  -4.455  0.00  0.00    -0.004 A 
ENDROOT
TORSDOF 0
ENDMDL
