MODEL 1
REMARK minimizedAffinity -4.30934048
REMARK minimizedRMSD -1
REMARK  1 active torsions:
REMARK  status: ('A' for Active; 'I' for Inactive)
REMARK    1  A    between atoms: C1_2  and  C2_3 
ROOT
ATOM      1  C2  UNL d   1      -0.238   0.470   0.133  0.00  0.00    -0.081 A 
ATOM      2  C3  UNL d   1       1.069   0.221  -0.303  0.00  0.00     0.006 A 
ATOM      3  C4  UNL d   1       1.782  -0.876   0.187  0.00  0.00     0.002 A 
ATOM      4  C5  UNL d   1       1.197  -1.745   1.114  0.00  0.00    -0.080 A 
ATOM      5  C6  UNL d   1       1.940  -2.944   1.625  0.00  0.00     0.076 C 
ATOM      6  C7  UNL d   1      -0.103  -1.487   1.562  0.00  0.00     0.002 A 
ATOM      7  C8  UNL d   1      -0.815  -0.390   1.073  0.00  0.00     0.006 A 
ENDROOT
BRANCH   1   8
ATOM      8  C1  UNL d   1      -1.033   1.615  -0.442  0.00  0.00     0.054 C 
ATOM      9  C   UNL d   1      -1.950   1.145  -1.562  0.00  0.00     0.018 C 
ENDBRANCH   1   8
TORSDOF 1
ENDMDL
