MODEL 1
REMARK minimizedAffinity -3.54494333
REMARK minimizedRMSD -1
REMARK  1 active torsions:
REMARK  status: ('A' for Active; 'I' for Inactive)
REMARK    1  A    between atoms: C1_2  and  C2_3 
ROOT
ATOM      1  C2  UNL d   1      -0.381   0.421   0.452  0.00  0.00    -0.081 A 
ATOM      2  C3  UNL d   1      -0.765  -0.351   1.555  0.00  0.00     0.006 A 
ATOM      3  C4  UNL d   1       0.002  -1.448   1.953  0.00  0.00     0.002 A 
ATOM      4  C5  UNL d   1       1.169  -1.787   1.260  0.00  0.00    -0.080 A 
ATOM      5  C6  UNL d   1       2.018  -2.944   1.696  0.00  0.00     0.076 C 
ATOM      6  C7  UNL d   1       1.544  -1.026   0.148  0.00  0.00     0.002 A 
ATOM      7  C8  UNL d   1       0.776   0.071  -0.251  0.00  0.00     0.006 A 
ENDROOT
BRANCH   1   8
ATOM      8  C1  UNL d   1      -1.171   1.643   0.059  0.00  0.00     0.054 C 
ATOM      9  C   UNL d   1      -1.598   1.582  -1.400  0.00  0.00     0.018 C 
ENDBRANCH   1   8
TORSDOF 1
ENDMDL
