MODEL 1
REMARK minimizedAffinity -6.28838158
REMARK minimizedRMSD -1
REMARK  1 active torsions:
REMARK  status: ('A' for Active; 'I' for Inactive)
REMARK    1  A    between atoms: C1_2  and  C2_3 
ROOT
ATOM      1  C2  UNL d   1      -0.146  -1.296   1.434  0.00  0.00    -0.081 A 
ATOM      2  C3  UNL d   1       0.663  -1.174   0.297  0.00  0.00     0.006 A 
ATOM      3  C4  UNL d   1       0.457  -0.132  -0.610  0.00  0.00     0.002 A 
ATOM      4  C5  UNL d   1      -0.555   0.809  -0.392  0.00  0.00    -0.080 A 
ATOM      5  C6  UNL d   1      -0.767   1.950  -1.342  0.00  0.00     0.076 C 
ATOM      6  C7  UNL d   1      -1.374   0.677   0.734  0.00  0.00     0.002 A 
ATOM      7  C8  UNL d   1      -1.169  -0.365   1.641  0.00  0.00     0.006 A 
ENDROOT
BRANCH   1   8
ATOM      8  C1  UNL d   1       0.116  -2.381   2.447  0.00  0.00     0.054 C 
ATOM      9  C   UNL d   1       1.333  -3.211   2.068  0.00  0.00     0.018 C 
ENDBRANCH   1   8
TORSDOF 1
ENDMDL
