MODEL 1
REMARK minimizedAffinity -5.95993614
REMARK minimizedRMSD -1
REMARK  1 active torsions:
REMARK  status: ('A' for Active; 'I' for Inactive)
REMARK    1  A    between atoms: C1_2  and  C2_3 
ROOT
ATOM      1  C2  UNL d   1       0.747  -0.740  -0.476  0.00  0.00    -0.081 A 
ATOM      2  C3  UNL d   1       0.011   0.206   0.247  0.00  0.00     0.006 A 
ATOM      3  C4  UNL d   1      -1.005   0.938  -0.373  0.00  0.00     0.002 A 
ATOM      4  C5  UNL d   1      -1.306   0.730  -1.723  0.00  0.00    -0.080 A 
ATOM      5  C6  UNL d   1      -2.414   1.488  -2.393  0.00  0.00     0.076 C 
ATOM      6  C7  UNL d   1      -0.559  -0.202  -2.451  0.00  0.00     0.002 A 
ATOM      7  C8  UNL d   1       0.457  -0.934  -1.831  0.00  0.00     0.006 A 
ENDROOT
BRANCH   1   8
ATOM      8  C1  UNL d   1       1.799  -1.577   0.206  0.00  0.00     0.054 C 
ATOM      9  C   UNL d   1       1.260  -2.214   1.479  0.00  0.00     0.018 C 
ENDBRANCH   1   8
TORSDOF 1
ENDMDL
