MODEL 1
REMARK minimizedAffinity -2.82024121
REMARK minimizedRMSD -1
REMARK  1 active torsions:
REMARK  status: ('A' for Active; 'I' for Inactive)
REMARK    1  A    between atoms: C1_2  and  C2_3 
ROOT
ATOM      1  C2  UNL d   1       1.052  -0.727   0.321  0.00  0.00    -0.081 A 
ATOM      2  C3  UNL d   1       0.992  -0.852  -1.072  0.00  0.00     0.006 A 
ATOM      3  C4  UNL d   1      -0.028  -0.230  -1.796  0.00  0.00     0.002 A 
ATOM      4  C5  UNL d   1      -0.999   0.535  -1.140  0.00  0.00    -0.080 A 
ATOM      5  C6  UNL d   1      -2.081   1.233  -1.908  0.00  0.00     0.076 C 
ATOM      6  C7  UNL d   1      -0.949   0.646   0.254  0.00  0.00     0.002 A 
ATOM      7  C8  UNL d   1       0.070   0.023   0.978  0.00  0.00     0.006 A 
ENDROOT
BRANCH   1   8
ATOM      8  C1  UNL d   1       2.187  -1.343   1.098  0.00  0.00     0.054 C 
ATOM      9  C   UNL d   1       1.847  -2.758   1.546  0.00  0.00     0.018 C 
ENDBRANCH   1   8
TORSDOF 1
ENDMDL
