MODEL 1
REMARK minimizedAffinity -3.84167719
REMARK minimizedRMSD -1
REMARK  1 active torsions:
REMARK  status: ('A' for Active; 'I' for Inactive)
REMARK    1  A    between atoms: C1_2  and  C2_3 
ROOT
ATOM      1  C2  UNL d   1       0.375  -0.332   0.167  0.00  0.00    -0.081 A 
ATOM      2  C3  UNL d   1       1.583  -0.997  -0.077  0.00  0.00     0.006 A 
ATOM      3  C4  UNL d   1       1.937  -2.122   0.672  0.00  0.00     0.002 A 
ATOM      4  C5  UNL d   1       1.086  -2.604   1.672  0.00  0.00    -0.080 A 
ATOM      5  C6  UNL d   1       1.439  -3.829   2.462  0.00  0.00     0.076 C 
ATOM      6  C7  UNL d   1      -0.113  -1.930   1.928  0.00  0.00     0.002 A 
ATOM      7  C8  UNL d   1      -0.466  -0.805   1.180  0.00  0.00     0.006 A 
ENDROOT
BRANCH   1   8
ATOM      8  C1  UNL d   1      -0.039   0.843  -0.682  0.00  0.00     0.054 C 
ATOM      9  C   UNL d   1      -1.109   1.675   0.009  0.00  0.00     0.018 C 
ENDBRANCH   1   8
TORSDOF 1
ENDMDL
