MODEL 1
REMARK minimizedAffinity -4.14399958
REMARK minimizedRMSD -1
REMARK  1 active torsions:
REMARK  status: ('A' for Active; 'I' for Inactive)
REMARK    1  A    between atoms: C1_2  and  C2_3 
ROOT
ATOM      1  C2  UNL d   1      -0.184   0.199  -0.287  0.00  0.00    -0.081 A 
ATOM      2  C3  UNL d   1       1.014  -0.293  -0.820  0.00  0.00     0.006 A 
ATOM      3  C4  UNL d   1       1.650  -1.392  -0.239  0.00  0.00     0.002 A 
ATOM      4  C5  UNL d   1       1.096  -2.022   0.880  0.00  0.00    -0.080 A 
ATOM      5  C6  UNL d   1       1.753  -3.222   1.496  0.00  0.00     0.076 C 
ATOM      6  C7  UNL d   1      -0.092  -1.521   1.424  0.00  0.00     0.002 A 
ATOM      7  C8  UNL d   1      -0.728  -0.421   0.843  0.00  0.00     0.006 A 
ENDROOT
BRANCH   1   8
ATOM      8  C1  UNL d   1      -0.906   1.343  -0.951  0.00  0.00     0.054 C 
ATOM      9  C   UNL d   1      -1.706   0.869  -2.156  0.00  0.00     0.018 C 
ENDBRANCH   1   8
TORSDOF 1
ENDMDL
