MODEL 1
REMARK minimizedAffinity -2.89169669
REMARK minimizedRMSD -1
REMARK  1 active torsions:
REMARK  status: ('A' for Active; 'I' for Inactive)
REMARK    1  A    between atoms: C1_2  and  C2_3 
ROOT
ATOM      1  C2  UNL d   1       0.773  -0.153   0.010  0.00  0.00    -0.081 A 
ATOM      2  C3  UNL d   1       0.274  -0.952  -1.026  0.00  0.00     0.006 A 
ATOM      3  C4  UNL d   1      -0.771  -0.495  -1.832  0.00  0.00     0.002 A 
ATOM      4  C5  UNL d   1      -1.328   0.771  -1.622  0.00  0.00    -0.080 A 
ATOM      5  C6  UNL d   1      -2.430   1.287  -2.499  0.00  0.00     0.076 C 
ATOM      6  C7  UNL d   1      -0.841   1.562  -0.576  0.00  0.00     0.002 A 
ATOM      7  C8  UNL d   1       0.203   1.105   0.231  0.00  0.00     0.006 A 
ENDROOT
BRANCH   1   8
ATOM      8  C1  UNL d   1       1.943  -0.617   0.840  0.00  0.00     0.054 C 
ATOM      9  C   UNL d   1       1.661  -1.964   1.490  0.00  0.00     0.018 C 
ENDBRANCH   1   8
TORSDOF 1
ENDMDL
