MODEL 1
REMARK minimizedAffinity -5.35691214
REMARK minimizedRMSD -1
REMARK  1 active torsions:
REMARK  status: ('A' for Active; 'I' for Inactive)
REMARK    1  A    between atoms: C1_2  and  C2_3 
ROOT
ATOM      1  C2  UNL d   1      -0.078   0.002  -0.135  0.00  0.00    -0.081 A 
ATOM      2  C3  UNL d   1      -0.678  -0.622   0.966  0.00  0.00     0.006 A 
ATOM      3  C4  UNL d   1      -0.073  -1.728   1.569  0.00  0.00     0.002 A 
ATOM      4  C5  UNL d   1       1.143  -2.223   1.088  0.00  0.00    -0.080 A 
ATOM      5  C6  UNL d   1       1.818  -3.390   1.746  0.00  0.00     0.076 C 
ATOM      6  C7  UNL d   1       1.734  -1.610  -0.023  0.00  0.00     0.002 A 
ATOM      7  C8  UNL d   1       1.130  -0.505  -0.627  0.00  0.00     0.006 A 
ENDROOT
BRANCH   1   8
ATOM      8  C1  UNL d   1      -0.694   1.233  -0.748  0.00  0.00     0.054 C 
ATOM      9  C   UNL d   1      -1.839   0.872  -1.684  0.00  0.00     0.018 C 
ENDBRANCH   1   8
TORSDOF 1
ENDMDL
