MODEL 1
REMARK minimizedAffinity -4.84732151
REMARK minimizedRMSD -1
REMARK  1 active torsions:
REMARK  status: ('A' for Active; 'I' for Inactive)
REMARK    1  A    between atoms: C1_2  and  C2_3 
ROOT
ATOM      1  C2  UNL d   1       0.877  -1.171   0.480  0.00  0.00    -0.081 A 
ATOM      2  C3  UNL d   1      -0.411  -0.843   0.922  0.00  0.00     0.006 A 
ATOM      3  C4  UNL d   1      -1.107   0.223   0.346  0.00  0.00     0.002 A 
ATOM      4  C5  UNL d   1      -0.531   0.973  -0.684  0.00  0.00    -0.080 A 
ATOM      5  C6  UNL d   1      -1.279   2.101  -1.331  0.00  0.00     0.076 C 
ATOM      6  C7  UNL d   1       0.763   0.657  -1.114  0.00  0.00     0.002 A 
ATOM      7  C8  UNL d   1       1.459  -0.408  -0.538  0.00  0.00     0.006 A 
ENDROOT
BRANCH   1   8
ATOM      8  C1  UNL d   1       1.604  -2.360   1.054  0.00  0.00     0.054 C 
ATOM      9  C   UNL d   1       1.108  -2.689   2.454  0.00  0.00     0.018 C 
ENDBRANCH   1   8
TORSDOF 1
ENDMDL
