MODEL 1
REMARK minimizedAffinity -4.501966
REMARK minimizedRMSD -1
REMARK  1 active torsions:
REMARK  status: ('A' for Active; 'I' for Inactive)
REMARK    1  A    between atoms: C1_2  and  C2_3 
ROOT
ATOM      1  C2  UNL d   1      -0.481   0.376  -0.055  0.00  0.00    -0.081 A 
ATOM      2  C3  UNL d   1       0.865   0.124  -0.347  0.00  0.00     0.006 A 
ATOM      3  C4  UNL d   1       1.513  -0.986   0.202  0.00  0.00     0.002 A 
ATOM      4  C5  UNL d   1       0.824  -1.865   1.045  0.00  0.00    -0.080 A 
ATOM      5  C6  UNL d   1       1.499  -3.076   1.616  0.00  0.00     0.076 C 
ATOM      6  C7  UNL d   1      -0.516  -1.603   1.350  0.00  0.00     0.002 A 
ATOM      7  C8  UNL d   1      -1.164  -0.494   0.802  0.00  0.00     0.006 A 
ENDROOT
BRANCH   1   8
ATOM      8  C1  UNL d   1      -1.200   1.535  -0.697  0.00  0.00     0.054 C 
ATOM      9  C   UNL d   1      -1.942   1.099  -1.952  0.00  0.00     0.018 C 
ENDBRANCH   1   8
TORSDOF 1
ENDMDL
