MODEL 1
REMARK minimizedAffinity -3.2562201
REMARK minimizedRMSD -1
REMARK  1 active torsions:
REMARK  status: ('A' for Active; 'I' for Inactive)
REMARK    1  A    between atoms: C1_2  and  C2_3 
ROOT
ATOM      1  C2  UNL d   1      -0.815   0.603  -1.409  0.00  0.00    -0.081 A 
ATOM      2  C3  UNL d   1      -0.026  -0.309  -2.122  0.00  0.00     0.006 A 
ATOM      3  C4  UNL d   1       1.030  -0.974  -1.494  0.00  0.00     0.002 A 
ATOM      4  C5  UNL d   1       1.310  -0.745  -0.143  0.00  0.00    -0.080 A 
ATOM      5  C6  UNL d   1       2.421  -1.475   0.551  0.00  0.00     0.076 C 
ATOM      6  C7  UNL d   1       0.533   0.179   0.565  0.00  0.00     0.002 A 
ATOM      7  C8  UNL d   1      -0.522   0.845  -0.062  0.00  0.00     0.006 A 
ENDROOT
BRANCH   1   8
ATOM      8  C1  UNL d   1      -1.994   1.273  -2.066  0.00  0.00     0.054 C 
ATOM      9  C   UNL d   1      -1.673   2.712  -2.444  0.00  0.00     0.018 C 
ENDBRANCH   1   8
TORSDOF 1
ENDMDL
