MODEL 1
REMARK minimizedAffinity 2.42230225
REMARK minimizedRMSD -1
REMARK  0 active torsions:
REMARK  status: ('A' for Active; 'I' for Inactive)
ROOT
ATOM      1  C   UNL d   1      -0.259   2.495   2.636  0.00  0.00     0.078 C 
ATOM      2  C1  UNL d   1      -0.036   2.956   1.227  0.00  0.00    -0.077 A 
ATOM      3  C2  UNL d   1      -0.779   2.422   0.167  0.00  0.00    -0.001 A 
ATOM      4  C3  UNL d   1      -0.553   2.854  -1.141  0.00  0.00     0.003 A 
ATOM      5  C4  UNL d   1       0.416   3.820  -1.401  0.00  0.00    -0.005 A 
ATOM      6  C5  UNL d   1       1.162   4.356  -0.353  0.00  0.00     0.003 A 
ATOM      7  C6  UNL d   1       0.937   3.926   0.956  0.00  0.00    -0.001 A 
ENDROOT
TORSDOF 0
ENDMDL
