MODEL 1
REMARK minimizedAffinity -1.57776666
REMARK minimizedRMSD -1
REMARK  0 active torsions:
REMARK  status: ('A' for Active; 'I' for Inactive)
ROOT
ATOM      1  C   UNL d   1      -5.994   0.776  -5.693  0.00  0.00     0.078 C 
ATOM      2  C1  UNL d   1      -5.988   2.107  -5.004  0.00  0.00    -0.077 A 
ATOM      3  C2  UNL d   1      -5.994   2.196  -3.606  0.00  0.00    -0.001 A 
ATOM      4  C3  UNL d   1      -5.998   3.443  -2.978  0.00  0.00     0.003 A 
ATOM      5  C4  UNL d   1      -5.999   4.610  -3.740  0.00  0.00    -0.005 A 
ATOM      6  C5  UNL d   1      -5.996   4.531  -5.131  0.00  0.00     0.003 A 
ATOM      7  C6  UNL d   1      -5.991   3.286  -5.761  0.00  0.00    -0.001 A 
ENDROOT
TORSDOF 0
ENDMDL
