MODEL 1
REMARK minimizedAffinity -3.18908143
REMARK minimizedRMSD -1
REMARK  0 active torsions:
REMARK  status: ('A' for Active; 'I' for Inactive)
ROOT
ATOM      1  C   UNL d   1      -5.188   2.186  -5.524  0.00  0.00     0.078 C 
ATOM      2  C1  UNL d   1      -5.181   2.999  -4.264  0.00  0.00    -0.077 A 
ATOM      3  C2  UNL d   1      -4.355   4.123  -4.134  0.00  0.00    -0.001 A 
ATOM      4  C3  UNL d   1      -4.352   4.864  -2.952  0.00  0.00     0.003 A 
ATOM      5  C4  UNL d   1      -5.172   4.490  -1.889  0.00  0.00    -0.005 A 
ATOM      6  C5  UNL d   1      -5.996   3.372  -2.008  0.00  0.00     0.003 A 
ATOM      7  C6  UNL d   1      -6.000   2.629  -3.189  0.00  0.00    -0.001 A 
ENDROOT
TORSDOF 0
ENDMDL
