MODEL 1
REMARK minimizedAffinity 8.89889431
REMARK minimizedRMSD -1
REMARK  0 active torsions:
REMARK  status: ('A' for Active; 'I' for Inactive)
ROOT
ATOM      1  C   UNL d   1       3.647  -5.965  -4.884  0.00  0.00     0.078 C 
ATOM      2  C1  UNL d   1       4.122  -5.371  -3.592  0.00  0.00    -0.077 A 
ATOM      3  C2  UNL d   1       4.884  -4.196  -3.575  0.00  0.00    -0.001 A 
ATOM      4  C3  UNL d   1       5.328  -3.660  -2.365  0.00  0.00     0.003 A 
ATOM      5  C4  UNL d   1       5.016  -4.292  -1.163  0.00  0.00    -0.005 A 
ATOM      6  C5  UNL d   1       4.260  -5.462  -1.170  0.00  0.00     0.003 A 
ATOM      7  C6  UNL d   1       3.815  -6.000  -2.379  0.00  0.00    -0.001 A 
ENDROOT
TORSDOF 0
ENDMDL
