MODEL 1
REMARK minimizedAffinity 3.79914117
REMARK minimizedRMSD -1
REMARK  0 active torsions:
REMARK  status: ('A' for Active; 'I' for Inactive)
ROOT
ATOM      1  C   UNL d   1      -4.102  -5.960  -5.470  0.00  0.00     0.078 C 
ATOM      2  C1  UNL d   1      -2.917  -5.042  -5.443  0.00  0.00    -0.077 A 
ATOM      3  C2  UNL d   1      -3.006  -3.764  -4.879  0.00  0.00    -0.001 A 
ATOM      4  C3  UNL d   1      -1.897  -2.917  -4.869  0.00  0.00     0.003 A 
ATOM      5  C4  UNL d   1      -0.690  -3.339  -5.423  0.00  0.00    -0.005 A 
ATOM      6  C5  UNL d   1      -0.592  -4.608  -5.989  0.00  0.00     0.003 A 
ATOM      7  C6  UNL d   1      -1.700  -5.456  -6.000  0.00  0.00    -0.001 A 
ENDROOT
TORSDOF 0
ENDMDL
