MODEL 1
REMARK minimizedAffinity -0.346242964
REMARK minimizedRMSD -1
REMARK  0 active torsions:
REMARK  status: ('A' for Active; 'I' for Inactive)
ROOT
ATOM      1  C   UNL d   1      -6.000   5.993  -6.000  0.00  0.00     0.078 C 
ATOM      2  C1  UNL d   1      -5.608   5.363  -4.697  0.00  0.00    -0.077 A 
ATOM      3  C2  UNL d   1      -4.886   4.164  -4.665  0.00  0.00    -0.001 A 
ATOM      4  C3  UNL d   1      -4.536   3.583  -3.445  0.00  0.00     0.003 A 
ATOM      5  C4  UNL d   1      -4.905   4.193  -2.248  0.00  0.00    -0.005 A 
ATOM      6  C5  UNL d   1      -5.625   5.386  -2.270  0.00  0.00     0.003 A 
ATOM      7  C6  UNL d   1      -5.976   5.968  -3.489  0.00  0.00    -0.001 A 
ENDROOT
TORSDOF 0
ENDMDL
