MODEL 1
REMARK minimizedAffinity 4.05283356
REMARK minimizedRMSD -1
REMARK  0 active torsions:
REMARK  status: ('A' for Active; 'I' for Inactive)
ROOT
ATOM      1  C   UNL d   1       0.310   2.202   3.030  0.00  0.00     0.078 C 
ATOM      2  C1  UNL d   1       0.189   2.742   1.636  0.00  0.00    -0.077 A 
ATOM      3  C2  UNL d   1      -0.374   1.972   0.611  0.00  0.00    -0.001 A 
ATOM      4  C3  UNL d   1      -0.472   2.484  -0.684  0.00  0.00     0.003 A 
ATOM      5  C4  UNL d   1      -0.008   3.768  -0.965  0.00  0.00    -0.005 A 
ATOM      6  C5  UNL d   1       0.555   4.541   0.048  0.00  0.00     0.003 A 
ATOM      7  C6  UNL d   1       0.654   4.030   1.343  0.00  0.00    -0.001 A 
ENDROOT
TORSDOF 0
ENDMDL
