MODEL 1
REMARK minimizedAffinity 4.42829943
REMARK minimizedRMSD -1
REMARK  0 active torsions:
REMARK  status: ('A' for Active; 'I' for Inactive)
ROOT
ATOM      1  C   UNL d   1      -5.962   2.665  -0.500  0.00  0.00     0.078 C 
ATOM      2  C1  UNL d   1      -5.479   3.379  -1.727  0.00  0.00    -0.077 A 
ATOM      3  C2  UNL d   1      -4.519   4.395  -1.639  0.00  0.00    -0.001 A 
ATOM      4  C3  UNL d   1      -4.086   5.058  -2.788  0.00  0.00     0.003 A 
ATOM      5  C4  UNL d   1      -4.608   4.714  -4.034  0.00  0.00    -0.005 A 
ATOM      6  C5  UNL d   1      -5.565   3.706  -4.131  0.00  0.00     0.003 A 
ATOM      7  C6  UNL d   1      -5.999   3.042  -2.983  0.00  0.00    -0.001 A 
ENDROOT
TORSDOF 0
ENDMDL
