MODEL 1
REMARK minimizedAffinity -5.57729721
REMARK minimizedRMSD -1
REMARK  0 active torsions:
REMARK  status: ('A' for Active; 'I' for Inactive)
ROOT
ATOM      1  C   UNL d   1      -0.057   1.454  -0.082  0.00  0.00     0.078 C 
ATOM      2  C1  UNL d   1      -0.213  -0.032   0.048  0.00  0.00    -0.077 A 
ATOM      3  C2  UNL d   1       0.581  -0.908  -0.703  0.00  0.00    -0.001 A 
ATOM      4  C3  UNL d   1       0.419  -2.289  -0.579  0.00  0.00     0.003 A 
ATOM      5  C4  UNL d   1      -0.537  -2.806   0.293  0.00  0.00    -0.005 A 
ATOM      6  C5  UNL d   1      -1.333  -1.942   1.043  0.00  0.00     0.003 A 
ATOM      7  C6  UNL d   1      -1.172  -0.561   0.920  0.00  0.00    -0.001 A 
ENDROOT
TORSDOF 0
ENDMDL
