MODEL 1
REMARK minimizedAffinity -5.04067755
REMARK minimizedRMSD -1
REMARK  0 active torsions:
REMARK  status: ('A' for Active; 'I' for Inactive)
ROOT
ATOM      1  C   UNL d   1       1.118  -2.237  -1.926  0.00  0.00     0.078 C 
ATOM      2  C1  UNL d   1       0.330  -1.794  -0.730  0.00  0.00    -0.077 A 
ATOM      3  C2  UNL d   1      -0.381  -2.716   0.048  0.00  0.00    -0.001 A 
ATOM      4  C3  UNL d   1      -1.117  -2.288   1.154  0.00  0.00     0.003 A 
ATOM      5  C4  UNL d   1      -1.151  -0.936   1.491  0.00  0.00    -0.005 A 
ATOM      6  C5  UNL d   1      -0.449  -0.011   0.722  0.00  0.00     0.003 A 
ATOM      7  C6  UNL d   1       0.288  -0.437  -0.384  0.00  0.00    -0.001 A 
ENDROOT
TORSDOF 0
ENDMDL
