MODEL 1
REMARK minimizedAffinity -4.62313461
REMARK minimizedRMSD -1
REMARK  0 active torsions:
REMARK  status: ('A' for Active; 'I' for Inactive)
ROOT
ATOM      1  C   UNL d   1       0.344   1.799  -0.453  0.00  0.00     0.078 C 
ATOM      2  C1  UNL d   1      -0.248   0.489  -0.027  0.00  0.00    -0.077 A 
ATOM      3  C2  UNL d   1       0.131  -0.709  -0.644  0.00  0.00    -0.001 A 
ATOM      4  C3  UNL d   1      -0.436  -1.920  -0.243  0.00  0.00     0.003 A 
ATOM      5  C4  UNL d   1      -1.388  -1.944   0.775  0.00  0.00    -0.005 A 
ATOM      6  C5  UNL d   1      -1.773  -0.756   1.393  0.00  0.00     0.003 A 
ATOM      7  C6  UNL d   1      -1.207   0.455   0.994  0.00  0.00    -0.001 A 
ENDROOT
TORSDOF 0
ENDMDL
