MODEL 1
REMARK minimizedAffinity -4.79769754
REMARK minimizedRMSD -1
REMARK  0 active torsions:
REMARK  status: ('A' for Active; 'I' for Inactive)
ROOT
ATOM      1  C   UNL d   1      -0.050   0.999  -0.118  0.00  0.00     0.078 C 
ATOM      2  C1  UNL d   1      -0.444  -0.441   0.013  0.00  0.00    -0.077 A 
ATOM      3  C2  UNL d   1      -0.945  -0.945   1.220  0.00  0.00    -0.001 A 
ATOM      4  C3  UNL d   1      -1.299  -2.290   1.331  0.00  0.00     0.003 A 
ATOM      5  C4  UNL d   1      -1.155  -3.144   0.239  0.00  0.00    -0.005 A 
ATOM      6  C5  UNL d   1      -0.656  -2.652  -0.966  0.00  0.00     0.003 A 
ATOM      7  C6  UNL d   1      -0.301  -1.307  -1.078  0.00  0.00    -0.001 A 
ENDROOT
TORSDOF 0
ENDMDL
