MODEL 1
REMARK minimizedAffinity -4.26876163
REMARK minimizedRMSD -1
REMARK  0 active torsions:
REMARK  status: ('A' for Active; 'I' for Inactive)
ROOT
ATOM      1  C   UNL d   1       0.027  -3.302   0.227  0.00  0.00     0.078 C 
ATOM      2  C1  UNL d   1      -0.120  -1.907  -0.302  0.00  0.00    -0.077 A 
ATOM      3  C2  UNL d   1       0.253  -1.590  -1.613  0.00  0.00    -0.001 A 
ATOM      4  C3  UNL d   1       0.120  -0.284  -2.089  0.00  0.00     0.003 A 
ATOM      5  C4  UNL d   1      -0.385   0.715  -1.260  0.00  0.00    -0.005 A 
ATOM      6  C5  UNL d   1      -0.757   0.409   0.048  0.00  0.00     0.003 A 
ATOM      7  C6  UNL d   1      -0.624  -0.895   0.526  0.00  0.00    -0.001 A 
ENDROOT
TORSDOF 0
ENDMDL
