MODEL 1
REMARK minimizedAffinity -5.65443802
REMARK minimizedRMSD -1
REMARK  0 active torsions:
REMARK  status: ('A' for Active; 'I' for Inactive)
ROOT
ATOM      1  C   UNL d   1       0.685  -2.124  -2.086  0.00  0.00     0.078 C 
ATOM      2  C1  UNL d   1      -0.038  -1.932  -0.786  0.00  0.00    -0.077 A 
ATOM      3  C2  UNL d   1      -0.512  -3.028  -0.055  0.00  0.00    -0.001 A 
ATOM      4  C3  UNL d   1      -1.192  -2.833   1.148  0.00  0.00     0.003 A 
ATOM      5  C4  UNL d   1      -1.404  -1.543   1.631  0.00  0.00    -0.005 A 
ATOM      6  C5  UNL d   1      -0.938  -0.446   0.910  0.00  0.00     0.003 A 
ATOM      7  C6  UNL d   1      -0.258  -0.639  -0.294  0.00  0.00    -0.001 A 
ENDROOT
TORSDOF 0
ENDMDL
