MODEL 1
REMARK minimizedAffinity -5.04807711
REMARK minimizedRMSD -1
REMARK  0 active torsions:
REMARK  status: ('A' for Active; 'I' for Inactive)
ROOT
ATOM      1  C   UNL d   1       0.043  -1.907  -2.509  0.00  0.00     0.078 C 
ATOM      2  C1  UNL d   1      -0.314  -1.570  -1.093  0.00  0.00    -0.077 A 
ATOM      3  C2  UNL d   1      -0.760  -2.559  -0.207  0.00  0.00    -0.001 A 
ATOM      4  C3  UNL d   1      -1.099  -2.230   1.106  0.00  0.00     0.003 A 
ATOM      5  C4  UNL d   1      -0.997  -0.911   1.546  0.00  0.00    -0.005 A 
ATOM      6  C5  UNL d   1      -0.556   0.080   0.671  0.00  0.00     0.003 A 
ATOM      7  C6  UNL d   1      -0.217  -0.248  -0.643  0.00  0.00    -0.001 A 
ENDROOT
TORSDOF 0
ENDMDL
