MODEL 1
REMARK minimizedAffinity -3.66448307
REMARK minimizedRMSD -1
REMARK  0 active torsions:
REMARK  status: ('A' for Active; 'I' for Inactive)
ROOT
ATOM      1  C   UNL d   1       0.521   1.624   0.232  0.00  0.00     0.078 C 
ATOM      2  C1  UNL d   1      -0.062   0.250   0.376  0.00  0.00    -0.077 A 
ATOM      3  C2  UNL d   1      -0.536  -0.206   1.612  0.00  0.00    -0.001 A 
ATOM      4  C3  UNL d   1      -1.068  -1.491   1.734  0.00  0.00     0.003 A 
ATOM      5  C4  UNL d   1      -1.129  -2.330   0.623  0.00  0.00    -0.005 A 
ATOM      6  C5  UNL d   1      -0.658  -1.886  -0.610  0.00  0.00     0.003 A 
ATOM      7  C6  UNL d   1      -0.126  -0.601  -0.734  0.00  0.00    -0.001 A 
ENDROOT
TORSDOF 0
ENDMDL
