MODEL 1
REMARK minimizedAffinity -3.81844449
REMARK minimizedRMSD -1
REMARK  0 active torsions:
REMARK  status: ('A' for Active; 'I' for Inactive)
ROOT
ATOM      1  C   UNL d   1      -0.430   1.266  -0.669  0.00  0.00     0.078 C 
ATOM      2  C1  UNL d   1      -0.623  -0.173  -0.293  0.00  0.00    -0.077 A 
ATOM      3  C2  UNL d   1      -0.157  -1.203  -1.119  0.00  0.00    -0.001 A 
ATOM      4  C3  UNL d   1      -0.353  -2.538  -0.762  0.00  0.00     0.003 A 
ATOM      5  C4  UNL d   1      -1.016  -2.855   0.422  0.00  0.00    -0.005 A 
ATOM      6  C5  UNL d   1      -1.486  -1.837   1.249  0.00  0.00     0.003 A 
ATOM      7  C6  UNL d   1      -1.291  -0.501   0.893  0.00  0.00    -0.001 A 
ENDROOT
TORSDOF 0
ENDMDL
