MODEL 1
REMARK minimizedAffinity -2.67997074
REMARK minimizedRMSD -1
REMARK  0 active torsions:
REMARK  status: ('A' for Active; 'I' for Inactive)
ROOT
ATOM      1  C   UNL d   1       0.103  -1.953  -2.983  0.00  0.00     0.078 C 
ATOM      2  C1  UNL d   1      -0.392  -1.818  -1.574  0.00  0.00    -0.077 A 
ATOM      3  C2  UNL d   1      -1.027  -2.885  -0.928  0.00  0.00    -0.001 A 
ATOM      4  C3  UNL d   1      -1.492  -2.741   0.381  0.00  0.00     0.003 A 
ATOM      5  C4  UNL d   1      -1.328  -1.532   1.053  0.00  0.00    -0.005 A 
ATOM      6  C5  UNL d   1      -0.700  -0.464   0.417  0.00  0.00     0.003 A 
ATOM      7  C6  UNL d   1      -0.234  -0.605  -0.892  0.00  0.00    -0.001 A 
ENDROOT
TORSDOF 0
ENDMDL
