MODEL 1
REMARK minimizedAffinity -2.42788243
REMARK minimizedRMSD -1
REMARK  0 active torsions:
REMARK  status: ('A' for Active; 'I' for Inactive)
ROOT
ATOM      1  C   UNL d   1      -0.420   4.301   1.887  0.00  0.00     0.078 C 
ATOM      2  C1  UNL d   1       0.428   3.539   0.914  0.00  0.00    -0.077 A 
ATOM      3  C2  UNL d   1       1.762   3.897   0.684  0.00  0.00    -0.001 A 
ATOM      4  C3  UNL d   1       2.537   3.185  -0.232  0.00  0.00     0.003 A 
ATOM      5  C4  UNL d   1       1.987   2.109  -0.927  0.00  0.00    -0.005 A 
ATOM      6  C5  UNL d   1       0.660   1.746  -0.707  0.00  0.00     0.003 A 
ATOM      7  C6  UNL d   1      -0.117   2.458   0.209  0.00  0.00    -0.001 A 
ENDROOT
TORSDOF 0
ENDMDL
