MODEL 1
REMARK minimizedAffinity -2.13591504
REMARK minimizedRMSD -1
REMARK  0 active torsions:
REMARK  status: ('A' for Active; 'I' for Inactive)
ROOT
ATOM      1  C   UNL d   1      -0.328   0.959  -0.689  0.00  0.00     0.078 C 
ATOM      2  C1  UNL d   1      -0.719  -0.204   0.172  0.00  0.00    -0.077 A 
ATOM      3  C2  UNL d   1      -1.196  -0.009   1.474  0.00  0.00    -0.001 A 
ATOM      4  C3  UNL d   1      -1.548  -1.102   2.268  0.00  0.00     0.003 A 
ATOM      5  C4  UNL d   1      -1.425  -2.398   1.770  0.00  0.00    -0.005 A 
ATOM      6  C5  UNL d   1      -0.949  -2.602   0.476  0.00  0.00     0.003 A 
ATOM      7  C6  UNL d   1      -0.597  -1.510  -0.319  0.00  0.00    -0.001 A 
ENDROOT
TORSDOF 0
ENDMDL
