MODEL 1
REMARK minimizedAffinity -4.32043934
REMARK minimizedRMSD -1
REMARK  0 active torsions:
REMARK  status: ('A' for Active; 'I' for Inactive)
ROOT
ATOM      1  C   UNL d   1      -0.150  -3.416   0.214  0.00  0.00     0.078 C 
ATOM      2  C1  UNL d   1      -0.332  -1.934   0.077  0.00  0.00    -0.077 A 
ATOM      3  C2  UNL d   1       0.207  -1.239  -1.013  0.00  0.00    -0.001 A 
ATOM      4  C3  UNL d   1       0.038   0.142  -1.122  0.00  0.00     0.003 A 
ATOM      5  C4  UNL d   1      -0.669   0.840  -0.145  0.00  0.00    -0.005 A 
ATOM      6  C5  UNL d   1      -1.208   0.157   0.944  0.00  0.00     0.003 A 
ATOM      7  C6  UNL d   1      -1.039  -1.224   1.055  0.00  0.00    -0.001 A 
ENDROOT
TORSDOF 0
ENDMDL
