MODEL 1
REMARK minimizedAffinity -5.486485
REMARK minimizedRMSD -1
REMARK  0 active torsions:
REMARK  status: ('A' for Active; 'I' for Inactive)
ROOT
ATOM      1  C   UNL d   1      -0.601   0.951  -0.584  0.00  0.00     0.078 C 
ATOM      2  C1  UNL d   1      -0.292  -0.501  -0.370  0.00  0.00    -0.077 A 
ATOM      3  C2  UNL d   1      -0.881  -1.216   0.680  0.00  0.00    -0.001 A 
ATOM      4  C3  UNL d   1      -0.577  -2.565   0.873  0.00  0.00     0.003 A 
ATOM      5  C4  UNL d   1       0.317  -3.210   0.021  0.00  0.00    -0.005 A 
ATOM      6  C5  UNL d   1       0.909  -2.506  -1.026  0.00  0.00     0.003 A 
ATOM      7  C6  UNL d   1       0.607  -1.157  -1.220  0.00  0.00    -0.001 A 
ENDROOT
TORSDOF 0
ENDMDL
