MODEL 1
REMARK minimizedAffinity -1.62140179
REMARK minimizedRMSD -1
REMARK  0 active torsions:
REMARK  status: ('A' for Active; 'I' for Inactive)
ROOT
ATOM      1  C   UNL d   1      -0.127   0.326  -0.090  0.00  0.00     0.078 C 
ATOM      2  C1  UNL d   1       0.752   1.477   0.298  0.00  0.00    -0.077 A 
ATOM      3  C2  UNL d   1       1.859   1.833  -0.482  0.00  0.00    -0.001 A 
ATOM      4  C3  UNL d   1       2.675   2.901  -0.103  0.00  0.00     0.003 A 
ATOM      5  C4  UNL d   1       2.393   3.619   1.057  0.00  0.00    -0.005 A 
ATOM      6  C5  UNL d   1       1.295   3.270   1.841  0.00  0.00     0.003 A 
ATOM      7  C6  UNL d   1       0.478   2.203   1.464  0.00  0.00    -0.001 A 
ENDROOT
TORSDOF 0
ENDMDL
