MODEL 1
REMARK minimizedAffinity -5.49997377
REMARK minimizedRMSD -1
REMARK  1 active torsions:
REMARK  status: ('A' for Active; 'I' for Inactive)
REMARK    1  A    between atoms: C1_2  and  C2_3 
ROOT
ATOM      1  C2  UNL d   1       0.205   0.181  -0.034  0.00  0.00    -0.077 A 
ATOM      2  C3  UNL d   1      -1.167   0.369  -0.255  0.00  0.00     0.002 A 
ATOM      3  C4  UNL d   1      -1.966   0.960   0.726  0.00  0.00     0.002 A 
ATOM      4  C5  UNL d   1      -1.402   1.371   1.932  0.00  0.00    -0.004 A 
ATOM      5  C6  UNL d   1      -0.039   1.186   2.162  0.00  0.00     0.002 A 
ATOM      6  C7  UNL d   1       0.761   0.594   1.183  0.00  0.00     0.002 A 
ENDROOT
BRANCH   1   7
ATOM      7  C1  UNL d   1       1.077  -0.411  -1.110  0.00  0.00     0.055 C 
ATOM      8  C   UNL d   1       0.668   0.085  -2.490  0.00  0.00     0.019 C 
ENDBRANCH   1   7
TORSDOF 1
ENDMDL
