MODEL 1
REMARK minimizedAffinity -3.04156351
REMARK minimizedRMSD -1
REMARK  1 active torsions:
REMARK  status: ('A' for Active; 'I' for Inactive)
REMARK    1  A    between atoms: C1_2  and  C2_3 
ROOT
ATOM      1  C2  UNL d   1      -0.252   0.083   0.159  0.00  0.00    -0.077 A 
ATOM      2  C3  UNL d   1      -1.493  -0.148   0.768  0.00  0.00     0.002 A 
ATOM      3  C4  UNL d   1      -1.808   0.462   1.984  0.00  0.00     0.002 A 
ATOM      4  C5  UNL d   1      -0.888   1.310   2.599  0.00  0.00    -0.004 A 
ATOM      5  C6  UNL d   1       0.350   1.544   2.002  0.00  0.00     0.002 A 
ATOM      6  C7  UNL d   1       0.667   0.934   0.787  0.00  0.00     0.002 A 
ENDROOT
BRANCH   1   7
ATOM      7  C1  UNL d   1       0.070  -0.535  -1.176  0.00  0.00     0.055 C 
ATOM      8  C   UNL d   1       0.468   0.523  -2.195  0.00  0.00     0.019 C 
ENDBRANCH   1   7
TORSDOF 1
ENDMDL
