MODEL 1
REMARK minimizedAffinity -4.33922577
REMARK minimizedRMSD -1
REMARK  1 active torsions:
REMARK  status: ('A' for Active; 'I' for Inactive)
REMARK    1  A    between atoms: C1_2  and  C2_3 
ROOT
ATOM      1  C2  UNL d   1       0.049  -0.191  -0.061  0.00  0.00    -0.077 A 
ATOM      2  C3  UNL d   1       0.718   0.461   0.985  0.00  0.00     0.002 A 
ATOM      3  C4  UNL d   1      -0.004   1.099   1.995  0.00  0.00     0.002 A 
ATOM      4  C5  UNL d   1      -1.397   1.089   1.972  0.00  0.00    -0.004 A 
ATOM      5  C6  UNL d   1      -2.071   0.445   0.935  0.00  0.00     0.002 A 
ATOM      6  C7  UNL d   1      -1.351  -0.193  -0.076  0.00  0.00     0.002 A 
ENDROOT
BRANCH   1   7
ATOM      7  C1  UNL d   1       0.825  -0.922  -1.125  0.00  0.00     0.055 C 
ATOM      8  C   UNL d   1       0.723  -0.216  -2.469  0.00  0.00     0.019 C 
ENDBRANCH   1   7
TORSDOF 1
ENDMDL
