MODEL 1
REMARK minimizedAffinity -3.09142184
REMARK minimizedRMSD -1
REMARK  1 active torsions:
REMARK  status: ('A' for Active; 'I' for Inactive)
REMARK    1  A    between atoms: C1_2  and  C2_3 
ROOT
ATOM      1  C2  UNL d   1      -0.447   0.532   0.765  0.00  0.00    -0.077 A 
ATOM      2  C3  UNL d   1      -1.306   0.107  -0.257  0.00  0.00     0.002 A 
ATOM      3  C4  UNL d   1      -0.801  -0.570  -1.369  0.00  0.00     0.002 A 
ATOM      4  C5  UNL d   1       0.564  -0.831  -1.466  0.00  0.00    -0.004 A 
ATOM      5  C6  UNL d   1       1.427  -0.410  -0.456  0.00  0.00     0.002 A 
ATOM      6  C7  UNL d   1       0.924   0.267   0.655  0.00  0.00     0.002 A 
ENDROOT
BRANCH   1   7
ATOM      7  C1  UNL d   1      -0.996   1.219   1.988  0.00  0.00     0.055 C 
ATOM      8  C   UNL d   1      -2.133   0.419   2.609  0.00  0.00     0.019 C 
ENDBRANCH   1   7
TORSDOF 1
ENDMDL
