MODEL 1
REMARK minimizedAffinity -5.43443871
REMARK minimizedRMSD -1
REMARK  1 active torsions:
REMARK  status: ('A' for Active; 'I' for Inactive)
REMARK    1  A    between atoms: C1_2  and  C2_3 
ROOT
ATOM      1  C2  UNL d   1      -1.115   0.309   2.115  0.00  0.00    -0.077 A 
ATOM      2  C3  UNL d   1      -0.217   0.027   1.076  0.00  0.00     0.002 A 
ATOM      3  C4  UNL d   1       1.149   0.265   1.240  0.00  0.00     0.002 A 
ATOM      4  C5  UNL d   1       1.630   0.781   2.441  0.00  0.00    -0.004 A 
ATOM      5  C6  UNL d   1       0.744   1.066   3.480  0.00  0.00     0.002 A 
ATOM      6  C7  UNL d   1      -0.621   0.831   3.318  0.00  0.00     0.002 A 
ENDROOT
BRANCH   1   7
ATOM      7  C1  UNL d   1      -2.582   0.008   1.959  0.00  0.00     0.055 C 
ATOM      8  C   UNL d   1      -2.979  -1.234   2.744  0.00  0.00     0.019 C 
ENDBRANCH   1   7
TORSDOF 1
ENDMDL
