MODEL 1
REMARK minimizedAffinity -5.03544569
REMARK minimizedRMSD -1
REMARK  1 active torsions:
REMARK  status: ('A' for Active; 'I' for Inactive)
REMARK    1  A    between atoms: C1_2  and  C2_3 
ROOT
ATOM      1  C2  UNL d   1      -0.017   0.051   0.473  0.00  0.00    -0.077 A 
ATOM      2  C3  UNL d   1       0.681   1.246   0.693  0.00  0.00     0.002 A 
ATOM      3  C4  UNL d   1       0.317   2.094   1.740  0.00  0.00     0.002 A 
ATOM      4  C5  UNL d   1      -0.743   1.754   2.578  0.00  0.00    -0.004 A 
ATOM      5  C6  UNL d   1      -1.446   0.568   2.366  0.00  0.00     0.002 A 
ATOM      6  C7  UNL d   1      -1.084  -0.280   1.318  0.00  0.00     0.002 A 
ENDROOT
BRANCH   1   7
ATOM      7  C1  UNL d   1       0.405  -0.889  -0.626  0.00  0.00     0.055 C 
ATOM      8  C   UNL d   1       0.928  -0.128  -1.836  0.00  0.00     0.019 C 
ENDBRANCH   1   7
TORSDOF 1
ENDMDL
