MODEL 1
REMARK minimizedAffinity -4.43753099
REMARK minimizedRMSD -1
REMARK  1 active torsions:
REMARK  status: ('A' for Active; 'I' for Inactive)
REMARK    1  A    between atoms: C1_2  and  C2_3 
ROOT
ATOM      1  C2  UNL d   1      -0.286  -0.136   0.018  0.00  0.00    -0.077 A 
ATOM      2  C3  UNL d   1       0.777   0.531   0.644  0.00  0.00     0.002 A 
ATOM      3  C4  UNL d   1       0.604   1.111   1.903  0.00  0.00     0.002 A 
ATOM      4  C5  UNL d   1      -0.629   1.026   2.547  0.00  0.00    -0.004 A 
ATOM      5  C6  UNL d   1      -1.692   0.367   1.932  0.00  0.00     0.002 A 
ATOM      6  C7  UNL d   1      -1.521  -0.212   0.674  0.00  0.00     0.002 A 
ENDROOT
BRANCH   1   7
ATOM      7  C1  UNL d   1      -0.087  -0.804  -1.317  0.00  0.00     0.055 C 
ATOM      8  C   UNL d   1       0.597   0.128  -2.306  0.00  0.00     0.019 C 
ENDBRANCH   1   7
TORSDOF 1
ENDMDL
