MODEL 1
REMARK minimizedAffinity 4.61326408
REMARK minimizedRMSD -1
REMARK  1 active torsions:
REMARK  status: ('A' for Active; 'I' for Inactive)
REMARK    1  A    between atoms: C1_2  and  C2_3 
ROOT
ATOM      1  C2  UNL d   1       0.991  -1.754  -1.501  0.00  0.00    -0.077 A 
ATOM      2  C3  UNL d   1       0.809  -3.115  -1.219  0.00  0.00     0.002 A 
ATOM      3  C4  UNL d   1       1.757  -3.814  -0.468  0.00  0.00     0.002 A 
ATOM      4  C5  UNL d   1       2.889  -3.159   0.011  0.00  0.00    -0.004 A 
ATOM      5  C6  UNL d   1       3.080  -1.805  -0.266  0.00  0.00     0.002 A 
ATOM      6  C7  UNL d   1       2.134  -1.106  -1.017  0.00  0.00     0.002 A 
ENDROOT
BRANCH   1   7
ATOM      7  C1  UNL d   1      -0.054  -0.987  -2.268  0.00  0.00     0.055 C 
ATOM      8  C   UNL d   1      -1.451  -1.520  -1.986  0.00  0.00     0.019 C 
ENDBRANCH   1   7
TORSDOF 1
ENDMDL
