MODEL 1
REMARK minimizedAffinity 6.06103659
REMARK minimizedRMSD -1
REMARK  1 active torsions:
REMARK  status: ('A' for Active; 'I' for Inactive)
REMARK    1  A    between atoms: C1_2  and  C2_3 
ROOT
ATOM      1  C2  UNL d   1      -0.780   2.272   1.142  0.00  0.00    -0.077 A 
ATOM      2  C3  UNL d   1      -0.860   3.670   1.080  0.00  0.00     0.002 A 
ATOM      3  C4  UNL d   1      -0.782   4.329  -0.149  0.00  0.00     0.002 A 
ATOM      4  C5  UNL d   1      -0.629   3.597  -1.325  0.00  0.00    -0.004 A 
ATOM      5  C6  UNL d   1      -0.546   2.206  -1.274  0.00  0.00     0.002 A 
ATOM      6  C7  UNL d   1      -0.622   1.547  -0.046  0.00  0.00     0.002 A 
ENDROOT
BRANCH   1   7
ATOM      7  C1  UNL d   1      -0.912   1.557   2.461  0.00  0.00     0.055 C 
ATOM      8  C   UNL d   1       0.451   1.240   3.058  0.00  0.00     0.019 C 
ENDBRANCH   1   7
TORSDOF 1
ENDMDL
