MODEL 1
REMARK minimizedAffinity 2.48763227
REMARK minimizedRMSD -1
REMARK  1 active torsions:
REMARK  status: ('A' for Active; 'I' for Inactive)
REMARK    1  A    between atoms: C1_2  and  C2_3 
ROOT
ATOM      1  C2  UNL d   1      -1.600   0.990  -0.161  0.00  0.00    -0.077 A 
ATOM      2  C3  UNL d   1      -0.574   1.662  -0.841  0.00  0.00     0.002 A 
ATOM      3  C4  UNL d   1       0.177   2.645  -0.193  0.00  0.00     0.002 A 
ATOM      4  C5  UNL d   1      -0.088   2.962   1.138  0.00  0.00    -0.004 A 
ATOM      5  C6  UNL d   1      -1.107   2.300   1.822  0.00  0.00     0.002 A 
ATOM      6  C7  UNL d   1      -1.859   1.318   1.176  0.00  0.00     0.002 A 
ENDROOT
BRANCH   1   7
ATOM      7  C1  UNL d   1      -2.377  -0.105  -0.843  0.00  0.00     0.055 C 
ATOM      8  C   UNL d   1      -3.767  -0.254  -0.242  0.00  0.00     0.019 C 
ENDBRANCH   1   7
TORSDOF 1
ENDMDL
