MODEL 1
REMARK minimizedAffinity 4.24313402
REMARK minimizedRMSD -1
REMARK  1 active torsions:
REMARK  status: ('A' for Active; 'I' for Inactive)
REMARK    1  A    between atoms: C1_2  and  C2_3 
ROOT
ATOM      1  C2  UNL d   1      -0.409   2.537   0.543  0.00  0.00    -0.077 A 
ATOM      2  C3  UNL d   1       0.743   2.004   1.139  0.00  0.00     0.002 A 
ATOM      3  C4  UNL d   1       0.706   1.535   2.453  0.00  0.00     0.002 A 
ATOM      4  C5  UNL d   1      -0.480   1.591   3.182  0.00  0.00    -0.004 A 
ATOM      5  C6  UNL d   1      -1.631   2.121   2.599  0.00  0.00     0.002 A 
ATOM      6  C7  UNL d   1      -1.595   2.592   1.286  0.00  0.00     0.002 A 
ENDROOT
BRANCH   1   7
ATOM      7  C1  UNL d   1      -0.383   2.998  -0.891  0.00  0.00     0.055 C 
ATOM      8  C   UNL d   1      -0.513   4.511  -0.988  0.00  0.00     0.019 C 
ENDBRANCH   1   7
TORSDOF 1
ENDMDL
