MODEL 1
REMARK minimizedAffinity 9.00621223
REMARK minimizedRMSD -1
REMARK  1 active torsions:
REMARK  status: ('A' for Active; 'I' for Inactive)
REMARK    1  A    between atoms: C1_2  and  C2_3 
ROOT
ATOM      1  C2  UNL d   1      -2.218  -0.960  -1.664  0.00  0.00    -0.077 A 
ATOM      2  C3  UNL d   1      -2.316   0.429  -1.821  0.00  0.00     0.002 A 
ATOM      3  C4  UNL d   1      -3.340   1.141  -1.192  0.00  0.00     0.002 A 
ATOM      4  C5  UNL d   1      -4.270   0.472  -0.400  0.00  0.00    -0.004 A 
ATOM      5  C6  UNL d   1      -4.183  -0.911  -0.240  0.00  0.00     0.002 A 
ATOM      6  C7  UNL d   1      -3.161  -1.623  -0.868  0.00  0.00     0.002 A 
ENDROOT
BRANCH   1   7
ATOM      7  C1  UNL d   1      -1.086  -1.723  -2.302  0.00  0.00     0.055 C 
ATOM      8  C   UNL d   1      -1.349  -1.972  -3.779  0.00  0.00     0.019 C 
ENDBRANCH   1   7
TORSDOF 1
ENDMDL
