MODEL 1
REMARK minimizedAffinity 5.92709827
REMARK minimizedRMSD -1
REMARK  1 active torsions:
REMARK  status: ('A' for Active; 'I' for Inactive)
REMARK    1  A    between atoms: C1_2  and  C2_3 
ROOT
ATOM      1  C2  UNL d   1      -0.731   0.750  -0.787  0.00  0.00    -0.077 A 
ATOM      2  C3  UNL d   1       0.207  -0.178  -1.262  0.00  0.00     0.002 A 
ATOM      3  C4  UNL d   1      -0.214  -1.402  -1.785  0.00  0.00     0.002 A 
ATOM      4  C5  UNL d   1      -1.572  -1.708  -1.842  0.00  0.00    -0.004 A 
ATOM      5  C6  UNL d   1      -2.512  -0.792  -1.370  0.00  0.00     0.002 A 
ATOM      6  C7  UNL d   1      -2.094   0.431  -0.846  0.00  0.00     0.002 A 
ENDROOT
BRANCH   1   7
ATOM      7  C1  UNL d   1      -0.282   2.091  -0.268  0.00  0.00     0.055 C 
ATOM      8  C   UNL d   1      -0.203   2.098   1.252  0.00  0.00     0.019 C 
ENDBRANCH   1   7
TORSDOF 1
ENDMDL
