MODEL 1
REMARK minimizedAffinity 7.61466503
REMARK minimizedRMSD -1
REMARK  1 active torsions:
REMARK  status: ('A' for Active; 'I' for Inactive)
REMARK    1  A    between atoms: C1_2  and  C2_3 
ROOT
ATOM      1  C2  UNL d   1       3.657  -1.988  -0.597  0.00  0.00    -0.077 A 
ATOM      2  C3  UNL d   1       4.595  -1.186  -1.262  0.00  0.00     0.002 A 
ATOM      3  C4  UNL d   1       5.761  -1.749  -1.784  0.00  0.00     0.002 A 
ATOM      4  C5  UNL d   1       5.998  -3.115  -1.651  0.00  0.00    -0.004 A 
ATOM      5  C6  UNL d   1       5.072  -3.921  -0.990  0.00  0.00     0.002 A 
ATOM      6  C7  UNL d   1       3.906  -3.360  -0.466  0.00  0.00     0.002 A 
ENDROOT
BRANCH   1   7
ATOM      7  C1  UNL d   1       2.376  -1.391  -0.076  0.00  0.00     0.055 C 
ATOM      8  C   UNL d   1       1.524  -0.835  -1.207  0.00  0.00     0.019 C 
ENDBRANCH   1   7
TORSDOF 1
ENDMDL
