MODEL 1
REMARK minimizedAffinity 4.3715744
REMARK minimizedRMSD -1
REMARK  1 active torsions:
REMARK  status: ('A' for Active; 'I' for Inactive)
REMARK    1  A    between atoms: C1_2  and  C2_3 
ROOT
ATOM      1  C2  UNL d   1       4.934  -3.205  -2.736  0.00  0.00    -0.077 A 
ATOM      2  C3  UNL d   1       5.498  -1.936  -2.542  0.00  0.00     0.002 A 
ATOM      3  C4  UNL d   1       5.321  -1.262  -1.332  0.00  0.00     0.002 A 
ATOM      4  C5  UNL d   1       4.585  -1.850  -0.306  0.00  0.00    -0.004 A 
ATOM      5  C6  UNL d   1       4.018  -3.111  -0.490  0.00  0.00     0.002 A 
ATOM      6  C7  UNL d   1       4.192  -3.785  -1.699  0.00  0.00     0.002 A 
ENDROOT
BRANCH   1   7
ATOM      7  C1  UNL d   1       5.164  -3.954  -4.022  0.00  0.00     0.055 C 
ATOM      8  C   UNL d   1       5.207  -3.009  -5.213  0.00  0.00     0.019 C 
ENDBRANCH   1   7
TORSDOF 1
ENDMDL
