MODEL 1
REMARK minimizedAffinity -3.72275829
REMARK minimizedRMSD -1
REMARK  1 active torsions:
REMARK  status: ('A' for Active; 'I' for Inactive)
REMARK    1  A    between atoms: C1_2  and  C2_3 
ROOT
ATOM      1  C2  UNL d   1       3.196   0.583  -1.467  0.00  0.00    -0.077 A 
ATOM      2  C3  UNL d   1       2.620  -0.695  -1.426  0.00  0.00     0.002 A 
ATOM      3  C4  UNL d   1       1.564  -0.966  -0.554  0.00  0.00     0.002 A 
ATOM      4  C5  UNL d   1       1.072   0.035   0.280  0.00  0.00    -0.004 A 
ATOM      5  C6  UNL d   1       1.639   1.309   0.248  0.00  0.00     0.002 A 
ATOM      6  C7  UNL d   1       2.695   1.582  -0.622  0.00  0.00     0.002 A 
ENDROOT
BRANCH   1   7
ATOM      7  C1  UNL d   1       4.302   0.891  -2.442  0.00  0.00     0.055 C 
ATOM      8  C   UNL d   1       4.158   0.075  -3.719  0.00  0.00     0.019 C 
ENDBRANCH   1   7
TORSDOF 1
ENDMDL
