MODEL 1
REMARK minimizedAffinity -2.69293809
REMARK minimizedRMSD -1
REMARK  1 active torsions:
REMARK  status: ('A' for Active; 'I' for Inactive)
REMARK    1  A    between atoms: C1_2  and  C2_3 
ROOT
ATOM      1  C2  UNL d   1       3.569   0.816  -1.061  0.00  0.00    -0.077 A 
ATOM      2  C3  UNL d   1       3.172  -0.522  -0.923  0.00  0.00     0.002 A 
ATOM      3  C4  UNL d   1       2.035  -0.848  -0.182  0.00  0.00     0.002 A 
ATOM      4  C5  UNL d   1       1.284   0.157   0.424  0.00  0.00    -0.004 A 
ATOM      5  C6  UNL d   1       1.672   1.490   0.294  0.00  0.00     0.002 A 
ATOM      6  C7  UNL d   1       2.809   1.818  -0.446  0.00  0.00     0.002 A 
ENDROOT
BRANCH   1   7
ATOM      7  C1  UNL d   1       4.767   1.174  -1.902  0.00  0.00     0.055 C 
ATOM      8  C   UNL d   1       5.291   2.560  -1.556  0.00  0.00     0.019 C 
ENDBRANCH   1   7
TORSDOF 1
ENDMDL
