MODEL 1
REMARK minimizedAffinity 2.59449983
REMARK minimizedRMSD -1
REMARK  1 active torsions:
REMARK  status: ('A' for Active; 'I' for Inactive)
REMARK    1  A    between atoms: C1_2  and  C2_3 
ROOT
ATOM      1  C2  UNL d   1       3.341   0.866  -0.905  0.00  0.00    -0.077 A 
ATOM      2  C3  UNL d   1       4.388   0.567  -0.022  0.00  0.00     0.002 A 
ATOM      3  C4  UNL d   1       5.666   1.083  -0.243  0.00  0.00     0.002 A 
ATOM      4  C5  UNL d   1       5.909   1.904  -1.342  0.00  0.00    -0.004 A 
ATOM      5  C6  UNL d   1       4.874   2.205  -2.227  0.00  0.00     0.002 A 
ATOM      6  C7  UNL d   1       3.596   1.690  -2.009  0.00  0.00     0.002 A 
ENDROOT
BRANCH   1   7
ATOM      7  C1  UNL d   1       1.950   0.351  -0.643  0.00  0.00     0.055 C 
ATOM      8  C   UNL d   1       1.959  -1.141  -0.347  0.00  0.00     0.019 C 
ENDBRANCH   1   7
TORSDOF 1
ENDMDL
