MODEL 1
REMARK minimizedAffinity -1.85887051
REMARK minimizedRMSD -1
REMARK  1 active torsions:
REMARK  status: ('A' for Active; 'I' for Inactive)
REMARK    1  A    between atoms: C1_2  and  C2_3 
ROOT
ATOM      1  C2  UNL d   1       2.175   0.348  -0.379  0.00  0.00    -0.077 A 
ATOM      2  C3  UNL d   1       1.217  -0.184  -1.253  0.00  0.00     0.002 A 
ATOM      3  C4  UNL d   1       0.483  -1.316  -0.893  0.00  0.00     0.002 A 
ATOM      4  C5  UNL d   1       0.697  -1.923   0.343  0.00  0.00    -0.004 A 
ATOM      5  C6  UNL d   1       1.649  -1.402   1.219  0.00  0.00     0.002 A 
ATOM      6  C7  UNL d   1       2.384  -0.272   0.860  0.00  0.00     0.002 A 
ENDROOT
BRANCH   1   7
ATOM      7  C1  UNL d   1       2.933   1.597  -0.745  0.00  0.00     0.055 C 
ATOM      8  C   UNL d   1       4.436   1.361  -0.719  0.00  0.00     0.019 C 
ENDBRANCH   1   7
TORSDOF 1
ENDMDL
