MODEL 1
REMARK minimizedAffinity -0.315026522
REMARK minimizedRMSD -1
REMARK  1 active torsions:
REMARK  status: ('A' for Active; 'I' for Inactive)
REMARK    1  A    between atoms: C1_2  and  C2_3 
ROOT
ATOM      1  C2  UNL d   1       2.393   0.154  -0.620  0.00  0.00    -0.077 A 
ATOM      2  C3  UNL d   1       2.331  -0.543  -1.835  0.00  0.00     0.002 A 
ATOM      3  C4  UNL d   1       1.966  -1.890  -1.858  0.00  0.00     0.002 A 
ATOM      4  C5  UNL d   1       1.655  -2.551  -0.671  0.00  0.00    -0.004 A 
ATOM      5  C6  UNL d   1       1.716  -1.867   0.542  0.00  0.00     0.002 A 
ATOM      6  C7  UNL d   1       2.082  -0.521   0.568  0.00  0.00     0.002 A 
ENDROOT
BRANCH   1   7
ATOM      7  C1  UNL d   1       2.740   1.620  -0.597  0.00  0.00     0.055 C 
ATOM      8  C   UNL d   1       3.987   1.907  -1.421  0.00  0.00     0.019 C 
ENDBRANCH   1   7
TORSDOF 1
ENDMDL
