MODEL 1
REMARK minimizedAffinity -5.85971737
REMARK minimizedRMSD -1
REMARK  1 active torsions:
REMARK  status: ('A' for Active; 'I' for Inactive)
REMARK    1  A    between atoms: C1_2  and  C2_3 
ROOT
ATOM      1  C2  UNL d   1      -0.114  -0.321  -0.084  0.00  0.00    -0.073 A 
ATOM      2  C3  UNL d   1      -1.210   0.547  -0.141  0.00  0.00    -0.002 A 
ATOM      3  C4  UNL d   1      -1.037   1.915   0.071  0.00  0.00     0.004 A 
ATOM      4  C5  UNL d   1       0.233   2.430   0.336  0.00  0.00    -0.004 A 
ATOM      5  C6  UNL d   1       1.342   1.579   0.385  0.00  0.00    -0.075 A 
ATOM      6  C7  UNL d   1       2.714   2.117   0.670  0.00  0.00     0.076 C 
ATOM      7  C8  UNL d   1       1.160   0.206   0.173  0.00  0.00     0.001 A 
ENDROOT
BRANCH   1   8
ATOM      8  C1  UNL d   1      -0.295  -1.799  -0.320  0.00  0.00     0.053 C 
ATOM      9  C   UNL d   1      -0.237  -2.152  -1.797  0.00  0.00     0.018 C 
ENDBRANCH   1   8
TORSDOF 1
ENDMDL
