MODEL 1
REMARK minimizedAffinity -1.54064453
REMARK minimizedRMSD -1
REMARK  1 active torsions:
REMARK  status: ('A' for Active; 'I' for Inactive)
REMARK    1  A    between atoms: C1_2  and  C2_3 
ROOT
ATOM      1  C2  UNL d   1      -0.327  -1.219   0.069  0.00  0.00    -0.073 A 
ATOM      2  C3  UNL d   1      -1.456  -0.409   0.234  0.00  0.00    -0.002 A 
ATOM      3  C4  UNL d   1      -1.314   0.951   0.511  0.00  0.00     0.004 A 
ATOM      4  C5  UNL d   1      -0.043   1.516   0.618  0.00  0.00    -0.004 A 
ATOM      5  C6  UNL d   1       1.098   0.726   0.445  0.00  0.00    -0.075 A 
ATOM      6  C7  UNL d   1       2.472   1.318   0.559  0.00  0.00     0.076 C 
ATOM      7  C8  UNL d   1       0.946  -0.640   0.170  0.00  0.00     0.001 A 
ENDROOT
BRANCH   1   8
ATOM      8  C1  UNL d   1      -0.476  -2.687  -0.236  0.00  0.00     0.053 C 
ATOM      9  C   UNL d   1      -0.569  -2.952  -1.731  0.00  0.00     0.018 C 
ENDBRANCH   1   8
TORSDOF 1
ENDMDL
