MODEL 1
REMARK minimizedAffinity -4.36008835
REMARK minimizedRMSD -1
REMARK  1 active torsions:
REMARK  status: ('A' for Active; 'I' for Inactive)
REMARK    1  A    between atoms: C1_2  and  C2_3 
ROOT
ATOM      1  C2  UNL d   1       0.166   1.118   0.106  0.00  0.00    -0.073 A 
ATOM      2  C3  UNL d   1      -0.304   2.374   0.508  0.00  0.00    -0.002 A 
ATOM      3  C4  UNL d   1       0.591   3.418   0.743  0.00  0.00     0.004 A 
ATOM      4  C5  UNL d   1       1.961   3.221   0.573  0.00  0.00    -0.004 A 
ATOM      5  C6  UNL d   1       2.449   1.977   0.161  0.00  0.00    -0.075 A 
ATOM      6  C7  UNL d   1       3.920   1.747  -0.025  0.00  0.00     0.076 C 
ATOM      7  C8  UNL d   1       1.544   0.932  -0.071  0.00  0.00     0.001 A 
ENDROOT
BRANCH   1   8
ATOM      8  C1  UNL d   1      -0.797  -0.011  -0.155  0.00  0.00     0.053 C 
ATOM      9  C   UNL d   1      -0.099  -1.362  -0.175  0.00  0.00     0.018 C 
ENDBRANCH   1   8
TORSDOF 1
ENDMDL
