MODEL 1
REMARK minimizedAffinity -4.20707417
REMARK minimizedRMSD -1
REMARK  1 active torsions:
REMARK  status: ('A' for Active; 'I' for Inactive)
REMARK    1  A    between atoms: C1_2  and  C2_3 
ROOT
ATOM      1  C2  UNL d   1       1.251   0.196   0.557  0.00  0.00    -0.073 A 
ATOM      2  C3  UNL d   1       0.565  -1.023   0.498  0.00  0.00    -0.002 A 
ATOM      3  C4  UNL d   1      -0.830  -1.048   0.495  0.00  0.00     0.004 A 
ATOM      4  C5  UNL d   1      -1.553   0.144   0.543  0.00  0.00    -0.004 A 
ATOM      5  C6  UNL d   1      -0.886   1.372   0.590  0.00  0.00    -0.075 A 
ATOM      6  C7  UNL d   1      -1.650   2.663   0.644  0.00  0.00     0.076 C 
ATOM      7  C8  UNL d   1       0.515   1.389   0.596  0.00  0.00     0.001 A 
ENDROOT
BRANCH   1   8
ATOM      8  C1  UNL d   1       2.757   0.228   0.554  0.00  0.00     0.053 C 
ATOM      9  C   UNL d   1       3.300   1.564   1.037  0.00  0.00     0.018 C 
ENDBRANCH   1   8
TORSDOF 1
ENDMDL
