MODEL 1
REMARK minimizedAffinity -4.17118311
REMARK minimizedRMSD -1
REMARK  1 active torsions:
REMARK  status: ('A' for Active; 'I' for Inactive)
REMARK    1  A    between atoms: C1_2  and  C2_3 
ROOT
ATOM      1  C2  UNL d   1      -0.307   0.566   0.730  0.00  0.00    -0.073 A 
ATOM      2  C3  UNL d   1      -0.881   1.834   0.881  0.00  0.00    -0.002 A 
ATOM      3  C4  UNL d   1      -0.072   2.966   0.979  0.00  0.00     0.004 A 
ATOM      4  C5  UNL d   1       1.316   2.845   0.920  0.00  0.00    -0.004 A 
ATOM      5  C6  UNL d   1       1.908   1.588   0.758  0.00  0.00    -0.075 A 
ATOM      6  C7  UNL d   1       3.400   1.440   0.696  0.00  0.00     0.076 C 
ATOM      7  C8  UNL d   1       1.089   0.455   0.663  0.00  0.00     0.001 A 
ENDROOT
BRANCH   1   8
ATOM      8  C1  UNL d   1      -1.177  -0.659   0.618  0.00  0.00     0.053 C 
ATOM      9  C   UNL d   1      -0.376  -1.893   0.230  0.00  0.00     0.018 C 
ENDBRANCH   1   8
TORSDOF 1
ENDMDL
