MODEL 1
REMARK minimizedAffinity -4.85262585
REMARK minimizedRMSD -1
REMARK  1 active torsions:
REMARK  status: ('A' for Active; 'I' for Inactive)
REMARK    1  A    between atoms: C1_2  and  C2_3 
ROOT
ATOM      1  C2  UNL d   1      -0.713  -1.678  -0.976  0.00  0.00    -0.073 A 
ATOM      2  C3  UNL d   1       0.215  -2.372  -1.761  0.00  0.00    -0.002 A 
ATOM      3  C4  UNL d   1      -0.039  -3.687  -2.156  0.00  0.00     0.004 A 
ATOM      4  C5  UNL d   1      -1.224  -4.317  -1.776  0.00  0.00    -0.004 A 
ATOM      5  C6  UNL d   1      -2.169  -3.636  -1.002  0.00  0.00    -0.075 A 
ATOM      6  C7  UNL d   1      -3.447  -4.300  -0.583  0.00  0.00     0.076 C 
ATOM      7  C8  UNL d   1      -1.905  -2.317  -0.607  0.00  0.00     0.001 A 
ENDROOT
BRANCH   1   8
ATOM      8  C1  UNL d   1      -0.445  -0.257  -0.553  0.00  0.00     0.053 C 
ATOM      9  C   UNL d   1      -0.826  -0.013   0.899  0.00  0.00     0.018 C 
ENDBRANCH   1   8
TORSDOF 1
ENDMDL
