MODEL 1
REMARK minimizedAffinity -6.68444729
REMARK minimizedRMSD -1
REMARK  1 active torsions:
REMARK  status: ('A' for Active; 'I' for Inactive)
REMARK    1  A    between atoms: C1_2  and  C2_3 
ROOT
ATOM      1  C2  UNL d   1       0.396   1.135  -0.008  0.00  0.00    -0.073 A 
ATOM      2  C3  UNL d   1       1.575   0.381  -0.000  0.00  0.00    -0.002 A 
ATOM      3  C4  UNL d   1       2.816   1.013   0.082  0.00  0.00     0.004 A 
ATOM      4  C5  UNL d   1       2.891   2.404   0.163  0.00  0.00    -0.004 A 
ATOM      5  C6  UNL d   1       1.724   3.174   0.168  0.00  0.00    -0.075 A 
ATOM      6  C7  UNL d   1       1.788   4.671   0.253  0.00  0.00     0.076 C 
ATOM      7  C8  UNL d   1       0.482   2.532   0.083  0.00  0.00     0.001 A 
ENDROOT
BRANCH   1   8
ATOM      8  C1  UNL d   1      -0.947   0.456  -0.090  0.00  0.00     0.053 C 
ATOM      9  C   UNL d   1      -1.430  -0.017   1.271  0.00  0.00     0.018 C 
ENDBRANCH   1   8
TORSDOF 1
ENDMDL
