MODEL 1
REMARK minimizedAffinity 14.9966602
REMARK minimizedRMSD -1
REMARK  0 active torsions:
REMARK  status: ('A' for Active; 'I' for Inactive)
ROOT
ATOM      1  N1  IND d   1      -4.221   3.699  -0.581  0.00  0.00    -0.196 N 
ATOM      2  C2  IND d   1      -5.114   4.257  -1.454  0.00  0.00     0.054 A 
ATOM      3  C3  IND d   1      -5.856   3.295  -2.046  0.00  0.00    -0.031 A 
ATOM      4  C4  IND d   1      -5.846   0.750  -1.658  0.00  0.00     0.051 A 
ATOM      5  C5  IND d   1      -5.180  -0.234  -0.983  0.00  0.00    -0.031 A 
ATOM      6  C6  IND d   1      -4.141   0.048  -0.120  0.00  0.00     0.015 A 
ATOM      7  C7  IND d   1      -3.735   1.333   0.110  0.00  0.00    -0.016 A 
ATOM      8  C8  IND d   1      -4.405   2.334  -0.579  0.00  0.00    -0.047 A 
ATOM      9  C9  IND d   1      -5.432   2.050  -1.489  0.00  0.00    -0.096 A 
ATOM     10  HN1 IND d   1      -3.643   4.129  -0.112  0.00  0.00     0.298 HD
ENDROOT
TORSDOF 0
ENDMDL
