MODEL 1
REMARK minimizedAffinity 18.7982121
REMARK minimizedRMSD -1
REMARK  0 active torsions:
REMARK  status: ('A' for Active; 'I' for Inactive)
ROOT
ATOM      1  N1  IND d   1       4.473  -0.696   1.767  0.00  0.00    -0.196 N 
ATOM      2  C2  IND d   1       5.378   0.328   1.765  0.00  0.00     0.054 A 
ATOM      3  C3  IND d   1       5.023   1.269   0.862  0.00  0.00    -0.031 A 
ATOM      4  C4  IND d   1       2.941   1.381  -0.649  0.00  0.00     0.051 A 
ATOM      5  C5  IND d   1       1.845   0.658  -1.027  0.00  0.00    -0.031 A 
ATOM      6  C6  IND d   1       1.561  -0.576  -0.480  0.00  0.00     0.015 A 
ATOM      7  C7  IND d   1       2.361  -1.132   0.478  0.00  0.00    -0.016 A 
ATOM      8  C8  IND d   1       3.479  -0.404   0.859  0.00  0.00    -0.047 A 
ATOM      9  C9  IND d   1       3.795   0.830   0.277  0.00  0.00    -0.096 A 
ATOM     10  HN1 IND d   1       4.517  -1.404   2.254  0.00  0.00     0.298 HD
ENDROOT
TORSDOF 0
ENDMDL
