MODEL 1
REMARK minimizedAffinity 11.0267229
REMARK minimizedRMSD -1
REMARK  0 active torsions:
REMARK  status: ('A' for Active; 'I' for Inactive)
ROOT
ATOM      1  N1  IND d   1       4.216   3.572   4.210  0.00  0.00    -0.196 N 
ATOM      2  C2  IND d   1       3.994   3.008   2.984  0.00  0.00     0.054 A 
ATOM      3  C3  IND d   1       2.838   3.467   2.457  0.00  0.00    -0.031 A 
ATOM      4  C4  IND d   1       1.201   5.225   3.384  0.00  0.00     0.051 A 
ATOM      5  C5  IND d   1       0.959   5.996   4.487  0.00  0.00    -0.031 A 
ATOM      6  C6  IND d   1       1.809   6.000   5.574  0.00  0.00     0.015 A 
ATOM      7  C7  IND d   1       2.943   5.239   5.595  0.00  0.00    -0.016 A 
ATOM      8  C8  IND d   1       3.189   4.450   4.480  0.00  0.00    -0.047 A 
ATOM      9  C9  IND d   1       2.308   4.409   3.391  0.00  0.00    -0.096 A 
ATOM     10  HN1 IND d   1       4.884   3.407   4.725  0.00  0.00     0.298 HD
ENDROOT
TORSDOF 0
ENDMDL
