MODEL 1
REMARK minimizedAffinity 11.6956615
REMARK minimizedRMSD -1
REMARK  0 active torsions:
REMARK  status: ('A' for Active; 'I' for Inactive)
ROOT
ATOM      1  N1  IND d   1      -5.597   0.204  -0.597  0.00  0.00    -0.196 N 
ATOM      2  C2  IND d   1      -5.320   1.110   0.388  0.00  0.00     0.054 A 
ATOM      3  C3  IND d   1      -4.009   1.439   0.369  0.00  0.00    -0.031 A 
ATOM      4  C4  IND d   1      -2.158   0.690  -1.256  0.00  0.00     0.051 A 
ATOM      5  C5  IND d   1      -1.920  -0.159  -2.300  0.00  0.00    -0.031 A 
ATOM      6  C6  IND d   1      -2.917  -0.945  -2.843  0.00  0.00     0.015 A 
ATOM      7  C7  IND d   1      -4.197  -0.901  -2.366  0.00  0.00    -0.016 A 
ATOM      8  C8  IND d   1      -4.440  -0.045  -1.302  0.00  0.00    -0.047 A 
ATOM      9  C9  IND d   1      -3.423   0.723  -0.720  0.00  0.00    -0.096 A 
ATOM     10  HN1 IND d   1      -6.365  -0.150  -0.751  0.00  0.00     0.298 HD
ENDROOT
TORSDOF 0
ENDMDL
