MODEL 1
REMARK minimizedAffinity 14.8420553
REMARK minimizedRMSD -1
REMARK  0 active torsions:
REMARK  status: ('A' for Active; 'I' for Inactive)
ROOT
ATOM      1  C1  DEN d   1      -6.000   0.425  -0.275  0.00  0.00     0.130 A 
ATOM      2  C2  DEN d   1      -4.917   0.421   0.704  0.00  0.00    -0.031 A 
ATOM      3  C3  DEN d   1      -3.637   0.384  -0.032  0.00  0.00     0.027 A 
ATOM      4  C4  DEN d   1      -3.229   0.340  -2.578  0.00  0.00     0.027 A 
ATOM      5  C5  DEN d   1      -3.840   0.321  -3.812  0.00  0.00    -0.003 A 
ATOM      6  C6  DEN d   1      -5.202   0.301  -3.953  0.00  0.00     0.001 A 
ATOM      7  C7  DEN d   1      -6.000   0.345  -2.840  0.00  0.00     0.017 A 
ATOM      8  C8  DEN d   1      -5.391   0.357  -1.592  0.00  0.00    -0.094 A 
ATOM      9  C9  DEN d   1      -4.012   0.390  -1.471  0.00  0.00    -0.072 A 
ENDROOT
TORSDOF 0
ENDMDL
