MODEL 1
REMARK minimizedAffinity 11.9501581
REMARK minimizedRMSD -1
REMARK  0 active torsions:
REMARK  status: ('A' for Active; 'I' for Inactive)
ROOT
ATOM      1  C1  DEN d   1       3.557   1.745  -1.281  0.00  0.00     0.130 A 
ATOM      2  C2  DEN d   1       3.706   1.440  -2.702  0.00  0.00    -0.031 A 
ATOM      3  C3  DEN d   1       3.279   0.043  -2.916  0.00  0.00     0.027 A 
ATOM      4  C4  DEN d   1       2.403  -1.668  -1.196  0.00  0.00     0.027 A 
ATOM      5  C5  DEN d   1       2.112  -1.873   0.135  0.00  0.00    -0.003 A 
ATOM      6  C6  DEN d   1       2.313  -0.907   1.084  0.00  0.00     0.001 A 
ATOM      7  C7  DEN d   1       2.776   0.327   0.709  0.00  0.00     0.017 A 
ATOM      8  C8  DEN d   1       3.079   0.539  -0.629  0.00  0.00    -0.094 A 
ATOM      9  C9  DEN d   1       2.858  -0.447  -1.576  0.00  0.00    -0.072 A 
ENDROOT
TORSDOF 0
ENDMDL
