MODEL 1
REMARK minimizedAffinity 5.95450544
REMARK minimizedRMSD -1
REMARK  0 active torsions:
REMARK  status: ('A' for Active; 'I' for Inactive)
ROOT
ATOM      1  C1  DEN d   1      -3.674   4.245   2.254  0.00  0.00     0.130 A 
ATOM      2  C2  DEN d   1      -4.874   3.766   1.573  0.00  0.00    -0.031 A 
ATOM      3  C3  DEN d   1      -5.999   3.835   2.528  0.00  0.00     0.027 A 
ATOM      4  C4  DEN d   1      -6.000   4.638   4.979  0.00  0.00     0.027 A 
ATOM      5  C5  DEN d   1      -5.216   5.127   6.000  0.00  0.00    -0.003 A 
ATOM      6  C6  DEN d   1      -3.868   5.323   5.856  0.00  0.00     0.001 A 
ATOM      7  C7  DEN d   1      -3.270   5.070   4.650  0.00  0.00     0.017 A 
ATOM      8  C8  DEN d   1      -4.053   4.570   3.617  0.00  0.00    -0.094 A 
ATOM      9  C9  DEN d   1      -5.416   4.391   3.779  0.00  0.00    -0.072 A 
ENDROOT
TORSDOF 0
ENDMDL
