MODEL 1
REMARK minimizedAffinity 6.81162214
REMARK minimizedRMSD -1
REMARK  0 active torsions:
REMARK  status: ('A' for Active; 'I' for Inactive)
ROOT
ATOM      1  O1  BZF d   1       2.905  -5.966  -2.896  0.00  0.00    -0.204 OA
ATOM      2  C2  BZF d   1       1.830  -5.954  -3.763  0.00  0.00     0.174 A 
ATOM      3  C3  BZF d   1       0.666  -6.000  -3.084  0.00  0.00    -0.012 A 
ATOM      4  C3A BZF d   1       1.034  -5.950  -1.702  0.00  0.00    -0.107 A 
ATOM      5  C4  BZF d   1       0.319  -5.947  -0.539  0.00  0.00     0.055 A 
ATOM      6  C5  BZF d   1       0.984  -5.966   0.646  0.00  0.00    -0.016 A 
ATOM      7  C6  BZF d   1       2.362  -5.993   0.704  0.00  0.00     0.022 A 
ATOM      8  C7  BZF d   1       3.115  -5.992  -0.423  0.00  0.00     0.029 A 
ATOM      9  C7A BZF d   1       2.446  -5.940  -1.621  0.00  0.00     0.058 A 
ENDROOT
TORSDOF 0
ENDMDL
