MODEL 1
REMARK minimizedAffinity 11.7272329
REMARK minimizedRMSD -1
REMARK  0 active torsions:
REMARK  status: ('A' for Active; 'I' for Inactive)
ROOT
ATOM      1  O1  BZF d   1      -3.476  -0.152  -3.780  0.00  0.00    -0.204 OA
ATOM      2  C2  BZF d   1      -3.715  -0.995  -2.712  0.00  0.00     0.174 A 
ATOM      3  C3  BZF d   1      -4.602  -0.446  -1.857  0.00  0.00    -0.012 A 
ATOM      4  C3A BZF d   1      -5.009   0.779  -2.473  0.00  0.00    -0.107 A 
ATOM      5  C4  BZF d   1      -5.886   1.763  -2.116  0.00  0.00     0.055 A 
ATOM      6  C5  BZF d   1      -5.999   2.865  -2.904  0.00  0.00    -0.016 A 
ATOM      7  C6  BZF d   1      -5.248   3.017  -4.051  0.00  0.00     0.022 A 
ATOM      8  C7  BZF d   1      -4.368   2.066  -4.448  0.00  0.00     0.029 A 
ATOM      9  C7A BZF d   1      -4.276   0.937  -3.672  0.00  0.00     0.058 A 
ENDROOT
TORSDOF 0
ENDMDL
