MODEL 1
REMARK minimizedAffinity 1.65535152
REMARK minimizedRMSD -1
REMARK  0 active torsions:
REMARK  status: ('A' for Active; 'I' for Inactive)
ROOT
ATOM      1  O1  BZF d   1       3.810  -5.966  -1.956  0.00  0.00    -0.204 OA
ATOM      2  C2  BZF d   1       5.109  -5.951  -1.486  0.00  0.00     0.174 A 
ATOM      3  C3  BZF d   1       5.988  -5.996  -2.508  0.00  0.00    -0.012 A 
ATOM      4  C3A BZF d   1       5.189  -5.949  -3.694  0.00  0.00    -0.107 A 
ATOM      5  C4  BZF d   1       5.486  -5.947  -5.027  0.00  0.00     0.055 A 
ATOM      6  C5  BZF d   1       4.471  -5.969  -5.930  0.00  0.00    -0.016 A 
ATOM      7  C6  BZF d   1       3.149  -5.999  -5.536  0.00  0.00     0.022 A 
ATOM      8  C7  BZF d   1       2.805  -5.997  -4.225  0.00  0.00     0.029 A 
ATOM      9  C7A BZF d   1       3.828  -5.942  -3.311  0.00  0.00     0.058 A 
ENDROOT
TORSDOF 0
ENDMDL
