MODEL 1
REMARK minimizedAffinity 1.81362426
REMARK minimizedRMSD -1
REMARK  0 active torsions:
REMARK  status: ('A' for Active; 'I' for Inactive)
ROOT
ATOM      1  O1  BZF d   1       1.259  -1.276   4.292  0.00  0.00    -0.204 OA
ATOM      2  C2  BZF d   1       2.013  -0.665   3.309  0.00  0.00     0.174 A 
ATOM      3  C3  BZF d   1       2.605  -1.583   2.519  0.00  0.00    -0.012 A 
ATOM      4  C3A BZF d   1       2.122  -2.847   2.984  0.00  0.00    -0.107 A 
ATOM      5  C4  BZF d   1       2.336  -4.137   2.590  0.00  0.00     0.055 A 
ATOM      6  C5  BZF d   1       1.769  -5.147   3.300  0.00  0.00    -0.016 A 
ATOM      7  C6  BZF d   1       0.989  -4.905   4.411  0.00  0.00     0.022 A 
ATOM      8  C7  BZF d   1       0.744  -3.642   4.838  0.00  0.00     0.029 A 
ATOM      9  C7A BZF d   1       1.288  -2.617   4.102  0.00  0.00     0.058 A 
ENDROOT
TORSDOF 0
ENDMDL
