MODEL 1
REMARK minimizedAffinity 1.15083945
REMARK minimizedRMSD -1
REMARK  0 active torsions:
REMARK  status: ('A' for Active; 'I' for Inactive)
ROOT
ATOM      1  O1  BZF d   1       0.955  -1.122   4.387  0.00  0.00    -0.204 OA
ATOM      2  C2  BZF d   1       1.155  -2.343   3.772  0.00  0.00     0.174 A 
ATOM      3  C3  BZF d   1       1.858  -2.194   2.631  0.00  0.00    -0.012 A 
ATOM      4  C3A BZF d   1       2.194  -0.805   2.574  0.00  0.00    -0.107 A 
ATOM      5  C4  BZF d   1       2.900  -0.045   1.686  0.00  0.00     0.055 A 
ATOM      6  C5  BZF d   1       2.981   1.297   1.883  0.00  0.00    -0.016 A 
ATOM      7  C6  BZF d   1       2.366   1.912   2.954  0.00  0.00     0.022 A 
ATOM      8  C7  BZF d   1       1.660   1.200   3.865  0.00  0.00     0.029 A 
ATOM      9  C7A BZF d   1       1.603  -0.161   3.686  0.00  0.00     0.058 A 
ENDROOT
TORSDOF 0
ENDMDL
