MODEL 1
REMARK minimizedAffinity 6.15621376
REMARK minimizedRMSD -1
REMARK  0 active torsions:
REMARK  status: ('A' for Active; 'I' for Inactive)
ROOT
ATOM      1  O1  BZF d   1       3.831  -4.756   4.726  0.00  0.00    -0.204 OA
ATOM      2  C2  BZF d   1       4.394  -3.913   5.664  0.00  0.00     0.174 A 
ATOM      3  C3  BZF d   1       3.916  -2.660   5.529  0.00  0.00    -0.012 A 
ATOM      4  C3A BZF d   1       2.929  -2.743   4.497  0.00  0.00    -0.107 A 
ATOM      5  C4  BZF d   1       2.093  -1.829   3.921  0.00  0.00     0.055 A 
ATOM      6  C5  BZF d   1       1.301  -2.217   2.887  0.00  0.00    -0.016 A 
ATOM      7  C6  BZF d   1       1.323  -3.508   2.401  0.00  0.00     0.022 A 
ATOM      8  C7  BZF d   1       2.132  -4.451   2.943  0.00  0.00     0.029 A 
ATOM      9  C7A BZF d   1       2.909  -4.070   4.009  0.00  0.00     0.058 A 
ENDROOT
TORSDOF 0
ENDMDL
