MODEL 1
REMARK minimizedAffinity 8.39675617
REMARK minimizedRMSD -1
REMARK  0 active torsions:
REMARK  status: ('A' for Active; 'I' for Inactive)
ROOT
ATOM      1  O1  BZF d   1      -3.476  -3.653  -2.855  0.00  0.00    -0.204 OA
ATOM      2  C2  BZF d   1      -3.828  -2.530  -2.132  0.00  0.00     0.174 A 
ATOM      3  C3  BZF d   1      -4.775  -1.821  -2.779  0.00  0.00    -0.012 A 
ATOM      4  C3A BZF d   1      -5.099  -2.596  -3.938  0.00  0.00    -0.107 A 
ATOM      5  C4  BZF d   1      -5.982  -2.424  -4.965  0.00  0.00     0.055 A 
ATOM      6  C5  BZF d   1      -6.000  -3.329  -5.978  0.00  0.00    -0.016 A 
ATOM      7  C6  BZF d   1      -5.146  -4.413  -6.000  0.00  0.00     0.022 A 
ATOM      8  C7  BZF d   1      -4.256  -4.627  -5.001  0.00  0.00     0.029 A 
ATOM      9  C7A BZF d   1      -4.258  -3.732  -3.959  0.00  0.00     0.058 A 
ENDROOT
TORSDOF 0
ENDMDL
