MODEL 1
REMARK minimizedAffinity 3.45709634
REMARK minimizedRMSD -1
REMARK  0 active torsions:
REMARK  status: ('A' for Active; 'I' for Inactive)
ROOT
ATOM      1  O1  BZF d   1       5.085  -1.513   2.855  0.00  0.00    -0.204 OA
ATOM      2  C2  BZF d   1       5.976  -2.478   3.283  0.00  0.00     0.174 A 
ATOM      3  C3  BZF d   1       5.322  -3.568   3.733  0.00  0.00    -0.012 A 
ATOM      4  C3A BZF d   1       3.937  -3.302   3.490  0.00  0.00    -0.107 A 
ATOM      5  C4  BZF d   1       2.792  -4.014   3.706  0.00  0.00     0.055 A 
ATOM      6  C5  BZF d   1       1.593  -3.440   3.424  0.00  0.00    -0.016 A 
ATOM      7  C6  BZF d   1       1.502  -2.155   2.930  0.00  0.00     0.022 A 
ATOM      8  C7  BZF d   1       2.611  -1.411   2.695  0.00  0.00     0.029 A 
ATOM      9  C7A BZF d   1       3.825  -2.001   2.948  0.00  0.00     0.058 A 
ENDROOT
TORSDOF 0
ENDMDL
