MODEL 1
REMARK minimizedAffinity 13.6019955
REMARK minimizedRMSD -1
REMARK  0 active torsions:
REMARK  status: ('A' for Active; 'I' for Inactive)
ROOT
ATOM      1  O1  BZF d   1       2.589  -2.483  -1.223  0.00  0.00    -0.204 OA
ATOM      2  C2  BZF d   1       3.186  -1.712  -2.202  0.00  0.00     0.174 A 
ATOM      3  C3  BZF d   1       4.125  -2.420  -2.861  0.00  0.00    -0.012 A 
ATOM      4  C3A BZF d   1       4.050  -3.742  -2.319  0.00  0.00    -0.107 A 
ATOM      5  C4  BZF d   1       4.721  -4.903  -2.578  0.00  0.00     0.055 A 
ATOM      6  C5  BZF d   1       4.460  -6.000  -1.820  0.00  0.00    -0.016 A 
ATOM      7  C6  BZF d   1       3.539  -5.971  -0.793  0.00  0.00     0.022 A 
ATOM      8  C7  BZF d   1       2.845  -4.844  -0.501  0.00  0.00     0.029 A 
ATOM      9  C7A BZF d   1       3.083  -3.742  -1.287  0.00  0.00     0.058 A 
ENDROOT
TORSDOF 0
ENDMDL
