MODEL 1
REMARK minimizedAffinity 5.46497774
REMARK minimizedRMSD -1
REMARK  0 active torsions:
REMARK  status: ('A' for Active; 'I' for Inactive)
ROOT
ATOM      1  O1  BZF d   1       0.657  -1.415   2.815  0.00  0.00    -0.204 OA
ATOM      2  C2  BZF d   1       1.319  -0.259   2.451  0.00  0.00     0.174 A 
ATOM      3  C3  BZF d   1       2.655  -0.431   2.519  0.00  0.00    -0.012 A 
ATOM      4  C3A BZF d   1       2.840  -1.807   2.865  0.00  0.00    -0.107 A 
ATOM      5  C4  BZF d   1       3.945  -2.584   3.064  0.00  0.00     0.055 A 
ATOM      6  C5  BZF d   1       3.782  -3.873   3.463  0.00  0.00    -0.016 A 
ATOM      7  C6  BZF d   1       2.532  -4.414   3.677  0.00  0.00     0.022 A 
ATOM      8  C7  BZF d   1       1.406  -3.684   3.488  0.00  0.00     0.029 A 
ATOM      9  C7A BZF d   1       1.566  -2.391   3.052  0.00  0.00     0.058 A 
ENDROOT
TORSDOF 0
ENDMDL
