MODEL 1
REMARK minimizedAffinity 8.07026291
REMARK minimizedRMSD -1
REMARK  0 active torsions:
REMARK  status: ('A' for Active; 'I' for Inactive)
ROOT
ATOM      1  C   UNL d   1       4.461  -0.290   1.190  0.00  0.00     0.124 A 
ATOM      2  C1  UNL d   1       3.243  -0.441   0.541  0.00  0.00     0.062 A 
ATOM      3  C2  UNL d   1       2.386   0.647   0.400  0.00  0.00     0.162 A 
ATOM      4  C3  UNL d   1       2.743   1.895   0.910  0.00  0.00    -0.034 A 
ATOM      5  C4  UNL d   1       3.969   2.038   1.562  0.00  0.00     0.162 A 
ATOM      6  C5  UNL d   1       4.823   0.948   1.700  0.00  0.00     0.062 A 
ATOM      7  F   UNL d   1       5.998   1.096   2.328  0.00  0.00    -0.097 F 
ATOM      8  F1  UNL d   1       4.344   3.224   2.064  0.00  0.00    -0.096 F 
ATOM      9  I   UNL d   1       1.464   3.523   0.702  0.00  0.00    -0.060 I 
ATOM     10  F2  UNL d   1       1.216   0.472  -0.232  0.00  0.00    -0.096 F 
ATOM     11  F3  UNL d   1       2.891  -1.637   0.048  0.00  0.00    -0.097 F 
ATOM     12  F4  UNL d   1       5.284  -1.339   1.325  0.00  0.00    -0.092 F 
ENDROOT
TORSDOF 0
ENDMDL
