MODEL 1
REMARK minimizedAffinity 6.34111166
REMARK minimizedRMSD -1
REMARK  0 active torsions:
REMARK  status: ('A' for Active; 'I' for Inactive)
ROOT
ATOM      1  C   UNL d   1      -2.777  -3.365  -2.095  0.00  0.00     0.124 A 
ATOM      2  C1  UNL d   1      -2.207  -4.472  -1.482  0.00  0.00     0.062 A 
ATOM      3  C2  UNL d   1      -2.697  -4.925  -0.260  0.00  0.00     0.162 A 
ATOM      4  C3  UNL d   1      -3.765  -4.272   0.355  0.00  0.00    -0.034 A 
ATOM      5  C4  UNL d   1      -4.333  -3.159  -0.267  0.00  0.00     0.162 A 
ATOM      6  C5  UNL d   1      -3.839  -2.710  -1.488  0.00  0.00     0.062 A 
ATOM      7  F   UNL d   1      -4.392  -1.641  -2.079  0.00  0.00    -0.097 F 
ATOM      8  F1  UNL d   1      -5.361  -2.508   0.297  0.00  0.00    -0.096 F 
ATOM      9  I   UNL d   1      -4.501  -4.947   2.181  0.00  0.00    -0.060 I 
ATOM     10  F2  UNL d   1      -2.127  -5.997   0.310  0.00  0.00    -0.096 F 
ATOM     11  F3  UNL d   1      -1.180  -5.106  -2.066  0.00  0.00    -0.097 F 
ATOM     12  F4  UNL d   1      -2.303  -2.930  -3.270  0.00  0.00    -0.092 F 
ENDROOT
TORSDOF 0
ENDMDL
