MODEL 1
REMARK minimizedAffinity 6.07932997
REMARK minimizedRMSD -1
REMARK  0 active torsions:
REMARK  status: ('A' for Active; 'I' for Inactive)
ROOT
ATOM      1  C   UNL d   1       2.093   1.942  -2.824  0.00  0.00     0.124 A 
ATOM      2  C1  UNL d   1       2.916   2.513  -3.785  0.00  0.00     0.062 A 
ATOM      3  C2  UNL d   1       2.453   3.569  -4.564  0.00  0.00     0.162 A 
ATOM      4  C3  UNL d   1       1.160   4.062  -4.385  0.00  0.00    -0.034 A 
ATOM      5  C4  UNL d   1       0.339   3.482  -3.417  0.00  0.00     0.162 A 
ATOM      6  C5  UNL d   1       0.806   2.427  -2.641  0.00  0.00     0.062 A 
ATOM      7  F   UNL d   1       0.010   1.876  -1.713  0.00  0.00    -0.097 F 
ATOM      8  F1  UNL d   1      -0.910   3.932  -3.219  0.00  0.00    -0.096 F 
ATOM      9  I   UNL d   1       0.464   5.642  -5.548  0.00  0.00    -0.060 I 
ATOM     10  F2  UNL d   1       3.269   4.102  -5.486  0.00  0.00    -0.096 F 
ATOM     11  F3  UNL d   1       4.160   2.046  -3.964  0.00  0.00    -0.097 F 
ATOM     12  F4  UNL d   1       2.541   0.925  -2.076  0.00  0.00    -0.092 F 
ENDROOT
TORSDOF 0
ENDMDL
