MODEL 1
REMARK minimizedAffinity 24.8195438
REMARK minimizedRMSD -1
REMARK  0 active torsions:
REMARK  status: ('A' for Active; 'I' for Inactive)
ROOT
ATOM      1  C   UNL d   1       2.827   2.055  -3.074  0.00  0.00     0.124 A 
ATOM      2  C1  UNL d   1       3.495   2.551  -4.186  0.00  0.00     0.062 A 
ATOM      3  C2  UNL d   1       2.990   3.651  -4.872  0.00  0.00     0.162 A 
ATOM      4  C3  UNL d   1       1.811   4.265  -4.448  0.00  0.00    -0.034 A 
ATOM      5  C4  UNL d   1       1.145   3.760  -3.330  0.00  0.00     0.162 A 
ATOM      6  C5  UNL d   1       1.654   2.660  -2.647  0.00  0.00     0.062 A 
ATOM      7  F   UNL d   1       1.008   2.182  -1.573  0.00  0.00    -0.097 F 
ATOM      8  F1  UNL d   1       0.010   4.326  -2.895  0.00  0.00    -0.096 F 
ATOM      9  I   UNL d   1       1.053   5.911  -5.471  0.00  0.00    -0.060 I 
ATOM     10  F2  UNL d   1       3.655   4.109  -5.943  0.00  0.00    -0.096 F 
ATOM     11  F3  UNL d   1       4.628   1.967  -4.601  0.00  0.00    -0.097 F 
ATOM     12  F4  UNL d   1       3.315   0.995  -2.416  0.00  0.00    -0.092 F 
ENDROOT
TORSDOF 0
ENDMDL
