MODEL 1
REMARK minimizedAffinity 10.4184742
REMARK minimizedRMSD -1
REMARK  0 active torsions:
REMARK  status: ('A' for Active; 'I' for Inactive)
ROOT
ATOM      1  C   UNL d   1       2.820  -0.190  -0.122  0.00  0.00     0.124 A 
ATOM      2  C1  UNL d   1       3.546   0.122   1.019  0.00  0.00     0.062 A 
ATOM      3  C2  UNL d   1       3.587   1.432   1.486  0.00  0.00     0.162 A 
ATOM      4  C3  UNL d   1       2.899   2.442   0.813  0.00  0.00    -0.034 A 
ATOM      5  C4  UNL d   1       2.172   2.121  -0.335  0.00  0.00     0.162 A 
ATOM      6  C5  UNL d   1       2.133   0.809  -0.798  0.00  0.00     0.062 A 
ATOM      7  F   UNL d   1       1.431   0.510  -1.900  0.00  0.00    -0.097 F 
ATOM      8  F1  UNL d   1       1.498   3.066  -1.006  0.00  0.00    -0.096 F 
ATOM      9  I   UNL d   1       2.958   4.402   1.508  0.00  0.00    -0.060 I 
ATOM     10  F2  UNL d   1       4.297   1.705   2.591  0.00  0.00    -0.096 F 
ATOM     11  F3  UNL d   1       4.211  -0.841   1.673  0.00  0.00    -0.097 F 
ATOM     12  F4  UNL d   1       2.782  -1.451  -0.570  0.00  0.00    -0.092 F 
ENDROOT
TORSDOF 0
ENDMDL
