MODEL 1
REMARK minimizedAffinity 21.2584896
REMARK minimizedRMSD -1
REMARK  0 active torsions:
REMARK  status: ('A' for Active; 'I' for Inactive)
ROOT
ATOM      1  C   UNL d   1      -5.932  -1.336  -3.611  0.00  0.00     0.124 A 
ATOM      2  C1  UNL d   1      -5.933  -0.559  -4.762  0.00  0.00     0.062 A 
ATOM      3  C2  UNL d   1      -5.953   0.829  -4.669  0.00  0.00     0.162 A 
ATOM      4  C3  UNL d   1      -5.969   1.451  -3.421  0.00  0.00    -0.034 A 
ATOM      5  C4  UNL d   1      -5.969   0.664  -2.268  0.00  0.00     0.162 A 
ATOM      6  C5  UNL d   1      -5.949  -0.724  -2.366  0.00  0.00     0.062 A 
ATOM      7  F   UNL d   1      -5.948  -1.472  -1.253  0.00  0.00    -0.097 F 
ATOM      8  F1  UNL d   1      -5.985   1.229  -1.052  0.00  0.00    -0.096 F 
ATOM      9  I   UNL d   1      -5.998   3.527  -3.278  0.00  0.00    -0.060 I 
ATOM     10  F2  UNL d   1      -5.954   1.555  -5.798  0.00  0.00    -0.096 F 
ATOM     11  F3  UNL d   1      -5.917  -1.148  -5.966  0.00  0.00    -0.097 F 
ATOM     12  F4  UNL d   1      -5.914  -2.672  -3.703  0.00  0.00    -0.092 F 
ENDROOT
TORSDOF 0
ENDMDL
