MODEL 1
REMARK minimizedAffinity 16.3430042
REMARK minimizedRMSD -1
REMARK  0 active torsions:
REMARK  status: ('A' for Active; 'I' for Inactive)
ROOT
ATOM      1  C   UNL d   1       1.770  -2.250   2.531  0.00  0.00     0.124 A 
ATOM      2  C1  UNL d   1       0.600  -1.789   1.944  0.00  0.00     0.062 A 
ATOM      3  C2  UNL d   1       0.631  -0.694   1.086  0.00  0.00     0.162 A 
ATOM      4  C3  UNL d   1       1.838  -0.051   0.809  0.00  0.00    -0.034 A 
ATOM      5  C4  UNL d   1       3.011  -0.520   1.404  0.00  0.00     0.162 A 
ATOM      6  C5  UNL d   1       2.974  -1.616   2.261  0.00  0.00     0.062 A 
ATOM      7  F   UNL d   1       4.105  -2.060   2.827  0.00  0.00    -0.097 F 
ATOM      8  F1  UNL d   1       4.188   0.074   1.160  0.00  0.00    -0.096 F 
ATOM      9  I   UNL d   1       1.890   1.587  -0.473  0.00  0.00    -0.060 I 
ATOM     10  F2  UNL d   1      -0.515  -0.270   0.533  0.00  0.00    -0.096 F 
ATOM     11  F3  UNL d   1      -0.565  -2.400   2.204  0.00  0.00    -0.097 F 
ATOM     12  F4  UNL d   1       1.736  -3.304   3.357  0.00  0.00    -0.092 F 
ENDROOT
TORSDOF 0
ENDMDL
