MODEL 1
REMARK minimizedAffinity 11.758378
REMARK minimizedRMSD -1
REMARK  0 active torsions:
REMARK  status: ('A' for Active; 'I' for Inactive)
ROOT
ATOM      1  C   UNL d   1      -5.933   2.037  -1.794  0.00  0.00     0.124 A 
ATOM      2  C1  UNL d   1      -5.928   0.649  -1.787  0.00  0.00     0.062 A 
ATOM      3  C2  UNL d   1      -5.947  -0.057  -2.987  0.00  0.00     0.162 A 
ATOM      4  C3  UNL d   1      -5.971   0.624  -4.204  0.00  0.00    -0.034 A 
ATOM      5  C4  UNL d   1      -5.976   2.020  -4.202  0.00  0.00     0.162 A 
ATOM      6  C5  UNL d   1      -5.957   2.721  -3.001  0.00  0.00     0.062 A 
ATOM      7  F   UNL d   1      -5.962   4.062  -3.009  0.00  0.00    -0.097 F 
ATOM      8  F1  UNL d   1      -5.999   2.707  -5.354  0.00  0.00    -0.096 F 
ATOM      9  I   UNL d   1      -6.000  -0.427  -6.000  0.00  0.00    -0.060 I 
ATOM     10  F2  UNL d   1      -5.942  -1.398  -2.951  0.00  0.00    -0.096 F 
ATOM     11  F3  UNL d   1      -5.905  -0.015  -0.622  0.00  0.00    -0.097 F 
ATOM     12  F4  UNL d   1      -5.915   2.713  -0.638  0.00  0.00    -0.092 F 
ENDROOT
TORSDOF 0
ENDMDL
