MODEL 1
REMARK minimizedAffinity 10.9458027
REMARK minimizedRMSD -1
REMARK  0 active torsions:
REMARK  status: ('A' for Active; 'I' for Inactive)
ROOT
ATOM      1  C   UNL d   1      -4.382   0.274   3.321  0.00  0.00     0.124 A 
ATOM      2  C1  UNL d   1      -3.966  -0.182   2.078  0.00  0.00     0.062 A 
ATOM      3  C2  UNL d   1      -2.676  -0.678   1.909  0.00  0.00     0.162 A 
ATOM      4  C3  UNL d   1      -1.792  -0.721   2.987  0.00  0.00    -0.034 A 
ATOM      5  C4  UNL d   1      -2.217  -0.259   4.235  0.00  0.00     0.162 A 
ATOM      6  C5  UNL d   1      -3.507   0.235   4.398  0.00  0.00     0.062 A 
ATOM      7  F   UNL d   1      -3.907   0.675   5.600  0.00  0.00    -0.097 F 
ATOM      8  F1  UNL d   1      -1.393  -0.286   5.293  0.00  0.00    -0.096 F 
ATOM      9  I   UNL d   1       0.137  -1.460   2.739  0.00  0.00    -0.060 I 
ATOM     10  F2  UNL d   1      -2.302  -1.111   0.697  0.00  0.00    -0.096 F 
ATOM     11  F3  UNL d   1      -4.809  -0.145   1.035  0.00  0.00    -0.097 F 
ATOM     12  F4  UNL d   1      -5.623   0.751   3.480  0.00  0.00    -0.092 F 
ENDROOT
TORSDOF 0
ENDMDL
