MODEL 1
REMARK minimizedAffinity 28.4878044
REMARK minimizedRMSD -1
REMARK  0 active torsions:
REMARK  status: ('A' for Active; 'I' for Inactive)
ROOT
ATOM      1  C   UNL d   1      -0.248   4.627  -4.892  0.00  0.00     0.124 A 
ATOM      2  C1  UNL d   1      -1.030   4.563  -3.747  0.00  0.00     0.062 A 
ATOM      3  C2  UNL d   1      -0.542   3.944  -2.600  0.00  0.00     0.162 A 
ATOM      4  C3  UNL d   1       0.736   3.385  -2.591  0.00  0.00    -0.034 A 
ATOM      5  C4  UNL d   1       1.516   3.452  -3.747  0.00  0.00     0.162 A 
ATOM      6  C5  UNL d   1       1.024   4.072  -4.891  0.00  0.00     0.062 A 
ATOM      7  F   UNL d   1       1.781   4.133  -5.997  0.00  0.00    -0.097 F 
ATOM      8  F1  UNL d   1       2.749   2.925  -3.774  0.00  0.00    -0.096 F 
ATOM      9  I   UNL d   1       1.470   2.459  -0.878  0.00  0.00    -0.060 I 
ATOM     10  F2  UNL d   1      -1.319   3.897  -1.508  0.00  0.00    -0.096 F 
ATOM     11  F3  UNL d   1      -2.260   5.097  -3.746  0.00  0.00    -0.097 F 
ATOM     12  F4  UNL d   1      -0.721   5.222  -5.995  0.00  0.00    -0.092 F 
ENDROOT
TORSDOF 0
ENDMDL
