MODEL 1
REMARK minimizedAffinity 6.31833315
REMARK minimizedRMSD -1
REMARK  0 active torsions:
REMARK  status: ('A' for Active; 'I' for Inactive)
ROOT
ATOM      1  C   UNL d   1      -3.481  -0.107   3.933  0.00  0.00     0.124 A 
ATOM      2  C1  UNL d   1      -2.372  -0.134   4.768  0.00  0.00     0.062 A 
ATOM      3  C2  UNL d   1      -1.184  -0.713   4.334  0.00  0.00     0.162 A 
ATOM      4  C3  UNL d   1      -1.096  -1.269   3.058  0.00  0.00    -0.034 A 
ATOM      5  C4  UNL d   1      -2.216  -1.239   2.224  0.00  0.00     0.162 A 
ATOM      6  C5  UNL d   1      -3.402  -0.659   2.662  0.00  0.00     0.062 A 
ATOM      7  F   UNL d   1      -4.472  -0.633   1.854  0.00  0.00    -0.097 F 
ATOM      8  F1  UNL d   1      -2.167  -1.764   0.991  0.00  0.00    -0.096 F 
ATOM      9  I   UNL d   1       0.679  -2.136   2.405  0.00  0.00    -0.060 I 
ATOM     10  F2  UNL d   1      -0.128  -0.726   5.162  0.00  0.00    -0.096 F 
ATOM     11  F3  UNL d   1      -2.447   0.398   5.996  0.00  0.00    -0.097 F 
ATOM     12  F4  UNL d   1      -4.624   0.451   4.354  0.00  0.00    -0.092 F 
ENDROOT
TORSDOF 0
ENDMDL
