MODEL 1
REMARK minimizedAffinity 8.20535564
REMARK minimizedRMSD -1
REMARK  0 active torsions:
REMARK  status: ('A' for Active; 'I' for Inactive)
ROOT
ATOM      1  C   UNL d   1      -4.867  -2.628   2.009  0.00  0.00     0.124 A 
ATOM      2  C1  UNL d   1      -4.906  -1.967   3.229  0.00  0.00     0.062 A 
ATOM      3  C2  UNL d   1      -3.811  -1.220   3.655  0.00  0.00     0.162 A 
ATOM      4  C3  UNL d   1      -2.669  -1.129   2.860  0.00  0.00    -0.034 A 
ATOM      5  C4  UNL d   1      -2.637  -1.797   1.635  0.00  0.00     0.162 A 
ATOM      6  C5  UNL d   1      -3.734  -2.542   1.213  0.00  0.00     0.062 A 
ATOM      7  F   UNL d   1      -3.695  -3.180   0.034  0.00  0.00    -0.097 F 
ATOM      8  F1  UNL d   1      -1.555  -1.730   0.846  0.00  0.00    -0.096 F 
ATOM      9  I   UNL d   1      -1.030  -0.013   3.494  0.00  0.00    -0.060 I 
ATOM     10  F2  UNL d   1      -3.876  -0.592   4.839  0.00  0.00    -0.096 F 
ATOM     11  F3  UNL d   1      -6.000  -2.049   4.000  0.00  0.00    -0.097 F 
ATOM     12  F4  UNL d   1      -5.922  -3.346   1.602  0.00  0.00    -0.092 F 
ENDROOT
TORSDOF 0
ENDMDL
