MODEL 1
REMARK minimizedAffinity 8.02773762
REMARK minimizedRMSD -1
REMARK  0 active torsions:
REMARK  status: ('A' for Active; 'I' for Inactive)
ROOT
ATOM      1  C   UNL d   1      -1.293  -0.428   3.866  0.00  0.00     0.124 A 
ATOM      2  C1  UNL d   1      -1.363  -1.319   2.804  0.00  0.00     0.062 A 
ATOM      3  C2  UNL d   1      -2.596  -1.799   2.373  0.00  0.00     0.162 A 
ATOM      4  C3  UNL d   1      -3.770  -1.389   3.005  0.00  0.00    -0.034 A 
ATOM      5  C4  UNL d   1      -3.692  -0.494   4.073  0.00  0.00     0.162 A 
ATOM      6  C5  UNL d   1      -2.457  -0.017   4.499  0.00  0.00     0.062 A 
ATOM      7  F   UNL d   1      -2.391   0.844   5.526  0.00  0.00    -0.097 F 
ATOM      8  F1  UNL d   1      -4.801  -0.078   4.702  0.00  0.00    -0.096 F 
ATOM      9  I   UNL d   1      -5.617  -2.105   2.364  0.00  0.00    -0.060 I 
ATOM     10  F2  UNL d   1      -2.634  -2.659   1.345  0.00  0.00    -0.096 F 
ATOM     11  F3  UNL d   1      -0.239  -1.719   2.191  0.00  0.00    -0.097 F 
ATOM     12  F4  UNL d   1      -0.104   0.031   4.279  0.00  0.00    -0.092 F 
ENDROOT
TORSDOF 0
ENDMDL
