MODEL 1
REMARK minimizedAffinity 13.0588961
REMARK minimizedRMSD -1
REMARK  0 active torsions:
REMARK  status: ('A' for Active; 'I' for Inactive)
ROOT
ATOM      1  C   UNL d   1       3.135   1.683  -2.302  0.00  0.00     0.124 A 
ATOM      2  C1  UNL d   1       3.893   2.564  -3.062  0.00  0.00     0.062 A 
ATOM      3  C2  UNL d   1       3.269   3.548  -3.823  0.00  0.00     0.162 A 
ATOM      4  C3  UNL d   1       1.879   3.657  -3.829  0.00  0.00    -0.034 A 
ATOM      5  C4  UNL d   1       1.123   2.767  -3.063  0.00  0.00     0.162 A 
ATOM      6  C5  UNL d   1       1.752   1.786  -2.304  0.00  0.00     0.062 A 
ATOM      7  F   UNL d   1       1.018   0.936  -1.571  0.00  0.00    -0.097 F 
ATOM      8  F1  UNL d   1      -0.216   2.844  -3.046  0.00  0.00    -0.096 F 
ATOM      9  I   UNL d   1       0.942   5.127  -4.966  0.00  0.00    -0.060 I 
ATOM     10  F2  UNL d   1       4.027   4.385  -4.548  0.00  0.00    -0.096 F 
ATOM     11  F3  UNL d   1       5.231   2.467  -3.063  0.00  0.00    -0.097 F 
ATOM     12  F4  UNL d   1       3.739   0.737  -1.571  0.00  0.00    -0.092 F 
ENDROOT
TORSDOF 0
ENDMDL
