MODEL 1
REMARK minimizedAffinity 12.8206654
REMARK minimizedRMSD -1
REMARK  0 active torsions:
REMARK  status: ('A' for Active; 'I' for Inactive)
ROOT
ATOM      1  C   UNL d   1      -5.970   0.939  -1.470  0.00  0.00     0.124 A 
ATOM      2  C1  UNL d   1      -5.982  -0.444  -1.583  0.00  0.00     0.062 A 
ATOM      3  C2  UNL d   1      -5.989  -1.044  -2.839  0.00  0.00     0.162 A 
ATOM      4  C3  UNL d   1      -5.982  -0.261  -3.993  0.00  0.00    -0.034 A 
ATOM      5  C4  UNL d   1      -5.972   1.130  -3.872  0.00  0.00     0.162 A 
ATOM      6  C5  UNL d   1      -5.965   1.724  -2.614  0.00  0.00     0.062 A 
ATOM      7  F   UNL d   1      -5.954   3.061  -2.507  0.00  0.00    -0.097 F 
ATOM      8  F1  UNL d   1      -5.965   1.913  -4.961  0.00  0.00    -0.096 F 
ATOM      9  I   UNL d   1      -5.992  -1.154  -5.873  0.00  0.00    -0.060 I 
ATOM     10  F2  UNL d   1      -6.000  -2.383  -2.918  0.00  0.00    -0.096 F 
ATOM     11  F3  UNL d   1      -5.988  -1.206  -0.479  0.00  0.00    -0.097 F 
ATOM     12  F4  UNL d   1      -5.965   1.514  -0.261  0.00  0.00    -0.092 F 
ENDROOT
TORSDOF 0
ENDMDL
