MODEL 1
REMARK minimizedAffinity 15.1776295
REMARK minimizedRMSD -1
REMARK  0 active torsions:
REMARK  status: ('A' for Active; 'I' for Inactive)
ROOT
ATOM      1  C   UNL d   1       3.271  -0.032   1.550  0.00  0.00     0.124 A 
ATOM      2  C1  UNL d   1       4.462   0.185   2.228  0.00  0.00     0.062 A 
ATOM      3  C2  UNL d   1       4.842   1.478   2.579  0.00  0.00     0.162 A 
ATOM      4  C3  UNL d   1       4.028   2.563   2.253  0.00  0.00    -0.034 A 
ATOM      5  C4  UNL d   1       2.832   2.336   1.571  0.00  0.00     0.162 A 
ATOM      6  C5  UNL d   1       2.457   1.043   1.222  0.00  0.00     0.062 A 
ATOM      7  F   UNL d   1       1.305   0.834   0.567  0.00  0.00    -0.097 F 
ATOM      8  F1  UNL d   1       2.026   3.357   1.242  0.00  0.00    -0.096 F 
ATOM      9  I   UNL d   1       4.592   4.497   2.776  0.00  0.00    -0.060 I 
ATOM     10  F2  UNL d   1       5.998   1.658   3.234  0.00  0.00    -0.096 F 
ATOM     11  F3  UNL d   1       5.250  -0.852   2.546  0.00  0.00    -0.097 F 
ATOM     12  F4  UNL d   1       2.908  -1.277   1.213  0.00  0.00    -0.092 F 
ENDROOT
TORSDOF 0
ENDMDL
