MODEL 1
REMARK minimizedAffinity 8.98198032
REMARK minimizedRMSD -1
REMARK  0 active torsions:
REMARK  status: ('A' for Active; 'I' for Inactive)
ROOT
ATOM      1  C   UNL d   1      -5.988   1.833  -0.300  0.00  0.00     0.124 A 
ATOM      2  C1  UNL d   1      -5.989   2.836  -1.260  0.00  0.00     0.062 A 
ATOM      3  C2  UNL d   1      -5.991   2.510  -2.613  0.00  0.00     0.162 A 
ATOM      4  C3  UNL d   1      -5.995   1.174  -3.015  0.00  0.00    -0.034 A 
ATOM      5  C4  UNL d   1      -5.994   0.171  -2.044  0.00  0.00     0.162 A 
ATOM      6  C5  UNL d   1      -5.991   0.502  -0.693  0.00  0.00     0.062 A 
ATOM      7  F   UNL d   1      -5.991  -0.468   0.233  0.00  0.00    -0.097 F 
ATOM      8  F1  UNL d   1      -5.997  -1.123  -2.395  0.00  0.00    -0.096 F 
ATOM      9  I   UNL d   1      -5.999   0.682  -5.037  0.00  0.00    -0.060 I 
ATOM     10  F2  UNL d   1      -5.991   3.499  -3.519  0.00  0.00    -0.096 F 
ATOM     11  F3  UNL d   1      -5.985   4.123  -0.883  0.00  0.00    -0.097 F 
ATOM     12  F4  UNL d   1      -5.985   2.150   1.001  0.00  0.00    -0.092 F 
ENDROOT
TORSDOF 0
ENDMDL
