MODEL 1
REMARK minimizedAffinity 10.0230827
REMARK minimizedRMSD -1
REMARK  0 active torsions:
REMARK  status: ('A' for Active; 'I' for Inactive)
ROOT
ATOM      1  O1  BZF d   1       2.071   1.623   0.110  0.00  0.00    -0.204 OA
ATOM      2  C2  BZF d   1       0.902   2.323   0.334  0.00  0.00     0.174 A 
ATOM      3  C3  BZF d   1      -0.175   1.546   0.098  0.00  0.00    -0.012 A 
ATOM      4  C3A BZF d   1       0.355   0.252  -0.208  0.00  0.00    -0.107 A 
ATOM      5  C4  BZF d   1      -0.218  -0.948  -0.517  0.00  0.00     0.055 A 
ATOM      6  C5  BZF d   1       0.582  -2.000  -0.835  0.00  0.00    -0.016 A 
ATOM      7  C6  BZF d   1       1.957  -1.885  -0.859  0.00  0.00     0.022 A 
ATOM      8  C7  BZF d   1       2.571  -0.716  -0.556  0.00  0.00     0.029 A 
ATOM      9  C7A BZF d   1       1.767   0.340  -0.202  0.00  0.00     0.058 A 
ENDROOT
TORSDOF 0
ENDMDL
