MODEL 1
REMARK minimizedAffinity 5.59727192
REMARK minimizedRMSD -1
REMARK  0 active torsions:
REMARK  status: ('A' for Active; 'I' for Inactive)
ROOT
ATOM      1  O1  BZF d   1       3.667   0.351  -1.341  0.00  0.00    -0.204 OA
ATOM      2  C2  BZF d   1       4.507  -0.489  -2.047  0.00  0.00     0.174 A 
ATOM      3  C3  BZF d   1       3.996  -1.736  -2.107  0.00  0.00    -0.012 A 
ATOM      4  C3A BZF d   1       2.716  -1.649  -1.473  0.00  0.00    -0.107 A 
ATOM      5  C4  BZF d   1       1.723  -2.556  -1.236  0.00  0.00     0.055 A 
ATOM      6  C5  BZF d   1       0.630  -2.167  -0.528  0.00  0.00    -0.016 A 
ATOM      7  C6  BZF d   1       0.500  -0.884  -0.038  0.00  0.00     0.022 A 
ATOM      8  C7  BZF d   1       1.457   0.051  -0.252  0.00  0.00     0.029 A 
ATOM      9  C7A BZF d   1       2.547  -0.329  -0.996  0.00  0.00     0.058 A 
ENDROOT
TORSDOF 0
ENDMDL
