MODEL 1
REMARK minimizedAffinity 4.17242956
REMARK minimizedRMSD -1
REMARK  0 active torsions:
REMARK  status: ('A' for Active; 'I' for Inactive)
ROOT
ATOM      1  O1  BZF d   1       2.722   1.471   0.124  0.00  0.00    -0.204 OA
ATOM      2  C2  BZF d   1       4.050   1.473  -0.255  0.00  0.00     0.174 A 
ATOM      3  C3  BZF d   1       4.446   0.236  -0.616  0.00  0.00    -0.012 A 
ATOM      4  C3A BZF d   1       3.269  -0.573  -0.542  0.00  0.00    -0.107 A 
ATOM      5  C4  BZF d   1       3.017  -1.891  -0.796  0.00  0.00     0.055 A 
ATOM      6  C5  BZF d   1       1.775  -2.385  -0.554  0.00  0.00    -0.016 A 
ATOM      7  C6  BZF d   1       0.763  -1.593  -0.053  0.00  0.00     0.022 A 
ATOM      8  C7  BZF d   1       0.963  -0.278   0.211  0.00  0.00     0.029 A 
ATOM      9  C7A BZF d   1       2.209   0.232  -0.064  0.00  0.00     0.058 A 
ENDROOT
TORSDOF 0
ENDMDL
