MODEL 1
REMARK minimizedAffinity 9.65775394
REMARK minimizedRMSD -1
REMARK  0 active torsions:
REMARK  status: ('A' for Active; 'I' for Inactive)
ROOT
ATOM      1  O1  BZF d   1      -2.035  -4.895   5.953  0.00  0.00    -0.204 OA
ATOM      2  C2  BZF d   1      -1.203  -5.998   5.952  0.00  0.00     0.174 A 
ATOM      3  C3  BZF d   1       0.092  -5.621   5.913  0.00  0.00    -0.012 A 
ATOM      4  C3A BZF d   1       0.069  -4.192   5.982  0.00  0.00    -0.107 A 
ATOM      5  C4  BZF d   1       1.046  -3.238   5.999  0.00  0.00     0.055 A 
ATOM      6  C5  BZF d   1       0.688  -1.927   5.997  0.00  0.00    -0.016 A 
ATOM      7  C6  BZF d   1      -0.634  -1.535   5.973  0.00  0.00     0.022 A 
ATOM      8  C7  BZF d   1      -1.638  -2.445   5.960  0.00  0.00     0.029 A 
ATOM      9  C7A BZF d   1      -1.280  -3.771   5.995  0.00  0.00     0.058 A 
ENDROOT
TORSDOF 0
ENDMDL
