MODEL 1
REMARK minimizedAffinity -0.892213106
REMARK minimizedRMSD -1
REMARK  0 active torsions:
REMARK  status: ('A' for Active; 'I' for Inactive)
ROOT
ATOM      1  O1  BZF d   1      -0.450   1.529  -0.414  0.00  0.00    -0.204 OA
ATOM      2  C2  BZF d   1       0.514   2.395   0.064  0.00  0.00     0.174 A 
ATOM      3  C3  BZF d   1       1.621   1.721   0.435  0.00  0.00    -0.012 A 
ATOM      4  C3A BZF d   1       1.366   0.357   0.086  0.00  0.00    -0.107 A 
ATOM      5  C4  BZF d   1       2.096  -0.792   0.193  0.00  0.00     0.055 A 
ATOM      6  C5  BZF d   1       1.529  -1.972  -0.174  0.00  0.00    -0.016 A 
ATOM      7  C6  BZF d   1       0.235  -2.040  -0.644  0.00  0.00     0.022 A 
ATOM      8  C7  BZF d   1      -0.527  -0.926  -0.773  0.00  0.00     0.029 A 
ATOM      9  C7A BZF d   1       0.054   0.272  -0.435  0.00  0.00     0.058 A 
ENDROOT
TORSDOF 0
ENDMDL
