MODEL 1
REMARK minimizedAffinity 15.1153355
REMARK minimizedRMSD -1
REMARK  0 active torsions:
REMARK  status: ('A' for Active; 'I' for Inactive)
ROOT
ATOM      1  O1  BZF d   1       1.589   0.270   2.974  0.00  0.00    -0.204 OA
ATOM      2  C2  BZF d   1       1.538  -0.851   3.780  0.00  0.00     0.174 A 
ATOM      3  C3  BZF d   1       1.553  -1.976   3.036  0.00  0.00    -0.012 A 
ATOM      4  C3A BZF d   1       1.710  -1.531   1.685  0.00  0.00    -0.107 A 
ATOM      5  C4  BZF d   1       1.810  -2.181   0.488  0.00  0.00     0.055 A 
ATOM      6  C5  BZF d   1       1.881  -1.452  -0.656  0.00  0.00    -0.016 A 
ATOM      7  C6  BZF d   1       1.851  -0.073  -0.641  0.00  0.00     0.022 A 
ATOM      8  C7  BZF d   1       1.759   0.617   0.523  0.00  0.00     0.029 A 
ATOM      9  C7A BZF d   1       1.719  -0.117   1.683  0.00  0.00     0.058 A 
ENDROOT
TORSDOF 0
ENDMDL
