MODEL 1
REMARK minimizedAffinity 6.75096464
REMARK minimizedRMSD -1
REMARK  0 active torsions:
REMARK  status: ('A' for Active; 'I' for Inactive)
ROOT
ATOM      1  C   UNL d   1      -0.509  -0.143  -2.061  0.00  0.00     0.078 C 
ATOM      2  C1  UNL d   1      -0.800  -0.555  -0.649  0.00  0.00    -0.077 A 
ATOM      3  C2  UNL d   1      -0.064  -1.573  -0.030  0.00  0.00    -0.001 A 
ATOM      4  C3  UNL d   1      -0.352  -1.954   1.282  0.00  0.00     0.003 A 
ATOM      5  C4  UNL d   1      -1.376  -1.323   1.985  0.00  0.00    -0.005 A 
ATOM      6  C5  UNL d   1      -2.115  -0.310   1.376  0.00  0.00     0.003 A 
ATOM      7  C6  UNL d   1      -1.829   0.072   0.064  0.00  0.00    -0.001 A 
ENDROOT
TORSDOF 0
ENDMDL
