MODEL 1
REMARK minimizedAffinity 9.05927944
REMARK minimizedRMSD -1
REMARK  0 active torsions:
REMARK  status: ('A' for Active; 'I' for Inactive)
ROOT
ATOM      1  C   UNL d   1      -4.339   4.825   0.538  0.00  0.00     0.078 C 
ATOM      2  C1  UNL d   1      -4.926   4.830   1.918  0.00  0.00    -0.077 A 
ATOM      3  C2  UNL d   1      -5.463   6.000   2.469  0.00  0.00    -0.001 A 
ATOM      4  C3  UNL d   1      -5.997   5.992   3.759  0.00  0.00     0.003 A 
ATOM      5  C4  UNL d   1      -5.999   4.818   4.509  0.00  0.00    -0.005 A 
ATOM      6  C5  UNL d   1      -5.465   3.649   3.970  0.00  0.00     0.003 A 
ATOM      7  C6  UNL d   1      -4.930   3.655   2.680  0.00  0.00    -0.001 A 
ENDROOT
TORSDOF 0
ENDMDL
