MODEL 1
REMARK minimizedAffinity 3.48750448
REMARK minimizedRMSD -1
REMARK  0 active torsions:
REMARK  status: ('A' for Active; 'I' for Inactive)
ROOT
ATOM      1  C   UNL d   1       4.156   2.704   5.999  0.00  0.00     0.078 C 
ATOM      2  C1  UNL d   1       4.790   3.851   5.272  0.00  0.00    -0.077 A 
ATOM      3  C2  UNL d   1       4.859   3.869   3.874  0.00  0.00    -0.001 A 
ATOM      4  C3  UNL d   1       5.461   4.939   3.210  0.00  0.00     0.003 A 
ATOM      5  C4  UNL d   1       6.000   5.999   3.937  0.00  0.00    -0.005 A 
ATOM      6  C5  UNL d   1       5.938   5.989   5.329  0.00  0.00     0.003 A 
ATOM      7  C6  UNL d   1       5.336   4.920   5.994  0.00  0.00    -0.001 A 
ENDROOT
TORSDOF 0
ENDMDL
