MODEL 1
REMARK minimizedAffinity 0.212701067
REMARK minimizedRMSD -1
REMARK  0 active torsions:
REMARK  status: ('A' for Active; 'I' for Inactive)
ROOT
ATOM      1  C   UNL d   1      -5.997   4.931   6.000  0.00  0.00     0.078 C 
ATOM      2  C1  UNL d   1      -5.108   4.363   4.934  0.00  0.00    -0.077 A 
ATOM      3  C2  UNL d   1      -3.715   4.460   5.031  0.00  0.00    -0.001 A 
ATOM      4  C3  UNL d   1      -2.899   3.935   4.026  0.00  0.00     0.003 A 
ATOM      5  C4  UNL d   1      -3.468   3.312   2.918  0.00  0.00    -0.005 A 
ATOM      6  C5  UNL d   1      -4.854   3.213   2.812  0.00  0.00     0.003 A 
ATOM      7  C6  UNL d   1      -5.671   3.737   3.815  0.00  0.00    -0.001 A 
ENDROOT
TORSDOF 0
ENDMDL
