MODEL 1
REMARK minimizedAffinity 0.862160861
REMARK minimizedRMSD -1
REMARK  0 active torsions:
REMARK  status: ('A' for Active; 'I' for Inactive)
ROOT
ATOM      1  C   UNL d   1       5.857   1.943   5.999  0.00  0.00     0.078 C 
ATOM      2  C1  UNL d   1       5.573   3.274   5.370  0.00  0.00    -0.077 A 
ATOM      3  C2  UNL d   1       4.895   3.365   4.148  0.00  0.00    -0.001 A 
ATOM      4  C3  UNL d   1       4.647   4.610   3.569  0.00  0.00     0.003 A 
ATOM      5  C4  UNL d   1       5.073   5.775   4.204  0.00  0.00    -0.005 A 
ATOM      6  C5  UNL d   1       5.750   5.695   5.419  0.00  0.00     0.003 A 
ATOM      7  C6  UNL d   1       6.000   4.450   6.000  0.00  0.00    -0.001 A 
ENDROOT
TORSDOF 0
ENDMDL
