MODEL 1
REMARK minimizedAffinity -1.93192112
REMARK minimizedRMSD -1
REMARK  0 active torsions:
REMARK  status: ('A' for Active; 'I' for Inactive)
ROOT
ATOM      1  C   UNL d   1      -2.387   1.506   5.255  0.00  0.00     0.078 C 
ATOM      2  C1  UNL d   1      -3.597   2.351   5.521  0.00  0.00    -0.077 A 
ATOM      3  C2  UNL d   1      -4.880   1.789   5.531  0.00  0.00    -0.001 A 
ATOM      4  C3  UNL d   1      -5.999   2.589   5.770  0.00  0.00     0.003 A 
ATOM      5  C4  UNL d   1      -5.846   3.955   6.000  0.00  0.00    -0.005 A 
ATOM      6  C5  UNL d   1      -4.574   4.523   5.990  0.00  0.00     0.003 A 
ATOM      7  C6  UNL d   1      -3.454   3.725   5.751  0.00  0.00    -0.001 A 
ENDROOT
TORSDOF 0
ENDMDL
