MODEL 1
REMARK minimizedAffinity 4.71190739
REMARK minimizedRMSD -1
REMARK  0 active torsions:
REMARK  status: ('A' for Active; 'I' for Inactive)
ROOT
ATOM      1  C   UNL d   1      -2.728  -2.495   3.185  0.00  0.00     0.078 C 
ATOM      2  C1  UNL d   1      -2.283  -1.881   1.892  0.00  0.00    -0.077 A 
ATOM      3  C2  UNL d   1      -2.944  -0.769   1.357  0.00  0.00    -0.001 A 
ATOM      4  C3  UNL d   1      -2.525  -0.213   0.147  0.00  0.00     0.003 A 
ATOM      5  C4  UNL d   1      -1.444  -0.764  -0.539  0.00  0.00    -0.005 A 
ATOM      6  C5  UNL d   1      -0.782  -1.873  -0.015  0.00  0.00     0.003 A 
ATOM      7  C6  UNL d   1      -1.199  -2.429   1.194  0.00  0.00    -0.001 A 
ENDROOT
TORSDOF 0
ENDMDL
