MODEL 1
REMARK minimizedAffinity -2.02735138
REMARK minimizedRMSD -1
REMARK  0 active torsions:
REMARK  status: ('A' for Active; 'I' for Inactive)
ROOT
ATOM      1  C   UNL d   1      -2.306   3.728  -5.017  0.00  0.00     0.078 C 
ATOM      2  C1  UNL d   1      -3.589   4.485  -4.848  0.00  0.00    -0.077 A 
ATOM      3  C2  UNL d   1      -4.185   4.622  -3.588  0.00  0.00    -0.001 A 
ATOM      4  C3  UNL d   1      -5.385   5.322  -3.447  0.00  0.00     0.003 A 
ATOM      5  C4  UNL d   1      -5.999   5.890  -4.562  0.00  0.00    -0.005 A 
ATOM      6  C5  UNL d   1      -5.414   5.757  -5.819  0.00  0.00     0.003 A 
ATOM      7  C6  UNL d   1      -4.215   5.057  -5.963  0.00  0.00    -0.001 A 
ENDROOT
TORSDOF 0
ENDMDL
