MODEL 1
REMARK minimizedAffinity 2.78776193
REMARK minimizedRMSD -1
REMARK  0 active torsions:
REMARK  status: ('A' for Active; 'I' for Inactive)
ROOT
ATOM      1  C   UNL d   1      -3.701   2.568   3.018  0.00  0.00     0.078 C 
ATOM      2  C1  UNL d   1      -4.505   3.763   3.435  0.00  0.00    -0.077 A 
ATOM      3  C2  UNL d   1      -4.603   4.890   2.608  0.00  0.00    -0.001 A 
ATOM      4  C3  UNL d   1      -5.347   5.999   3.013  0.00  0.00     0.003 A 
ATOM      5  C4  UNL d   1      -5.997   5.994   4.245  0.00  0.00    -0.005 A 
ATOM      6  C5  UNL d   1      -5.903   4.879   5.075  0.00  0.00     0.003 A 
ATOM      7  C6  UNL d   1      -5.160   3.768   4.672  0.00  0.00    -0.001 A 
ENDROOT
TORSDOF 0
ENDMDL
