MODEL 1
REMARK minimizedAffinity 18.1429996
REMARK minimizedRMSD -1
REMARK  0 active torsions:
REMARK  status: ('A' for Active; 'I' for Inactive)
ROOT
ATOM      1  C   UNL d   1      -3.109   0.042   0.957  0.00  0.00     0.078 C 
ATOM      2  C1  UNL d   1      -2.514   1.329   1.447  0.00  0.00    -0.077 A 
ATOM      3  C2  UNL d   1      -2.064   2.303   0.548  0.00  0.00    -0.001 A 
ATOM      4  C3  UNL d   1      -1.503   3.492   1.018  0.00  0.00     0.003 A 
ATOM      5  C4  UNL d   1      -1.387   3.717   2.388  0.00  0.00    -0.005 A 
ATOM      6  C5  UNL d   1      -1.830   2.752   3.290  0.00  0.00     0.003 A 
ATOM      7  C6  UNL d   1      -2.391   1.563   2.822  0.00  0.00    -0.001 A 
ENDROOT
TORSDOF 0
ENDMDL
