MODEL 1
REMARK minimizedAffinity -1.84173679
REMARK minimizedRMSD -1
REMARK  0 active torsions:
REMARK  status: ('A' for Active; 'I' for Inactive)
ROOT
ATOM      1  C   UNL d   1      -1.429   3.088  -4.773  0.00  0.00     0.078 C 
ATOM      2  C1  UNL d   1      -2.539   4.097  -4.791  0.00  0.00    -0.077 A 
ATOM      3  C2  UNL d   1      -3.106   4.523  -5.998  0.00  0.00    -0.001 A 
ATOM      4  C3  UNL d   1      -4.132   5.470  -6.000  0.00  0.00     0.003 A 
ATOM      5  C4  UNL d   1      -4.598   5.999  -4.798  0.00  0.00    -0.005 A 
ATOM      6  C5  UNL d   1      -4.038   5.582  -3.592  0.00  0.00     0.003 A 
ATOM      7  C6  UNL d   1      -3.012   4.635  -3.588  0.00  0.00    -0.001 A 
ENDROOT
TORSDOF 0
ENDMDL
