MODEL 1
REMARK minimizedAffinity 0.513202667
REMARK minimizedRMSD -1
REMARK  0 active torsions:
REMARK  status: ('A' for Active; 'I' for Inactive)
ROOT
ATOM      1  C   UNL d   1      -5.208   5.667   6.000  0.00  0.00     0.078 C 
ATOM      2  C1  UNL d   1      -4.389   4.417   5.872  0.00  0.00    -0.077 A 
ATOM      3  C2  UNL d   1      -4.977   3.153   6.000  0.00  0.00    -0.001 A 
ATOM      4  C3  UNL d   1      -4.200   1.998   5.888  0.00  0.00     0.003 A 
ATOM      5  C4  UNL d   1      -2.831   2.096   5.648  0.00  0.00    -0.005 A 
ATOM      6  C5  UNL d   1      -2.237   3.350   5.521  0.00  0.00     0.003 A 
ATOM      7  C6  UNL d   1      -3.011   4.506   5.633  0.00  0.00    -0.001 A 
ENDROOT
TORSDOF 0
ENDMDL
