MODEL 1
REMARK minimizedAffinity -3.94867849
REMARK minimizedRMSD -1
REMARK  0 active torsions:
REMARK  status: ('A' for Active; 'I' for Inactive)
ROOT
ATOM      1  C   UNL d   1      -0.800  -0.474   0.107  0.00  0.00     0.078 C 
ATOM      2  C1  UNL d   1       0.157  -0.021   1.169  0.00  0.00    -0.077 A 
ATOM      3  C2  UNL d   1       1.539  -0.187   1.012  0.00  0.00    -0.001 A 
ATOM      4  C3  UNL d   1       2.417   0.230   2.013  0.00  0.00     0.003 A 
ATOM      5  C4  UNL d   1       1.924   0.815   3.178  0.00  0.00    -0.005 A 
ATOM      6  C5  UNL d   1       0.551   0.983   3.343  0.00  0.00     0.003 A 
ATOM      7  C6  UNL d   1      -0.329   0.566   2.343  0.00  0.00    -0.001 A 
ENDROOT
TORSDOF 0
ENDMDL
