MODEL 1
REMARK minimizedAffinity 5.69723415
REMARK minimizedRMSD -1
REMARK  0 active torsions:
REMARK  status: ('A' for Active; 'I' for Inactive)
ROOT
ATOM      1  C   UNL d   1       6.000   2.008  -1.787  0.00  0.00     0.078 C 
ATOM      2  C1  UNL d   1       4.978   2.839  -1.070  0.00  0.00    -0.077 A 
ATOM      3  C2  UNL d   1       5.042   3.023   0.317  0.00  0.00    -0.001 A 
ATOM      4  C3  UNL d   1       4.079   3.791   0.973  0.00  0.00     0.003 A 
ATOM      5  C4  UNL d   1       3.043   4.380   0.251  0.00  0.00    -0.005 A 
ATOM      6  C5  UNL d   1       2.969   4.200  -1.129  0.00  0.00     0.003 A 
ATOM      7  C6  UNL d   1       3.932   3.433  -1.787  0.00  0.00    -0.001 A 
ENDROOT
TORSDOF 0
ENDMDL
