MODEL 1
REMARK minimizedAffinity 6.07368898
REMARK minimizedRMSD -1
REMARK  0 active torsions:
REMARK  status: ('A' for Active; 'I' for Inactive)
ROOT
ATOM      1  C   UNL d   1      -0.791  -0.768  -1.866  0.00  0.00     0.078 C 
ATOM      2  C1  UNL d   1      -0.827  -1.142  -0.414  0.00  0.00    -0.077 A 
ATOM      3  C2  UNL d   1      -0.164  -2.283   0.053  0.00  0.00    -0.001 A 
ATOM      4  C3  UNL d   1      -0.215  -2.625   1.406  0.00  0.00     0.003 A 
ATOM      5  C4  UNL d   1      -0.927  -1.830   2.302  0.00  0.00    -0.005 A 
ATOM      6  C5  UNL d   1      -1.591  -0.693   1.846  0.00  0.00     0.003 A 
ATOM      7  C6  UNL d   1      -1.542  -0.350   0.494  0.00  0.00    -0.001 A 
ENDROOT
TORSDOF 0
ENDMDL
