MODEL 1
REMARK minimizedAffinity 3.32668352
REMARK minimizedRMSD -1
REMARK  0 active torsions:
REMARK  status: ('A' for Active; 'I' for Inactive)
ROOT
ATOM      1  C   UNL d   1      -0.128   2.678  -5.011  0.00  0.00     0.078 C 
ATOM      2  C1  UNL d   1      -0.259   1.603  -3.974  0.00  0.00    -0.077 A 
ATOM      3  C2  UNL d   1       0.796   1.311  -3.101  0.00  0.00    -0.001 A 
ATOM      4  C3  UNL d   1       0.664   0.301  -2.146  0.00  0.00     0.003 A 
ATOM      5  C4  UNL d   1      -0.522  -0.425  -2.056  0.00  0.00    -0.005 A 
ATOM      6  C5  UNL d   1      -1.576  -0.143  -2.922  0.00  0.00     0.003 A 
ATOM      7  C6  UNL d   1      -1.446   0.866  -3.877  0.00  0.00    -0.001 A 
ENDROOT
TORSDOF 0
ENDMDL
