MODEL 1
REMARK minimizedAffinity -3.52816987
REMARK minimizedRMSD -1
REMARK  0 active torsions:
REMARK  status: ('A' for Active; 'I' for Inactive)
ROOT
ATOM      1  C   UNL d   1      -2.250   4.091  -5.643  0.00  0.00     0.078 C 
ATOM      2  C1  UNL d   1      -3.560   4.454  -5.010  0.00  0.00    -0.077 A 
ATOM      3  C2  UNL d   1      -4.773   4.059  -5.588  0.00  0.00    -0.001 A 
ATOM      4  C3  UNL d   1      -5.986   4.412  -4.993  0.00  0.00     0.003 A 
ATOM      5  C4  UNL d   1      -5.997   5.163  -3.819  0.00  0.00    -0.005 A 
ATOM      6  C5  UNL d   1      -4.795   5.562  -3.239  0.00  0.00     0.003 A 
ATOM      7  C6  UNL d   1      -3.582   5.210  -3.832  0.00  0.00    -0.001 A 
ENDROOT
TORSDOF 0
ENDMDL
