MODEL 1
REMARK minimizedAffinity -1.61116719
REMARK minimizedRMSD -1
REMARK  0 active torsions:
REMARK  status: ('A' for Active; 'I' for Inactive)
ROOT
ATOM      1  C   UNL d   1      -1.296  -3.651  -0.398  0.00  0.00     0.078 C 
ATOM      2  C1  UNL d   1      -0.949  -2.193  -0.439  0.00  0.00    -0.077 A 
ATOM      3  C2  UNL d   1      -0.142  -1.615   0.548  0.00  0.00    -0.001 A 
ATOM      4  C3  UNL d   1       0.164  -0.254   0.502  0.00  0.00     0.003 A 
ATOM      5  C4  UNL d   1      -0.333   0.541  -0.529  0.00  0.00    -0.005 A 
ATOM      6  C5  UNL d   1      -1.138  -0.025  -1.515  0.00  0.00     0.003 A 
ATOM      7  C6  UNL d   1      -1.446  -1.386  -1.471  0.00  0.00    -0.001 A 
ENDROOT
TORSDOF 0
ENDMDL
