MODEL 1
REMARK minimizedAffinity -2.54137278
REMARK minimizedRMSD -1
REMARK  0 active torsions:
REMARK  status: ('A' for Active; 'I' for Inactive)
ROOT
ATOM      1  C4' PXY d   1      -3.408   0.494   2.175  0.00  0.00     0.077 C 
ATOM      2  C1' PXY d   1       2.131   0.155   0.557  0.00  0.00     0.077 C 
ATOM      3  C1  PXY d   1       0.682   0.239   0.993  0.00  0.00    -0.082 A 
ATOM      4  C2  PXY d   1      -0.278   0.202   0.083  0.00  0.00     0.003 A 
ATOM      5  C3  PXY d   1      -1.593   0.310   0.458  0.00  0.00     0.003 A 
ATOM      6  C4  PXY d   1      -1.931   0.402   1.781  0.00  0.00    -0.082 A 
ATOM      7  C5  PXY d   1      -0.958   0.430   2.716  0.00  0.00     0.003 A 
ATOM      8  C6  PXY d   1       0.372   0.361   2.313  0.00  0.00     0.003 A 
ENDROOT
TORSDOF 0
ENDMDL
