MODEL 1
REMARK minimizedAffinity 0.0214321855
REMARK minimizedRMSD -1
REMARK  0 active torsions:
REMARK  status: ('A' for Active; 'I' for Inactive)
ROOT
ATOM      1  C4' PXY d   1      -1.394   0.177   2.237  0.00  0.00     0.077 C 
ATOM      2  C1' PXY d   1       1.500  -0.177  -2.755  0.00  0.00     0.077 C 
ATOM      3  C1  PXY d   1       0.730  -0.081  -1.453  0.00  0.00    -0.082 A 
ATOM      4  C2  PXY d   1       1.379   0.167  -0.326  0.00  0.00     0.003 A 
ATOM      5  C3  PXY d   1       0.702   0.225   0.865  0.00  0.00     0.003 A 
ATOM      6  C4  PXY d   1      -0.659   0.081   0.897  0.00  0.00    -0.082 A 
ATOM      7  C5  PXY d   1      -1.329  -0.161  -0.250  0.00  0.00     0.003 A 
ATOM      8  C6  PXY d   1      -0.619  -0.258  -1.443  0.00  0.00     0.003 A 
ENDROOT
TORSDOF 0
ENDMDL
