MODEL 1
REMARK minimizedAffinity -3.82777286
REMARK minimizedRMSD -1
REMARK  0 active torsions:
REMARK  status: ('A' for Active; 'I' for Inactive)
ROOT
ATOM      1  C4' PXY d   1      -3.208  -0.474   1.338  0.00  0.00     0.077 C 
ATOM      2  C1' PXY d   1       2.375   1.004   1.103  0.00  0.00     0.077 C 
ATOM      3  C1  PXY d   1       0.913   0.612   1.177  0.00  0.00    -0.082 A 
ATOM      4  C2  PXY d   1       0.243   0.370   0.062  0.00  0.00     0.003 A 
ATOM      5  C3  PXY d   1      -1.088   0.046   0.108  0.00  0.00     0.003 A 
ATOM      6  C4  PXY d   1      -1.728  -0.085   1.312  0.00  0.00    -0.082 A 
ATOM      7  C5  PXY d   1      -1.049   0.150   2.455  0.00  0.00     0.003 A 
ATOM      8  C6  PXY d   1       0.292   0.519   2.384  0.00  0.00     0.003 A 
ENDROOT
TORSDOF 0
ENDMDL
