MODEL 1
REMARK minimizedAffinity -5.15691519
REMARK minimizedRMSD -1
REMARK  0 active torsions:
REMARK  status: ('A' for Active; 'I' for Inactive)
ROOT
ATOM      1  C4' PXY d   1      -1.315  -0.547   3.331  0.00  0.00     0.077 C 
ATOM      2  C1' PXY d   1       0.612   0.595  -1.998  0.00  0.00     0.077 C 
ATOM      3  C1  PXY d   1       0.119   0.292  -0.597  0.00  0.00    -0.082 A 
ATOM      4  C2  PXY d   1      -1.157   0.001  -0.401  0.00  0.00     0.003 A 
ATOM      5  C3  PXY d   1      -1.626  -0.245   0.863  0.00  0.00     0.003 A 
ATOM      6  C4  PXY d   1      -0.771  -0.243   1.932  0.00  0.00    -0.082 A 
ATOM      7  C5  PXY d   1       0.534   0.043   1.740  0.00  0.00     0.003 A 
ATOM      8  C6  PXY d   1       0.983   0.330   0.454  0.00  0.00     0.003 A 
ENDROOT
TORSDOF 0
ENDMDL
