MODEL 1
REMARK minimizedAffinity -2.9541316
REMARK minimizedRMSD -1
REMARK  0 active torsions:
REMARK  status: ('A' for Active; 'I' for Inactive)
ROOT
ATOM      1  C4' PXY d   1      -3.338   0.131   1.251  0.00  0.00     0.077 C 
ATOM      2  C1' PXY d   1       2.410   0.646   0.923  0.00  0.00     0.077 C 
ATOM      3  C1  PXY d   1       0.904   0.507   1.022  0.00  0.00    -0.082 A 
ATOM      4  C2  PXY d   1       0.190   0.334  -0.078  0.00  0.00     0.003 A 
ATOM      5  C3  PXY d   1      -1.177   0.238  -0.011  0.00  0.00     0.003 A 
ATOM      6  C4  PXY d   1      -1.814   0.266   1.201  0.00  0.00    -0.082 A 
ATOM      7  C5  PXY d   1      -1.091   0.432   2.329  0.00  0.00     0.003 A 
ATOM      8  C6  PXY d   1       0.291   0.568   2.235  0.00  0.00     0.003 A 
ENDROOT
TORSDOF 0
ENDMDL
