MODEL 1
REMARK minimizedAffinity -0.456732839
REMARK minimizedRMSD -1
REMARK  0 active torsions:
REMARK  status: ('A' for Active; 'I' for Inactive)
ROOT
ATOM      1  C4' PXY d   1       0.508   0.199   1.040  0.00  0.00     0.077 C 
ATOM      2  C1' PXY d   1       0.685  -1.101  -4.590  0.00  0.00     0.077 C 
ATOM      3  C1  PXY d   1       0.627  -0.754  -3.116  0.00  0.00    -0.082 A 
ATOM      4  C2  PXY d   1       1.748  -0.678  -2.417  0.00  0.00     0.003 A 
ATOM      5  C3  PXY d   1       1.712  -0.397  -1.075  0.00  0.00     0.003 A 
ATOM      6  C4  PXY d   1       0.519  -0.139  -0.454  0.00  0.00    -0.082 A 
ATOM      7  C5  PXY d   1      -0.628  -0.204  -1.162  0.00  0.00     0.003 A 
ATOM      8  C6  PXY d   1      -0.573  -0.532  -2.514  0.00  0.00     0.003 A 
ENDROOT
TORSDOF 0
ENDMDL
