MODEL 1
REMARK minimizedAffinity -2.08439279
REMARK minimizedRMSD -1
REMARK  0 active torsions:
REMARK  status: ('A' for Active; 'I' for Inactive)
ROOT
ATOM      1  C4' PXY d   1       1.300  -0.052  -2.479  0.00  0.00     0.077 C 
ATOM      2  C1' PXY d   1      -0.619   0.552   2.940  0.00  0.00     0.077 C 
ATOM      3  C1  PXY d   1      -0.127   0.389   1.515  0.00  0.00    -0.082 A 
ATOM      4  C2  PXY d   1       1.171   0.299   1.278  0.00  0.00     0.003 A 
ATOM      5  C3  PXY d   1       1.635   0.183  -0.008  0.00  0.00     0.003 A 
ATOM      6  C4  PXY d   1       0.758   0.104  -1.056  0.00  0.00    -0.082 A 
ATOM      7  C5  PXY d   1      -0.569   0.184  -0.821  0.00  0.00     0.003 A 
ATOM      8  C6  PXY d   1      -1.018   0.343   0.488  0.00  0.00     0.003 A 
ENDROOT
TORSDOF 0
ENDMDL
