MODEL 1
REMARK minimizedAffinity -3.63755488
REMARK minimizedRMSD -1
REMARK  0 active torsions:
REMARK  status: ('A' for Active; 'I' for Inactive)
ROOT
ATOM      1  C4' PXY d   1      -0.047  -0.191  -2.653  0.00  0.00     0.077 C 
ATOM      2  C1' PXY d   1       0.052   0.347   3.102  0.00  0.00     0.077 C 
ATOM      3  C1  PXY d   1       0.015   0.198   1.593  0.00  0.00    -0.082 A 
ATOM      4  C2  PXY d   1       1.131   0.333   0.896  0.00  0.00     0.003 A 
ATOM      5  C3  PXY d   1       1.110   0.234  -0.472  0.00  0.00     0.003 A 
ATOM      6  C4  PXY d   1      -0.056  -0.059  -1.127  0.00  0.00    -0.082 A 
ATOM      7  C5  PXY d   1      -1.197  -0.208  -0.422  0.00  0.00     0.003 A 
ATOM      8  C6  PXY d   1      -1.162  -0.063   0.962  0.00  0.00     0.003 A 
ENDROOT
TORSDOF 0
ENDMDL
