MODEL 1
REMARK minimizedAffinity -2.75129747
REMARK minimizedRMSD -1
REMARK  0 active torsions:
REMARK  status: ('A' for Active; 'I' for Inactive)
ROOT
ATOM      1  C4' PXY d   1       1.146   0.274  -2.768  0.00  0.00     0.077 C 
ATOM      2  C1' PXY d   1      -0.145   0.338   2.866  0.00  0.00     0.077 C 
ATOM      3  C1  PXY d   1       0.184   0.312   1.386  0.00  0.00    -0.082 A 
ATOM      4  C2  PXY d   1       1.397   0.649   0.980  0.00  0.00     0.003 A 
ATOM      5  C3  PXY d   1       1.703   0.663  -0.357  0.00  0.00     0.003 A 
ATOM      6  C4  PXY d   1       0.772   0.276  -1.284  0.00  0.00    -0.082 A 
ATOM      7  C5  PXY d   1      -0.465  -0.079  -0.876  0.00  0.00     0.003 A 
ATOM      8  C6  PXY d   1      -0.767  -0.046   0.482  0.00  0.00     0.003 A 
ENDROOT
TORSDOF 0
ENDMDL
