MODEL 1
REMARK minimizedAffinity -2.53259277
REMARK minimizedRMSD -1
REMARK  0 active torsions:
REMARK  status: ('A' for Active; 'I' for Inactive)
ROOT
ATOM      1  C4' PXY d   1      -3.694   0.848   1.047  0.00  0.00     0.077 C 
ATOM      2  C1' PXY d   1       1.947  -0.066   1.918  0.00  0.00     0.077 C 
ATOM      3  C1  PXY d   1       0.465   0.169   1.701  0.00  0.00    -0.082 A 
ATOM      4  C2  PXY d   1      -0.012   0.243   0.469  0.00  0.00     0.003 A 
ATOM      5  C3  PXY d   1      -1.344   0.487   0.255  0.00  0.00     0.003 A 
ATOM      6  C4  PXY d   1      -2.206   0.603   1.313  0.00  0.00    -0.082 A 
ATOM      7  C5  PXY d   1      -1.729   0.517   2.573  0.00  0.00     0.003 A 
ATOM      8  C6  PXY d   1      -0.366   0.311   2.769  0.00  0.00     0.003 A 
ENDROOT
TORSDOF 0
ENDMDL
