MODEL 1
REMARK minimizedAffinity -3.55466676
REMARK minimizedRMSD -1
REMARK  0 active torsions:
REMARK  status: ('A' for Active; 'I' for Inactive)
ROOT
ATOM      1  C4' PXY d   1       1.276  -0.336  -3.003  0.00  0.00     0.077 C 
ATOM      2  C1' PXY d   1       0.141   0.567   2.593  0.00  0.00     0.077 C 
ATOM      3  C1  PXY d   1       0.427   0.324   1.124  0.00  0.00    -0.082 A 
ATOM      4  C2  PXY d   1       1.680   0.288   0.699  0.00  0.00     0.003 A 
ATOM      5  C3  PXY d   1       1.956   0.101  -0.631  0.00  0.00     0.003 A 
ATOM      6  C4  PXY d   1       0.941  -0.103  -1.527  0.00  0.00    -0.082 A 
ATOM      7  C5  PXY d   1      -0.340  -0.078  -1.099  0.00  0.00     0.003 A 
ATOM      8  C6  PXY d   1      -0.600   0.154   0.248  0.00  0.00     0.003 A 
ENDROOT
TORSDOF 0
ENDMDL
