MODEL 1
REMARK minimizedAffinity -2.0168891
REMARK minimizedRMSD -1
REMARK  0 active torsions:
REMARK  status: ('A' for Active; 'I' for Inactive)
ROOT
ATOM      1  C4' PXY d   1       1.083  -0.201  -2.959  0.00  0.00     0.077 C 
ATOM      2  C1' PXY d   1       0.548   0.514   2.752  0.00  0.00     0.077 C 
ATOM      3  C1  PXY d   1       0.676   0.325   1.253  0.00  0.00    -0.082 A 
ATOM      4  C2  PXY d   1       1.821  -0.095   0.742  0.00  0.00     0.003 A 
ATOM      5  C3  PXY d   1       1.964  -0.241  -0.614  0.00  0.00     0.003 A 
ATOM      6  C4  PXY d   1       0.906  -0.005  -1.451  0.00  0.00    -0.082 A 
ATOM      7  C5  PXY d   1      -0.270   0.413  -0.936  0.00  0.00     0.003 A 
ATOM      8  C6  PXY d   1      -0.381   0.594   0.439  0.00  0.00     0.003 A 
ENDROOT
TORSDOF 0
ENDMDL
