MODEL 1
REMARK minimizedAffinity -4.63018179
REMARK minimizedRMSD -1
REMARK  0 active torsions:
REMARK  status: ('A' for Active; 'I' for Inactive)
ROOT
ATOM      1  C4' PXY d   1       0.912   0.469  -1.668  0.00  0.00     0.077 C 
ATOM      2  C1' PXY d   1      -2.705   1.062   2.802  0.00  0.00     0.077 C 
ATOM      3  C1  PXY d   1      -1.747   0.910   1.637  0.00  0.00    -0.082 A 
ATOM      4  C2  PXY d   1      -2.204   0.993   0.399  0.00  0.00     0.003 A 
ATOM      5  C3  PXY d   1      -1.356   0.827  -0.666  0.00  0.00     0.003 A 
ATOM      6  C4  PXY d   1      -0.018   0.625  -0.461  0.00  0.00    -0.082 A 
ATOM      7  C5  PXY d   1       0.458   0.549   0.800  0.00  0.00     0.003 A 
ATOM      8  C6  PXY d   1      -0.425   0.680   1.867  0.00  0.00     0.003 A 
ENDROOT
TORSDOF 0
ENDMDL
