MODEL 1
REMARK minimizedAffinity -2.10447025
REMARK minimizedRMSD -1
REMARK  0 active torsions:
REMARK  status: ('A' for Active; 'I' for Inactive)
ROOT
ATOM      1  C4' PXY d   1      -3.012   0.727   1.777  0.00  0.00     0.077 C 
ATOM      2  C1' PXY d   1       1.089  -0.003  -2.231  0.00  0.00     0.077 C 
ATOM      3  C1  PXY d   1       0.020   0.182  -1.171  0.00  0.00    -0.082 A 
ATOM      4  C2  PXY d   1      -1.232   0.402  -1.537  0.00  0.00     0.003 A 
ATOM      5  C3  PXY d   1      -2.205   0.603  -0.592  0.00  0.00     0.003 A 
ATOM      6  C4  PXY d   1      -1.903   0.525   0.741  0.00  0.00    -0.082 A 
ATOM      7  C5  PXY d   1      -0.629   0.290   1.122  0.00  0.00     0.003 A 
ATOM      8  C6  PXY d   1       0.351   0.130   0.147  0.00  0.00     0.003 A 
ENDROOT
TORSDOF 0
ENDMDL
