MODEL 1
REMARK minimizedAffinity 0.598558009
REMARK minimizedRMSD -1
REMARK  0 active torsions:
REMARK  status: ('A' for Active; 'I' for Inactive)
ROOT
ATOM      1  C4' PXY d   1      -1.033  -0.041   1.258  0.00  0.00     0.077 C 
ATOM      2  C1' PXY d   1       1.974  -0.572  -3.650  0.00  0.00     0.077 C 
ATOM      3  C1  PXY d   1       1.196  -0.433  -2.356  0.00  0.00    -0.082 A 
ATOM      4  C2  PXY d   1      -0.062  -0.838  -2.302  0.00  0.00     0.003 A 
ATOM      5  C3  PXY d   1      -0.790  -0.690  -1.150  0.00  0.00     0.003 A 
ATOM      6  C4  PXY d   1      -0.207  -0.171  -0.025  0.00  0.00    -0.082 A 
ATOM      7  C5  PXY d   1       1.080   0.235  -0.068  0.00  0.00     0.003 A 
ATOM      8  C6  PXY d   1       1.789   0.114  -1.260  0.00  0.00     0.003 A 
ENDROOT
TORSDOF 0
ENDMDL
