MODEL 1
REMARK minimizedAffinity -0.0751806423
REMARK minimizedRMSD -1
REMARK  0 active torsions:
REMARK  status: ('A' for Active; 'I' for Inactive)
ROOT
ATOM      1  C4' PXY d   1       0.977  -1.789  -4.214  0.00  0.00     0.077 C 
ATOM      2  C1' PXY d   1       0.411   0.954   0.843  0.00  0.00     0.077 C 
ATOM      3  C1  PXY d   1       0.556   0.245  -0.490  0.00  0.00    -0.082 A 
ATOM      4  C2  PXY d   1       0.485  -1.075  -0.539  0.00  0.00     0.003 A 
ATOM      5  C3  PXY d   1       0.645  -1.734  -1.731  0.00  0.00     0.003 A 
ATOM      6  C4  PXY d   1       0.827  -1.031  -2.892  0.00  0.00    -0.082 A 
ATOM      7  C5  PXY d   1       0.890   0.317  -2.851  0.00  0.00     0.003 A 
ATOM      8  C6  PXY d   1       0.766   0.964  -1.625  0.00  0.00     0.003 A 
ENDROOT
TORSDOF 0
ENDMDL
