MODEL 1
REMARK minimizedAffinity -1.40872788
REMARK minimizedRMSD -1
REMARK  0 active torsions:
REMARK  status: ('A' for Active; 'I' for Inactive)
ROOT
ATOM      1  C4' PXY d   1       1.215  -0.050  -2.749  0.00  0.00     0.077 C 
ATOM      2  C1' PXY d   1      -0.220   0.499   2.824  0.00  0.00     0.077 C 
ATOM      3  C1  PXY d   1       0.145   0.350   1.360  0.00  0.00    -0.082 A 
ATOM      4  C2  PXY d   1       1.419   0.302   1.005  0.00  0.00     0.003 A 
ATOM      5  C3  PXY d   1       1.767   0.199  -0.318  0.00  0.00     0.003 A 
ATOM      6  C4  PXY d   1       0.800   0.091  -1.282  0.00  0.00    -0.082 A 
ATOM      7  C5  PXY d   1      -0.501   0.128  -0.926  0.00  0.00     0.003 A 
ATOM      8  C6  PXY d   1      -0.834   0.274   0.417  0.00  0.00     0.003 A 
ENDROOT
TORSDOF 0
ENDMDL
