MODEL 1
REMARK minimizedAffinity -1.97994351
REMARK minimizedRMSD -1
REMARK  0 active torsions:
REMARK  status: ('A' for Active; 'I' for Inactive)
ROOT
ATOM      1  C4' PXY d   1      -3.354   0.745   1.115  0.00  0.00     0.077 C 
ATOM      2  C1' PXY d   1       2.358  -0.138   1.032  0.00  0.00     0.077 C 
ATOM      3  C1  PXY d   1       0.859   0.088   1.066  0.00  0.00    -0.082 A 
ATOM      4  C2  PXY d   1       0.189   0.201  -0.070  0.00  0.00     0.003 A 
ATOM      5  C3  PXY d   1      -1.161   0.438  -0.058  0.00  0.00     0.003 A 
ATOM      6  C4  PXY d   1      -1.842   0.507   1.129  0.00  0.00    -0.082 A 
ATOM      7  C5  PXY d   1      -1.167   0.382   2.291  0.00  0.00     0.003 A 
ATOM      8  C6  PXY d   1       0.210   0.183   2.258  0.00  0.00     0.003 A 
ENDROOT
TORSDOF 0
ENDMDL
