MODEL 1
REMARK minimizedAffinity -3.76484847
REMARK minimizedRMSD -1
REMARK  0 active torsions:
REMARK  status: ('A' for Active; 'I' for Inactive)
ROOT
ATOM      1  C4' PXY d   1       0.716  -0.133  -2.782  0.00  0.00     0.077 C 
ATOM      2  C1' PXY d   1      -0.267   0.196   2.905  0.00  0.00     0.077 C 
ATOM      3  C1  PXY d   1      -0.022   0.106   1.412  0.00  0.00    -0.082 A 
ATOM      4  C2  PXY d   1       1.207  -0.088   0.961  0.00  0.00     0.003 A 
ATOM      5  C3  PXY d   1       1.451  -0.140  -0.387  0.00  0.00     0.003 A 
ATOM      6  C4  PXY d   1       0.420  -0.045  -1.282  0.00  0.00    -0.082 A 
ATOM      7  C5  PXY d   1      -0.838   0.142  -0.830  0.00  0.00     0.003 A 
ATOM      8  C6  PXY d   1      -1.060   0.234   0.541  0.00  0.00     0.003 A 
ENDROOT
TORSDOF 0
ENDMDL
