MODEL 1
REMARK minimizedAffinity -3.25922656
REMARK minimizedRMSD -1
REMARK  2 active torsions:
REMARK  status: ('A' for Active; 'I' for Inactive)
REMARK    1  A    between atoms: C1_2  and  C2_3 
REMARK    2  A    between atoms: C2_3  and  C3_4 
ROOT
ATOM      1  C3  UNL d   1       5.576  -4.346   3.414  0.00  0.00    -0.075 A 
ATOM      2  C4  UNL d   1       5.526  -4.712   4.767  0.00  0.00     0.002 A 
ATOM      3  C5  UNL d   1       5.165  -3.779   5.740  0.00  0.00     0.002 A 
ATOM      4  C6  UNL d   1       4.860  -2.470   5.376  0.00  0.00    -0.004 A 
ATOM      5  C7  UNL d   1       4.922  -2.091   4.037  0.00  0.00     0.002 A 
ATOM      6  C8  UNL d   1       5.279  -3.023   3.060  0.00  0.00     0.002 A 
ENDROOT
BRANCH   1   7
ATOM      7  C2  UNL d   1       5.937  -5.357   2.353  0.00  0.00     0.056 C 
BRANCH   7   8
ATOM      8  C1  UNL d   1       5.956  -4.789   0.930  0.00  0.00     0.007 C 
ATOM      9  C   UNL d   1       5.997  -5.866  -0.146  0.00  0.00     0.009 C 
ENDBRANCH   7   8
ENDBRANCH   1   7
TORSDOF 2
ENDMDL
