MODEL 1
REMARK minimizedAffinity -2.45495462
REMARK minimizedRMSD -1
REMARK  2 active torsions:
REMARK  status: ('A' for Active; 'I' for Inactive)
REMARK    1  A    between atoms: C1_2  and  C2_3 
REMARK    2  A    between atoms: C2_3  and  C3_4 
ROOT
ATOM      1  C3  UNL d   1       5.798  -3.256   3.190  0.00  0.00    -0.075 A 
ATOM      2  C4  UNL d   1       5.901  -4.432   3.948  0.00  0.00     0.002 A 
ATOM      3  C5  UNL d   1       5.874  -4.381   5.342  0.00  0.00     0.002 A 
ATOM      4  C6  UNL d   1       5.753  -3.156   5.995  0.00  0.00    -0.004 A 
ATOM      5  C7  UNL d   1       5.666  -1.980   5.253  0.00  0.00     0.002 A 
ATOM      6  C8  UNL d   1       5.689  -2.029   3.858  0.00  0.00     0.002 A 
ENDROOT
BRANCH   1   7
ATOM      7  C2  UNL d   1       5.797  -3.307   1.681  0.00  0.00     0.056 C 
BRANCH   7   8
ATOM      8  C1  UNL d   1       5.998  -4.713   1.104  0.00  0.00     0.007 C 
ATOM      9  C   UNL d   1       5.999  -4.742  -0.418  0.00  0.00     0.009 C 
ENDBRANCH   7   8
ENDBRANCH   1   7
TORSDOF 2
ENDMDL
