MODEL 1
REMARK minimizedAffinity -1.45956421
REMARK minimizedRMSD -1
REMARK  2 active torsions:
REMARK  status: ('A' for Active; 'I' for Inactive)
REMARK    1  A    between atoms: C1_2  and  C2_3 
REMARK    2  A    between atoms: C2_3  and  C3_4 
ROOT
ATOM      1  C3  UNL d   1       5.982  -4.806   3.445  0.00  0.00    -0.075 A 
ATOM      2  C4  UNL d   1       5.981  -3.410   3.573  0.00  0.00     0.002 A 
ATOM      3  C5  UNL d   1       5.975  -2.595   2.440  0.00  0.00     0.002 A 
ATOM      4  C6  UNL d   1       5.981  -3.165   1.169  0.00  0.00    -0.004 A 
ATOM      5  C7  UNL d   1       5.998  -4.551   1.030  0.00  0.00     0.002 A 
ATOM      6  C8  UNL d   1       6.000  -5.368   2.162  0.00  0.00     0.002 A 
ENDROOT
BRANCH   1   7
ATOM      7  C2  UNL d   1       5.959  -5.693   4.667  0.00  0.00     0.056 C 
BRANCH   7   8
ATOM      8  C1  UNL d   1       4.560  -5.906   5.257  0.00  0.00     0.007 C 
ATOM      9  C   UNL d   1       3.470  -5.998   4.197  0.00  0.00     0.009 C 
ENDBRANCH   7   8
ENDBRANCH   1   7
TORSDOF 2
ENDMDL
