MODEL 1
REMARK minimizedAffinity -2.95297551
REMARK minimizedRMSD -1
REMARK  2 active torsions:
REMARK  status: ('A' for Active; 'I' for Inactive)
REMARK    1  A    between atoms: C1_2  and  C2_3 
REMARK    2  A    between atoms: C2_3  and  C3_4 
ROOT
ATOM      1  C3  UNL d   1       5.918  -4.372   4.037  0.00  0.00    -0.075 A 
ATOM      2  C4  UNL d   1       5.961  -2.976   4.166  0.00  0.00     0.002 A 
ATOM      3  C5  UNL d   1       5.997  -2.160   3.035  0.00  0.00     0.002 A 
ATOM      4  C6  UNL d   1       6.000  -2.728   1.763  0.00  0.00    -0.004 A 
ATOM      5  C7  UNL d   1       5.973  -4.114   1.623  0.00  0.00     0.002 A 
ATOM      6  C8  UNL d   1       5.933  -4.932   2.753  0.00  0.00     0.002 A 
ENDROOT
BRANCH   1   7
ATOM      7  C2  UNL d   1       5.849  -5.259   5.257  0.00  0.00     0.056 C 
BRANCH   7   8
ATOM      8  C1  UNL d   1       4.505  -5.210   5.989  0.00  0.00     0.007 C 
ATOM      9  C   UNL d   1       3.390  -5.936   5.249  0.00  0.00     0.009 C 
ENDBRANCH   7   8
ENDBRANCH   1   7
TORSDOF 2
ENDMDL
