MODEL 1
REMARK minimizedAffinity -2.6207881
REMARK minimizedRMSD -1
REMARK  2 active torsions:
REMARK  status: ('A' for Active; 'I' for Inactive)
REMARK    1  A    between atoms: C1_2  and  C2_3 
REMARK    2  A    between atoms: C2_3  and  C3_4 
ROOT
ATOM      1  C3  UNL d   1       5.974  -3.816   3.981  0.00  0.00    -0.075 A 
ATOM      2  C4  UNL d   1       5.987  -2.561   3.357  0.00  0.00     0.002 A 
ATOM      3  C5  UNL d   1       5.991  -2.462   1.965  0.00  0.00     0.002 A 
ATOM      4  C6  UNL d   1       5.993  -3.614   1.182  0.00  0.00    -0.004 A 
ATOM      5  C7  UNL d   1       5.997  -4.867   1.792  0.00  0.00     0.002 A 
ATOM      6  C8  UNL d   1       5.989  -4.969   3.184  0.00  0.00     0.002 A 
ENDROOT
BRANCH   1   7
ATOM      7  C2  UNL d   1       5.940  -3.930   5.487  0.00  0.00     0.056 C 
BRANCH   7   8
ATOM      8  C1  UNL d   1       5.709  -5.355   6.000  0.00  0.00     0.007 C 
ATOM      9  C   UNL d   1       4.242  -5.764   6.000  0.00  0.00     0.009 C 
ENDBRANCH   7   8
ENDBRANCH   1   7
TORSDOF 2
ENDMDL
