MODEL 1
REMARK minimizedAffinity -0.00139486103
REMARK minimizedRMSD -1
REMARK  2 active torsions:
REMARK  status: ('A' for Active; 'I' for Inactive)
REMARK    1  A    between atoms: C1_2  and  C2_3 
REMARK    2  A    between atoms: C2_3  and  C3_4 
ROOT
ATOM      1  C3  UNL d   1       5.899  -4.385   3.745  0.00  0.00    -0.075 A 
ATOM      2  C4  UNL d   1       5.812  -3.215   4.513  0.00  0.00     0.002 A 
ATOM      3  C5  UNL d   1       5.803  -1.963   3.897  0.00  0.00     0.002 A 
ATOM      4  C6  UNL d   1       5.891  -1.865   2.510  0.00  0.00    -0.004 A 
ATOM      5  C7  UNL d   1       5.995  -3.020   1.739  0.00  0.00     0.002 A 
ATOM      6  C8  UNL d   1       6.000  -4.274   2.352  0.00  0.00     0.002 A 
ENDROOT
BRANCH   1   7
ATOM      7  C2  UNL d   1       5.879  -5.744   4.404  0.00  0.00     0.056 C 
BRANCH   7   8
ATOM      8  C1  UNL d   1       4.643  -5.998   5.272  0.00  0.00     0.007 C 
ATOM      9  C   UNL d   1       3.339  -5.954   4.488  0.00  0.00     0.009 C 
ENDBRANCH   7   8
ENDBRANCH   1   7
TORSDOF 2
ENDMDL
