MODEL 1
REMARK minimizedAffinity -3.26389146
REMARK minimizedRMSD -1
REMARK  2 active torsions:
REMARK  status: ('A' for Active; 'I' for Inactive)
REMARK    1  A    between atoms: C1_2  and  C2_3 
REMARK    2  A    between atoms: C2_3  and  C3_4 
ROOT
ATOM      1  C3  UNL d   1       5.916  -3.657   3.596  0.00  0.00    -0.075 A 
ATOM      2  C4  UNL d   1       5.933  -2.306   3.222  0.00  0.00     0.002 A 
ATOM      3  C5  UNL d   1       5.969  -1.945   1.875  0.00  0.00     0.002 A 
ATOM      4  C6  UNL d   1       5.999  -2.927   0.887  0.00  0.00    -0.004 A 
ATOM      5  C7  UNL d   1       5.999  -4.273   1.249  0.00  0.00     0.002 A 
ATOM      6  C8  UNL d   1       5.958  -4.637   2.596  0.00  0.00     0.002 A 
ENDROOT
BRANCH   1   7
ATOM      7  C2  UNL d   1       5.847  -4.055   5.052  0.00  0.00     0.056 C 
BRANCH   7   8
ATOM      8  C1  UNL d   1       5.419  -2.920   5.988  0.00  0.00     0.007 C 
ATOM      9  C   UNL d   1       3.920  -2.656   5.966  0.00  0.00     0.009 C 
ENDBRANCH   7   8
ENDBRANCH   1   7
TORSDOF 2
ENDMDL
