MODEL 1
REMARK minimizedAffinity -1.40193129
REMARK minimizedRMSD -1
REMARK  2 active torsions:
REMARK  status: ('A' for Active; 'I' for Inactive)
REMARK    1  A    between atoms: C1_2  and  C2_3 
REMARK    2  A    between atoms: C2_3  and  C3_4 
ROOT
ATOM      1  C3  UNL d   1       5.529  -4.383   4.155  0.00  0.00    -0.075 A 
ATOM      2  C4  UNL d   1       5.863  -5.425   3.278  0.00  0.00     0.002 A 
ATOM      3  C5  UNL d   1       5.999  -5.183   1.910  0.00  0.00     0.002 A 
ATOM      4  C6  UNL d   1       5.792  -3.903   1.403  0.00  0.00    -0.004 A 
ATOM      5  C7  UNL d   1       5.444  -2.864   2.263  0.00  0.00     0.002 A 
ATOM      6  C8  UNL d   1       5.312  -3.102   3.632  0.00  0.00     0.002 A 
ENDROOT
BRANCH   1   7
ATOM      7  C2  UNL d   1       5.410  -4.632   5.640  0.00  0.00     0.056 C 
BRANCH   7   8
ATOM      8  C1  UNL d   1       4.802  -5.992   5.998  0.00  0.00     0.007 C 
ATOM      9  C   UNL d   1       3.280  -6.000   5.952  0.00  0.00     0.009 C 
ENDBRANCH   7   8
ENDBRANCH   1   7
TORSDOF 2
ENDMDL
