MODEL 1
REMARK minimizedAffinity -2.65000486
REMARK minimizedRMSD -1
REMARK  2 active torsions:
REMARK  status: ('A' for Active; 'I' for Inactive)
REMARK    1  A    between atoms: C1_2  and  C2_3 
REMARK    2  A    between atoms: C2_3  and  C3_4 
ROOT
ATOM      1  C3  UNL d   1       5.973  -3.774   4.181  0.00  0.00    -0.075 A 
ATOM      2  C4  UNL d   1       5.956  -2.442   3.745  0.00  0.00     0.002 A 
ATOM      3  C5  UNL d   1       5.943  -2.142   2.382  0.00  0.00     0.002 A 
ATOM      4  C6  UNL d   1       5.957  -3.169   1.440  0.00  0.00    -0.004 A 
ATOM      5  C7  UNL d   1       5.991  -4.496   1.862  0.00  0.00     0.002 A 
ATOM      6  C8  UNL d   1       5.999  -4.799   3.225  0.00  0.00     0.002 A 
ENDROOT
BRANCH   1   7
ATOM      7  C2  UNL d   1       5.957  -4.105   5.654  0.00  0.00     0.056 C 
BRANCH   7   8
ATOM      8  C1  UNL d   1       5.722  -5.589   5.957  0.00  0.00     0.007 C 
ATOM      9  C   UNL d   1       4.247  -5.967   5.999  0.00  0.00     0.009 C 
ENDBRANCH   7   8
ENDBRANCH   1   7
TORSDOF 2
ENDMDL
