MODEL 1
REMARK minimizedAffinity -1.74980402
REMARK minimizedRMSD -1
REMARK  2 active torsions:
REMARK  status: ('A' for Active; 'I' for Inactive)
REMARK    1  A    between atoms: C1_2  and  C2_3 
REMARK    2  A    between atoms: C2_3  and  C3_4 
ROOT
ATOM      1  C3  UNL d   1       5.722  -4.374   3.724  0.00  0.00    -0.075 A 
ATOM      2  C4  UNL d   1       5.185  -4.895   4.911  0.00  0.00     0.002 A 
ATOM      3  C5  UNL d   1       4.909  -4.057   5.991  0.00  0.00     0.002 A 
ATOM      4  C6  UNL d   1       5.174  -2.693   5.904  0.00  0.00    -0.004 A 
ATOM      5  C7  UNL d   1       5.722  -2.166   4.737  0.00  0.00     0.002 A 
ATOM      6  C8  UNL d   1       5.996  -3.001   3.652  0.00  0.00     0.002 A 
ENDROOT
BRANCH   1   7
ATOM      7  C2  UNL d   1       5.996  -5.270   2.541  0.00  0.00     0.056 C 
BRANCH   7   8
ATOM      8  C1  UNL d   1       5.934  -4.553   1.188  0.00  0.00     0.007 C 
ATOM      9  C   UNL d   1       6.000  -5.505   0.001  0.00  0.00     0.009 C 
ENDBRANCH   7   8
ENDBRANCH   1   7
TORSDOF 2
ENDMDL
