MODEL 1
REMARK minimizedAffinity -2.766361
REMARK minimizedRMSD -1
REMARK  2 active torsions:
REMARK  status: ('A' for Active; 'I' for Inactive)
REMARK    1  A    between atoms: C1_2  and  C2_3 
REMARK    2  A    between atoms: C2_3  and  C3_4 
ROOT
ATOM      1  C3  UNL d   1       5.945  -3.330   4.006  0.00  0.00    -0.075 A 
ATOM      2  C4  UNL d   1       5.907  -1.957   3.724  0.00  0.00     0.002 A 
ATOM      3  C5  UNL d   1       5.899  -1.505   2.404  0.00  0.00     0.002 A 
ATOM      4  C6  UNL d   1       5.940  -2.417   1.352  0.00  0.00    -0.004 A 
ATOM      5  C7  UNL d   1       5.994  -3.783   1.620  0.00  0.00     0.002 A 
ATOM      6  C8  UNL d   1       5.998  -4.238   2.940  0.00  0.00     0.002 A 
ENDROOT
BRANCH   1   7
ATOM      7  C2  UNL d   1       5.924  -3.827   5.432  0.00  0.00     0.056 C 
BRANCH   7   8
ATOM      8  C1  UNL d   1       4.517  -4.080   5.983  0.00  0.00     0.007 C 
ATOM      9  C   UNL d   1       4.135  -5.554   6.000  0.00  0.00     0.009 C 
ENDBRANCH   7   8
ENDBRANCH   1   7
TORSDOF 2
ENDMDL
