MODEL 1
REMARK minimizedAffinity -2.45309019
REMARK minimizedRMSD -1
REMARK  2 active torsions:
REMARK  status: ('A' for Active; 'I' for Inactive)
REMARK    1  A    between atoms: C1_2  and  C2_3 
REMARK    2  A    between atoms: C2_3  and  C3_4 
ROOT
ATOM      1  C3  UNL d   1       5.246  -4.873   3.664  0.00  0.00    -0.075 A 
ATOM      2  C4  UNL d   1       3.898  -5.258   3.658  0.00  0.00     0.002 A 
ATOM      3  C5  UNL d   1       3.310  -5.795   4.804  0.00  0.00     0.002 A 
ATOM      4  C6  UNL d   1       4.062  -5.963   5.964  0.00  0.00    -0.004 A 
ATOM      5  C7  UNL d   1       5.407  -5.599   5.976  0.00  0.00     0.002 A 
ATOM      6  C8  UNL d   1       5.997  -5.058   4.833  0.00  0.00     0.002 A 
ENDROOT
BRANCH   1   7
ATOM      7  C2  UNL d   1       5.881  -4.264   2.437  0.00  0.00     0.056 C 
BRANCH   7   8
ATOM      8  C1  UNL d   1       6.000  -2.737   2.488  0.00  0.00     0.007 C 
ATOM      9  C   UNL d   1       5.285  -2.120   3.682  0.00  0.00     0.009 C 
ENDBRANCH   7   8
ENDBRANCH   1   7
TORSDOF 2
ENDMDL
