MODEL 1
REMARK minimizedAffinity -3.50171876
REMARK minimizedRMSD -1
REMARK  2 active torsions:
REMARK  status: ('A' for Active; 'I' for Inactive)
REMARK    1  A    between atoms: C1_2  and  C2_3 
REMARK    2  A    between atoms: C2_3  and  C3_4 
ROOT
ATOM      1  C3  UNL d   1       5.819  -4.759   3.763  0.00  0.00    -0.075 A 
ATOM      2  C4  UNL d   1       5.901  -4.855   2.366  0.00  0.00     0.002 A 
ATOM      3  C5  UNL d   1       5.981  -3.706   1.580  0.00  0.00     0.002 A 
ATOM      4  C6  UNL d   1       5.970  -2.447   2.178  0.00  0.00    -0.004 A 
ATOM      5  C7  UNL d   1       5.872  -2.339   3.563  0.00  0.00     0.002 A 
ATOM      6  C8  UNL d   1       5.796  -3.488   4.353  0.00  0.00     0.002 A 
ENDROOT
BRANCH   1   7
ATOM      7  C2  UNL d   1       5.762  -6.000   4.621  0.00  0.00     0.056 C 
BRANCH   7   8
ATOM      8  C1  UNL d   1       4.957  -5.828   5.913  0.00  0.00     0.007 C 
ATOM      9  C   UNL d   1       3.455  -5.979   5.709  0.00  0.00     0.009 C 
ENDBRANCH   7   8
ENDBRANCH   1   7
TORSDOF 2
ENDMDL
