MODEL 1
REMARK minimizedAffinity -3.03578234
REMARK minimizedRMSD -1
REMARK  2 active torsions:
REMARK  status: ('A' for Active; 'I' for Inactive)
REMARK    1  A    between atoms: C1_2  and  C2_3 
REMARK    2  A    between atoms: C2_3  and  C3_4 
ROOT
ATOM      1  C3  UNL d   1       5.509  -4.223   4.813  0.00  0.00    -0.075 A 
ATOM      2  C4  UNL d   1       5.086  -3.067   5.484  0.00  0.00     0.002 A 
ATOM      3  C5  UNL d   1       5.077  -1.833   4.832  0.00  0.00     0.002 A 
ATOM      4  C6  UNL d   1       5.500  -1.738   3.508  0.00  0.00    -0.004 A 
ATOM      5  C7  UNL d   1       5.939  -2.877   2.837  0.00  0.00     0.002 A 
ATOM      6  C8  UNL d   1       5.944  -4.114   3.485  0.00  0.00     0.002 A 
ENDROOT
BRANCH   1   7
ATOM      7  C2  UNL d   1       5.493  -5.567   5.503  0.00  0.00     0.056 C 
BRANCH   7   8
ATOM      8  C1  UNL d   1       4.108  -5.996   6.000  0.00  0.00     0.007 C 
ATOM      9  C   UNL d   1       3.051  -6.000   4.903  0.00  0.00     0.009 C 
ENDBRANCH   7   8
ENDBRANCH   1   7
TORSDOF 2
ENDMDL
