MODEL 1
REMARK minimizedAffinity -5.19223213
REMARK minimizedRMSD -1
REMARK  0 active torsions:
REMARK  status: ('A' for Active; 'I' for Inactive)
ROOT
ATOM      1  C1  DEN d   1      -1.506   0.793  -0.146  0.00  0.00     0.130 A 
ATOM      2  C2  DEN d   1      -1.097   0.839  -1.547  0.00  0.00    -0.031 A 
ATOM      3  C3  DEN d   1       0.238   0.218  -1.653  0.00  0.00     0.027 A 
ATOM      4  C4  DEN d   1       1.703  -0.809   0.205  0.00  0.00     0.027 A 
ATOM      5  C5  DEN d   1       1.784  -1.068   1.556  0.00  0.00    -0.003 A 
ATOM      6  C6  DEN d   1       0.798  -0.698   2.431  0.00  0.00     0.001 A 
ATOM      7  C7  DEN d   1      -0.334  -0.088   1.960  0.00  0.00     0.017 A 
ATOM      8  C8  DEN d   1      -0.420   0.184   0.601  0.00  0.00    -0.094 A 
ATOM      9  C9  DEN d   1       0.582  -0.209  -0.270  0.00  0.00    -0.072 A 
ENDROOT
TORSDOF 0
ENDMDL
