MODEL 1
REMARK minimizedAffinity -4.75938225
REMARK minimizedRMSD -1
REMARK  0 active torsions:
REMARK  status: ('A' for Active; 'I' for Inactive)
ROOT
ATOM      1  C1  DEN d   1       1.461  -0.722   2.244  0.00  0.00     0.130 A 
ATOM      2  C2  DEN d   1       0.566   0.158   2.991  0.00  0.00    -0.031 A 
ATOM      3  C3  DEN d   1      -0.369   0.779   2.032  0.00  0.00     0.027 A 
ATOM      4  C4  DEN d   1      -0.520   0.463  -0.523  0.00  0.00     0.027 A 
ATOM      5  C5  DEN d   1       0.035  -0.175  -1.610  0.00  0.00    -0.003 A 
ATOM      6  C6  DEN d   1       1.117  -1.007  -1.494  0.00  0.00     0.001 A 
ATOM      7  C7  DEN d   1       1.650  -1.259  -0.258  0.00  0.00     0.017 A 
ATOM      8  C8  DEN d   1       1.100  -0.613   0.842  0.00  0.00    -0.094 A 
ATOM      9  C9  DEN d   1      -0.001   0.215   0.706  0.00  0.00    -0.072 A 
ENDROOT
TORSDOF 0
ENDMDL
