MODEL 1
REMARK minimizedAffinity -4.36299849
REMARK minimizedRMSD -1
REMARK  0 active torsions:
REMARK  status: ('A' for Active; 'I' for Inactive)
ROOT
ATOM      1  C1  DEN d   1      -4.494   1.579  -3.216  0.00  0.00     0.130 A 
ATOM      2  C2  DEN d   1      -5.261   2.821  -3.197  0.00  0.00    -0.031 A 
ATOM      3  C3  DEN d   1      -4.327   3.930  -2.916  0.00  0.00     0.027 A 
ATOM      4  C4  DEN d   1      -1.780   3.845  -2.516  0.00  0.00     0.027 A 
ATOM      5  C5  DEN d   1      -0.686   3.014  -2.423  0.00  0.00    -0.003 A 
ATOM      6  C6  DEN d   1      -0.788   1.654  -2.553  0.00  0.00     0.001 A 
ATOM      7  C7  DEN d   1      -2.005   1.088  -2.828  0.00  0.00     0.017 A 
ATOM      8  C8  DEN d   1      -3.115   1.919  -2.916  0.00  0.00    -0.094 A 
ATOM      9  C9  DEN d   1      -2.988   3.292  -2.794  0.00  0.00    -0.072 A 
ENDROOT
TORSDOF 0
ENDMDL
