MODEL 1
REMARK minimizedAffinity -4.36161566
REMARK minimizedRMSD -1
REMARK  0 active torsions:
REMARK  status: ('A' for Active; 'I' for Inactive)
ROOT
ATOM      1  C1  DEN d   1       2.187  -0.714   1.042  0.00  0.00     0.130 A 
ATOM      2  C2  DEN d   1       1.979  -0.679   2.487  0.00  0.00    -0.031 A 
ATOM      3  C3  DEN d   1       0.559  -0.357   2.736  0.00  0.00     0.027 A 
ATOM      4  C4  DEN d   1      -1.328   0.082   1.033  0.00  0.00     0.027 A 
ATOM      5  C5  DEN d   1      -1.631   0.173  -0.308  0.00  0.00    -0.003 A 
ATOM      6  C6  DEN d   1      -0.684   0.010  -1.283  0.00  0.00     0.001 A 
ATOM      7  C7  DEN d   1       0.605  -0.298  -0.934  0.00  0.00     0.017 A 
ATOM      8  C8  DEN d   1       0.920  -0.385   0.416  0.00  0.00    -0.094 A 
ATOM      9  C9  DEN d   1      -0.055  -0.228   1.387  0.00  0.00    -0.072 A 
ENDROOT
TORSDOF 0
ENDMDL
