MODEL 1
REMARK minimizedAffinity -5.68023157
REMARK minimizedRMSD -1
REMARK  0 active torsions:
REMARK  status: ('A' for Active; 'I' for Inactive)
ROOT
ATOM      1  C1  DEN d   1      -0.681   2.813  -1.721  0.00  0.00     0.130 A 
ATOM      2  C2  DEN d   1      -1.419   2.465  -2.932  0.00  0.00    -0.031 A 
ATOM      3  C3  DEN d   1      -1.615   1.001  -2.943  0.00  0.00     0.027 A 
ATOM      4  C4  DEN d   1      -0.854  -0.751  -1.210  0.00  0.00     0.027 A 
ATOM      5  C5  DEN d   1      -0.184  -0.936  -0.021  0.00  0.00    -0.003 A 
ATOM      6  C6  DEN d   1       0.392   0.103   0.662  0.00  0.00     0.001 A 
ATOM      7  C7  DEN d   1       0.270   1.380   0.184  0.00  0.00     0.017 A 
ATOM      8  C8  DEN d   1      -0.398   1.574  -1.018  0.00  0.00    -0.094 A 
ATOM      9  C9  DEN d   1      -0.983   0.513  -1.688  0.00  0.00    -0.072 A 
ENDROOT
TORSDOF 0
ENDMDL
