MODEL 1
REMARK minimizedAffinity -3.85974741
REMARK minimizedRMSD -1
REMARK  0 active torsions:
REMARK  status: ('A' for Active; 'I' for Inactive)
ROOT
ATOM      1  C1  DEN d   1       1.758  -0.626   2.518  0.00  0.00     0.130 A 
ATOM      2  C2  DEN d   1       0.988  -1.309   3.553  0.00  0.00    -0.031 A 
ATOM      3  C3  DEN d   1      -0.371  -1.550   3.028  0.00  0.00     0.027 A 
ATOM      4  C4  DEN d   1      -1.351  -0.939   0.722  0.00  0.00     0.027 A 
ATOM      5  C5  DEN d   1      -1.082  -0.339  -0.489  0.00  0.00    -0.003 A 
ATOM      6  C6  DEN d   1       0.131   0.232  -0.767  0.00  0.00     0.001 A 
ATOM      7  C7  DEN d   1       1.137   0.177   0.161  0.00  0.00     0.017 A 
ATOM      8  C8  DEN d   1       0.871  -0.420   1.387  0.00  0.00    -0.094 A 
ATOM      9  C9  DEN d   1      -0.358  -1.003   1.645  0.00  0.00    -0.072 A 
ENDROOT
TORSDOF 0
ENDMDL
