MODEL 1
REMARK minimizedAffinity -2.55390286
REMARK minimizedRMSD -1
REMARK  0 active torsions:
REMARK  status: ('A' for Active; 'I' for Inactive)
ROOT
ATOM      1  C1  DEN d   1       0.589   1.106  -2.055  0.00  0.00     0.130 A 
ATOM      2  C2  DEN d   1      -0.656   1.756  -2.455  0.00  0.00    -0.031 A 
ATOM      3  C3  DEN d   1      -1.679   1.450  -1.435  0.00  0.00     0.027 A 
ATOM      4  C4  DEN d   1      -1.455   0.044   0.716  0.00  0.00     0.027 A 
ATOM      5  C5  DEN d   1      -0.595  -0.719   1.474  0.00  0.00    -0.003 A 
ATOM      6  C6  DEN d   1       0.701  -0.953   1.095  0.00  0.00     0.001 A 
ATOM      7  C7  DEN d   1       1.186  -0.381  -0.052  0.00  0.00     0.017 A 
ATOM      8  C8  DEN d   1       0.322   0.383  -0.825  0.00  0.00    -0.094 A 
ATOM      9  C9  DEN d   1      -0.980   0.618  -0.418  0.00  0.00    -0.072 A 
ENDROOT
TORSDOF 0
ENDMDL
