MODEL 1
REMARK minimizedAffinity -1.58066988
REMARK minimizedRMSD -1
REMARK  0 active torsions:
REMARK  status: ('A' for Active; 'I' for Inactive)
ROOT
ATOM      1  C1  DEN d   1       1.046  -0.546  -0.963  0.00  0.00     0.130 A 
ATOM      2  C2  DEN d   1      -0.067  -0.127  -1.810  0.00  0.00    -0.031 A 
ATOM      3  C3  DEN d   1      -1.244   0.088  -0.945  0.00  0.00     0.027 A 
ATOM      4  C4  DEN d   1      -1.448  -0.180   1.613  0.00  0.00     0.027 A 
ATOM      5  C5  DEN d   1      -0.774  -0.527   2.762  0.00  0.00    -0.003 A 
ATOM      6  C6  DEN d   1       0.534  -0.934   2.747  0.00  0.00     0.001 A 
ATOM      7  C7  DEN d   1       1.223  -0.961   1.563  0.00  0.00     0.017 A 
ATOM      8  C8  DEN d   1       0.547  -0.619   0.399  0.00  0.00    -0.094 A 
ATOM      9  C9  DEN d   1      -0.771  -0.199   0.437  0.00  0.00    -0.072 A 
ENDROOT
TORSDOF 0
ENDMDL
