MODEL 1
REMARK minimizedAffinity -4.07601786
REMARK minimizedRMSD -1
REMARK  1 active torsions:
REMARK  status: ('A' for Active; 'I' for Inactive)
REMARK    1  A    between atoms: C3_4  and  O_7 
ROOT
ATOM      1  C   UNL d   1      -1.487   0.172   1.091  0.00  0.00    -0.033 A 
ATOM      2  C1  UNL d   1      -1.690  -0.881   1.986  0.00  0.00     0.039 A 
ATOM      3  C2  UNL d   1      -0.606  -1.442   2.663  0.00  0.00    -0.080 A 
ATOM      4  C3  UNL d   1       0.674  -0.941   2.439  0.00  0.00     0.150 A 
ATOM      5  C4  UNL d   1       0.882   0.110   1.552  0.00  0.00    -0.007 A 
ATOM      6  C5  UNL d   1      -0.202   0.668   0.876  0.00  0.00     0.039 A 
ENDROOT
BRANCH   4   7
ATOM      7  O   UNL d   1       1.763  -1.460   3.074  0.00  0.00    -0.526 OA
ATOM      8  H5  UNL d   1       1.471  -2.198   3.633  0.00  0.00     0.418 HD
ENDBRANCH   4   7
TORSDOF 1
ENDMDL
