MODEL 1
REMARK minimizedAffinity 3.67698598
REMARK minimizedRMSD -1
REMARK  1 active torsions:
REMARK  status: ('A' for Active; 'I' for Inactive)
REMARK    1  A    between atoms: C3_4  and  O_7 
ROOT
ATOM      1  C   UNL d   1       2.629  -1.102  -4.235  0.00  0.00    -0.033 A 
ATOM      2  C1  UNL d   1       2.455  -0.336  -5.390  0.00  0.00     0.039 A 
ATOM      3  C2  UNL d   1       1.200  -0.258  -5.996  0.00  0.00    -0.080 A 
ATOM      4  C3  UNL d   1       0.128  -0.948  -5.437  0.00  0.00     0.150 A 
ATOM      5  C4  UNL d   1       0.292  -1.710  -4.285  0.00  0.00    -0.007 A 
ATOM      6  C5  UNL d   1       1.547  -1.787  -3.682  0.00  0.00     0.039 A 
ENDROOT
BRANCH   4   7
ATOM      7  O   UNL d   1      -1.115  -0.907  -5.996  0.00  0.00    -0.526 OA
ATOM      8  H5  UNL d   1      -1.072  -0.366  -6.802  0.00  0.00     0.418 HD
ENDBRANCH   4   7
TORSDOF 1
ENDMDL
