MODEL 1
REMARK minimizedAffinity 3.10464263
REMARK minimizedRMSD -1
REMARK  1 active torsions:
REMARK  status: ('A' for Active; 'I' for Inactive)
REMARK    1  A    between atoms: C3_4  and  O_7 
ROOT
ATOM      1  C   UNL d   1       3.378  -0.731  -4.832  0.00  0.00    -0.033 A 
ATOM      2  C1  UNL d   1       2.671  -1.116  -3.692  0.00  0.00     0.039 A 
ATOM      3  C2  UNL d   1       1.274  -1.120  -3.703  0.00  0.00    -0.080 A 
ATOM      4  C3  UNL d   1       0.599  -0.739  -4.859  0.00  0.00     0.150 A 
ATOM      5  C4  UNL d   1       1.297  -0.358  -6.000  0.00  0.00    -0.007 A 
ATOM      6  C5  UNL d   1       2.691  -0.353  -5.987  0.00  0.00     0.039 A 
ENDROOT
BRANCH   4   7
ATOM      7  O   UNL d   1      -0.763  -0.722  -4.915  0.00  0.00    -0.526 OA
ATOM      8  H5  UNL d   1      -1.111  -0.981  -4.046  0.00  0.00     0.418 HD
ENDBRANCH   4   7
TORSDOF 1
ENDMDL
