MODEL 1
REMARK minimizedAffinity 2.75581408
REMARK minimizedRMSD -1
REMARK  1 active torsions:
REMARK  status: ('A' for Active; 'I' for Inactive)
REMARK    1  A    between atoms: C3_4  and  O_7 
ROOT
ATOM      1  C   UNL d   1       2.536  -0.762  -4.018  0.00  0.00    -0.033 A 
ATOM      2  C1  UNL d   1       3.754  -0.799  -3.338  0.00  0.00     0.039 A 
ATOM      3  C2  UNL d   1       4.931  -0.422  -3.988  0.00  0.00    -0.080 A 
ATOM      4  C3  UNL d   1       4.875  -0.009  -5.316  0.00  0.00     0.150 A 
ATOM      5  C4  UNL d   1       3.664   0.034  -5.999  0.00  0.00    -0.007 A 
ATOM      6  C5  UNL d   1       2.490  -0.344  -5.348  0.00  0.00     0.039 A 
ENDROOT
BRANCH   4   7
ATOM      7  O   UNL d   1       5.997   0.364  -5.994  0.00  0.00    -0.526 OA
ATOM      8  H5  UNL d   1       6.763   0.256  -5.405  0.00  0.00     0.418 HD
ENDBRANCH   4   7
TORSDOF 1
ENDMDL
