MODEL 1
REMARK minimizedAffinity 2.97212672
REMARK minimizedRMSD -1
REMARK  1 active torsions:
REMARK  status: ('A' for Active; 'I' for Inactive)
REMARK    1  A    between atoms: C3_4  and  O_7 
ROOT
ATOM      1  C   UNL d   1       2.799  -1.294  -4.508  0.00  0.00    -0.033 A 
ATOM      2  C1  UNL d   1       1.801  -1.898  -3.741  0.00  0.00     0.039 A 
ATOM      3  C2  UNL d   1       0.460  -1.756  -4.099  0.00  0.00    -0.080 A 
ATOM      4  C3  UNL d   1       0.129  -1.009  -5.227  0.00  0.00     0.150 A 
ATOM      5  C4  UNL d   1       1.118  -0.407  -5.998  0.00  0.00    -0.007 A 
ATOM      6  C5  UNL d   1       2.457  -0.549  -5.638  0.00  0.00     0.039 A 
ENDROOT
BRANCH   4   7
ATOM      7  O   UNL d   1      -1.167  -0.838  -5.614  0.00  0.00    -0.526 OA
ATOM      8  H5  UNL d   1      -1.742  -1.285  -4.971  0.00  0.00     0.418 HD
ENDBRANCH   4   7
TORSDOF 1
ENDMDL
