MODEL 1
REMARK minimizedAffinity 3.46377802
REMARK minimizedRMSD -1
REMARK  1 active torsions:
REMARK  status: ('A' for Active; 'I' for Inactive)
REMARK    1  A    between atoms: C3_4  and  O_7 
ROOT
ATOM      1  C   UNL d   1      -0.336  -1.693  -4.115  0.00  0.00    -0.033 A 
ATOM      2  C1  UNL d   1       0.899  -1.692  -3.464  0.00  0.00     0.039 A 
ATOM      3  C2  UNL d   1       2.015  -1.125  -4.082  0.00  0.00    -0.080 A 
ATOM      4  C3  UNL d   1       1.883  -0.561  -5.348  0.00  0.00     0.150 A 
ATOM      5  C4  UNL d   1       0.654  -0.554  -6.000  0.00  0.00    -0.007 A 
ATOM      6  C5  UNL d   1      -0.459  -1.122  -5.382  0.00  0.00     0.039 A 
ENDROOT
BRANCH   4   7
ATOM      7  O   UNL d   1       2.945   0.000  -5.993  0.00  0.00    -0.526 OA
ATOM      8  H5  UNL d   1       3.733  -0.103  -5.434  0.00  0.00     0.418 HD
ENDBRANCH   4   7
TORSDOF 1
ENDMDL
