MODEL 1
REMARK minimizedAffinity 12.5229435
REMARK minimizedRMSD -1
REMARK  2 active torsions:
REMARK  status: ('A' for Active; 'I' for Inactive)
REMARK    1  A    between atoms: C2'_3  and  C1'_4 
REMARK    2  A    between atoms: C1'_4  and  C1_5 
ROOT
ATOM      1  C1  I4B d   1      -0.037   1.819   2.552  0.00  0.00    -0.075 A 
ATOM      2  C2  I4B d   1       1.010   2.612   2.950  0.00  0.00     0.003 A 
ATOM      3  C3  I4B d   1       1.333   3.783   2.223  0.00  0.00     0.002 A 
ATOM      4  C4  I4B d   1       0.619   4.095   1.084  0.00  0.00    -0.004 A 
ATOM      5  C5  I4B d   1      -0.457   3.303   0.696  0.00  0.00     0.002 A 
ATOM      6  C6  I4B d   1      -0.796   2.164   1.442  0.00  0.00     0.003 A 
ENDROOT
BRANCH   1   7
ATOM      7  C1' I4B d   1      -0.330   0.571   3.324  0.00  0.00     0.060 C 
BRANCH   7   8
ATOM      8  C2' I4B d   1       0.992  -0.076   3.684  0.00  0.00    -0.013 C 
ATOM      9  C4' I4B d   1       0.781  -1.366   4.432  0.00  0.00     0.013 C 
ATOM     10  C3' I4B d   1       1.756  -0.304   2.414  0.00  0.00     0.013 C 
ENDBRANCH   7   8
ENDBRANCH   1   7
TORSDOF 2
ENDMDL
