MODEL 1
REMARK minimizedAffinity 9.02291012
REMARK minimizedRMSD -1
REMARK  2 active torsions:
REMARK  status: ('A' for Active; 'I' for Inactive)
REMARK    1  A    between atoms: C2'_3  and  C1'_4 
REMARK    2  A    between atoms: C1'_4  and  C1_5 
ROOT
ATOM      1  C1  I4B d   1      -0.871   2.500   1.034  0.00  0.00    -0.075 A 
ATOM      2  C2  I4B d   1      -1.019   3.864   1.005  0.00  0.00     0.003 A 
ATOM      3  C3  I4B d   1      -0.924   4.566  -0.221  0.00  0.00     0.002 A 
ATOM      4  C4  I4B d   1      -0.632   3.874  -1.379  0.00  0.00    -0.004 A 
ATOM      5  C5  I4B d   1      -0.506   2.488  -1.351  0.00  0.00     0.002 A 
ATOM      6  C6  I4B d   1      -0.638   1.795  -0.139  0.00  0.00     0.003 A 
ENDROOT
BRANCH   1   7
ATOM      7  C1' I4B d   1      -0.945   1.795   2.351  0.00  0.00     0.060 C 
BRANCH   7   8
ATOM      8  C2' I4B d   1       0.440   1.277   2.682  0.00  0.00    -0.013 C 
ATOM      9  C4' I4B d   1       1.347   2.394   3.129  0.00  0.00     0.013 C 
ATOM     10  C3' I4B d   1       0.302   0.232   3.748  0.00  0.00     0.013 C 
ENDBRANCH   7   8
ENDBRANCH   1   7
TORSDOF 2
ENDMDL
