MODEL 1
REMARK minimizedAffinity 12.5756407
REMARK minimizedRMSD -1
REMARK  2 active torsions:
REMARK  status: ('A' for Active; 'I' for Inactive)
REMARK    1  A    between atoms: C2'_3  and  C1'_4 
REMARK    2  A    between atoms: C1'_4  and  C1_5 
ROOT
ATOM      1  C1  I4B d   1      -2.441  -0.679  -1.303  0.00  0.00    -0.075 A 
ATOM      2  C2  I4B d   1      -1.842   0.496  -0.924  0.00  0.00     0.003 A 
ATOM      3  C3  I4B d   1      -0.476   0.728  -1.219  0.00  0.00     0.002 A 
ATOM      4  C4  I4B d   1       0.261  -0.257  -1.844  0.00  0.00    -0.004 A 
ATOM      5  C5  I4B d   1      -0.354  -1.439  -2.248  0.00  0.00     0.002 A 
ATOM      6  C6  I4B d   1      -1.716  -1.647  -1.987  0.00  0.00     0.003 A 
ENDROOT
BRANCH   1   7
ATOM      7  C1' I4B d   1      -3.876  -0.904  -0.947  0.00  0.00     0.060 C 
BRANCH   7   8
ATOM      8  C2' I4B d   1      -4.306   0.210  -0.014  0.00  0.00    -0.013 C 
ATOM      9  C4' I4B d   1      -5.756   0.561  -0.216  0.00  0.00     0.013 C 
ATOM     10  C3' I4B d   1      -4.048  -0.239   1.393  0.00  0.00     0.013 C 
ENDBRANCH   7   8
ENDBRANCH   1   7
TORSDOF 2
ENDMDL
