MODEL 1
REMARK minimizedAffinity 10.7556114
REMARK minimizedRMSD -1
REMARK  2 active torsions:
REMARK  status: ('A' for Active; 'I' for Inactive)
REMARK    1  A    between atoms: C2'_3  and  C1'_4 
REMARK    2  A    between atoms: C1'_4  and  C1_5 
ROOT
ATOM      1  C1  I4B d   1      -1.178   0.599  -1.393  0.00  0.00    -0.075 A 
ATOM      2  C2  I4B d   1      -2.192  -0.266  -1.722  0.00  0.00     0.003 A 
ATOM      3  C3  I4B d   1      -1.902  -1.485  -2.382  0.00  0.00     0.002 A 
ATOM      4  C4  I4B d   1      -0.600  -1.773  -2.737  0.00  0.00    -0.004 A 
ATOM      5  C5  I4B d   1       0.429  -0.905  -2.382  0.00  0.00     0.002 A 
ATOM      6  C6  I4B d   1       0.140   0.283  -1.695  0.00  0.00     0.003 A 
ENDROOT
BRANCH   1   7
ATOM      7  C1' I4B d   1      -1.523   1.893  -0.726  0.00  0.00     0.060 C 
BRANCH   7   8
ATOM      8  C2' I4B d   1      -0.228   2.600  -0.381  0.00  0.00    -0.013 C 
ATOM      9  C4' I4B d   1      -0.224   4.014  -0.901  0.00  0.00     0.013 C 
ATOM     10  C3' I4B d   1      -0.067   2.571   1.109  0.00  0.00     0.013 C 
ENDBRANCH   7   8
ENDBRANCH   1   7
TORSDOF 2
ENDMDL
