MODEL 1
REMARK minimizedAffinity 7.74537849
REMARK minimizedRMSD -1
REMARK  2 active torsions:
REMARK  status: ('A' for Active; 'I' for Inactive)
REMARK    1  A    between atoms: C2'_3  and  C1'_4 
REMARK    2  A    between atoms: C1'_4  and  C1_5 
ROOT
ATOM      1  C1  I4B d   1      -1.134   0.376  -1.012  0.00  0.00    -0.075 A 
ATOM      2  C2  I4B d   1      -0.890  -0.874  -1.524  0.00  0.00     0.003 A 
ATOM      3  C3  I4B d   1      -1.963  -1.760  -1.785  0.00  0.00     0.002 A 
ATOM      4  C4  I4B d   1      -3.252  -1.377  -1.474  0.00  0.00    -0.004 A 
ATOM      5  C5  I4B d   1      -3.500  -0.101  -0.977  0.00  0.00     0.002 A 
ATOM      6  C6  I4B d   1      -2.436   0.786  -0.756  0.00  0.00     0.003 A 
ENDROOT
BRANCH   1   7
ATOM      7  C1' I4B d   1       0.025   1.274  -0.717  0.00  0.00     0.060 C 
BRANCH   7   8
ATOM      8  C2' I4B d   1      -0.474   2.412   0.149  0.00  0.00    -0.013 C 
ATOM      9  C4' I4B d   1      -0.029   2.246   1.578  0.00  0.00     0.013 C 
ATOM     10  C3' I4B d   1       0.038   3.696  -0.433  0.00  0.00     0.013 C 
ENDBRANCH   7   8
ENDBRANCH   1   7
TORSDOF 2
ENDMDL
