MODEL 1
REMARK minimizedAffinity 11.4329147
REMARK minimizedRMSD -1
REMARK  0 active torsions:
REMARK  status: ('A' for Active; 'I' for Inactive)
ROOT
ATOM      1  C   UNL d   1       2.080   2.422   5.971  0.00  0.00     0.124 A 
ATOM      2  C1  UNL d   1       1.896   3.797   5.965  0.00  0.00     0.062 A 
ATOM      3  C2  UNL d   1       2.995   4.651   5.943  0.00  0.00     0.162 A 
ATOM      4  C3  UNL d   1       4.289   4.131   5.928  0.00  0.00    -0.034 A 
ATOM      5  C4  UNL d   1       4.467   2.747   5.935  0.00  0.00     0.162 A 
ATOM      6  C5  UNL d   1       3.365   1.898   5.957  0.00  0.00     0.062 A 
ATOM      7  F   UNL d   1       3.546   0.569   5.963  0.00  0.00    -0.097 F 
ATOM      8  F1  UNL d   1       5.698   2.214   5.921  0.00  0.00    -0.096 F 
ATOM      9  I   UNL d   1       5.936   5.404   5.896  0.00  0.00    -0.060 I 
ATOM     10  F2  UNL d   1       2.787   5.976   5.937  0.00  0.00    -0.096 F 
ATOM     11  F3  UNL d   1       0.655   4.306   5.980  0.00  0.00    -0.097 F 
ATOM     12  F4  UNL d   1       1.021   1.603   5.993  0.00  0.00    -0.092 F 
ENDROOT
TORSDOF 0
ENDMDL
