MODEL 1
REMARK minimizedAffinity 8.25223827
REMARK minimizedRMSD -1
REMARK  0 active torsions:
REMARK  status: ('A' for Active; 'I' for Inactive)
ROOT
ATOM      1  C   UNL d   1       2.058   4.050   5.117  0.00  0.00     0.124 A 
ATOM      2  C1  UNL d   1       3.322   4.621   5.076  0.00  0.00     0.062 A 
ATOM      3  C2  UNL d   1       4.449   3.844   5.328  0.00  0.00     0.162 A 
ATOM      4  C3  UNL d   1       4.317   2.487   5.622  0.00  0.00    -0.034 A 
ATOM      5  C4  UNL d   1       3.041   1.920   5.662  0.00  0.00     0.162 A 
ATOM      6  C5  UNL d   1       1.918   2.701   5.410  0.00  0.00     0.062 A 
ATOM      7  F   UNL d   1       0.697   2.148   5.449  0.00  0.00    -0.097 F 
ATOM      8  F1  UNL d   1       2.878   0.619   5.942  0.00  0.00    -0.096 F 
ATOM      9  I   UNL d   1       5.999   1.321   6.000  0.00  0.00    -0.060 I 
ATOM     10  F2  UNL d   1       5.659   4.422   5.282  0.00  0.00    -0.096 F 
ATOM     11  F3  UNL d   1       3.459   5.925   4.794  0.00  0.00    -0.097 F 
ATOM     12  F4  UNL d   1       0.975   4.801   4.875  0.00  0.00    -0.092 F 
ENDROOT
TORSDOF 0
ENDMDL
