MODEL 1
REMARK minimizedAffinity 6.86057711
REMARK minimizedRMSD -1
REMARK  0 active torsions:
REMARK  status: ('A' for Active; 'I' for Inactive)
ROOT
ATOM      1  C   UNL d   1       3.058   1.455   4.639  0.00  0.00     0.124 A 
ATOM      2  C1  UNL d   1       4.232   1.729   5.326  0.00  0.00     0.062 A 
ATOM      3  C2  UNL d   1       4.763   3.016   5.321  0.00  0.00     0.162 A 
ATOM      4  C3  UNL d   1       4.119   4.040   4.627  0.00  0.00    -0.034 A 
ATOM      5  C4  UNL d   1       2.939   3.757   3.937  0.00  0.00     0.162 A 
ATOM      6  C5  UNL d   1       2.412   2.469   3.945  0.00  0.00     0.062 A 
ATOM      7  F   UNL d   1       1.278   2.207   3.280  0.00  0.00    -0.097 F 
ATOM      8  F1  UNL d   1       2.294   4.718   3.259  0.00  0.00    -0.096 F 
ATOM      9  I   UNL d   1       4.910   5.965   4.616  0.00  0.00    -0.060 I 
ATOM     10  F2  UNL d   1       5.899   3.251   5.994  0.00  0.00    -0.096 F 
ATOM     11  F3  UNL d   1       4.858   0.751   5.997  0.00  0.00    -0.097 F 
ATOM     12  F4  UNL d   1       2.550   0.216   4.645  0.00  0.00    -0.092 F 
ENDROOT
TORSDOF 0
ENDMDL
