MODEL 1
REMARK minimizedAffinity 3.69430447
REMARK minimizedRMSD -1
REMARK  0 active torsions:
REMARK  status: ('A' for Active; 'I' for Inactive)
ROOT
ATOM      1  C   UNL d   1       4.358   1.376  -0.835  0.00  0.00     0.124 A 
ATOM      2  C1  UNL d   1       3.829   1.127   0.424  0.00  0.00     0.062 A 
ATOM      3  C2  UNL d   1       3.079  -0.023   0.653  0.00  0.00     0.162 A 
ATOM      4  C3  UNL d   1       2.854  -0.934  -0.380  0.00  0.00    -0.034 A 
ATOM      5  C4  UNL d   1       3.389  -0.676  -1.643  0.00  0.00     0.162 A 
ATOM      6  C5  UNL d   1       4.138   0.475  -1.867  0.00  0.00     0.062 A 
ATOM      7  F   UNL d   1       4.648   0.714  -3.084  0.00  0.00    -0.097 F 
ATOM      8  F1  UNL d   1       3.192  -1.530  -2.659  0.00  0.00    -0.096 F 
ATOM      9  I   UNL d   1       1.733  -2.654  -0.042  0.00  0.00    -0.060 I 
ATOM     10  F2  UNL d   1       2.580  -0.239   1.879  0.00  0.00    -0.096 F 
ATOM     11  F3  UNL d   1       4.040   1.996   1.422  0.00  0.00    -0.097 F 
ATOM     12  F4  UNL d   1       5.079   2.483  -1.053  0.00  0.00    -0.092 F 
ENDROOT
TORSDOF 0
ENDMDL
