MODEL 1
REMARK minimizedAffinity -0.337909102
REMARK minimizedRMSD -1
REMARK  0 active torsions:
REMARK  status: ('A' for Active; 'I' for Inactive)
ROOT
ATOM      1  C   UNL d   1       4.531   4.579   4.620  0.00  0.00     0.124 A 
ATOM      2  C1  UNL d   1       3.342   4.651   3.908  0.00  0.00     0.062 A 
ATOM      3  C2  UNL d   1       2.472   3.565   3.885  0.00  0.00     0.162 A 
ATOM      4  C3  UNL d   1       2.787   2.396   4.578  0.00  0.00    -0.034 A 
ATOM      5  C4  UNL d   1       3.986   2.331   5.292  0.00  0.00     0.162 A 
ATOM      6  C5  UNL d   1       4.852   3.419   5.311  0.00  0.00     0.062 A 
ATOM      7  F   UNL d   1       6.000   3.347   6.000  0.00  0.00    -0.097 F 
ATOM      8  F1  UNL d   1       4.320   1.222   5.969  0.00  0.00    -0.096 F 
ATOM      9  I   UNL d   1       1.489   0.770   4.547  0.00  0.00    -0.060 I 
ATOM     10  F2  UNL d   1       1.330   3.663   3.188  0.00  0.00    -0.096 F 
ATOM     11  F3  UNL d   1       3.030   5.770   3.238  0.00  0.00    -0.097 F 
ATOM     12  F4  UNL d   1       5.367   5.625   4.639  0.00  0.00    -0.092 F 
ENDROOT
TORSDOF 0
ENDMDL
