MODEL 1
REMARK minimizedAffinity 3.3506639
REMARK minimizedRMSD -1
REMARK  0 active torsions:
REMARK  status: ('A' for Active; 'I' for Inactive)
ROOT
ATOM      1  C   UNL d   1       3.650   4.898   3.214  0.00  0.00     0.124 A 
ATOM      2  C1  UNL d   1       4.521   3.840   2.993  0.00  0.00     0.062 A 
ATOM      3  C2  UNL d   1       4.452   2.699   3.786  0.00  0.00     0.162 A 
ATOM      4  C3  UNL d   1       3.507   2.609   4.808  0.00  0.00    -0.034 A 
ATOM      5  C4  UNL d   1       2.635   3.677   5.025  0.00  0.00     0.162 A 
ATOM      6  C5  UNL d   1       2.708   4.815   4.229  0.00  0.00     0.062 A 
ATOM      7  F   UNL d   1       1.866   5.836   4.444  0.00  0.00    -0.097 F 
ATOM      8  F1  UNL d   1       1.714   3.623   5.999  0.00  0.00    -0.096 F 
ATOM      9  I   UNL d   1       3.400   0.904   5.997  0.00  0.00    -0.060 I 
ATOM     10  F2  UNL d   1       5.306   1.692   3.550  0.00  0.00    -0.096 F 
ATOM     11  F3  UNL d   1       5.433   3.918   2.013  0.00  0.00    -0.097 F 
ATOM     12  F4  UNL d   1       3.720   5.996   2.449  0.00  0.00    -0.092 F 
ENDROOT
TORSDOF 0
ENDMDL
