MODEL 1
REMARK minimizedAffinity -0.279026538
REMARK minimizedRMSD -1
REMARK  0 active torsions:
REMARK  status: ('A' for Active; 'I' for Inactive)
ROOT
ATOM      1  C   UNL d   1       1.683   2.492   5.974  0.00  0.00     0.124 A 
ATOM      2  C1  UNL d   1       2.936   1.895   5.968  0.00  0.00     0.062 A 
ATOM      3  C2  UNL d   1       4.085   2.680   5.963  0.00  0.00     0.162 A 
ATOM      4  C3  UNL d   1       3.988   4.072   5.963  0.00  0.00    -0.034 A 
ATOM      5  C4  UNL d   1       2.724   4.665   5.968  0.00  0.00     0.162 A 
ATOM      6  C5  UNL d   1       1.578   3.876   5.973  0.00  0.00     0.062 A 
ATOM      7  F   UNL d   1       0.368   4.455   5.978  0.00  0.00    -0.097 F 
ATOM      8  F1  UNL d   1       2.594   6.000   5.968  0.00  0.00    -0.096 F 
ATOM      9  I   UNL d   1       5.704   5.249   5.955  0.00  0.00    -0.060 I 
ATOM     10  F2  UNL d   1       5.283   2.076   5.958  0.00  0.00    -0.096 F 
ATOM     11  F3  UNL d   1       3.040   0.558   5.968  0.00  0.00    -0.097 F 
ATOM     12  F4  UNL d   1       0.579   1.735   5.978  0.00  0.00    -0.092 F 
ENDROOT
TORSDOF 0
ENDMDL
