MODEL 1
REMARK minimizedAffinity -1.96602082
REMARK minimizedRMSD -1
REMARK  0 active torsions:
REMARK  status: ('A' for Active; 'I' for Inactive)
ROOT
ATOM      1  C   UNL d   1       4.235   2.996   4.527  0.00  0.00     0.124 A 
ATOM      2  C1  UNL d   1       4.109   4.166   3.792  0.00  0.00     0.062 A 
ATOM      3  C2  UNL d   1       2.908   4.869   3.794  0.00  0.00     0.162 A 
ATOM      4  C3  UNL d   1       1.822   4.404   4.536  0.00  0.00    -0.034 A 
ATOM      5  C4  UNL d   1       1.955   3.225   5.272  0.00  0.00     0.162 A 
ATOM      6  C5  UNL d   1       3.158   2.526   5.266  0.00  0.00     0.062 A 
ATOM      7  F   UNL d   1       3.277   1.396   5.977  0.00  0.00    -0.097 F 
ATOM      8  F1  UNL d   1       0.931   2.750   5.996  0.00  0.00    -0.096 F 
ATOM      9  I   UNL d   1       0.024   5.452   4.542  0.00  0.00    -0.060 I 
ATOM     10  F2  UNL d   1       2.815   5.997   3.074  0.00  0.00    -0.096 F 
ATOM     11  F3  UNL d   1       5.148   4.621   3.076  0.00  0.00    -0.097 F 
ATOM     12  F4  UNL d   1       5.391   2.321   4.522  0.00  0.00    -0.092 F 
ENDROOT
TORSDOF 0
ENDMDL
