MODEL 1
REMARK minimizedAffinity -1.60265326
REMARK minimizedRMSD -1
REMARK  1 active torsions:
REMARK  status: ('A' for Active; 'I' for Inactive)
REMARK    1  A    between atoms: N_2  and  C1_3 
ROOT
ATOM      1  C1  UNL d   1       0.357   0.364   0.181  0.00  0.00     0.143 A 
ATOM      2  C2  UNL d   1      -0.305  -0.867   0.119  0.00  0.00    -0.057 A 
ATOM      3  C3  UNL d   1      -1.682  -0.963   0.354  0.00  0.00     0.033 A 
ATOM      4  C4  UNL d   1      -2.418   0.169   0.685  0.00  0.00    -0.042 A 
ATOM      5  C5  UNL d   1      -1.777   1.400   0.777  0.00  0.00     0.033 A 
ATOM      6  C6  UNL d   1      -0.403   1.491   0.534  0.00  0.00    -0.057 A 
ENDROOT
BRANCH   1   7
ATOM      7  N   UNL d   1       1.740   0.510   0.054  0.00  0.00    -0.732 N 
ATOM      8  C   UNL d   1       2.633  -0.566   0.426  0.00  0.00     0.284 C 
ATOM      9  H3  UNL d   1       2.003   0.990  -0.804  0.00  0.00     0.395 HD
ENDBRANCH   1   7
TORSDOF 1
ENDMDL
