MODEL 1
REMARK minimizedAffinity -2.09322548
REMARK minimizedRMSD -1
REMARK  1 active torsions:
REMARK  status: ('A' for Active; 'I' for Inactive)
REMARK    1  A    between atoms: N_2  and  C1_3 
ROOT
ATOM      1  C1  UNL d   1      -0.008   1.201  -0.475  0.00  0.00     0.143 A 
ATOM      2  C2  UNL d   1      -0.930   2.072   0.115  0.00  0.00    -0.057 A 
ATOM      3  C3  UNL d   1      -2.029   1.586   0.835  0.00  0.00     0.033 A 
ATOM      4  C4  UNL d   1      -2.240   0.217   0.954  0.00  0.00    -0.042 A 
ATOM      5  C5  UNL d   1      -1.350  -0.667   0.354  0.00  0.00     0.033 A 
ATOM      6  C6  UNL d   1      -0.252  -0.176  -0.358  0.00  0.00    -0.057 A 
ENDROOT
BRANCH   1   7
ATOM      7  N   UNL d   1       1.049   1.621  -1.286  0.00  0.00    -0.732 N 
ATOM      8  C   UNL d   1       0.798   2.143  -2.613  0.00  0.00     0.284 C 
ATOM      9  H3  UNL d   1       1.758   2.132  -0.766  0.00  0.00     0.395 HD
ENDBRANCH   1   7
TORSDOF 1
ENDMDL
