MODEL 1
REMARK minimizedAffinity -4.45530939
REMARK minimizedRMSD -1
REMARK  1 active torsions:
REMARK  status: ('A' for Active; 'I' for Inactive)
REMARK    1  A    between atoms: N_2  and  C1_3 
ROOT
ATOM      1  C1  UNL d   1      -0.026   0.027  -0.140  0.00  0.00     0.143 A 
ATOM      2  C2  UNL d   1       0.643  -1.081   0.391  0.00  0.00    -0.057 A 
ATOM      3  C3  UNL d   1      -0.059  -2.141   0.978  0.00  0.00     0.033 A 
ATOM      4  C4  UNL d   1      -1.446  -2.098   1.069  0.00  0.00    -0.042 A 
ATOM      5  C5  UNL d   1      -2.131  -0.995   0.571  0.00  0.00     0.033 A 
ATOM      6  C6  UNL d   1      -1.424   0.057  -0.020  0.00  0.00    -0.057 A 
ENDROOT
BRANCH   1   7
ATOM      7  N   UNL d   1       0.621   1.157  -0.646  0.00  0.00    -0.732 N 
ATOM      8  C   UNL d   1       0.620   1.431  -2.067  0.00  0.00     0.284 C 
ATOM      9  H3  UNL d   1       0.479   1.979  -0.064  0.00  0.00     0.395 HD
ENDBRANCH   1   7
TORSDOF 1
ENDMDL
