MODEL 1
REMARK minimizedAffinity -4.58668995
REMARK minimizedRMSD -1
REMARK  1 active torsions:
REMARK  status: ('A' for Active; 'I' for Inactive)
REMARK    1  A    between atoms: N_2  and  C1_3 
ROOT
ATOM      1  C1  UNL d   1      -0.224  -0.348   0.200  0.00  0.00     0.143 A 
ATOM      2  C2  UNL d   1       0.480  -1.464   0.662  0.00  0.00    -0.057 A 
ATOM      3  C3  UNL d   1      -0.181  -2.540   1.268  0.00  0.00     0.033 A 
ATOM      4  C4  UNL d   1      -1.560  -2.504   1.448  0.00  0.00    -0.042 A 
ATOM      5  C5  UNL d   1      -2.277  -1.393   1.019  0.00  0.00     0.033 A 
ATOM      6  C6  UNL d   1      -1.612  -0.325   0.409  0.00  0.00    -0.057 A 
ENDROOT
BRANCH   1   7
ATOM      7  N   UNL d   1       0.386   0.796  -0.321  0.00  0.00    -0.732 N 
ATOM      8  C   UNL d   1       0.367   1.058  -1.744  0.00  0.00     0.284 C 
ATOM      9  H3  UNL d   1       0.226   1.619   0.255  0.00  0.00     0.395 HD
ENDBRANCH   1   7
TORSDOF 1
ENDMDL
