MODEL 1
REMARK minimizedAffinity -1.29314542
REMARK minimizedRMSD -1
REMARK  1 active torsions:
REMARK  status: ('A' for Active; 'I' for Inactive)
REMARK    1  A    between atoms: N_2  and  C1_3 
ROOT
ATOM      1  C1  UNL d   1       0.573   0.655  -0.750  0.00  0.00     0.143 A 
ATOM      2  C2  UNL d   1       1.026  -0.650  -0.528  0.00  0.00    -0.057 A 
ATOM      3  C3  UNL d   1       0.375  -1.500   0.375  0.00  0.00     0.033 A 
ATOM      4  C4  UNL d   1      -0.726  -1.048   1.095  0.00  0.00    -0.042 A 
ATOM      5  C5  UNL d   1      -1.178   0.253   0.908  0.00  0.00     0.033 A 
ATOM      6  C6  UNL d   1      -0.528   1.095   0.000  0.00  0.00    -0.057 A 
ENDROOT
BRANCH   1   7
ATOM      7  N   UNL d   1       1.236   1.580  -1.561  0.00  0.00    -0.732 N 
ATOM      8  C   UNL d   1       0.750   1.875  -2.892  0.00  0.00     0.284 C 
ATOM      9  H3  UNL d   1       1.549   2.397  -1.042  0.00  0.00     0.395 HD
ENDBRANCH   1   7
TORSDOF 1
ENDMDL
