MODEL 1
REMARK minimizedAffinity -4.28741074
REMARK minimizedRMSD -1
REMARK  1 active torsions:
REMARK  status: ('A' for Active; 'I' for Inactive)
REMARK    1  A    between atoms: N_2  and  C1_3 
ROOT
ATOM      1  C1  UNL d   1      -0.160  -0.083  -0.163  0.00  0.00     0.143 A 
ATOM      2  C2  UNL d   1       0.666  -1.166   0.157  0.00  0.00    -0.057 A 
ATOM      3  C3  UNL d   1       0.132  -2.370   0.631  0.00  0.00     0.033 A 
ATOM      4  C4  UNL d   1      -1.240  -2.503   0.820  0.00  0.00    -0.042 A 
ATOM      5  C5  UNL d   1      -2.077  -1.431   0.532  0.00  0.00     0.033 A 
ATOM      6  C6  UNL d   1      -1.538  -0.233   0.053  0.00  0.00    -0.057 A 
ENDROOT
BRANCH   1   7
ATOM      7  N   UNL d   1       0.319   1.173  -0.545  0.00  0.00    -0.732 N 
ATOM      8  C   UNL d   1       0.409   1.534  -1.943  0.00  0.00     0.284 C 
ATOM      9  H3  UNL d   1      -0.027   1.919   0.055  0.00  0.00     0.395 HD
ENDBRANCH   1   7
TORSDOF 1
ENDMDL
