MODEL 1
REMARK minimizedAffinity -3.48464847
REMARK minimizedRMSD -1
REMARK  1 active torsions:
REMARK  status: ('A' for Active; 'I' for Inactive)
REMARK    1  A    between atoms: N_2  and  C1_3 
ROOT
ATOM      1  C1  UNL d   1       0.674   0.058   0.037  0.00  0.00     0.143 A 
ATOM      2  C2  UNL d   1       1.229  -0.902   0.890  0.00  0.00    -0.057 A 
ATOM      3  C3  UNL d   1       0.432  -1.876   1.503  0.00  0.00     0.033 A 
ATOM      4  C4  UNL d   1      -0.944  -1.890   1.296  0.00  0.00    -0.042 A 
ATOM      5  C5  UNL d   1      -1.520  -0.930   0.472  0.00  0.00     0.033 A 
ATOM      6  C6  UNL d   1      -0.718   0.036  -0.143  0.00  0.00    -0.057 A 
ENDROOT
BRANCH   1   7
ATOM      7  N   UNL d   1       1.398   1.112  -0.524  0.00  0.00    -0.732 N 
ATOM      8  C   UNL d   1       0.968   1.725  -1.763  0.00  0.00     0.284 C 
ATOM      9  H3  UNL d   1       1.726   1.774   0.175  0.00  0.00     0.395 HD
ENDBRANCH   1   7
TORSDOF 1
ENDMDL
