MODEL 1
REMARK minimizedAffinity -4.59075499
REMARK minimizedRMSD -1
REMARK  1 active torsions:
REMARK  status: ('A' for Active; 'I' for Inactive)
REMARK    1  A    between atoms: N_2  and  C1_3 
ROOT
ATOM      1  C1  UNL d   1      -0.182   0.093  -0.297  0.00  0.00     0.143 A 
ATOM      2  C2  UNL d   1      -1.542   0.066   0.030  0.00  0.00    -0.057 A 
ATOM      3  C3  UNL d   1      -2.094  -0.998   0.754  0.00  0.00     0.033 A 
ATOM      4  C4  UNL d   1      -1.298  -2.072   1.138  0.00  0.00    -0.042 A 
ATOM      5  C5  UNL d   1       0.051  -2.079   0.802  0.00  0.00     0.033 A 
ATOM      6  C6  UNL d   1       0.598  -1.010   0.085  0.00  0.00    -0.057 A 
ENDROOT
BRANCH   1   7
ATOM      7  N   UNL d   1       0.406   1.074  -1.099  0.00  0.00    -0.732 N 
ATOM      8  C   UNL d   1      -0.090   1.330  -2.435  0.00  0.00     0.284 C 
ATOM      9  H3  UNL d   1       0.641   1.914  -0.575  0.00  0.00     0.395 HD
ENDBRANCH   1   7
TORSDOF 1
ENDMDL
