MODEL 1
REMARK minimizedAffinity -4.50519848
REMARK minimizedRMSD -1
REMARK  1 active torsions:
REMARK  status: ('A' for Active; 'I' for Inactive)
REMARK    1  A    between atoms: N_2  and  C1_3 
ROOT
ATOM      1  C1  UNL d   1       0.370  -0.362  -0.218  0.00  0.00     0.143 A 
ATOM      2  C2  UNL d   1       0.863  -1.152   0.826  0.00  0.00    -0.057 A 
ATOM      3  C3  UNL d   1       0.123  -2.227   1.334  0.00  0.00     0.033 A 
ATOM      4  C4  UNL d   1      -1.139  -2.513   0.825  0.00  0.00    -0.042 A 
ATOM      5  C5  UNL d   1      -1.659  -1.726  -0.196  0.00  0.00     0.033 A 
ATOM      6  C6  UNL d   1      -0.913  -0.658  -0.704  0.00  0.00    -0.057 A 
ENDROOT
BRANCH   1   7
ATOM      7  N   UNL d   1       1.014   0.781  -0.700  0.00  0.00    -0.732 N 
ATOM      8  C   UNL d   1       0.650   1.348  -1.980  0.00  0.00     0.284 C 
ATOM      9  H3  UNL d   1       1.177   1.471   0.030  0.00  0.00     0.395 HD
ENDBRANCH   1   7
TORSDOF 1
ENDMDL
