MODEL 1
REMARK minimizedAffinity -3.4349997
REMARK minimizedRMSD -1
REMARK  1 active torsions:
REMARK  status: ('A' for Active; 'I' for Inactive)
REMARK    1  A    between atoms: N_2  and  C1_3 
ROOT
ATOM      1  C1  UNL d   1       0.956   0.009   1.426  0.00  0.00     0.143 A 
ATOM      2  C2  UNL d   1       0.063  -0.121   0.357  0.00  0.00    -0.057 A 
ATOM      3  C3  UNL d   1      -1.278   0.263   0.480  0.00  0.00     0.033 A 
ATOM      4  C4  UNL d   1      -1.758   0.758   1.688  0.00  0.00    -0.042 A 
ATOM      5  C5  UNL d   1      -0.895   0.873   2.771  0.00  0.00     0.033 A 
ATOM      6  C6  UNL d   1       0.445   0.494   2.640  0.00  0.00    -0.057 A 
ENDROOT
BRANCH   1   7
ATOM      7  N   UNL d   1       2.276  -0.446   1.397  0.00  0.00    -0.732 N 
ATOM      8  C   UNL d   1       3.038  -0.576   2.620  0.00  0.00     0.284 C 
ATOM      9  H3  UNL d   1       2.408  -1.213   0.741  0.00  0.00     0.395 HD
ENDBRANCH   1   7
TORSDOF 1
ENDMDL
