MODEL 1
REMARK minimizedAffinity -4.33023024
REMARK minimizedRMSD -1
REMARK  1 active torsions:
REMARK  status: ('A' for Active; 'I' for Inactive)
REMARK    1  A    between atoms: N_2  and  C1_3 
ROOT
ATOM      1  C1  UNL d   1       0.003  -0.255   0.028  0.00  0.00     0.143 A 
ATOM      2  C2  UNL d   1      -1.341  -0.213   0.415  0.00  0.00    -0.057 A 
ATOM      3  C3  UNL d   1      -1.730   0.372   1.626  0.00  0.00     0.033 A 
ATOM      4  C4  UNL d   1      -0.775   0.900   2.489  0.00  0.00    -0.042 A 
ATOM      5  C5  UNL d   1       0.569   0.846   2.137  0.00  0.00     0.033 A 
ATOM      6  C6  UNL d   1       0.951   0.268   0.923  0.00  0.00    -0.057 A 
ENDROOT
BRANCH   1   7
ATOM      7  N   UNL d   1       0.463  -0.909  -1.117  0.00  0.00    -0.732 N 
ATOM      8  C   UNL d   1       0.859  -0.156  -2.288  0.00  0.00     0.284 C 
ATOM      9  H3  UNL d   1       1.078  -1.690  -0.898  0.00  0.00     0.395 HD
ENDBRANCH   1   7
TORSDOF 1
ENDMDL
