MODEL 1
REMARK minimizedAffinity -4.03977203
REMARK minimizedRMSD -1
REMARK  1 active torsions:
REMARK  status: ('A' for Active; 'I' for Inactive)
REMARK    1  A    between atoms: N_2  and  C1_3 
ROOT
ATOM      1  C1  UNL d   1       0.539   0.167  -3.070  0.00  0.00     0.143 A 
ATOM      2  C2  UNL d   1      -0.278  -0.362  -4.074  0.00  0.00    -0.057 A 
ATOM      3  C3  UNL d   1      -0.112   0.005  -5.415  0.00  0.00     0.033 A 
ATOM      4  C4  UNL d   1       0.859   0.934  -5.773  0.00  0.00    -0.042 A 
ATOM      5  C5  UNL d   1       1.667   1.492  -4.789  0.00  0.00     0.033 A 
ATOM      6  C6  UNL d   1       1.501   1.116  -3.452  0.00  0.00    -0.057 A 
ENDROOT
BRANCH   1   7
ATOM      7  N   UNL d   1       0.360  -0.083  -1.708  0.00  0.00    -0.732 N 
ATOM      8  C   UNL d   1       0.192  -1.436  -1.223  0.00  0.00     0.284 C 
ATOM      9  H3  UNL d   1       0.958   0.497  -1.124  0.00  0.00     0.395 HD
ENDBRANCH   1   7
TORSDOF 1
ENDMDL
