MODEL 1
REMARK minimizedAffinity -2.61766291
REMARK minimizedRMSD -1
REMARK  1 active torsions:
REMARK  status: ('A' for Active; 'I' for Inactive)
REMARK    1  A    between atoms: N_2  and  C1_3 
ROOT
ATOM      1  C1  UNL d   1      -0.371  -0.962   0.862  0.00  0.00     0.143 A 
ATOM      2  C2  UNL d   1       0.989  -1.288   0.843  0.00  0.00    -0.057 A 
ATOM      3  C3  UNL d   1       1.960  -0.381   1.285  0.00  0.00     0.033 A 
ATOM      4  C4  UNL d   1       1.587   0.884   1.729  0.00  0.00    -0.042 A 
ATOM      5  C5  UNL d   1       0.243   1.238   1.734  0.00  0.00     0.033 A 
ATOM      6  C6  UNL d   1      -0.722   0.326   1.297  0.00  0.00    -0.057 A 
ENDROOT
BRANCH   1   7
ATOM      7  N   UNL d   1      -1.375  -1.783   0.344  0.00  0.00    -0.732 N 
ATOM      8  C   UNL d   1      -2.596  -1.212  -0.183  0.00  0.00     0.284 C 
ATOM      9  H3  UNL d   1      -1.002  -2.550  -0.211  0.00  0.00     0.395 HD
ENDBRANCH   1   7
TORSDOF 1
ENDMDL
