MODEL 1
REMARK minimizedAffinity -5.06788254
REMARK minimizedRMSD -1
REMARK  0 active torsions:
REMARK  status: ('A' for Active; 'I' for Inactive)
ROOT
ATOM      1  C1  BNZ d   1      -0.480   0.826   0.971  0.00  0.00     0.000 A 
ATOM      2  C2  BNZ d   1      -0.782   2.039   1.530  0.00  0.00     0.000 A 
ATOM      3  C3  BNZ d   1      -1.107   3.110   0.746  0.00  0.00     0.000 A 
ATOM      4  C4  BNZ d   1      -1.090   2.979  -0.596  0.00  0.00     0.000 A 
ATOM      5  C5  BNZ d   1      -0.778   1.765  -1.176  0.00  0.00     0.000 A 
ATOM      6  C6  BNZ d   1      -0.489   0.679  -0.382  0.00  0.00     0.000 A 
ENDROOT
TORSDOF 0
ENDMDL
