MODEL 1
REMARK minimizedAffinity -2.41751099
REMARK minimizedRMSD -1
REMARK  0 active torsions:
REMARK  status: ('A' for Active; 'I' for Inactive)
ROOT
ATOM      1  C1  BNZ d   1       0.508  -2.655  -2.065  0.00  0.00     0.000 A 
ATOM      2  C2  BNZ d   1       1.178  -1.509  -1.728  0.00  0.00     0.000 A 
ATOM      3  C3  BNZ d   1       0.726  -0.705  -0.719  0.00  0.00     0.000 A 
ATOM      4  C4  BNZ d   1      -0.415  -1.026  -0.076  0.00  0.00     0.000 A 
ATOM      5  C5  BNZ d   1      -1.106  -2.174  -0.409  0.00  0.00     0.000 A 
ATOM      6  C6  BNZ d   1      -0.627  -3.001  -1.399  0.00  0.00     0.000 A 
ENDROOT
TORSDOF 0
ENDMDL
