MODEL 1
REMARK minimizedAffinity -4.12321472
REMARK minimizedRMSD -1
REMARK  0 active torsions:
REMARK  status: ('A' for Active; 'I' for Inactive)
ROOT
ATOM      1  C1  BNZ d   1       0.658   0.587   1.626  0.00  0.00     0.000 A 
ATOM      2  C2  BNZ d   1       0.340   1.842   2.074  0.00  0.00     0.000 A 
ATOM      3  C3  BNZ d   1      -0.562   2.617   1.401  0.00  0.00     0.000 A 
ATOM      4  C4  BNZ d   1      -1.114   2.155   0.260  0.00  0.00     0.000 A 
ATOM      5  C5  BNZ d   1      -0.796   0.896  -0.209  0.00  0.00     0.000 A 
ATOM      6  C6  BNZ d   1       0.082   0.103   0.492  0.00  0.00     0.000 A 
ENDROOT
TORSDOF 0
ENDMDL
