MODEL 1
REMARK minimizedAffinity -2.52124572
REMARK minimizedRMSD -1
REMARK  0 active torsions:
REMARK  status: ('A' for Active; 'I' for Inactive)
ROOT
ATOM      1  C1  BNZ d   1       0.391   0.132   0.640  0.00  0.00     0.000 A 
ATOM      2  C2  BNZ d   1       0.387  -0.457   1.876  0.00  0.00     0.000 A 
ATOM      3  C3  BNZ d   1       0.219   0.291   3.008  0.00  0.00     0.000 A 
ATOM      4  C4  BNZ d   1       0.096   1.630   2.906  0.00  0.00     0.000 A 
ATOM      5  C5  BNZ d   1       0.107   2.240   1.667  0.00  0.00     0.000 A 
ATOM      6  C6  BNZ d   1       0.237   1.480   0.528  0.00  0.00     0.000 A 
ENDROOT
TORSDOF 0
ENDMDL
