MODEL 1
REMARK minimizedAffinity -4.1656971
REMARK minimizedRMSD -1
REMARK  0 active torsions:
REMARK  status: ('A' for Active; 'I' for Inactive)
ROOT
ATOM      1  C1  BNZ d   1      -0.957   1.403   0.849  0.00  0.00     0.000 A 
ATOM      2  C2  BNZ d   1      -0.614   0.155   0.401  0.00  0.00     0.000 A 
ATOM      3  C3  BNZ d   1       0.371  -0.563   1.018  0.00  0.00     0.000 A 
ATOM      4  C4  BNZ d   1       1.039  -0.018   2.055  0.00  0.00     0.000 A 
ATOM      5  C5  BNZ d   1       0.711   1.243   2.513  0.00  0.00     0.000 A 
ATOM      6  C6  BNZ d   1      -0.308   1.948   1.914  0.00  0.00     0.000 A 
ENDROOT
TORSDOF 0
ENDMDL
