MODEL 1
REMARK minimizedAffinity 0.257734746
REMARK minimizedRMSD -1
REMARK  0 active torsions:
REMARK  status: ('A' for Active; 'I' for Inactive)
ROOT
ATOM      1  C1  BNZ d   1      -5.789  -0.014   4.866  0.00  0.00     0.000 A 
ATOM      2  C2  BNZ d   1      -5.991  -0.756   6.000  0.00  0.00     0.000 A 
ATOM      3  C3  BNZ d   1      -5.999  -2.122   5.950  0.00  0.00     0.000 A 
ATOM      4  C4  BNZ d   1      -5.844  -2.743   4.763  0.00  0.00     0.000 A 
ATOM      5  C5  BNZ d   1      -5.649  -2.009   3.610  0.00  0.00     0.000 A 
ATOM      6  C6  BNZ d   1      -5.603  -0.635   3.670  0.00  0.00     0.000 A 
ENDROOT
TORSDOF 0
ENDMDL
