MODEL 1
REMARK minimizedAffinity 2.93647838
REMARK minimizedRMSD -1
REMARK  0 active torsions:
REMARK  status: ('A' for Active; 'I' for Inactive)
ROOT
ATOM      1  C1  BNZ d   1       5.450  -1.086  -1.771  0.00  0.00     0.000 A 
ATOM      2  C2  BNZ d   1       4.352  -0.507  -1.193  0.00  0.00     0.000 A 
ATOM      3  C3  BNZ d   1       3.487  -1.247  -0.437  0.00  0.00     0.000 A 
ATOM      4  C4  BNZ d   1       3.699  -2.571  -0.292  0.00  0.00     0.000 A 
ATOM      5  C5  BNZ d   1       4.796  -3.171  -0.876  0.00  0.00     0.000 A 
ATOM      6  C6  BNZ d   1       5.686  -2.416  -1.605  0.00  0.00     0.000 A 
ENDROOT
TORSDOF 0
ENDMDL
