MODEL 1
REMARK minimizedAffinity 9.24113655
REMARK minimizedRMSD -1
REMARK  0 active torsions:
REMARK  status: ('A' for Active; 'I' for Inactive)
ROOT
ATOM      1  C   UNL d   1       2.114   1.919   4.947  0.00  0.00     0.077 C 
ATOM      2  C1  UNL d   1       2.136   0.898   3.848  0.00  0.00    -0.074 A 
ATOM      3  C2  UNL d   1       1.889   1.265   2.521  0.00  0.00    -0.005 A 
ATOM      4  C3  UNL d   1       1.922   0.306   1.509  0.00  0.00     0.006 A 
ATOM      5  C4  UNL d   1       2.201  -1.027   1.812  0.00  0.00    -0.005 A 
ATOM      6  C5  UNL d   1       2.451  -1.412   3.133  0.00  0.00    -0.074 A 
ATOM      7  C6  UNL d   1       2.763  -2.839   3.476  0.00  0.00     0.077 C 
ATOM      8  C7  UNL d   1       2.423  -0.442   4.144  0.00  0.00    -0.001 A 
ENDROOT
TORSDOF 0
ENDMDL
