MODEL 1
REMARK minimizedAffinity 10.2805023
REMARK minimizedRMSD -1
REMARK  0 active torsions:
REMARK  status: ('A' for Active; 'I' for Inactive)
ROOT
ATOM      1  C   UNL d   1       2.413  -5.629  -5.905  0.00  0.00     0.077 C 
ATOM      2  C1  UNL d   1       3.507  -5.758  -4.887  0.00  0.00    -0.074 A 
ATOM      3  C2  UNL d   1       4.849  -5.818  -5.277  0.00  0.00    -0.005 A 
ATOM      4  C3  UNL d   1       5.856  -5.927  -4.319  0.00  0.00     0.006 A 
ATOM      5  C4  UNL d   1       5.532  -5.979  -2.962  0.00  0.00    -0.005 A 
ATOM      6  C5  UNL d   1       4.196  -5.919  -2.553  0.00  0.00    -0.074 A 
ATOM      7  C6  UNL d   1       3.832  -5.963  -1.099  0.00  0.00     0.077 C 
ATOM      8  C7  UNL d   1       3.191  -5.802  -3.522  0.00  0.00    -0.001 A 
ENDROOT
TORSDOF 0
ENDMDL
