MODEL 1
REMARK minimizedAffinity 15.2491961
REMARK minimizedRMSD -1
REMARK  0 active torsions:
REMARK  status: ('A' for Active; 'I' for Inactive)
ROOT
ATOM      1  C   UNL d   1       3.305  -4.019   2.756  0.00  0.00     0.077 C 
ATOM      2  C1  UNL d   1       2.941  -2.575   2.939  0.00  0.00    -0.074 A 
ATOM      3  C2  UNL d   1       2.338  -2.130   4.120  0.00  0.00    -0.005 A 
ATOM      4  C3  UNL d   1       2.013  -0.783   4.279  0.00  0.00     0.006 A 
ATOM      5  C4  UNL d   1       2.289   0.131   3.262  0.00  0.00    -0.005 A 
ATOM      6  C5  UNL d   1       2.893  -0.295   2.075  0.00  0.00    -0.074 A 
ATOM      7  C6  UNL d   1       3.205   0.676   0.975  0.00  0.00     0.077 C 
ATOM      8  C7  UNL d   1       3.222  -1.649   1.925  0.00  0.00    -0.001 A 
ENDROOT
TORSDOF 0
ENDMDL
