MODEL 1
REMARK minimizedAffinity -1.00871789
REMARK minimizedRMSD -1
REMARK  0 active torsions:
REMARK  status: ('A' for Active; 'I' for Inactive)
ROOT
ATOM      1  C   UNL d   1       2.001  -1.422   2.696  0.00  0.00     0.077 C 
ATOM      2  C1  UNL d   1       2.365  -2.535   3.635  0.00  0.00    -0.074 A 
ATOM      3  C2  UNL d   1       3.674  -2.682   4.102  0.00  0.00    -0.005 A 
ATOM      4  C3  UNL d   1       3.995  -3.715   4.982  0.00  0.00     0.006 A 
ATOM      5  C4  UNL d   1       3.012  -4.611   5.402  0.00  0.00    -0.005 A 
ATOM      6  C5  UNL d   1       1.696  -4.479   4.946  0.00  0.00    -0.074 A 
ATOM      7  C6  UNL d   1       0.625  -5.428   5.396  0.00  0.00     0.077 C 
ATOM      8  C7  UNL d   1       1.380  -3.434   4.068  0.00  0.00    -0.001 A 
ENDROOT
TORSDOF 0
ENDMDL
