MODEL 1
REMARK minimizedAffinity 6.56689644
REMARK minimizedRMSD -1
REMARK  0 active torsions:
REMARK  status: ('A' for Active; 'I' for Inactive)
ROOT
ATOM      1  C   UNL d   1      -1.702   2.626   1.412  0.00  0.00     0.077 C 
ATOM      2  C1  UNL d   1      -3.199   2.712   1.381  0.00  0.00    -0.074 A 
ATOM      3  C2  UNL d   1      -3.931   2.943   2.550  0.00  0.00    -0.005 A 
ATOM      4  C3  UNL d   1      -5.322   3.030   2.504  0.00  0.00     0.006 A 
ATOM      5  C4  UNL d   1      -5.995   2.887   1.290  0.00  0.00    -0.005 A 
ATOM      6  C5  UNL d   1      -5.280   2.656   0.110  0.00  0.00    -0.074 A 
ATOM      7  C6  UNL d   1      -5.988   2.510  -1.204  0.00  0.00     0.077 C 
ATOM      8  C7  UNL d   1      -3.882   2.577   0.164  0.00  0.00    -0.001 A 
ENDROOT
TORSDOF 0
ENDMDL
