MODEL 1
REMARK minimizedAffinity 4.82702494
REMARK minimizedRMSD -1
REMARK  0 active torsions:
REMARK  status: ('A' for Active; 'I' for Inactive)
ROOT
ATOM      1  C   UNL d   1       2.831   1.833   0.205  0.00  0.00     0.077 C 
ATOM      2  C1  UNL d   1       2.596   3.253  -0.215  0.00  0.00    -0.074 A 
ATOM      3  C2  UNL d   1       1.408   3.913   0.116  0.00  0.00    -0.005 A 
ATOM      4  C3  UNL d   1       1.207   5.237  -0.274  0.00  0.00     0.006 A 
ATOM      5  C4  UNL d   1       2.190   5.914  -0.996  0.00  0.00    -0.005 A 
ATOM      6  C5  UNL d   1       3.385   5.271  -1.335  0.00  0.00    -0.074 A 
ATOM      7  C6  UNL d   1       4.457   5.987  -2.102  0.00  0.00     0.077 C 
ATOM      8  C7  UNL d   1       3.582   3.942  -0.934  0.00  0.00    -0.001 A 
ENDROOT
TORSDOF 0
ENDMDL
