MODEL 1
REMARK minimizedAffinity 2.52005529
REMARK minimizedRMSD -1
REMARK  0 active torsions:
REMARK  status: ('A' for Active; 'I' for Inactive)
ROOT
ATOM      1  C   UNL d   1       4.904  -2.644   6.000  0.00  0.00     0.077 C 
ATOM      2  C1  UNL d   1       3.949  -1.861   5.148  0.00  0.00    -0.074 A 
ATOM      3  C2  UNL d   1       3.320  -2.449   4.047  0.00  0.00    -0.005 A 
ATOM      4  C3  UNL d   1       2.427  -1.711   3.270  0.00  0.00     0.006 A 
ATOM      5  C4  UNL d   1       2.155  -0.379   3.585  0.00  0.00    -0.005 A 
ATOM      6  C5  UNL d   1       2.775   0.226   4.684  0.00  0.00    -0.074 A 
ATOM      7  C6  UNL d   1       2.487   1.653   5.043  0.00  0.00     0.077 C 
ATOM      8  C7  UNL d   1       3.665  -0.525   5.464  0.00  0.00    -0.001 A 
ENDROOT
TORSDOF 0
ENDMDL
