MODEL 1
REMARK minimizedAffinity 3.34621787
REMARK minimizedRMSD -1
REMARK  0 active torsions:
REMARK  status: ('A' for Active; 'I' for Inactive)
ROOT
ATOM      1  C   UNL d   1       2.940   1.947   5.820  0.00  0.00     0.077 C 
ATOM      2  C1  UNL d   1       2.842   0.672   5.037  0.00  0.00    -0.074 A 
ATOM      3  C2  UNL d   1       3.390  -0.518   5.529  0.00  0.00    -0.005 A 
ATOM      4  C3  UNL d   1       3.283  -1.698   4.794  0.00  0.00     0.006 A 
ATOM      5  C4  UNL d   1       2.629  -1.702   3.561  0.00  0.00    -0.005 A 
ATOM      6  C5  UNL d   1       2.075  -0.523   3.053  0.00  0.00    -0.074 A 
ATOM      7  C6  UNL d   1       1.361  -0.511   1.735  0.00  0.00     0.077 C 
ATOM      8  C7  UNL d   1       2.180   0.658   3.801  0.00  0.00    -0.001 A 
ENDROOT
TORSDOF 0
ENDMDL
