MODEL 1
REMARK minimizedAffinity 7.06427288
REMARK minimizedRMSD -1
REMARK  2 active torsions:
REMARK  status: ('A' for Active; 'I' for Inactive)
REMARK    1  A    between atoms: C2'_3  and  C1'_4 
REMARK    2  A    between atoms: C1'_4  and  C1_5 
ROOT
ATOM      1  C1  I4B d   1      -1.124   0.940  -1.163  0.00  0.00    -0.075 A 
ATOM      2  C2  I4B d   1      -2.334   0.299  -1.059  0.00  0.00     0.003 A 
ATOM      3  C3  I4B d   1      -2.427  -1.092  -1.303  0.00  0.00     0.002 A 
ATOM      4  C4  I4B d   1      -1.303  -1.790  -1.695  0.00  0.00    -0.004 A 
ATOM      5  C5  I4B d   1      -0.073  -1.144  -1.777  0.00  0.00     0.002 A 
ATOM      6  C6  I4B d   1       0.020   0.227  -1.497  0.00  0.00     0.003 A 
ENDROOT
BRANCH   1   7
ATOM      7  C1' I4B d   1      -1.068   2.416  -0.930  0.00  0.00     0.060 C 
BRANCH   7   8
ATOM      8  C2' I4B d   1      -0.092   2.674   0.199  0.00  0.00    -0.013 C 
ATOM      9  C4' I4B d   1       0.425   4.088   0.161  0.00  0.00     0.013 C 
ATOM     10  C3' I4B d   1      -0.795   2.389   1.493  0.00  0.00     0.013 C 
ENDBRANCH   7   8
ENDBRANCH   1   7
TORSDOF 2
ENDMDL
