MODEL 1
REMARK minimizedAffinity 7.06403971
REMARK minimizedRMSD -1
REMARK  2 active torsions:
REMARK  status: ('A' for Active; 'I' for Inactive)
REMARK    1  A    between atoms: C2'_3  and  C1'_4 
REMARK    2  A    between atoms: C1'_4  and  C1_5 
ROOT
ATOM      1  C1  I4B d   1      -1.059   1.724  -0.084  0.00  0.00    -0.075 A 
ATOM      2  C2  I4B d   1      -0.798   2.046   1.225  0.00  0.00     0.003 A 
ATOM      3  C3  I4B d   1      -0.373   3.353   1.566  0.00  0.00     0.002 A 
ATOM      4  C4  I4B d   1      -0.175   4.286   0.568  0.00  0.00    -0.004 A 
ATOM      5  C5  I4B d   1      -0.463   3.964  -0.755  0.00  0.00     0.002 A 
ATOM      6  C6  I4B d   1      -0.919   2.679  -1.083  0.00  0.00     0.003 A 
ENDROOT
BRANCH   1   7
ATOM      7  C1' I4B d   1      -1.475   0.325  -0.413  0.00  0.00     0.060 C 
BRANCH   7   8
ATOM      8  C2' I4B d   1      -2.989   0.275  -0.407  0.00  0.00    -0.013 C 
ATOM      9  C4' I4B d   1      -3.502  -0.811  -1.317  0.00  0.00     0.013 C 
ATOM     10  C3' I4B d   1      -3.440   0.055   1.006  0.00  0.00     0.013 C 
ENDBRANCH   7   8
ENDBRANCH   1   7
TORSDOF 2
ENDMDL
