MODEL 1
REMARK minimizedAffinity 2.5656755
REMARK minimizedRMSD -1
REMARK  2 active torsions:
REMARK  status: ('A' for Active; 'I' for Inactive)
REMARK    1  A    between atoms: C2'_3  and  C1'_4 
REMARK    2  A    between atoms: C1'_4  and  C1_5 
ROOT
ATOM      1  C1  I4B d   1       0.412   1.259   2.718  0.00  0.00    -0.075 A 
ATOM      2  C2  I4B d   1      -0.158   0.758   3.861  0.00  0.00     0.003 A 
ATOM      3  C3  I4B d   1       0.389  -0.388   4.488  0.00  0.00     0.002 A 
ATOM      4  C4  I4B d   1       1.469  -1.026   3.914  0.00  0.00    -0.004 A 
ATOM      5  C5  I4B d   1       2.060  -0.504   2.767  0.00  0.00     0.002 A 
ATOM      6  C6  I4B d   1       1.537   0.653   2.172  0.00  0.00     0.003 A 
ENDROOT
BRANCH   1   7
ATOM      7  C1' I4B d   1      -0.211   2.451   2.063  0.00  0.00     0.060 C 
BRANCH   7   8
ATOM      8  C2' I4B d   1       0.255   2.489   0.622  0.00  0.00    -0.013 C 
ATOM      9  C4' I4B d   1      -0.708   1.764  -0.282  0.00  0.00     0.013 C 
ATOM     10  C3' I4B d   1       0.398   3.926   0.219  0.00  0.00     0.013 C 
ENDBRANCH   7   8
ENDBRANCH   1   7
TORSDOF 2
ENDMDL
