MODEL 1
REMARK minimizedAffinity 4.89923906
REMARK minimizedRMSD -1
REMARK  2 active torsions:
REMARK  status: ('A' for Active; 'I' for Inactive)
REMARK    1  A    between atoms: C2'_3  and  C1'_4 
REMARK    2  A    between atoms: C1'_4  and  C1_5 
ROOT
ATOM      1  C1  I4B d   1       3.554  -2.919  -1.246  0.00  0.00    -0.075 A 
ATOM      2  C2  I4B d   1       3.666  -1.835  -0.412  0.00  0.00     0.003 A 
ATOM      3  C3  I4B d   1       4.898  -1.146  -0.300  0.00  0.00     0.002 A 
ATOM      4  C4  I4B d   1       5.998  -1.603  -0.997  0.00  0.00    -0.004 A 
ATOM      5  C5  I4B d   1       5.876  -2.688  -1.860  0.00  0.00     0.002 A 
ATOM      6  C6  I4B d   1       4.644  -3.343  -1.995  0.00  0.00     0.003 A 
ENDROOT
BRANCH   1   7
ATOM      7  C1' I4B d   1       2.247  -3.644  -1.314  0.00  0.00     0.060 C 
BRANCH   7   8
ATOM      8  C2' I4B d   1       2.538  -5.107  -1.581  0.00  0.00    -0.013 C 
ATOM      9  C4' I4B d   1       1.716  -5.998  -0.687  0.00  0.00     0.013 C 
ATOM     10  C3' I4B d   1       2.251  -5.379  -3.028  0.00  0.00     0.013 C 
ENDBRANCH   7   8
ENDBRANCH   1   7
TORSDOF 2
ENDMDL
