MODEL 1
REMARK minimizedAffinity 1.40886581
REMARK minimizedRMSD -1
REMARK  1 active torsions:
REMARK  status: ('A' for Active; 'I' for Inactive)
REMARK    1  A    between atoms: C1_2  and  C2_3 
ROOT
ATOM      1  C2  UNL d   1       3.264   1.235   0.125  0.00  0.00    -0.077 A 
ATOM      2  C3  UNL d   1       3.643   1.940   1.275  0.00  0.00     0.002 A 
ATOM      3  C4  UNL d   1       2.675   2.446   2.145  0.00  0.00     0.002 A 
ATOM      4  C5  UNL d   1       1.323   2.247   1.876  0.00  0.00    -0.004 A 
ATOM      5  C6  UNL d   1       0.935   1.548   0.734  0.00  0.00     0.002 A 
ATOM      6  C7  UNL d   1       1.901   1.044  -0.138  0.00  0.00     0.002 A 
ENDROOT
BRANCH   1   7
ATOM      7  C1  UNL d   1       4.307   0.646  -0.788  0.00  0.00     0.055 C 
ATOM      8  C   UNL d   1       5.548   0.226  -0.014  0.00  0.00     0.019 C 
ENDBRANCH   1   7
TORSDOF 1
ENDMDL
