MODEL 1
REMARK minimizedAffinity 9.10330105
REMARK minimizedRMSD -1
REMARK  1 active torsions:
REMARK  status: ('A' for Active; 'I' for Inactive)
REMARK    1  A    between atoms: C1_2  and  C2_3 
ROOT
ATOM      1  C2  UNL d   1      -3.570  -5.591  -4.842  0.00  0.00    -0.077 A 
ATOM      2  C3  UNL d   1      -2.233  -6.000  -4.952  0.00  0.00     0.002 A 
ATOM      3  C4  UNL d   1      -1.307  -5.659  -3.964  0.00  0.00     0.002 A 
ATOM      4  C5  UNL d   1      -1.709  -4.914  -2.858  0.00  0.00    -0.004 A 
ATOM      5  C6  UNL d   1      -3.035  -4.501  -2.740  0.00  0.00     0.002 A 
ATOM      6  C7  UNL d   1      -3.962  -4.839  -3.728  0.00  0.00     0.002 A 
ENDROOT
BRANCH   1   7
ATOM      7  C1  UNL d   1      -4.581  -5.999  -5.882  0.00  0.00     0.055 C 
ATOM      8  C   UNL d   1      -5.948  -5.399  -5.590  0.00  0.00     0.019 C 
ENDBRANCH   1   7
TORSDOF 1
ENDMDL
