MODEL 1
REMARK minimizedAffinity 3.0248127
REMARK minimizedRMSD -1
REMARK  1 active torsions:
REMARK  status: ('A' for Active; 'I' for Inactive)
REMARK    1  A    between atoms: C1_2  and  C2_3 
ROOT
ATOM      1  C2  UNL d   1       4.229  -0.711  -1.319  0.00  0.00    -0.077 A 
ATOM      2  C3  UNL d   1       4.367  -1.230  -2.614  0.00  0.00     0.002 A 
ATOM      3  C4  UNL d   1       3.892  -2.507  -2.917  0.00  0.00     0.002 A 
ATOM      4  C5  UNL d   1       3.273  -3.274  -1.933  0.00  0.00    -0.004 A 
ATOM      5  C6  UNL d   1       3.133  -2.768  -0.641  0.00  0.00     0.002 A 
ATOM      6  C7  UNL d   1       3.608  -1.492  -0.336  0.00  0.00     0.002 A 
ENDROOT
BRANCH   1   7
ATOM      7  C1  UNL d   1       4.696   0.686  -1.002  0.00  0.00     0.055 C 
ATOM      8  C   UNL d   1       3.759   1.374  -0.021  0.00  0.00     0.019 C 
ENDBRANCH   1   7
TORSDOF 1
ENDMDL
