MODEL 1
REMARK minimizedAffinity 5.42729139
REMARK minimizedRMSD -1
REMARK  1 active torsions:
REMARK  status: ('A' for Active; 'I' for Inactive)
REMARK    1  A    between atoms: C1_2  and  C2_3 
ROOT
ATOM      1  C2  UNL d   1       3.553   0.145  -0.739  0.00  0.00    -0.077 A 
ATOM      2  C3  UNL d   1       4.747  -0.562  -0.542  0.00  0.00     0.002 A 
ATOM      3  C4  UNL d   1       5.965   0.116  -0.462  0.00  0.00     0.002 A 
ATOM      4  C5  UNL d   1       6.000   1.504  -0.573  0.00  0.00    -0.004 A 
ATOM      5  C6  UNL d   1       4.818   2.217  -0.771  0.00  0.00     0.002 A 
ATOM      6  C7  UNL d   1       3.600   1.540  -0.853  0.00  0.00     0.002 A 
ENDROOT
BRANCH   1   7
ATOM      7  C1  UNL d   1       2.233  -0.580  -0.777  0.00  0.00     0.055 C 
ATOM      8  C   UNL d   1       1.076   0.360  -0.474  0.00  0.00     0.019 C 
ENDBRANCH   1   7
TORSDOF 1
ENDMDL
