MODEL 1
REMARK minimizedAffinity 6.49585724
REMARK minimizedRMSD -1
REMARK  1 active torsions:
REMARK  status: ('A' for Active; 'I' for Inactive)
REMARK    1  A    between atoms: C1_2  and  C2_3 
ROOT
ATOM      1  C2  UNL d   1       2.051   0.094   0.233  0.00  0.00    -0.077 A 
ATOM      2  C3  UNL d   1       1.707   0.286   1.578  0.00  0.00     0.002 A 
ATOM      3  C4  UNL d   1       0.531   0.959   1.916  0.00  0.00     0.002 A 
ATOM      4  C5  UNL d   1      -0.311   1.440   0.916  0.00  0.00    -0.004 A 
ATOM      5  C6  UNL d   1       0.024   1.255  -0.425  0.00  0.00     0.002 A 
ATOM      6  C7  UNL d   1       1.200   0.584  -0.765  0.00  0.00     0.002 A 
ENDROOT
BRANCH   1   7
ATOM      7  C1  UNL d   1       3.294  -0.675  -0.134  0.00  0.00     0.055 C 
ATOM      8  C   UNL d   1       4.362   0.243  -0.711  0.00  0.00     0.019 C 
ENDBRANCH   1   7
TORSDOF 1
ENDMDL
