MODEL 1
REMARK minimizedAffinity -2.37695742
REMARK minimizedRMSD -1
REMARK  1 active torsions:
REMARK  status: ('A' for Active; 'I' for Inactive)
REMARK    1  A    between atoms: C1_2  and  C2_3 
ROOT
ATOM      1  C2  UNL d   1       5.878   4.857   3.370  0.00  0.00    -0.077 A 
ATOM      2  C3  UNL d   1       5.938   3.596   2.761  0.00  0.00     0.002 A 
ATOM      3  C4  UNL d   1       5.915   3.482   1.369  0.00  0.00     0.002 A 
ATOM      4  C5  UNL d   1       5.835   4.625   0.576  0.00  0.00    -0.004 A 
ATOM      5  C6  UNL d   1       5.772   5.883   1.173  0.00  0.00     0.002 A 
ATOM      6  C7  UNL d   1       5.794   5.999   2.563  0.00  0.00     0.002 A 
ENDROOT
BRANCH   1   7
ATOM      7  C1  UNL d   1       5.953   4.985   4.869  0.00  0.00     0.055 C 
ATOM      8  C   UNL d   1       4.741   5.721   5.423  0.00  0.00     0.019 C 
ENDBRANCH   1   7
TORSDOF 1
ENDMDL
