MODEL 1
REMARK minimizedAffinity 6.40728807
REMARK minimizedRMSD -1
REMARK  1 active torsions:
REMARK  status: ('A' for Active; 'I' for Inactive)
REMARK    1  A    between atoms: C1_2  and  C2_3 
ROOT
ATOM      1  C2  UNL d   1       0.240  -1.410  -0.555  0.00  0.00    -0.077 A 
ATOM      2  C3  UNL d   1      -0.732  -0.656  -1.228  0.00  0.00     0.002 A 
ATOM      3  C4  UNL d   1      -0.926   0.690  -0.912  0.00  0.00     0.002 A 
ATOM      4  C5  UNL d   1      -0.150   1.295   0.074  0.00  0.00    -0.004 A 
ATOM      5  C6  UNL d   1       0.817   0.553   0.751  0.00  0.00     0.002 A 
ATOM      6  C7  UNL d   1       1.012  -0.792   0.438  0.00  0.00     0.002 A 
ENDROOT
BRANCH   1   7
ATOM      7  C1  UNL d   1       0.485  -2.848  -0.928  0.00  0.00     0.055 C 
ATOM      8  C   UNL d   1      -0.682  -3.734  -0.515  0.00  0.00     0.019 C 
ENDBRANCH   1   7
TORSDOF 1
ENDMDL
