MODEL 1
REMARK minimizedAffinity 1.33980501
REMARK minimizedRMSD -1
REMARK  1 active torsions:
REMARK  status: ('A' for Active; 'I' for Inactive)
REMARK    1  A    between atoms: C1_2  and  C2_3 
ROOT
ATOM      1  C2  UNL d   1       3.688  -2.821   4.499  0.00  0.00    -0.077 A 
ATOM      2  C3  UNL d   1       3.037  -4.016   4.835  0.00  0.00     0.002 A 
ATOM      3  C4  UNL d   1       1.704  -4.221   4.473  0.00  0.00     0.002 A 
ATOM      4  C5  UNL d   1       1.012  -3.236   3.771  0.00  0.00    -0.004 A 
ATOM      5  C6  UNL d   1       1.649  -2.043   3.434  0.00  0.00     0.002 A 
ATOM      6  C7  UNL d   1       2.981  -1.836   3.795  0.00  0.00     0.002 A 
ENDROOT
BRANCH   1   7
ATOM      7  C1  UNL d   1       5.140  -2.618   4.844  0.00  0.00     0.055 C 
ATOM      8  C   UNL d   1       6.000  -2.532   3.592  0.00  0.00     0.019 C 
ENDBRANCH   1   7
TORSDOF 1
ENDMDL
