MODEL 1
REMARK minimizedAffinity 2.87094402
REMARK minimizedRMSD -1
REMARK  1 active torsions:
REMARK  status: ('A' for Active; 'I' for Inactive)
REMARK    1  A    between atoms: C1_2  and  C2_3 
ROOT
ATOM      1  C2  UNL d   1       2.329  -1.478   2.726  0.00  0.00    -0.077 A 
ATOM      2  C3  UNL d   1       3.604  -1.746   3.243  0.00  0.00     0.002 A 
ATOM      3  C4  UNL d   1       3.831  -2.898   3.998  0.00  0.00     0.002 A 
ATOM      4  C5  UNL d   1       2.791  -3.793   4.238  0.00  0.00    -0.004 A 
ATOM      5  C6  UNL d   1       1.518  -3.534   3.730  0.00  0.00     0.002 A 
ATOM      6  C7  UNL d   1       1.289  -2.382   2.976  0.00  0.00     0.002 A 
ENDROOT
BRANCH   1   7
ATOM      7  C1  UNL d   1       2.093  -0.261   1.870  0.00  0.00     0.055 C 
ATOM      8  C   UNL d   1       3.309   0.654   1.862  0.00  0.00     0.019 C 
ENDBRANCH   1   7
TORSDOF 1
ENDMDL
