MODEL 1
REMARK minimizedAffinity 3.82383919
REMARK minimizedRMSD -1
REMARK  1 active torsions:
REMARK  status: ('A' for Active; 'I' for Inactive)
REMARK    1  A    between atoms: C1_2  and  C2_3 
ROOT
ATOM      1  C2  UNL d   1      -0.934  -1.221   0.390  0.00  0.00    -0.077 A 
ATOM      2  C3  UNL d   1      -0.317  -2.127   1.264  0.00  0.00     0.002 A 
ATOM      3  C4  UNL d   1       0.021  -3.410   0.829  0.00  0.00     0.002 A 
ATOM      4  C5  UNL d   1      -0.249  -3.796  -0.482  0.00  0.00    -0.004 A 
ATOM      5  C6  UNL d   1      -0.864  -2.903  -1.359  0.00  0.00     0.002 A 
ATOM      6  C7  UNL d   1      -1.204  -1.621  -0.925  0.00  0.00     0.002 A 
ENDROOT
BRANCH   1   7
ATOM      7  C1  UNL d   1      -1.255   0.179   0.844  0.00  0.00     0.055 C 
ATOM      8  C   UNL d   1      -0.637   1.216  -0.082  0.00  0.00     0.019 C 
ENDBRANCH   1   7
TORSDOF 1
ENDMDL
