MODEL 1
REMARK minimizedAffinity -2.72396445
REMARK minimizedRMSD -1
REMARK  1 active torsions:
REMARK  status: ('A' for Active; 'I' for Inactive)
REMARK    1  A    between atoms: C1_2  and  C2_3 
ROOT
ATOM      1  C2  UNL d   1       1.205   0.285   0.980  0.00  0.00    -0.077 A 
ATOM      2  C3  UNL d   1       0.631  -0.866   1.537  0.00  0.00     0.002 A 
ATOM      3  C4  UNL d   1       1.118  -1.389   2.736  0.00  0.00     0.002 A 
ATOM      4  C5  UNL d   1       2.180  -0.767   3.390  0.00  0.00    -0.004 A 
ATOM      5  C6  UNL d   1       2.759   0.377   2.843  0.00  0.00     0.002 A 
ATOM      6  C7  UNL d   1       2.274   0.902   1.644  0.00  0.00     0.002 A 
ENDROOT
BRANCH   1   7
ATOM      7  C1  UNL d   1       0.649   0.880  -0.287  0.00  0.00     0.055 C 
ATOM      8  C   UNL d   1       0.548   2.395  -0.190  0.00  0.00     0.019 C 
ENDBRANCH   1   7
TORSDOF 1
ENDMDL
