MODEL 1
REMARK minimizedAffinity -1.47855699
REMARK minimizedRMSD -1
REMARK  1 active torsions:
REMARK  status: ('A' for Active; 'I' for Inactive)
REMARK    1  A    between atoms: C1_2  and  C2_3 
ROOT
ATOM      1  C2  UNL d   1       1.710   0.237   2.121  0.00  0.00    -0.077 A 
ATOM      2  C3  UNL d   1       2.348   0.025   3.351  0.00  0.00     0.002 A 
ATOM      3  C4  UNL d   1       2.094  -1.134   4.087  0.00  0.00     0.002 A 
ATOM      4  C5  UNL d   1       1.206  -2.091   3.600  0.00  0.00    -0.004 A 
ATOM      5  C6  UNL d   1       0.564  -1.887   2.379  0.00  0.00     0.002 A 
ATOM      6  C7  UNL d   1       0.816  -0.729   1.642  0.00  0.00     0.002 A 
ENDROOT
BRANCH   1   7
ATOM      7  C1  UNL d   1       2.020   1.463   1.303  0.00  0.00     0.055 C 
ATOM      8  C   UNL d   1       0.840   1.856   0.425  0.00  0.00     0.019 C 
ENDBRANCH   1   7
TORSDOF 1
ENDMDL
