MODEL 1
REMARK minimizedAffinity 0.205963105
REMARK minimizedRMSD -1
REMARK  1 active torsions:
REMARK  status: ('A' for Active; 'I' for Inactive)
REMARK    1  A    between atoms: C1_2  and  C2_3 
ROOT
ATOM      1  C2  UNL d   1      -0.421  -1.872   0.187  0.00  0.00    -0.077 A 
ATOM      2  C3  UNL d   1       0.883  -2.382   0.260  0.00  0.00     0.002 A 
ATOM      3  C4  UNL d   1       1.233  -3.531  -0.453  0.00  0.00     0.002 A 
ATOM      4  C5  UNL d   1       0.287  -4.175  -1.247  0.00  0.00    -0.004 A 
ATOM      5  C6  UNL d   1      -1.013  -3.677  -1.325  0.00  0.00     0.002 A 
ATOM      6  C7  UNL d   1      -1.365  -2.530  -0.612  0.00  0.00     0.002 A 
ENDROOT
BRANCH   1   7
ATOM      7  C1  UNL d   1      -0.788  -0.606   0.916  0.00  0.00     0.055 C 
ATOM      8  C   UNL d   1      -0.101   0.605   0.302  0.00  0.00     0.019 C 
ENDBRANCH   1   7
TORSDOF 1
ENDMDL
