MODEL 1
REMARK minimizedAffinity 7.46784973
REMARK minimizedRMSD -1
REMARK  0 active torsions:
REMARK  status: ('A' for Active; 'I' for Inactive)
ROOT
ATOM      1  C   UNL d   1       0.795  -0.718  -0.855  0.00  0.00     0.020 A 
ATOM      2  C1  UNL d   1       1.229  -0.295   0.401  0.00  0.00     0.020 A 
ATOM      3  C2  UNL d   1       0.298   0.075   1.373  0.00  0.00     0.034 A 
ATOM      4  C3  UNL d   1      -1.072   0.024   1.092  0.00  0.00     0.017 A 
ATOM      5  C4  UNL d   1      -1.507  -0.401  -0.169  0.00  0.00     0.017 A 
ATOM      6  C5  UNL d   1      -0.570  -0.771  -1.139  0.00  0.00     0.034 A 
ATOM      7 Cl   UNL d   1      -3.181  -0.491  -0.591  0.00  0.00    -0.070 Cl
ATOM      8 Cl1  UNL d   1      -2.168   0.496   2.341  0.00  0.00    -0.070 Cl
ENDROOT
TORSDOF 0
ENDMDL
