MODEL 1
REMARK minimizedAffinity 6.73192263
REMARK minimizedRMSD -1
REMARK  0 active torsions:
REMARK  status: ('A' for Active; 'I' for Inactive)
ROOT
ATOM      1  C   UNL d   1      -2.723   0.973   0.867  0.00  0.00     0.020 A 
ATOM      2  C1  UNL d   1      -1.387   1.220   1.178  0.00  0.00     0.020 A 
ATOM      3  C2  UNL d   1      -0.799   0.594   2.280  0.00  0.00     0.034 A 
ATOM      4  C3  UNL d   1      -1.548  -0.283   3.073  0.00  0.00     0.017 A 
ATOM      5  C4  UNL d   1      -2.889  -0.531   2.759  0.00  0.00     0.017 A 
ATOM      6  C5  UNL d   1      -3.473   0.099   1.656  0.00  0.00     0.034 A 
ATOM      7 Cl   UNL d   1      -3.877  -1.600   3.691  0.00  0.00    -0.070 Cl
ATOM      8 Cl1  UNL d   1      -0.757  -1.023   4.419  0.00  0.00    -0.070 Cl
ENDROOT
TORSDOF 0
ENDMDL
