MODEL 1
REMARK minimizedAffinity 6.5892024
REMARK minimizedRMSD -1
REMARK  0 active torsions:
REMARK  status: ('A' for Active; 'I' for Inactive)
ROOT
ATOM      1  C   UNL d   1      -3.340   0.457   1.426  0.00  0.00     0.020 A 
ATOM      2  C1  UNL d   1      -2.691   0.733   0.223  0.00  0.00     0.020 A 
ATOM      3  C2  UNL d   1      -1.310   0.555   0.119  0.00  0.00     0.034 A 
ATOM      4  C3  UNL d   1      -0.573   0.100   1.218  0.00  0.00     0.017 A 
ATOM      5  C4  UNL d   1      -1.226  -0.177   2.425  0.00  0.00     0.017 A 
ATOM      6  C5  UNL d   1      -2.609   0.003   2.524  0.00  0.00     0.034 A 
ATOM      7 Cl   UNL d   1      -0.385  -0.742   3.825  0.00  0.00    -0.070 Cl
ATOM      8 Cl1  UNL d   1       1.131  -0.098   1.018  0.00  0.00    -0.070 Cl
ENDROOT
TORSDOF 0
ENDMDL
