MODEL 1
REMARK minimizedAffinity 1.84739089
REMARK minimizedRMSD -1
REMARK  0 active torsions:
REMARK  status: ('A' for Active; 'I' for Inactive)
ROOT
ATOM      1  C   UNL d   1      -1.163   0.111  -0.224  0.00  0.00     0.020 A 
ATOM      2  C1  UNL d   1       0.075   0.328   0.381  0.00  0.00     0.020 A 
ATOM      3  C2  UNL d   1       0.218   0.153   1.759  0.00  0.00     0.034 A 
ATOM      4  C3  UNL d   1      -0.877  -0.240   2.536  0.00  0.00     0.017 A 
ATOM      5  C4  UNL d   1      -2.119  -0.457   1.928  0.00  0.00     0.017 A 
ATOM      6  C5  UNL d   1      -2.257  -0.281   0.548  0.00  0.00     0.034 A 
ATOM      7 Cl   UNL d   1      -3.516  -0.943   2.821  0.00  0.00    -0.070 Cl
ATOM      8 Cl1  UNL d   1      -0.628  -0.438   4.234  0.00  0.00    -0.070 Cl
ENDROOT
TORSDOF 0
ENDMDL
