MODEL 1
REMARK minimizedAffinity 3.26068234
REMARK minimizedRMSD -1
REMARK  0 active torsions:
REMARK  status: ('A' for Active; 'I' for Inactive)
ROOT
ATOM      1  C   UNL d   1      -2.963   0.423   1.314  0.00  0.00     0.020 A 
ATOM      2  C1  UNL d   1      -2.480   0.670   0.029  0.00  0.00     0.020 A 
ATOM      3  C2  UNL d   1      -1.124   0.489  -0.254  0.00  0.00     0.034 A 
ATOM      4  C3  UNL d   1      -0.247   0.060   0.749  0.00  0.00     0.017 A 
ATOM      5  C4  UNL d   1      -0.733  -0.187   2.038  0.00  0.00     0.017 A 
ATOM      6  C5  UNL d   1      -2.091  -0.004   2.316  0.00  0.00     0.034 A 
ATOM      7 Cl   UNL d   1       0.288  -0.718   3.328  0.00  0.00    -0.070 Cl
ATOM      8 Cl1  UNL d   1       1.416  -0.143   0.329  0.00  0.00    -0.070 Cl
ENDROOT
TORSDOF 0
ENDMDL
