MODEL 1
REMARK minimizedAffinity 4.44737005
REMARK minimizedRMSD -1
REMARK  0 active torsions:
REMARK  status: ('A' for Active; 'I' for Inactive)
ROOT
ATOM      1  C   UNL d   1       0.483  -0.378   0.660  0.00  0.00     0.020 A 
ATOM      2  C1  UNL d   1      -0.784  -0.027   0.197  0.00  0.00     0.020 A 
ATOM      3  C2  UNL d   1      -1.877  -0.052   1.066  0.00  0.00     0.034 A 
ATOM      4  C3  UNL d   1      -1.705  -0.430   2.403  0.00  0.00     0.017 A 
ATOM      5  C4  UNL d   1      -0.432  -0.782   2.867  0.00  0.00     0.017 A 
ATOM      6  C5  UNL d   1       0.659  -0.755   1.992  0.00  0.00     0.034 A 
ATOM      7 Cl   UNL d   1      -0.141  -1.259   4.502  0.00  0.00    -0.070 Cl
ATOM      8 Cl1  UNL d   1      -3.100  -0.439   3.421  0.00  0.00    -0.070 Cl
ENDROOT
TORSDOF 0
ENDMDL
