MODEL 1
REMARK minimizedAffinity -4.23375845
REMARK minimizedRMSD -1
REMARK  0 active torsions:
REMARK  status: ('A' for Active; 'I' for Inactive)
ROOT
ATOM      1  C   UNL d   1       0.277   0.342   3.333  0.00  0.00     0.020 A 
ATOM      2  C1  UNL d   1       1.324   0.908   2.607  0.00  0.00     0.020 A 
ATOM      3  C2  UNL d   1       1.227   1.026   1.219  0.00  0.00     0.034 A 
ATOM      4  C3  UNL d   1       0.082   0.576   0.552  0.00  0.00     0.017 A 
ATOM      5  C4  UNL d   1      -0.968   0.007   1.282  0.00  0.00     0.017 A 
ATOM      6  C5  UNL d   1      -0.867  -0.108   2.672  0.00  0.00     0.034 A 
ATOM      7 Cl   UNL d   1      -2.413  -0.570   0.529  0.00  0.00    -0.070 Cl
ATOM      8 Cl1  UNL d   1       0.031   0.752  -1.166  0.00  0.00    -0.070 Cl
ENDROOT
TORSDOF 0
ENDMDL
