MODEL 1
REMARK minimizedAffinity 4.47155905
REMARK minimizedRMSD -1
REMARK  0 active torsions:
REMARK  status: ('A' for Active; 'I' for Inactive)
ROOT
ATOM      1  C   UNL d   1      -2.522   0.207   2.241  0.00  0.00     0.020 A 
ATOM      2  C1  UNL d   1      -2.095   0.723   1.019  0.00  0.00     0.020 A 
ATOM      3  C2  UNL d   1      -0.745   0.659   0.666  0.00  0.00     0.034 A 
ATOM      4  C3  UNL d   1       0.183   0.076   1.538  0.00  0.00     0.017 A 
ATOM      5  C4  UNL d   1      -0.247  -0.442   2.765  0.00  0.00     0.017 A 
ATOM      6  C5  UNL d   1      -1.600  -0.374   3.113  0.00  0.00     0.034 A 
ATOM      7 Cl   UNL d   1       0.839  -1.175   3.892  0.00  0.00    -0.070 Cl
ATOM      8 Cl1  UNL d   1       1.836   0.030   1.037  0.00  0.00    -0.070 Cl
ENDROOT
TORSDOF 0
ENDMDL
