MODEL 1
REMARK minimizedAffinity 2.86360502
REMARK minimizedRMSD -1
REMARK  0 active torsions:
REMARK  status: ('A' for Active; 'I' for Inactive)
ROOT
ATOM      1  C   UNL d   1      -1.875  -0.342   4.240  0.00  0.00     0.020 A 
ATOM      2  C1  UNL d   1      -0.555  -0.749   4.433  0.00  0.00     0.020 A 
ATOM      3  C2  UNL d   1       0.382  -0.587   3.411  0.00  0.00     0.034 A 
ATOM      4  C3  UNL d   1       0.001  -0.016   2.191  0.00  0.00     0.017 A 
ATOM      5  C4  UNL d   1      -1.324   0.392   1.998  0.00  0.00     0.017 A 
ATOM      6  C5  UNL d   1      -2.258   0.227   3.025  0.00  0.00     0.034 A 
ATOM      7 Cl   UNL d   1      -1.868   1.105   0.521  0.00  0.00    -0.070 Cl
ATOM      8 Cl1  UNL d   1       1.213   0.155   0.971  0.00  0.00    -0.070 Cl
ENDROOT
TORSDOF 0
ENDMDL
