MODEL 1
REMARK minimizedAffinity 21.8744507
REMARK minimizedRMSD -1
REMARK  0 active torsions:
REMARK  status: ('A' for Active; 'I' for Inactive)
ROOT
ATOM      1  C   UNL d   1       2.693   0.367  -0.947  0.00  0.00     0.020 A 
ATOM      2  C1  UNL d   1       2.949   0.155  -2.301  0.00  0.00     0.020 A 
ATOM      3  C2  UNL d   1       2.025  -0.539  -3.086  0.00  0.00     0.034 A 
ATOM      4  C3  UNL d   1       0.841  -1.023  -2.517  0.00  0.00     0.017 A 
ATOM      5  C4  UNL d   1       0.585  -0.809  -1.158  0.00  0.00     0.017 A 
ATOM      6  C5  UNL d   1       1.514  -0.114  -0.377  0.00  0.00     0.034 A 
ATOM      7 Cl   UNL d   1      -0.853  -1.376  -0.385  0.00  0.00    -0.070 Cl
ATOM      8 Cl1  UNL d   1      -0.257  -1.871  -3.547  0.00  0.00    -0.070 Cl
ENDROOT
TORSDOF 0
ENDMDL
