MODEL 1
REMARK minimizedAffinity 1.28149462
REMARK minimizedRMSD -1
REMARK  0 active torsions:
REMARK  status: ('A' for Active; 'I' for Inactive)
ROOT
ATOM      1  C   UNL d   1      -1.278  -2.147  -0.314  0.00  0.00     0.020 A 
ATOM      2  C1  UNL d   1      -0.662  -3.275  -0.853  0.00  0.00     0.020 A 
ATOM      3  C2  UNL d   1      -0.403  -4.384  -0.044  0.00  0.00     0.034 A 
ATOM      4  C3  UNL d   1      -0.760  -4.366   1.309  0.00  0.00     0.017 A 
ATOM      5  C4  UNL d   1      -1.378  -3.233   1.850  0.00  0.00     0.017 A 
ATOM      6  C5  UNL d   1      -1.635  -2.126   1.035  0.00  0.00     0.034 A 
ATOM      7 Cl   UNL d   1      -1.848  -3.136   3.510  0.00  0.00    -0.070 Cl
ATOM      8 Cl1  UNL d   1      -0.410  -5.771   2.251  0.00  0.00    -0.070 Cl
ENDROOT
TORSDOF 0
ENDMDL
