MODEL 1
REMARK minimizedAffinity 14.0648355
REMARK minimizedRMSD -1
REMARK  0 active torsions:
REMARK  status: ('A' for Active; 'I' for Inactive)
ROOT
ATOM      1  C   UNL d   1       4.902   3.695  -0.384  0.00  0.00     0.020 A 
ATOM      2  C1  UNL d   1       5.889   2.713  -0.437  0.00  0.00     0.020 A 
ATOM      3  C2  UNL d   1       6.000   1.777   0.594  0.00  0.00     0.034 A 
ATOM      4  C3  UNL d   1       5.121   1.822   1.683  0.00  0.00     0.017 A 
ATOM      5  C4  UNL d   1       4.130   2.809   1.735  0.00  0.00     0.017 A 
ATOM      6  C5  UNL d   1       4.024   3.743   0.700  0.00  0.00     0.034 A 
ATOM      7 Cl   UNL d   1       3.009   2.928   3.045  0.00  0.00    -0.070 Cl
ATOM      8 Cl1  UNL d   1       5.315   0.634   2.922  0.00  0.00    -0.070 Cl
ENDROOT
TORSDOF 0
ENDMDL
