MODEL 1
REMARK minimizedAffinity 9.49388695
REMARK minimizedRMSD -1
REMARK  0 active torsions:
REMARK  status: ('A' for Active; 'I' for Inactive)
ROOT
ATOM      1  C   UNL d   1      -5.755   5.655  -0.720  0.00  0.00     0.020 A 
ATOM      2  C1  UNL d   1      -4.870   4.619  -1.019  0.00  0.00     0.020 A 
ATOM      3  C2  UNL d   1      -4.229   3.929   0.012  0.00  0.00     0.034 A 
ATOM      4  C3  UNL d   1      -4.472   4.273   1.347  0.00  0.00     0.017 A 
ATOM      5  C4  UNL d   1      -5.361   5.312   1.646  0.00  0.00     0.017 A 
ATOM      6  C5  UNL d   1      -6.000   6.000   0.610  0.00  0.00     0.034 A 
ATOM      7 Cl   UNL d   1      -5.711   5.794   3.269  0.00  0.00    -0.070 Cl
ATOM      8 Cl1  UNL d   1      -3.645   3.377   2.571  0.00  0.00    -0.070 Cl
ENDROOT
TORSDOF 0
ENDMDL
