MODEL 1
REMARK minimizedAffinity 9.01277637
REMARK minimizedRMSD -1
REMARK  0 active torsions:
REMARK  status: ('A' for Active; 'I' for Inactive)
ROOT
ATOM      1  C   UNL d   1      -0.568  -5.091   2.012  0.00  0.00     0.020 A 
ATOM      2  C1  UNL d   1      -0.487  -4.837   0.643  0.00  0.00     0.020 A 
ATOM      3  C2  UNL d   1      -0.946  -3.622   0.130  0.00  0.00     0.034 A 
ATOM      4  C3  UNL d   1      -1.487  -2.656   0.986  0.00  0.00     0.017 A 
ATOM      5  C4  UNL d   1      -1.568  -2.912   2.360  0.00  0.00     0.017 A 
ATOM      6  C5  UNL d   1      -1.107  -4.130   2.868  0.00  0.00     0.034 A 
ATOM      7 Cl   UNL d   1      -2.224  -1.769   3.478  0.00  0.00    -0.070 Cl
ATOM      8 Cl1  UNL d   1      -2.035  -1.176   0.283  0.00  0.00    -0.070 Cl
ENDROOT
TORSDOF 0
ENDMDL
