MODEL 1
REMARK minimizedAffinity 11.9434814
REMARK minimizedRMSD -1
REMARK  0 active torsions:
REMARK  status: ('A' for Active; 'I' for Inactive)
ROOT
ATOM      1  C   UNL d   1      -2.230  -1.658  -0.130  0.00  0.00     0.020 A 
ATOM      2  C1  UNL d   1      -1.305  -2.414  -0.849  0.00  0.00     0.020 A 
ATOM      3  C2  UNL d   1      -0.697  -3.523  -0.256  0.00  0.00     0.034 A 
ATOM      4  C3  UNL d   1      -1.014  -3.879   1.060  0.00  0.00     0.017 A 
ATOM      5  C4  UNL d   1      -1.942  -3.120   1.781  0.00  0.00     0.017 A 
ATOM      6  C5  UNL d   1      -2.548  -2.010   1.182  0.00  0.00     0.034 A 
ATOM      7 Cl   UNL d   1      -2.384  -3.497   3.409  0.00  0.00    -0.070 Cl
ATOM      8 Cl1  UNL d   1      -0.224  -5.262   1.730  0.00  0.00    -0.070 Cl
ENDROOT
TORSDOF 0
ENDMDL
