MODEL 1
REMARK minimizedAffinity 6.03175735
REMARK minimizedRMSD -1
REMARK  0 active torsions:
REMARK  status: ('A' for Active; 'I' for Inactive)
ROOT
ATOM      1  C   UNL d   1      -5.773   5.413  -5.663  0.00  0.00     0.020 A 
ATOM      2  C1  UNL d   1      -4.793   6.000  -4.863  0.00  0.00     0.020 A 
ATOM      3  C2  UNL d   1      -3.721   5.236  -4.398  0.00  0.00     0.034 A 
ATOM      4  C3  UNL d   1      -3.625   3.880  -4.734  0.00  0.00     0.017 A 
ATOM      5  C4  UNL d   1      -4.608   3.292  -5.537  0.00  0.00     0.017 A 
ATOM      6  C5  UNL d   1      -5.680   4.062  -6.000  0.00  0.00     0.034 A 
ATOM      7 Cl   UNL d   1      -4.558   1.626  -5.993  0.00  0.00    -0.070 Cl
ATOM      8 Cl1  UNL d   1      -2.271   2.996  -4.124  0.00  0.00    -0.070 Cl
ENDROOT
TORSDOF 0
ENDMDL
