MODEL 1
REMARK minimizedAffinity 13.0574255
REMARK minimizedRMSD -1
REMARK  0 active torsions:
REMARK  status: ('A' for Active; 'I' for Inactive)
ROOT
ATOM      1  C   UNL d   1       2.455   0.708  -1.748  0.00  0.00     0.020 A 
ATOM      2  C1  UNL d   1       3.217   1.424  -2.671  0.00  0.00     0.020 A 
ATOM      3  C2  UNL d   1       3.956   2.533  -2.255  0.00  0.00     0.034 A 
ATOM      4  C3  UNL d   1       3.935   2.930  -0.913  0.00  0.00     0.017 A 
ATOM      5  C4  UNL d   1       3.171   2.210   0.013  0.00  0.00     0.017 A 
ATOM      6  C5  UNL d   1       2.433   1.100  -0.409  0.00  0.00     0.034 A 
ATOM      7 Cl   UNL d   1       3.096   2.639   1.685  0.00  0.00    -0.070 Cl
ATOM      8 Cl1  UNL d   1       4.874   4.311  -0.469  0.00  0.00    -0.070 Cl
ENDROOT
TORSDOF 0
ENDMDL
