MODEL 1
REMARK minimizedAffinity 11.325346
REMARK minimizedRMSD -1
REMARK  0 active torsions:
REMARK  status: ('A' for Active; 'I' for Inactive)
ROOT
ATOM      1  C   UNL d   1      -0.018  -5.622  -0.211  0.00  0.00     0.020 A 
ATOM      2  C1  UNL d   1      -0.028  -4.700   0.834  0.00  0.00     0.020 A 
ATOM      3  C2  UNL d   1      -0.320  -3.358   0.580  0.00  0.00     0.034 A 
ATOM      4  C3  UNL d   1      -0.603  -2.935  -0.724  0.00  0.00     0.017 A 
ATOM      5  C4  UNL d   1      -0.592  -3.861  -1.773  0.00  0.00     0.017 A 
ATOM      6  C5  UNL d   1      -0.299  -5.203  -1.512  0.00  0.00     0.034 A 
ATOM      7 Cl   UNL d   1      -0.931  -3.413  -3.408  0.00  0.00    -0.070 Cl
ATOM      8 Cl1  UNL d   1      -0.955  -1.261  -0.966  0.00  0.00    -0.070 Cl
ENDROOT
TORSDOF 0
ENDMDL
