MODEL 1
REMARK minimizedAffinity 6.02865839
REMARK minimizedRMSD -1
REMARK  0 active torsions:
REMARK  status: ('A' for Active; 'I' for Inactive)
ROOT
ATOM      1  C   UNL d   1      -4.076   2.602   5.999  0.00  0.00     0.020 A 
ATOM      2  C1  UNL d   1      -5.459   2.420   6.000  0.00  0.00     0.020 A 
ATOM      3  C2  UNL d   1      -5.994   1.130   6.000  0.00  0.00     0.034 A 
ATOM      4  C3  UNL d   1      -5.146   0.017   5.999  0.00  0.00     0.017 A 
ATOM      5  C4  UNL d   1      -3.758   0.200   5.999  0.00  0.00     0.017 A 
ATOM      6  C5  UNL d   1      -3.228   1.494   5.999  0.00  0.00     0.034 A 
ATOM      7 Cl   UNL d   1      -2.648  -1.125   5.999  0.00  0.00    -0.070 Cl
ATOM      8 Cl1  UNL d   1      -5.876  -1.549   6.000  0.00  0.00    -0.070 Cl
ENDROOT
TORSDOF 0
ENDMDL
