MODEL 1
REMARK minimizedAffinity 10.5778551
REMARK minimizedRMSD -1
REMARK  0 active torsions:
REMARK  status: ('A' for Active; 'I' for Inactive)
ROOT
ATOM      1  C   UNL d   1      -5.997   4.679  -6.000  0.00  0.00     0.020 A 
ATOM      2  C1  UNL d   1      -5.820   5.866  -5.290  0.00  0.00     0.020 A 
ATOM      3  C2  UNL d   1      -4.747   5.998  -4.407  0.00  0.00     0.034 A 
ATOM      4  C3  UNL d   1      -3.846   4.941  -4.230  0.00  0.00     0.017 A 
ATOM      5  C4  UNL d   1      -4.025   3.750  -4.943  0.00  0.00     0.017 A 
ATOM      6  C5  UNL d   1      -5.101   3.623  -5.827  0.00  0.00     0.034 A 
ATOM      7 Cl   UNL d   1      -2.955   2.402  -4.779  0.00  0.00    -0.070 Cl
ATOM      8 Cl1  UNL d   1      -2.541   5.174  -3.122  0.00  0.00    -0.070 Cl
ENDROOT
TORSDOF 0
ENDMDL
