MODEL 1
REMARK minimizedAffinity 10.7134266
REMARK minimizedRMSD -1
REMARK  0 active torsions:
REMARK  status: ('A' for Active; 'I' for Inactive)
ROOT
ATOM      1  C   UNL d   1      -0.010   3.380  -5.616  0.00  0.00     0.020 A 
ATOM      2  C1  UNL d   1       0.326   2.609  -4.504  0.00  0.00     0.020 A 
ATOM      3  C2  UNL d   1      -0.674   1.963  -3.774  0.00  0.00     0.034 A 
ATOM      4  C3  UNL d   1      -2.015   2.088  -4.156  0.00  0.00     0.017 A 
ATOM      5  C4  UNL d   1      -2.351   2.861  -5.272  0.00  0.00     0.017 A 
ATOM      6  C5  UNL d   1      -1.345   3.505  -6.000  0.00  0.00     0.034 A 
ATOM      7 Cl   UNL d   1      -3.983   3.062  -5.804  0.00  0.00    -0.070 Cl
ATOM      8 Cl1  UNL d   1      -3.200   1.262  -3.207  0.00  0.00    -0.070 Cl
ENDROOT
TORSDOF 0
ENDMDL
