MODEL 1
REMARK minimizedAffinity 14.1301928
REMARK minimizedRMSD -1
REMARK  0 active torsions:
REMARK  status: ('A' for Active; 'I' for Inactive)
ROOT
ATOM      1  C   UNL d   1       3.622   1.715   2.616  0.00  0.00     0.020 A 
ATOM      2  C1  UNL d   1       2.566   1.045   1.999  0.00  0.00     0.020 A 
ATOM      3  C2  UNL d   1       2.250   1.316   0.667  0.00  0.00     0.034 A 
ATOM      4  C3  UNL d   1       2.990   2.261  -0.054  0.00  0.00     0.017 A 
ATOM      5  C4  UNL d   1       4.049   2.934   0.566  0.00  0.00     0.017 A 
ATOM      6  C5  UNL d   1       4.361   2.658   1.901  0.00  0.00     0.034 A 
ATOM      7 Cl   UNL d   1       5.007   4.113  -0.258  0.00  0.00    -0.070 Cl
ATOM      8 Cl1  UNL d   1       2.543   2.547  -1.698  0.00  0.00    -0.070 Cl
ENDROOT
TORSDOF 0
ENDMDL
