MODEL 1
REMARK minimizedAffinity 20.5077152
REMARK minimizedRMSD -1
REMARK  0 active torsions:
REMARK  status: ('A' for Active; 'I' for Inactive)
ROOT
ATOM      1  C   UNL d   1       4.792   4.427   6.000  0.00  0.00     0.020 A 
ATOM      2  C1  UNL d   1       5.999   4.201   5.339  0.00  0.00     0.020 A 
ATOM      3  C2  UNL d   1       5.999   3.852   3.987  0.00  0.00     0.034 A 
ATOM      4  C3  UNL d   1       4.791   3.729   3.291  0.00  0.00     0.017 A 
ATOM      5  C4  UNL d   1       3.580   3.956   3.955  0.00  0.00     0.017 A 
ATOM      6  C5  UNL d   1       3.586   4.305   5.310  0.00  0.00     0.034 A 
ATOM      7 Cl   UNL d   1       2.050   3.823   3.164  0.00  0.00    -0.070 Cl
ATOM      8 Cl1  UNL d   1       4.867   3.295   1.620  0.00  0.00    -0.070 Cl
ENDROOT
TORSDOF 0
ENDMDL
