MODEL 1
REMARK minimizedAffinity 11.7720175
REMARK minimizedRMSD -1
REMARK  0 active torsions:
REMARK  status: ('A' for Active; 'I' for Inactive)
ROOT
ATOM      1  C   UNL d   1      -5.229   5.997  -0.134  0.00  0.00     0.020 A 
ATOM      2  C1  UNL d   1      -4.141   5.174  -0.420  0.00  0.00     0.020 A 
ATOM      3  C2  UNL d   1      -3.609   4.348   0.573  0.00  0.00     0.034 A 
ATOM      4  C3  UNL d   1      -4.166   4.344   1.857  0.00  0.00     0.017 A 
ATOM      5  C4  UNL d   1      -5.258   5.171   2.144  0.00  0.00     0.017 A 
ATOM      6  C5  UNL d   1      -5.786   5.996   1.146  0.00  0.00     0.034 A 
ATOM      7 Cl   UNL d   1      -5.999   5.220   3.705  0.00  0.00    -0.070 Cl
ATOM      8 Cl1  UNL d   1      -3.458   3.298   3.036  0.00  0.00    -0.070 Cl
ENDROOT
TORSDOF 0
ENDMDL
