MODEL 1
REMARK minimizedAffinity 5.2153244
REMARK minimizedRMSD -1
REMARK  0 active torsions:
REMARK  status: ('A' for Active; 'I' for Inactive)
ROOT
ATOM      1  C   UNL d   1      -1.937  -2.650   2.404  0.00  0.00     0.020 A 
ATOM      2  C1  UNL d   1      -1.044  -3.133   1.449  0.00  0.00     0.020 A 
ATOM      3  C2  UNL d   1      -1.142  -2.708   0.123  0.00  0.00     0.034 A 
ATOM      4  C3  UNL d   1      -2.136  -1.796  -0.252  0.00  0.00     0.017 A 
ATOM      5  C4  UNL d   1      -3.032  -1.311   0.707  0.00  0.00     0.017 A 
ATOM      6  C5  UNL d   1      -2.929  -1.741   2.034  0.00  0.00     0.034 A 
ATOM      7 Cl   UNL d   1      -4.284  -0.185   0.320  0.00  0.00    -0.070 Cl
ATOM      8 Cl1  UNL d   1      -2.198  -1.313  -1.910  0.00  0.00    -0.070 Cl
ENDROOT
TORSDOF 0
ENDMDL
