MODEL 1
REMARK minimizedAffinity 6.70332479
REMARK minimizedRMSD -1
REMARK  0 active torsions:
REMARK  status: ('A' for Active; 'I' for Inactive)
ROOT
ATOM      1  C   UNL d   1       5.444   3.849  -0.739  0.00  0.00     0.020 A 
ATOM      2  C1  UNL d   1       4.135   3.671  -0.292  0.00  0.00     0.020 A 
ATOM      3  C2  UNL d   1       3.381   2.589  -0.753  0.00  0.00     0.034 A 
ATOM      4  C3  UNL d   1       3.935   1.682  -1.663  0.00  0.00     0.017 A 
ATOM      5  C4  UNL d   1       5.248   1.862  -2.112  0.00  0.00     0.017 A 
ATOM      6  C5  UNL d   1       5.999   2.946  -1.647  0.00  0.00     0.034 A 
ATOM      7 Cl   UNL d   1       6.000   0.784  -3.234  0.00  0.00    -0.070 Cl
ATOM      8 Cl1  UNL d   1       2.945   0.368  -2.191  0.00  0.00    -0.070 Cl
ENDROOT
TORSDOF 0
ENDMDL
