MODEL 1
REMARK minimizedAffinity 21.8013153
REMARK minimizedRMSD -1
REMARK  1 active torsions:
REMARK  status: ('A' for Active; 'I' for Inactive)
REMARK    1  A    between atoms: C1_2  and  C2_3 
ROOT
ATOM      1  C2  UNL d   1      -2.293   3.649   0.675  0.00  0.00    -0.076 A 
ATOM      2  C3  UNL d   1      -1.999   4.996   0.400  0.00  0.00     0.004 A 
ATOM      3  C4  UNL d   1      -2.935   5.999   0.646  0.00  0.00    -0.003 A 
ATOM      4  C5  UNL d   1      -4.180   5.672   1.172  0.00  0.00     0.000 A 
ATOM      5  C6  UNL d   1      -4.482   4.343   1.467  0.00  0.00     0.000 A 
ATOM      6  C7  UNL d   1      -3.543   3.321   1.240  0.00  0.00    -0.073 A 
ATOM      7  C8  UNL d   1      -3.924   1.904   1.572  0.00  0.00     0.078 C 
ENDROOT
BRANCH   1   8
ATOM      8  C1  UNL d   1      -1.248   2.602   0.362  0.00  0.00     0.053 C 
ATOM      9  C   UNL d   1      -0.146   2.547   1.409  0.00  0.00     0.018 C 
ENDBRANCH   1   8
TORSDOF 1
ENDMDL
