MODEL 1
REMARK minimizedAffinity 16.8640194
REMARK minimizedRMSD -1
REMARK  1 active torsions:
REMARK  status: ('A' for Active; 'I' for Inactive)
REMARK    1  A    between atoms: C1_2  and  C2_3 
ROOT
ATOM      1  C2  UNL d   1      -3.160   3.416   0.666  0.00  0.00    -0.076 A 
ATOM      2  C3  UNL d   1      -2.629   4.684   0.370  0.00  0.00     0.004 A 
ATOM      3  C4  UNL d   1      -3.359   5.844   0.622  0.00  0.00    -0.003 A 
ATOM      4  C5  UNL d   1      -4.632   5.756   1.175  0.00  0.00     0.000 A 
ATOM      5  C6  UNL d   1      -5.167   4.508   1.492  0.00  0.00     0.000 A 
ATOM      6  C7  UNL d   1      -4.438   3.329   1.259  0.00  0.00    -0.073 A 
ATOM      7  C8  UNL d   1      -5.066   2.009   1.614  0.00  0.00     0.078 C 
ENDROOT
BRANCH   1   8
ATOM      8  C1  UNL d   1      -2.333   2.192   0.346  0.00  0.00     0.053 C 
ATOM      9  C   UNL d   1      -2.739   1.542  -0.968  0.00  0.00     0.018 C 
ENDBRANCH   1   8
TORSDOF 1
ENDMDL
