MODEL 1
REMARK minimizedAffinity 12.3978252
REMARK minimizedRMSD -1
REMARK  1 active torsions:
REMARK  status: ('A' for Active; 'I' for Inactive)
REMARK    1  A    between atoms: C1_2  and  C2_3 
ROOT
ATOM      1  C2  UNL d   1      -3.767  -4.271   4.920  0.00  0.00    -0.076 A 
ATOM      2  C3  UNL d   1      -2.388  -4.143   4.677  0.00  0.00     0.004 A 
ATOM      3  C4  UNL d   1      -1.691  -3.004   5.079  0.00  0.00    -0.003 A 
ATOM      4  C5  UNL d   1      -2.362  -1.976   5.732  0.00  0.00     0.000 A 
ATOM      5  C6  UNL d   1      -3.726  -2.093   5.997  0.00  0.00     0.000 A 
ATOM      6  C7  UNL d   1      -4.440  -3.241   5.612  0.00  0.00    -0.073 A 
ATOM      7  C8  UNL d   1      -5.911  -3.313   5.918  0.00  0.00     0.078 C 
ENDROOT
BRANCH   1   8
ATOM      8  C1  UNL d   1      -4.475  -5.516   4.437  0.00  0.00     0.053 C 
ATOM      9  C   UNL d   1      -5.985  -5.422   4.585  0.00  0.00     0.018 C 
ENDBRANCH   1   8
TORSDOF 1
ENDMDL
