MODEL 1
REMARK minimizedAffinity -1.69586849
REMARK minimizedRMSD -1
REMARK  1 active torsions:
REMARK  status: ('A' for Active; 'I' for Inactive)
REMARK    1  A    between atoms: C1_2  and  C2_3 
ROOT
ATOM      1  C2  UNL d   1      -3.757   3.572  -4.957  0.00  0.00    -0.076 A 
ATOM      2  C3  UNL d   1      -2.857   2.865  -4.141  0.00  0.00     0.004 A 
ATOM      3  C4  UNL d   1      -1.767   3.505  -3.553  0.00  0.00    -0.003 A 
ATOM      4  C5  UNL d   1      -1.561   4.863  -3.771  0.00  0.00     0.000 A 
ATOM      5  C6  UNL d   1      -2.454   5.584  -4.563  0.00  0.00     0.000 A 
ATOM      6  C7  UNL d   1      -3.567   4.957  -5.150  0.00  0.00    -0.073 A 
ATOM      7  C8  UNL d   1      -4.494   5.781  -6.000  0.00  0.00     0.078 C 
ENDROOT
BRANCH   1   8
ATOM      8  C1  UNL d   1      -4.905   2.819  -5.590  0.00  0.00     0.053 C 
ATOM      9  C   UNL d   1      -5.222   1.521  -4.864  0.00  0.00     0.018 C 
ENDBRANCH   1   8
TORSDOF 1
ENDMDL
