MODEL 1
REMARK minimizedAffinity 9.18907261
REMARK minimizedRMSD -1
REMARK  1 active torsions:
REMARK  status: ('A' for Active; 'I' for Inactive)
REMARK    1  A    between atoms: C1_2  and  C2_3 
ROOT
ATOM      1  C2  UNL d   1      -4.251  -3.978   4.369  0.00  0.00    -0.076 A 
ATOM      2  C3  UNL d   1      -2.954  -4.257   3.904  0.00  0.00     0.004 A 
ATOM      3  C4  UNL d   1      -1.842  -3.629   4.463  0.00  0.00    -0.003 A 
ATOM      4  C5  UNL d   1      -2.008  -2.714   5.496  0.00  0.00     0.000 A 
ATOM      5  C6  UNL d   1      -3.286  -2.438   5.981  0.00  0.00     0.000 A 
ATOM      6  C7  UNL d   1      -4.417  -3.074   5.440  0.00  0.00    -0.073 A 
ATOM      7  C8  UNL d   1      -5.772  -2.735   5.999  0.00  0.00     0.078 C 
ENDROOT
BRANCH   1   8
ATOM      8  C1  UNL d   1      -5.422  -4.668   3.707  0.00  0.00     0.053 C 
ATOM      9  C   UNL d   1      -5.937  -5.848   4.516  0.00  0.00     0.018 C 
ENDBRANCH   1   8
TORSDOF 1
ENDMDL
