MODEL 1
REMARK minimizedAffinity 2.71618938
REMARK minimizedRMSD -1
REMARK  1 active torsions:
REMARK  status: ('A' for Active; 'I' for Inactive)
REMARK    1  A    between atoms: C1_2  and  C2_3 
ROOT
ATOM      1  C2  UNL d   1      -3.642   3.307  -4.961  0.00  0.00    -0.076 A 
ATOM      2  C3  UNL d   1      -4.260   4.164  -5.889  0.00  0.00     0.004 A 
ATOM      3  C4  UNL d   1      -3.875   5.499  -5.999  0.00  0.00    -0.003 A 
ATOM      4  C5  UNL d   1      -2.866   5.999  -5.184  0.00  0.00     0.000 A 
ATOM      5  C6  UNL d   1      -2.230   5.159  -4.270  0.00  0.00     0.000 A 
ATOM      6  C7  UNL d   1      -2.595   3.807  -4.158  0.00  0.00    -0.073 A 
ATOM      7  C8  UNL d   1      -1.879   2.947  -3.152  0.00  0.00     0.078 C 
ENDROOT
BRANCH   1   8
ATOM      8  C1  UNL d   1      -4.120   1.876  -4.868  0.00  0.00     0.053 C 
ATOM      9  C   UNL d   1      -5.353   1.616  -5.719  0.00  0.00     0.018 C 
ENDBRANCH   1   8
TORSDOF 1
ENDMDL
