MODEL 1
REMARK minimizedAffinity 20.9331169
REMARK minimizedRMSD -1
REMARK  1 active torsions:
REMARK  status: ('A' for Active; 'I' for Inactive)
REMARK    1  A    between atoms: C1_2  and  C2_3 
ROOT
ATOM      1  C2  UNL d   1       2.704  -3.715  -0.817  0.00  0.00    -0.076 A 
ATOM      2  C3  UNL d   1       1.445  -3.745  -1.441  0.00  0.00     0.004 A 
ATOM      3  C4  UNL d   1       1.011  -4.877  -2.128  0.00  0.00    -0.003 A 
ATOM      4  C5  UNL d   1       1.828  -6.000  -2.200  0.00  0.00     0.000 A 
ATOM      5  C6  UNL d   1       3.073  -5.995  -1.572  0.00  0.00     0.000 A 
ATOM      6  C7  UNL d   1       3.519  -4.867  -0.862  0.00  0.00    -0.073 A 
ATOM      7  C8  UNL d   1       4.873  -4.914  -0.209  0.00  0.00     0.078 C 
ENDROOT
BRANCH   1   8
ATOM      8  C1  UNL d   1       3.133  -2.449  -0.111  0.00  0.00     0.053 C 
ATOM      9  C   UNL d   1       2.003  -1.815   0.686  0.00  0.00     0.018 C 
ENDBRANCH   1   8
TORSDOF 1
ENDMDL
