MODEL 1
REMARK minimizedAffinity 0.443111539
REMARK minimizedRMSD -1
REMARK  1 active torsions:
REMARK  status: ('A' for Active; 'I' for Inactive)
REMARK    1  A    between atoms: C1_2  and  C2_3 
ROOT
ATOM      1  C2  UNL d   1      -0.497   2.408  -0.320  0.00  0.00    -0.076 A 
ATOM      2  C3  UNL d   1      -1.242   1.720  -1.293  0.00  0.00     0.004 A 
ATOM      3  C4  UNL d   1      -1.632   2.348  -2.475  0.00  0.00    -0.003 A 
ATOM      4  C5  UNL d   1      -1.284   3.675  -2.702  0.00  0.00     0.000 A 
ATOM      5  C6  UNL d   1      -0.531   4.368  -1.754  0.00  0.00     0.000 A 
ATOM      6  C7  UNL d   1      -0.115   3.744  -0.565  0.00  0.00    -0.073 A 
ATOM      7  C8  UNL d   1       0.691   4.540   0.424  0.00  0.00     0.078 C 
ENDROOT
BRANCH   1   8
ATOM      8  C1  UNL d   1      -0.125   1.683   0.954  0.00  0.00     0.053 C 
ATOM      9  C   UNL d   1      -1.067   2.004   2.104  0.00  0.00     0.018 C 
ENDBRANCH   1   8
TORSDOF 1
ENDMDL
