MODEL 1
REMARK minimizedAffinity 27.7387238
REMARK minimizedRMSD -1
REMARK  1 active torsions:
REMARK  status: ('A' for Active; 'I' for Inactive)
REMARK    1  A    between atoms: C1_2  and  C2_3 
ROOT
ATOM      1  C2  UNL d   1      -4.453   5.668   0.806  0.00  0.00    -0.076 A 
ATOM      2  C3  UNL d   1      -5.715   5.967   0.264  0.00  0.00     0.004 A 
ATOM      3  C4  UNL d   1      -6.000   5.708  -1.076  0.00  0.00    -0.003 A 
ATOM      4  C5  UNL d   1      -5.027   5.145  -1.895  0.00  0.00     0.000 A 
ATOM      5  C6  UNL d   1      -3.776   4.825  -1.370  0.00  0.00     0.000 A 
ATOM      6  C7  UNL d   1      -3.478   5.065  -0.017  0.00  0.00    -0.073 A 
ATOM      7  C8  UNL d   1      -2.110   4.706   0.495  0.00  0.00     0.078 C 
ENDROOT
BRANCH   1   8
ATOM      8  C1  UNL d   1      -4.192   5.996   2.259  0.00  0.00     0.053 C 
ATOM      9  C   UNL d   1      -5.403   5.733   3.141  0.00  0.00     0.018 C 
ENDBRANCH   1   8
TORSDOF 1
ENDMDL
