MODEL 1
REMARK minimizedAffinity 18.260519
REMARK minimizedRMSD -1
REMARK  1 active torsions:
REMARK  status: ('A' for Active; 'I' for Inactive)
REMARK    1  A    between atoms: C1_2  and  C2_3 
ROOT
ATOM      1  C2  UNL d   1       0.553   2.396   1.676  0.00  0.00    -0.076 A 
ATOM      2  C3  UNL d   1      -0.425   1.426   1.396  0.00  0.00     0.004 A 
ATOM      3  C4  UNL d   1      -1.100   1.419   0.177  0.00  0.00    -0.003 A 
ATOM      4  C5  UNL d   1      -0.807   2.381  -0.784  0.00  0.00     0.000 A 
ATOM      5  C6  UNL d   1       0.173   3.340  -0.530  0.00  0.00     0.000 A 
ATOM      6  C7  UNL d   1       0.874   3.352   0.688  0.00  0.00    -0.073 A 
ATOM      7  C8  UNL d   1       1.917   4.412   0.910  0.00  0.00     0.078 C 
ENDROOT
BRANCH   1   8
ATOM      8  C1  UNL d   1       1.233   2.371   3.026  0.00  0.00     0.053 C 
ATOM      9  C   UNL d   1       1.138   1.011   3.701  0.00  0.00     0.018 C 
ENDBRANCH   1   8
TORSDOF 1
ENDMDL
