MODEL 1
REMARK minimizedAffinity 10.2548428
REMARK minimizedRMSD -1
REMARK  1 active torsions:
REMARK  status: ('A' for Active; 'I' for Inactive)
REMARK    1  A    between atoms: C1_2  and  C2_3 
ROOT
ATOM      1  C2  UNL d   1      -5.972  -1.677   1.051  0.00  0.00    -0.076 A 
ATOM      2  C3  UNL d   1      -5.990  -2.668   2.048  0.00  0.00     0.004 A 
ATOM      3  C4  UNL d   1      -5.992  -4.021   1.715  0.00  0.00    -0.003 A 
ATOM      4  C5  UNL d   1      -5.977  -4.406   0.379  0.00  0.00     0.000 A 
ATOM      5  C6  UNL d   1      -5.942  -3.437  -0.623  0.00  0.00     0.000 A 
ATOM      6  C7  UNL d   1      -5.922  -2.068  -0.304  0.00  0.00    -0.073 A 
ATOM      7  C8  UNL d   1      -5.891  -1.066  -1.425  0.00  0.00     0.078 C 
ENDROOT
BRANCH   1   8
ATOM      8  C1  UNL d   1      -5.998  -0.225   1.472  0.00  0.00     0.053 C 
ATOM      9  C   UNL d   1      -4.609   0.321   1.764  0.00  0.00     0.018 C 
ENDBRANCH   1   8
TORSDOF 1
ENDMDL
