MODEL 1
REMARK minimizedAffinity 22.1318378
REMARK minimizedRMSD -1
REMARK  1 active torsions:
REMARK  status: ('A' for Active; 'I' for Inactive)
REMARK    1  A    between atoms: C1_2  and  C2_3 
ROOT
ATOM      1  C2  UNL d   1      -3.616   5.141  -0.058  0.00  0.00    -0.076 A 
ATOM      2  C3  UNL d   1      -3.737   4.937  -1.444  0.00  0.00     0.004 A 
ATOM      3  C4  UNL d   1      -4.918   5.250  -2.114  0.00  0.00    -0.003 A 
ATOM      4  C5  UNL d   1      -5.997   5.774  -1.410  0.00  0.00     0.000 A 
ATOM      5  C6  UNL d   1      -5.888   5.999  -0.038  0.00  0.00     0.000 A 
ATOM      6  C7  UNL d   1      -4.699   5.703   0.650  0.00  0.00    -0.073 A 
ATOM      7  C8  UNL d   1      -4.639   5.961   2.131  0.00  0.00     0.078 C 
ENDROOT
BRANCH   1   8
ATOM      8  C1  UNL d   1      -2.320   4.756   0.620  0.00  0.00     0.053 C 
ATOM      9  C   UNL d   1      -1.410   3.938  -0.283  0.00  0.00     0.018 C 
ENDBRANCH   1   8
TORSDOF 1
ENDMDL
