MODEL 1
REMARK minimizedAffinity 18.6305752
REMARK minimizedRMSD -1
REMARK  1 active torsions:
REMARK  status: ('A' for Active; 'I' for Inactive)
REMARK    1  A    between atoms: C1_2  and  C2_3 
ROOT
ATOM      1  C2  UNL d   1      -2.222   3.595   0.094  0.00  0.00    -0.076 A 
ATOM      2  C3  UNL d   1      -1.104   4.152  -0.552  0.00  0.00     0.004 A 
ATOM      3  C4  UNL d   1       0.101   3.455  -0.628  0.00  0.00    -0.003 A 
ATOM      4  C5  UNL d   1       0.207   2.190  -0.060  0.00  0.00     0.000 A 
ATOM      5  C6  UNL d   1      -0.897   1.616   0.569  0.00  0.00     0.000 A 
ATOM      6  C7  UNL d   1      -2.123   2.298   0.640  0.00  0.00    -0.073 A 
ATOM      7  C8  UNL d   1      -3.279   1.634   1.336  0.00  0.00     0.078 C 
ENDROOT
BRANCH   1   8
ATOM      8  C1  UNL d   1      -3.494   4.409   0.169  0.00  0.00     0.053 C 
ATOM      9  C   UNL d   1      -3.654   5.118   1.505  0.00  0.00     0.018 C 
ENDBRANCH   1   8
TORSDOF 1
ENDMDL
