MODEL 1
REMARK minimizedAffinity -3.23051214
REMARK minimizedRMSD -1
REMARK  0 active torsions:
REMARK  status: ('A' for Active; 'I' for Inactive)
ROOT
ATOM      1  C   UNL d   1      -1.192   0.299   0.359  0.00  0.00     0.172 C 
ATOM      2  N   UNL d   1      -0.003  -0.306  -0.193  0.00  0.00    -0.070 N 
ATOM      3  C1  UNL d   1       1.020   0.362  -0.812  0.00  0.00    -0.004 A 
ATOM      4  C2  UNL d   1       1.961  -0.568  -1.195  0.00  0.00    -0.047 A 
ATOM      5  C3  UNL d   1       1.488  -1.840  -0.794  0.00  0.00    -0.047 A 
ATOM      6  C4  UNL d   1       0.270  -1.648  -0.177  0.00  0.00    -0.004 A 
ENDROOT
TORSDOF 0
ENDMDL
