MODEL 1
REMARK minimizedAffinity -3.65629148
REMARK minimizedRMSD -1
REMARK  0 active torsions:
REMARK  status: ('A' for Active; 'I' for Inactive)
ROOT
ATOM      1  C   UNL d   1      -1.189  -0.061   0.621  0.00  0.00     0.172 C 
ATOM      2  N   UNL d   1      -0.017  -0.563  -0.057  0.00  0.00    -0.070 N 
ATOM      3  C1  UNL d   1       0.763  -1.607   0.364  0.00  0.00    -0.004 A 
ATOM      4  C2  UNL d   1       1.778  -1.772  -0.554  0.00  0.00    -0.047 A 
ATOM      5  C3  UNL d   1       1.602  -0.793  -1.561  0.00  0.00    -0.047 A 
ATOM      6  C4  UNL d   1       0.484  -0.058  -1.228  0.00  0.00    -0.004 A 
ENDROOT
TORSDOF 0
ENDMDL
