MODEL 1
REMARK minimizedAffinity 2.41937828
REMARK minimizedRMSD -1
REMARK  0 active torsions:
REMARK  status: ('A' for Active; 'I' for Inactive)
ROOT
ATOM      1  C   UNL d   1       4.378   3.465  -0.037  0.00  0.00     0.172 C 
ATOM      2  N   UNL d   1       4.781   4.477   0.911  0.00  0.00    -0.070 N 
ATOM      3  C1  UNL d   1       5.999   5.102   0.943  0.00  0.00    -0.004 A 
ATOM      4  C2  UNL d   1       5.987   5.998   1.991  0.00  0.00    -0.047 A 
ATOM      5  C3  UNL d   1       4.718   5.907   2.610  0.00  0.00    -0.047 A 
ATOM      6  C4  UNL d   1       3.991   4.958   1.922  0.00  0.00    -0.004 A 
ENDROOT
TORSDOF 0
ENDMDL
