MODEL 1
REMARK minimizedAffinity -1.17325425
REMARK minimizedRMSD -1
REMARK  0 active torsions:
REMARK  status: ('A' for Active; 'I' for Inactive)
ROOT
ATOM      1  C   UNL d   1       0.506  -0.572  -0.127  0.00  0.00     0.172 C 
ATOM      2  N   UNL d   1      -0.598   0.048   0.568  0.00  0.00    -0.070 N 
ATOM      3  C1  UNL d   1      -1.915  -0.028   0.203  0.00  0.00    -0.004 A 
ATOM      4  C2  UNL d   1      -2.650   0.695   1.118  0.00  0.00    -0.047 A 
ATOM      5  C3  UNL d   1      -1.742   1.224   2.066  0.00  0.00    -0.047 A 
ATOM      6  C4  UNL d   1      -0.478   0.809   1.701  0.00  0.00    -0.004 A 
ENDROOT
TORSDOF 0
ENDMDL
