MODEL 1
REMARK minimizedAffinity -3.03561997
REMARK minimizedRMSD -1
REMARK  0 active torsions:
REMARK  status: ('A' for Active; 'I' for Inactive)
ROOT
ATOM      1  C   UNL d   1       2.579  -0.835  -1.101  0.00  0.00     0.172 C 
ATOM      2  N   UNL d   1       1.295  -0.444  -0.569  0.00  0.00    -0.070 N 
ATOM      3  C1  UNL d   1       0.357  -1.291  -0.042  0.00  0.00    -0.004 A 
ATOM      4  C2  UNL d   1      -0.723  -0.532   0.353  0.00  0.00    -0.047 A 
ATOM      5  C3  UNL d   1      -0.424   0.819   0.054  0.00  0.00    -0.047 A 
ATOM      6  C4  UNL d   1       0.832   0.844  -0.516  0.00  0.00    -0.004 A 
ENDROOT
TORSDOF 0
ENDMDL
