MODEL 1
REMARK minimizedAffinity -2.58453441
REMARK minimizedRMSD -1
REMARK  0 active torsions:
REMARK  status: ('A' for Active; 'I' for Inactive)
ROOT
ATOM      1  C   UNL d   1      -0.530   1.073  -0.059  0.00  0.00     0.172 C 
ATOM      2  N   UNL d   1      -1.124   0.823   1.233  0.00  0.00    -0.070 N 
ATOM      3  C1  UNL d   1      -1.850  -0.287   1.577  0.00  0.00    -0.004 A 
ATOM      4  C2  UNL d   1      -2.239  -0.146   2.891  0.00  0.00    -0.047 A 
ATOM      5  C3  UNL d   1      -1.730   1.091   3.354  0.00  0.00    -0.047 A 
ATOM      6  C4  UNL d   1      -1.044   1.670   2.307  0.00  0.00    -0.004 A 
ENDROOT
TORSDOF 0
ENDMDL
