MODEL 1
REMARK minimizedAffinity -3.95608401
REMARK minimizedRMSD -1
REMARK  0 active torsions:
REMARK  status: ('A' for Active; 'I' for Inactive)
ROOT
ATOM      1  C   UNL d   1      -0.761   0.327  -0.356  0.00  0.00     0.172 C 
ATOM      2  N   UNL d   1       0.509  -0.270  -0.698  0.00  0.00    -0.070 N 
ATOM      3  C1  UNL d   1       0.853  -1.581  -0.500  0.00  0.00    -0.004 A 
ATOM      4  C2  UNL d   1       2.142  -1.752  -0.957  0.00  0.00    -0.047 A 
ATOM      5  C3  UNL d   1       2.587  -0.501  -1.447  0.00  0.00    -0.047 A 
ATOM      6  C4  UNL d   1       1.556   0.398  -1.274  0.00  0.00    -0.004 A 
ENDROOT
TORSDOF 0
ENDMDL
