MODEL 1
REMARK minimizedAffinity -3.28618956
REMARK minimizedRMSD -1
REMARK  0 active torsions:
REMARK  status: ('A' for Active; 'I' for Inactive)
ROOT
ATOM      1  C   UNL d   1      -0.298   0.213   0.274  0.00  0.00     0.172 C 
ATOM      2  N   UNL d   1       0.881  -0.375  -0.317  0.00  0.00    -0.070 N 
ATOM      3  C1  UNL d   1       1.875   0.308  -0.964  0.00  0.00    -0.004 A 
ATOM      4  C2  UNL d   1       2.816  -0.609  -1.380  0.00  0.00    -0.047 A 
ATOM      5  C3  UNL d   1       2.372  -1.888  -0.969  0.00  0.00    -0.047 A 
ATOM      6  C4  UNL d   1       1.171  -1.714  -0.313  0.00  0.00    -0.004 A 
ENDROOT
TORSDOF 0
ENDMDL
