MODEL 1
REMARK minimizedAffinity -1.42018652
REMARK minimizedRMSD -1
REMARK  0 active torsions:
REMARK  status: ('A' for Active; 'I' for Inactive)
ROOT
ATOM      1  C   UNL d   1      -1.026   0.407   0.553  0.00  0.00     0.172 C 
ATOM      2  N   UNL d   1      -1.541   0.692   1.872  0.00  0.00    -0.070 N 
ATOM      3  C1  UNL d   1      -1.142   1.723   2.679  0.00  0.00    -0.004 A 
ATOM      4  C2  UNL d   1      -1.870   1.650   3.848  0.00  0.00    -0.047 A 
ATOM      5  C3  UNL d   1      -2.735   0.536   3.739  0.00  0.00    -0.047 A 
ATOM      6  C4  UNL d   1      -2.510  -0.040   2.506  0.00  0.00    -0.004 A 
ENDROOT
TORSDOF 0
ENDMDL
