MODEL 1
REMARK minimizedAffinity -3.89147329
REMARK minimizedRMSD -1
REMARK  0 active torsions:
REMARK  status: ('A' for Active; 'I' for Inactive)
ROOT
ATOM      1  C   UNL d   1      -0.985   0.124   0.047  0.00  0.00     0.172 C 
ATOM      2  N   UNL d   1       0.246  -0.513  -0.357  0.00  0.00    -0.070 N 
ATOM      3  C1  UNL d   1       0.530  -1.847  -0.240  0.00  0.00    -0.004 A 
ATOM      4  C2  UNL d   1       1.799  -2.054  -0.737  0.00  0.00    -0.047 A 
ATOM      5  C3  UNL d   1       2.295  -0.800  -1.166  0.00  0.00    -0.047 A 
ATOM      6  C4  UNL d   1       1.313   0.136  -0.919  0.00  0.00    -0.004 A 
ENDROOT
TORSDOF 0
ENDMDL
