MODEL 1
REMARK minimizedAffinity -3.88876605
REMARK minimizedRMSD -1
REMARK  0 active torsions:
REMARK  status: ('A' for Active; 'I' for Inactive)
ROOT
ATOM      1  C   UNL d   1      -1.222   0.311   0.234  0.00  0.00     0.172 C 
ATOM      2  N   UNL d   1      -0.051  -0.355  -0.287  0.00  0.00    -0.070 N 
ATOM      3  C1  UNL d   1       1.025   0.261  -0.867  0.00  0.00    -0.004 A 
ATOM      4  C2  UNL d   1       1.926  -0.717  -1.230  0.00  0.00    -0.047 A 
ATOM      5  C3  UNL d   1       1.371  -1.964  -0.855  0.00  0.00    -0.047 A 
ATOM      6  C4  UNL d   1       0.147  -1.710  -0.274  0.00  0.00    -0.004 A 
ENDROOT
TORSDOF 0
ENDMDL
