MODEL 1
REMARK minimizedAffinity -1.93089569
REMARK minimizedRMSD -1
REMARK  0 active torsions:
REMARK  status: ('A' for Active; 'I' for Inactive)
ROOT
ATOM      1  C   UNL d   1      -0.784   3.720   2.242  0.00  0.00     0.172 C 
ATOM      2  N   UNL d   1      -0.811   2.966   1.011  0.00  0.00    -0.070 N 
ATOM      3  C1  UNL d   1      -0.685   3.490  -0.248  0.00  0.00    -0.004 A 
ATOM      4  C2  UNL d   1      -0.762   2.449  -1.148  0.00  0.00    -0.047 A 
ATOM      5  C3  UNL d   1      -0.941   1.258  -0.404  0.00  0.00    -0.047 A 
ATOM      6  C4  UNL d   1      -0.968   1.608   0.930  0.00  0.00    -0.004 A 
ENDROOT
TORSDOF 0
ENDMDL
