MODEL 1
REMARK minimizedAffinity -4.43209124
REMARK minimizedRMSD -1
REMARK  0 active torsions:
REMARK  status: ('A' for Active; 'I' for Inactive)
ROOT
ATOM      1  C   UNL d   1       0.313  -1.719   0.021  0.00  0.00     0.172 C 
ATOM      2  N   UNL d   1       1.305  -0.951  -0.695  0.00  0.00    -0.070 N 
ATOM      3  C1  UNL d   1       2.391  -1.465  -1.352  0.00  0.00    -0.004 A 
ATOM      4  C2  UNL d   1       3.088  -0.412  -1.903  0.00  0.00    -0.047 A 
ATOM      5  C3  UNL d   1       2.398   0.776  -1.566  0.00  0.00    -0.047 A 
ATOM      6  C4  UNL d   1       1.298   0.413  -0.818  0.00  0.00    -0.004 A 
ENDROOT
TORSDOF 0
ENDMDL
