MODEL 1
REMARK minimizedAffinity -3.270082
REMARK minimizedRMSD -1
REMARK  0 active torsions:
REMARK  status: ('A' for Active; 'I' for Inactive)
ROOT
ATOM      1  C   UNL d   1      -1.092   0.766   0.877  0.00  0.00     0.172 C 
ATOM      2  N   UNL d   1      -2.089   0.881   1.916  0.00  0.00    -0.070 N 
ATOM      3  C1  UNL d   1      -2.165   1.887   2.841  0.00  0.00    -0.004 A 
ATOM      4  C2  UNL d   1      -3.251   1.634   3.651  0.00  0.00    -0.047 A 
ATOM      5  C3  UNL d   1      -3.847   0.433   3.198  0.00  0.00    -0.047 A 
ATOM      6  C4  UNL d   1      -3.108  -0.011   2.122  0.00  0.00    -0.004 A 
ENDROOT
TORSDOF 0
ENDMDL
