MODEL 1
REMARK minimizedAffinity -3.43547249
REMARK minimizedRMSD -1
REMARK  0 active torsions:
REMARK  status: ('A' for Active; 'I' for Inactive)
ROOT
ATOM      1  C   UNL d   1      -1.234   0.460   0.657  0.00  0.00     0.172 C 
ATOM      2  N   UNL d   1      -0.071  -0.028  -0.045  0.00  0.00    -0.070 N 
ATOM      3  C1  UNL d   1       0.233  -1.345  -0.268  0.00  0.00    -0.004 A 
ATOM      4  C2  UNL d   1       1.418  -1.392  -0.970  0.00  0.00    -0.047 A 
ATOM      5  C3  UNL d   1       1.842  -0.058  -1.175  0.00  0.00    -0.047 A 
ATOM      6  C4  UNL d   1       0.902   0.766  -0.593  0.00  0.00    -0.004 A 
ENDROOT
TORSDOF 0
ENDMDL
