MODEL 1
REMARK minimizedAffinity -3.13937593
REMARK minimizedRMSD -1
REMARK  0 active torsions:
REMARK  status: ('A' for Active; 'I' for Inactive)
ROOT
ATOM      1  C   UNL d   1       1.378  -2.529  -2.974  0.00  0.00     0.077 C 
ATOM      2  C1  UNL d   1       1.356  -1.563  -1.827  0.00  0.00    -0.074 A 
ATOM      3  C2  UNL d   1       2.508  -0.864  -1.453  0.00  0.00    -0.005 A 
ATOM      4  C3  UNL d   1       2.470   0.038  -0.390  0.00  0.00     0.006 A 
ATOM      5  C4  UNL d   1       1.281   0.251   0.309  0.00  0.00    -0.005 A 
ATOM      6  C5  UNL d   1       0.119  -0.438  -0.051  0.00  0.00    -0.074 A 
ATOM      7  C6  UNL d   1      -1.170  -0.214   0.683  0.00  0.00     0.077 C 
ATOM      8  C7  UNL d   1       0.163  -1.338  -1.125  0.00  0.00    -0.001 A 
ENDROOT
TORSDOF 0
ENDMDL
