MODEL 1
REMARK minimizedAffinity -4.07942057
REMARK minimizedRMSD -1
REMARK  0 active torsions:
REMARK  status: ('A' for Active; 'I' for Inactive)
ROOT
ATOM      1  C   UNL d   1       3.091   0.162  -0.181  0.00  0.00     0.077 C 
ATOM      2  C1  UNL d   1       1.691   0.669  -0.365  0.00  0.00    -0.074 A 
ATOM      3  C2  UNL d   1       1.418   1.719  -1.248  0.00  0.00    -0.005 A 
ATOM      4  C3  UNL d   1       0.110   2.173  -1.416  0.00  0.00     0.006 A 
ATOM      5  C4  UNL d   1      -0.936   1.584  -0.704  0.00  0.00    -0.005 A 
ATOM      6  C5  UNL d   1      -0.681   0.532   0.182  0.00  0.00    -0.074 A 
ATOM      7  C6  UNL d   1      -1.795  -0.119   0.947  0.00  0.00     0.077 C 
ATOM      8  C7  UNL d   1       0.634   0.076   0.340  0.00  0.00    -0.001 A 
ENDROOT
TORSDOF 0
ENDMDL
