MODEL 1
REMARK minimizedAffinity -2.60950327
REMARK minimizedRMSD -1
REMARK  0 active torsions:
REMARK  status: ('A' for Active; 'I' for Inactive)
ROOT
ATOM      1  C   UNL d   1      -2.824   0.508   2.033  0.00  0.00     0.077 C 
ATOM      2  C1  UNL d   1      -1.657   0.464   1.093  0.00  0.00    -0.074 A 
ATOM      3  C2  UNL d   1      -1.550   1.373   0.036  0.00  0.00    -0.005 A 
ATOM      4  C3  UNL d   1      -0.454   1.326  -0.825  0.00  0.00     0.006 A 
ATOM      5  C4  UNL d   1       0.546   0.370  -0.638  0.00  0.00    -0.005 A 
ATOM      6  C5  UNL d   1       0.457  -0.547   0.414  0.00  0.00    -0.074 A 
ATOM      7  C6  UNL d   1       1.527  -1.574   0.635  0.00  0.00     0.077 C 
ATOM      8  C7  UNL d   1      -0.644  -0.488   1.279  0.00  0.00    -0.001 A 
ENDROOT
TORSDOF 0
ENDMDL
