MODEL 1
REMARK minimizedAffinity -4.74282408
REMARK minimizedRMSD -1
REMARK  0 active torsions:
REMARK  status: ('A' for Active; 'I' for Inactive)
ROOT
ATOM      1  C   UNL d   1      -0.243  -3.079   0.393  0.00  0.00     0.077 C 
ATOM      2  C1  UNL d   1       0.266  -1.698   0.104  0.00  0.00    -0.074 A 
ATOM      3  C2  UNL d   1      -0.417  -0.568   0.566  0.00  0.00    -0.005 A 
ATOM      4  C3  UNL d   1       0.074   0.709   0.297  0.00  0.00     0.006 A 
ATOM      5  C4  UNL d   1       1.252   0.870  -0.434  0.00  0.00    -0.005 A 
ATOM      6  C5  UNL d   1       1.949  -0.248  -0.902  0.00  0.00    -0.074 A 
ATOM      7  C6  UNL d   1       3.222  -0.093  -1.681  0.00  0.00     0.077 C 
ATOM      8  C7  UNL d   1       1.453  -1.528  -0.623  0.00  0.00    -0.001 A 
ENDROOT
TORSDOF 0
ENDMDL
