MODEL 1
REMARK minimizedAffinity -5.78287554
REMARK minimizedRMSD -1
REMARK  0 active torsions:
REMARK  status: ('A' for Active; 'I' for Inactive)
ROOT
ATOM      1  C   UNL d   1       2.012   2.313  -3.139  0.00  0.00     0.077 C 
ATOM      2  C1  UNL d   1       1.725   1.201  -2.175  0.00  0.00    -0.074 A 
ATOM      3  C2  UNL d   1       2.534   0.061  -2.131  0.00  0.00    -0.005 A 
ATOM      4  C3  UNL d   1       2.261  -0.961  -1.222  0.00  0.00     0.006 A 
ATOM      5  C4  UNL d   1       1.177  -0.854  -0.349  0.00  0.00    -0.005 A 
ATOM      6  C5  UNL d   1       0.358   0.279  -0.378  0.00  0.00    -0.074 A 
ATOM      7  C6  UNL d   1      -0.805   0.415   0.560  0.00  0.00     0.077 C 
ATOM      8  C7  UNL d   1       0.643   1.305  -1.289  0.00  0.00    -0.001 A 
ENDROOT
TORSDOF 0
ENDMDL
