MODEL 1
REMARK minimizedAffinity -5.12441826
REMARK minimizedRMSD -1
REMARK  0 active torsions:
REMARK  status: ('A' for Active; 'I' for Inactive)
ROOT
ATOM      1  C   UNL d   1       1.935   1.267  -3.288  0.00  0.00     0.077 C 
ATOM      2  C1  UNL d   1       1.547   0.388  -2.136  0.00  0.00    -0.074 A 
ATOM      3  C2  UNL d   1       2.285  -0.759  -1.828  0.00  0.00    -0.005 A 
ATOM      4  C3  UNL d   1       1.918  -1.562  -0.748  0.00  0.00     0.006 A 
ATOM      5  C4  UNL d   1       0.812  -1.227   0.033  0.00  0.00    -0.005 A 
ATOM      6  C5  UNL d   1       0.062  -0.083  -0.260  0.00  0.00    -0.074 A 
ATOM      7  C6  UNL d   1      -1.124   0.297   0.575  0.00  0.00     0.077 C 
ATOM      8  C7  UNL d   1       0.441   0.722  -1.343  0.00  0.00    -0.001 A 
ENDROOT
TORSDOF 0
ENDMDL
