MODEL 1
REMARK minimizedAffinity -5.71810675
REMARK minimizedRMSD -1
REMARK  0 active torsions:
REMARK  status: ('A' for Active; 'I' for Inactive)
ROOT
ATOM      1  C   UNL d   1       3.548  -0.479  -1.144  0.00  0.00     0.077 C 
ATOM      2  C1  UNL d   1       2.265   0.297  -1.178  0.00  0.00    -0.074 A 
ATOM      3  C2  UNL d   1       2.088   1.354  -2.077  0.00  0.00    -0.005 A 
ATOM      4  C3  UNL d   1       0.886   2.060  -2.105  0.00  0.00     0.006 A 
ATOM      5  C4  UNL d   1      -0.150   1.717  -1.235  0.00  0.00    -0.005 A 
ATOM      6  C5  UNL d   1       0.008   0.663  -0.330  0.00  0.00    -0.074 A 
ATOM      7  C6  UNL d   1      -1.099   0.276   0.605  0.00  0.00     0.077 C 
ATOM      8  C7  UNL d   1       1.217  -0.046  -0.313  0.00  0.00    -0.001 A 
ENDROOT
TORSDOF 0
ENDMDL
