MODEL 1
REMARK minimizedAffinity -4.09815598
REMARK minimizedRMSD -1
REMARK  0 active torsions:
REMARK  status: ('A' for Active; 'I' for Inactive)
ROOT
ATOM      1  C   UNL d   1      -0.585  -2.319   0.488  0.00  0.00     0.077 C 
ATOM      2  C1  UNL d   1      -0.017  -1.042  -0.056  0.00  0.00    -0.074 A 
ATOM      3  C2  UNL d   1      -0.788   0.124  -0.106  0.00  0.00    -0.005 A 
ATOM      4  C3  UNL d   1      -0.243   1.307  -0.606  0.00  0.00     0.006 A 
ATOM      5  C4  UNL d   1       1.075   1.335  -1.062  0.00  0.00    -0.005 A 
ATOM      6  C5  UNL d   1       1.862   0.179  -1.019  0.00  0.00    -0.074 A 
ATOM      7  C6  UNL d   1       3.284   0.195  -1.496  0.00  0.00     0.077 C 
ATOM      8  C7  UNL d   1       1.309  -1.003  -0.509  0.00  0.00    -0.001 A 
ENDROOT
TORSDOF 0
ENDMDL
