MODEL 1
REMARK minimizedAffinity -3.33675218
REMARK minimizedRMSD -1
REMARK  0 active torsions:
REMARK  status: ('A' for Active; 'I' for Inactive)
ROOT
ATOM      1  C   UNL d   1       1.520  -2.937  -2.514  0.00  0.00     0.077 C 
ATOM      2  C1  UNL d   1       1.485  -1.717  -1.642  0.00  0.00    -0.074 A 
ATOM      3  C2  UNL d   1       2.395  -0.672  -1.830  0.00  0.00    -0.005 A 
ATOM      4  C3  UNL d   1       2.344   0.460  -1.017  0.00  0.00     0.006 A 
ATOM      5  C4  UNL d   1       1.384   0.558  -0.009  0.00  0.00    -0.005 A 
ATOM      6  C5  UNL d   1       0.465  -0.476   0.193  0.00  0.00    -0.074 A 
ATOM      7  C6  UNL d   1      -0.580  -0.382   1.266  0.00  0.00     0.077 C 
ATOM      8  C7  UNL d   1       0.518  -1.608  -0.632  0.00  0.00    -0.001 A 
ENDROOT
TORSDOF 0
ENDMDL
