MODEL 1
REMARK minimizedAffinity -4.47380972
REMARK minimizedRMSD -1
REMARK  0 active torsions:
REMARK  status: ('A' for Active; 'I' for Inactive)
ROOT
ATOM      1  C   UNL d   1      -1.847  -0.400   1.661  0.00  0.00     0.077 C 
ATOM      2  C1  UNL d   1      -1.041   0.195   0.545  0.00  0.00    -0.074 A 
ATOM      3  C2  UNL d   1      -1.526   1.280  -0.192  0.00  0.00    -0.005 A 
ATOM      4  C3  UNL d   1      -0.761   1.829  -1.221  0.00  0.00     0.006 A 
ATOM      5  C4  UNL d   1       0.495   1.301  -1.522  0.00  0.00    -0.005 A 
ATOM      6  C5  UNL d   1       0.997   0.217  -0.795  0.00  0.00    -0.074 A 
ATOM      7  C6  UNL d   1       2.349  -0.357  -1.099  0.00  0.00     0.077 C 
ATOM      8  C7  UNL d   1       0.225  -0.325   0.242  0.00  0.00    -0.001 A 
ENDROOT
TORSDOF 0
ENDMDL
