MODEL 1
REMARK minimizedAffinity -3.98939395
REMARK minimizedRMSD -1
REMARK  0 active torsions:
REMARK  status: ('A' for Active; 'I' for Inactive)
ROOT
ATOM      1  C   UNL d   1       3.141  -0.012  -1.146  0.00  0.00     0.077 C 
ATOM      2  C1  UNL d   1       1.801  -0.468  -0.651  0.00  0.00    -0.074 A 
ATOM      3  C2  UNL d   1       1.184  -1.602  -1.189  0.00  0.00    -0.005 A 
ATOM      4  C3  UNL d   1      -0.059  -2.019  -0.711  0.00  0.00     0.006 A 
ATOM      5  C4  UNL d   1      -0.696  -1.308   0.306  0.00  0.00    -0.005 A 
ATOM      6  C5  UNL d   1      -0.094  -0.172   0.856  0.00  0.00    -0.074 A 
ATOM      7  C6  UNL d   1      -0.760   0.598   1.958  0.00  0.00     0.077 C 
ATOM      8  C7  UNL d   1       1.158   0.237   0.376  0.00  0.00    -0.001 A 
ENDROOT
TORSDOF 0
ENDMDL
