MODEL 1
REMARK minimizedAffinity -5.63621044
REMARK minimizedRMSD -1
REMARK  0 active torsions:
REMARK  status: ('A' for Active; 'I' for Inactive)
ROOT
ATOM      1  C   UNL d   1      -1.346   0.386   0.921  0.00  0.00     0.077 C 
ATOM      2  C1  UNL d   1      -0.186   0.092   0.017  0.00  0.00    -0.074 A 
ATOM      3  C2  UNL d   1       0.429  -1.164   0.022  0.00  0.00    -0.005 A 
ATOM      4  C3  UNL d   1       1.501  -1.426  -0.831  0.00  0.00     0.006 A 
ATOM      5  C4  UNL d   1       1.968  -0.437  -1.696  0.00  0.00    -0.005 A 
ATOM      6  C5  UNL d   1       1.366   0.825  -1.716  0.00  0.00    -0.074 A 
ATOM      7  C6  UNL d   1       1.850   1.897  -2.646  0.00  0.00     0.077 C 
ATOM      8  C7  UNL d   1       0.285   1.079  -0.861  0.00  0.00    -0.001 A 
ENDROOT
TORSDOF 0
ENDMDL
