MODEL 1
REMARK minimizedAffinity -5.38990259
REMARK minimizedRMSD -1
REMARK  0 active torsions:
REMARK  status: ('A' for Active; 'I' for Inactive)
ROOT
ATOM      1  C   UNL d   1      -0.790  -2.865   0.002  0.00  0.00     0.077 C 
ATOM      2  C1  UNL d   1      -0.230  -1.528  -0.385  0.00  0.00    -0.074 A 
ATOM      3  C2  UNL d   1      -1.051  -0.398  -0.452  0.00  0.00    -0.005 A 
ATOM      4  C3  UNL d   1      -0.514   0.841  -0.803  0.00  0.00     0.006 A 
ATOM      5  C4  UNL d   1       0.846   0.961  -1.091  0.00  0.00    -0.005 A 
ATOM      6  C5  UNL d   1       1.682  -0.158  -1.029  0.00  0.00    -0.074 A 
ATOM      7  C6  UNL d   1       3.147  -0.044  -1.326  0.00  0.00     0.077 C 
ATOM      8  C7  UNL d   1       1.136  -1.398  -0.668  0.00  0.00    -0.001 A 
ENDROOT
TORSDOF 0
ENDMDL
