MODEL 1
REMARK minimizedAffinity -4.17837715
REMARK minimizedRMSD -1
REMARK  0 active torsions:
REMARK  status: ('A' for Active; 'I' for Inactive)
ROOT
ATOM      1  C   UNL d   1      -0.753   0.689   1.658  0.00  0.00     0.077 C 
ATOM      2  C1  UNL d   1      -0.072  -0.150   0.618  0.00  0.00    -0.074 A 
ATOM      3  C2  UNL d   1      -0.696  -1.285   0.090  0.00  0.00    -0.005 A 
ATOM      4  C3  UNL d   1      -0.054  -2.051  -0.884  0.00  0.00     0.006 A 
ATOM      5  C4  UNL d   1       1.215  -1.689  -1.339  0.00  0.00    -0.005 A 
ATOM      6  C5  UNL d   1       1.853  -0.557  -0.823  0.00  0.00    -0.074 A 
ATOM      7  C6  UNL d   1       3.212  -0.149  -1.308  0.00  0.00     0.077 C 
ATOM      8  C7  UNL d   1       1.199   0.211   0.150  0.00  0.00    -0.001 A 
ENDROOT
TORSDOF 0
ENDMDL
