MODEL 1
REMARK minimizedAffinity -3.09218001
REMARK minimizedRMSD -1
REMARK  0 active torsions:
REMARK  status: ('A' for Active; 'I' for Inactive)
ROOT
ATOM      1  C   UNL d   1      -1.826   0.308   1.575  0.00  0.00     0.077 C 
ATOM      2  C1  UNL d   1      -0.802   0.645   0.532  0.00  0.00    -0.074 A 
ATOM      3  C2  UNL d   1      -0.940   1.783  -0.270  0.00  0.00    -0.005 A 
ATOM      4  C3  UNL d   1       0.025   2.089  -1.229  0.00  0.00     0.006 A 
ATOM      5  C4  UNL d   1       1.136   1.262  -1.396  0.00  0.00    -0.005 A 
ATOM      6  C5  UNL d   1       1.292   0.121  -0.603  0.00  0.00    -0.074 A 
ATOM      7  C6  UNL d   1       2.486  -0.773  -0.763  0.00  0.00     0.077 C 
ATOM      8  C7  UNL d   1       0.322  -0.176   0.363  0.00  0.00    -0.001 A 
ENDROOT
TORSDOF 0
ENDMDL
