MODEL 1
REMARK minimizedAffinity -5.11291981
REMARK minimizedRMSD -1
REMARK  0 active torsions:
REMARK  status: ('A' for Active; 'I' for Inactive)
ROOT
ATOM      1  C   UNL d   1       2.977  -0.447  -0.700  0.00  0.00     0.077 C 
ATOM      2  C1  UNL d   1       1.522  -0.112  -0.560  0.00  0.00    -0.074 A 
ATOM      3  C2  UNL d   1       0.635  -1.003   0.052  0.00  0.00    -0.005 A 
ATOM      4  C3  UNL d   1      -0.714  -0.673   0.184  0.00  0.00     0.006 A 
ATOM      5  C4  UNL d   1      -1.188   0.549  -0.293  0.00  0.00    -0.005 A 
ATOM      6  C5  UNL d   1      -0.316   1.454  -0.907  0.00  0.00    -0.074 A 
ATOM      7  C6  UNL d   1      -0.808   2.776  -1.416  0.00  0.00     0.077 C 
ATOM      8  C7  UNL d   1       1.039   1.118  -1.029  0.00  0.00    -0.001 A 
ENDROOT
TORSDOF 0
ENDMDL
