MODEL 1
REMARK minimizedAffinity -2.65792274
REMARK minimizedRMSD -1
REMARK  1 active torsions:
REMARK  status: ('A' for Active; 'I' for Inactive)
REMARK    1  A    between atoms: C1_2  and  C2_3 
ROOT
ATOM      1  C2  UNL d   1       0.292   0.107  -1.696  0.00  0.00    -0.076 A 
ATOM      2  C3  UNL d   1      -0.048   1.161  -2.562  0.00  0.00     0.004 A 
ATOM      3  C4  UNL d   1       0.625   1.344  -3.768  0.00  0.00    -0.003 A 
ATOM      4  C5  UNL d   1       1.648   0.476  -4.130  0.00  0.00     0.000 A 
ATOM      5  C6  UNL d   1       1.987  -0.586  -3.292  0.00  0.00     0.000 A 
ATOM      6  C7  UNL d   1       1.308  -0.795  -2.079  0.00  0.00    -0.073 A 
ATOM      7  C8  UNL d   1       1.718  -1.952  -1.211  0.00  0.00     0.078 C 
ENDROOT
BRANCH   1   8
ATOM      8  C1  UNL d   1      -0.455  -0.025  -0.388  0.00  0.00     0.053 C 
ATOM      9  C   UNL d   1       0.366   0.449   0.802  0.00  0.00     0.018 C 
ENDBRANCH   1   8
TORSDOF 1
ENDMDL
