MODEL 1
REMARK minimizedAffinity -1.83940637
REMARK minimizedRMSD -1
REMARK  1 active torsions:
REMARK  status: ('A' for Active; 'I' for Inactive)
REMARK    1  A    between atoms: C1_2  and  C2_3 
ROOT
ATOM      1  C2  UNL d   1      -1.783   0.192   1.929  0.00  0.00    -0.076 A 
ATOM      2  C3  UNL d   1      -1.802  -0.342   0.628  0.00  0.00     0.004 A 
ATOM      3  C4  UNL d   1      -0.804  -0.025  -0.291  0.00  0.00    -0.003 A 
ATOM      4  C5  UNL d   1       0.230   0.830   0.075  0.00  0.00     0.000 A 
ATOM      5  C6  UNL d   1       0.275   1.354   1.366  0.00  0.00     0.000 A 
ATOM      6  C7  UNL d   1      -0.715   1.032   2.311  0.00  0.00    -0.073 A 
ATOM      7  C8  UNL d   1      -0.621   1.631   3.687  0.00  0.00     0.078 C 
ENDROOT
BRANCH   1   8
ATOM      8  C1  UNL d   1      -2.907  -0.166   2.875  0.00  0.00     0.053 C 
ATOM      9  C   UNL d   1      -2.825  -1.605   3.360  0.00  0.00     0.018 C 
ENDBRANCH   1   8
TORSDOF 1
ENDMDL
