MODEL 1
REMARK minimizedAffinity -4.27216434
REMARK minimizedRMSD -1
REMARK  1 active torsions:
REMARK  status: ('A' for Active; 'I' for Inactive)
REMARK    1  A    between atoms: C1_2  and  C2_3 
ROOT
ATOM      1  C2  UNL d   1      -0.002  -0.300   0.424  0.00  0.00    -0.076 A 
ATOM      2  C3  UNL d   1       0.762   0.501   1.291  0.00  0.00     0.004 A 
ATOM      3  C4  UNL d   1       0.175   1.138   2.383  0.00  0.00    -0.003 A 
ATOM      4  C5  UNL d   1      -1.185   0.985   2.626  0.00  0.00     0.000 A 
ATOM      5  C6  UNL d   1      -1.955   0.180   1.787  0.00  0.00     0.000 A 
ATOM      6  C7  UNL d   1      -1.376  -0.483   0.691  0.00  0.00    -0.073 A 
ATOM      7  C8  UNL d   1      -2.255  -1.334  -0.184  0.00  0.00     0.078 C 
ENDROOT
BRANCH   1   8
ATOM      8  C1  UNL d   1       0.683  -0.945  -0.759  0.00  0.00     0.053 C 
ATOM      9  C   UNL d   1       0.725  -0.033  -1.976  0.00  0.00     0.018 C 
ENDBRANCH   1   8
TORSDOF 1
ENDMDL
