MODEL 1
REMARK minimizedAffinity -3.70850158
REMARK minimizedRMSD -1
REMARK  1 active torsions:
REMARK  status: ('A' for Active; 'I' for Inactive)
REMARK    1  A    between atoms: C1_2  and  C2_3 
ROOT
ATOM      1  C2  UNL d   1      -0.096   0.432   1.186  0.00  0.00    -0.076 A 
ATOM      2  C3  UNL d   1      -1.116   0.293   0.228  0.00  0.00     0.004 A 
ATOM      3  C4  UNL d   1      -0.892  -0.392  -0.965  0.00  0.00    -0.003 A 
ATOM      4  C5  UNL d   1       0.356  -0.950  -1.220  0.00  0.00     0.000 A 
ATOM      5  C6  UNL d   1       1.375  -0.837  -0.273  0.00  0.00     0.000 A 
ATOM      6  C7  UNL d   1       1.160  -0.164   0.941  0.00  0.00    -0.073 A 
ATOM      7  C8  UNL d   1       2.296  -0.067   1.923  0.00  0.00     0.078 C 
ENDROOT
BRANCH   1   8
ATOM      8  C1  UNL d   1      -0.389   1.209   2.449  0.00  0.00     0.053 C 
ATOM      9  C   UNL d   1      -1.496   0.576   3.279  0.00  0.00     0.018 C 
ENDBRANCH   1   8
TORSDOF 1
ENDMDL
