MODEL 1
REMARK minimizedAffinity -5.97138119
REMARK minimizedRMSD -1
REMARK  1 active torsions:
REMARK  status: ('A' for Active; 'I' for Inactive)
REMARK    1  A    between atoms: C1_2  and  C2_3 
ROOT
ATOM      1  C2  UNL d   1       0.591   0.122   1.376  0.00  0.00    -0.076 A 
ATOM      2  C3  UNL d   1       0.749  -0.841   0.365  0.00  0.00     0.004 A 
ATOM      3  C4  UNL d   1      -0.217  -1.006  -0.626  0.00  0.00    -0.003 A 
ATOM      4  C5  UNL d   1      -1.357  -0.210  -0.622  0.00  0.00     0.000 A 
ATOM      5  C6  UNL d   1      -1.522   0.763   0.364  0.00  0.00     0.000 A 
ATOM      6  C7  UNL d   1      -0.550   0.953   1.361  0.00  0.00    -0.073 A 
ATOM      7  C8  UNL d   1      -0.782   2.012   2.403  0.00  0.00     0.078 C 
ENDROOT
BRANCH   1   8
ATOM      8  C1  UNL d   1       1.659   0.237   2.440  0.00  0.00     0.053 C 
ATOM      9  C   UNL d   1       1.315  -0.544   3.699  0.00  0.00     0.018 C 
ENDBRANCH   1   8
TORSDOF 1
ENDMDL
