MODEL 1
REMARK minimizedAffinity -4.52659702
REMARK minimizedRMSD -1
REMARK  1 active torsions:
REMARK  status: ('A' for Active; 'I' for Inactive)
REMARK    1  A    between atoms: C1_2  and  C2_3 
ROOT
ATOM      1  C2  UNL d   1       0.582   0.438   1.513  0.00  0.00    -0.076 A 
ATOM      2  C3  UNL d   1       1.137   0.360   0.223  0.00  0.00     0.004 A 
ATOM      3  C4  UNL d   1       0.368  -0.051  -0.864  0.00  0.00    -0.003 A 
ATOM      4  C5  UNL d   1      -0.968  -0.390  -0.681  0.00  0.00     0.000 A 
ATOM      5  C6  UNL d   1      -1.539  -0.301   0.588  0.00  0.00     0.000 A 
ATOM      6  C7  UNL d   1      -0.783   0.127   1.693  0.00  0.00    -0.073 A 
ATOM      7  C8  UNL d   1      -1.448   0.199   3.040  0.00  0.00     0.078 C 
ENDROOT
BRANCH   1   8
ATOM      8  C1  UNL d   1       1.471   0.865   2.659  0.00  0.00     0.053 C 
ATOM      9  C   UNL d   1       2.565  -0.150   2.956  0.00  0.00     0.018 C 
ENDBRANCH   1   8
TORSDOF 1
ENDMDL
