MODEL 1
REMARK minimizedAffinity -4.56081963
REMARK minimizedRMSD -1
REMARK  0 active torsions:
REMARK  status: ('A' for Active; 'I' for Inactive)
ROOT
ATOM      1  N1  IND d   1      -0.876  -0.610  -0.200  0.00  0.00    -0.196 N 
ATOM      2  C2  IND d   1      -0.335  -1.860  -0.074  0.00  0.00     0.054 A 
ATOM      3  C3  IND d   1       0.982  -1.835  -0.376  0.00  0.00    -0.031 A 
ATOM      4  C4  IND d   1       2.479   0.164  -1.002  0.00  0.00     0.051 A 
ATOM      5  C5  IND d   1       2.430   1.502  -1.279  0.00  0.00    -0.031 A 
ATOM      6  C6  IND d   1       1.253   2.219  -1.206  0.00  0.00     0.015 A 
ATOM      7  C7  IND d   1       0.079   1.624  -0.840  0.00  0.00    -0.016 A 
ATOM      8  C8  IND d   1       0.123   0.265  -0.566  0.00  0.00    -0.047 A 
ATOM      9  C9  IND d   1       1.306  -0.477  -0.680  0.00  0.00    -0.096 A 
ATOM     10  HN1 IND d   1      -1.701  -0.405  -0.071  0.00  0.00     0.298 HD
ENDROOT
TORSDOF 0
ENDMDL
