MODEL 1
REMARK minimizedAffinity -1.10572255
REMARK minimizedRMSD -1
REMARK  0 active torsions:
REMARK  status: ('A' for Active; 'I' for Inactive)
ROOT
ATOM      1  N1  IND d   1      -0.441   0.746   3.618  0.00  0.00    -0.196 N 
ATOM      2  C2  IND d   1      -1.689   1.280   3.774  0.00  0.00     0.054 A 
ATOM      3  C3  IND d   1      -2.289   1.431   2.571  0.00  0.00    -0.031 A 
ATOM      4  C4  IND d   1      -1.447   0.772   0.229  0.00  0.00     0.051 A 
ATOM      5  C5  IND d   1      -0.350   0.284  -0.423  0.00  0.00    -0.031 A 
ATOM      6  C6  IND d   1       0.795  -0.086   0.252  0.00  0.00     0.015 A 
ATOM      7  C7  IND d   1       0.882   0.009   1.613  0.00  0.00    -0.016 A 
ATOM      8  C8  IND d   1      -0.228   0.512   2.278  0.00  0.00    -0.047 A 
ATOM      9  C9  IND d   1      -1.377   0.928   1.594  0.00  0.00    -0.096 A 
ATOM     10  HN1 IND d   1       0.118   0.583   4.252  0.00  0.00     0.298 HD
ENDROOT
TORSDOF 0
ENDMDL
