MODEL 1
REMARK minimizedAffinity -4.9125371
REMARK minimizedRMSD -1
REMARK  0 active torsions:
REMARK  status: ('A' for Active; 'I' for Inactive)
ROOT
ATOM      1  N1  IND d   1       0.296   0.882   0.124  0.00  0.00    -0.196 N 
ATOM      2  C2  IND d   1       1.017   1.702  -0.699  0.00  0.00     0.054 A 
ATOM      3  C3  IND d   1       1.789   0.970  -1.533  0.00  0.00    -0.031 A 
ATOM      4  C4  IND d   1       1.952  -1.586  -1.791  0.00  0.00     0.051 A 
ATOM      5  C5  IND d   1       1.512  -2.755  -1.236  0.00  0.00    -0.031 A 
ATOM      6  C6  IND d   1       0.624  -2.771  -0.179  0.00  0.00     0.015 A 
ATOM      7  C7  IND d   1       0.132  -1.615   0.356  0.00  0.00    -0.016 A 
ATOM      8  C8  IND d   1       0.582  -0.426  -0.200  0.00  0.00    -0.047 A 
ATOM      9  C9  IND d   1       1.516  -0.402  -1.244  0.00  0.00    -0.096 A 
ATOM     10  HN1 IND d   1      -0.245   1.140   0.741  0.00  0.00     0.298 HD
ENDROOT
TORSDOF 0
ENDMDL
