MODEL 1
REMARK minimizedAffinity -2.65720415
REMARK minimizedRMSD -1
REMARK  0 active torsions:
REMARK  status: ('A' for Active; 'I' for Inactive)
ROOT
ATOM      1  N1  IND d   1      -1.026   1.091  -0.635  0.00  0.00    -0.196 N 
ATOM      2  C2  IND d   1      -0.382   2.261  -0.926  0.00  0.00     0.054 A 
ATOM      3  C3  IND d   1       0.941   2.041  -1.093  0.00  0.00    -0.031 A 
ATOM      4  C4  IND d   1       2.250  -0.175  -1.035  0.00  0.00     0.051 A 
ATOM      5  C5  IND d   1       2.102  -1.508  -0.771  0.00  0.00    -0.031 A 
ATOM      6  C6  IND d   1       0.877  -2.054  -0.444  0.00  0.00     0.015 A 
ATOM      7  C7  IND d   1      -0.251  -1.286  -0.379  0.00  0.00    -0.016 A 
ATOM      8  C8  IND d   1      -0.102   0.069  -0.640  0.00  0.00    -0.047 A 
ATOM      9  C9  IND d   1       1.145   0.636  -0.931  0.00  0.00    -0.096 A 
ATOM     10  HN1 IND d   1      -1.867   1.007  -0.475  0.00  0.00     0.298 HD
ENDROOT
TORSDOF 0
ENDMDL
