MODEL 1
REMARK minimizedAffinity -5.34228897
REMARK minimizedRMSD -1
REMARK  0 active torsions:
REMARK  status: ('A' for Active; 'I' for Inactive)
ROOT
ATOM      1  N1  IND d   1       1.259  -1.189   0.339  0.00  0.00    -0.196 N 
ATOM      2  C2  IND d   1       2.546  -0.898  -0.019  0.00  0.00     0.054 A 
ATOM      3  C3  IND d   1       2.587   0.252  -0.730  0.00  0.00    -0.031 A 
ATOM      4  C4  IND d   1       0.679   1.870  -1.335  0.00  0.00     0.051 A 
ATOM      5  C5  IND d   1      -0.678   2.012  -1.258  0.00  0.00    -0.031 A 
ATOM      6  C6  IND d   1      -1.475   1.077  -0.630  0.00  0.00     0.015 A 
ATOM      7  C7  IND d   1      -0.940  -0.035  -0.043  0.00  0.00    -0.016 A 
ATOM      8  C8  IND d   1       0.437  -0.186  -0.125  0.00  0.00    -0.047 A 
ATOM      9  C9  IND d   1       1.246   0.739  -0.798  0.00  0.00    -0.096 A 
ATOM     10  HN1 IND d   1       1.006  -1.882   0.781  0.00  0.00     0.298 HD
ENDROOT
TORSDOF 0
ENDMDL
