MODEL 1
REMARK minimizedAffinity -4.05228186
REMARK minimizedRMSD -1
REMARK  0 active torsions:
REMARK  status: ('A' for Active; 'I' for Inactive)
ROOT
ATOM      1  N1  IND d   1      -1.093  -0.097  -0.039  0.00  0.00    -0.196 N 
ATOM      2  C2  IND d   1      -1.073   1.247  -0.287  0.00  0.00     0.054 A 
ATOM      3  C3  IND d   1       0.166   1.637  -0.665  0.00  0.00    -0.031 A 
ATOM      4  C4  IND d   1       2.282   0.222  -1.042  0.00  0.00     0.051 A 
ATOM      5  C5  IND d   1       2.766  -1.050  -0.910  0.00  0.00    -0.031 A 
ATOM      6  C6  IND d   1       1.971  -2.090  -0.474  0.00  0.00     0.015 A 
ATOM      7  C7  IND d   1       0.654  -1.899  -0.164  0.00  0.00    -0.016 A 
ATOM      8  C8  IND d   1       0.162  -0.608  -0.291  0.00  0.00    -0.047 A 
ATOM      9  C9  IND d   1       0.974   0.460  -0.692  0.00  0.00    -0.096 A 
ATOM     10  HN1 IND d   1      -1.774  -0.548   0.228  0.00  0.00     0.298 HD
ENDROOT
TORSDOF 0
ENDMDL
