MODEL 1
REMARK minimizedAffinity -5.16042376
REMARK minimizedRMSD -1
REMARK  0 active torsions:
REMARK  status: ('A' for Active; 'I' for Inactive)
ROOT
ATOM      1  N1  IND d   1      -0.076   0.009   0.651  0.00  0.00    -0.196 N 
ATOM      2  C2  IND d   1      -0.868  -1.099   0.529  0.00  0.00     0.054 A 
ATOM      3  C3  IND d   1      -0.365  -1.935  -0.408  0.00  0.00    -0.031 A 
ATOM      4  C4  IND d   1       1.797  -1.733  -1.790  0.00  0.00     0.051 A 
ATOM      5  C5  IND d   1       2.831  -0.879  -2.053  0.00  0.00    -0.031 A 
ATOM      6  C6  IND d   1       2.953   0.338  -1.414  0.00  0.00     0.015 A 
ATOM      7  C7  IND d   1       2.047   0.743  -0.475  0.00  0.00    -0.016 A 
ATOM      8  C8  IND d   1       0.992  -0.119  -0.210  0.00  0.00    -0.047 A 
ATOM      9  C9  IND d   1       0.840  -1.336  -0.886  0.00  0.00    -0.096 A 
ATOM     10  HN1 IND d   1      -0.221   0.673   1.177  0.00  0.00     0.298 HD
ENDROOT
TORSDOF 0
ENDMDL
