MODEL 1
REMARK minimizedAffinity 0.865067184
REMARK minimizedRMSD -1
REMARK  0 active torsions:
REMARK  status: ('A' for Active; 'I' for Inactive)
ROOT
ATOM      1  N1  IND d   1      -0.469   0.728   1.451  0.00  0.00    -0.196 N 
ATOM      2  C2  IND d   1      -0.010  -0.115   2.423  0.00  0.00     0.054 A 
ATOM      3  C3  IND d   1       0.882  -0.989   1.906  0.00  0.00    -0.031 A 
ATOM      4  C4  IND d   1       1.815  -1.150  -0.488  0.00  0.00     0.051 A 
ATOM      5  C5  IND d   1       1.670  -0.617  -1.738  0.00  0.00    -0.031 A 
ATOM      6  C6  IND d   1       0.789   0.414  -1.994  0.00  0.00     0.015 A 
ATOM      7  C7  IND d   1       0.025   0.961  -1.002  0.00  0.00    -0.016 A 
ATOM      8  C8  IND d   1       0.164   0.418   0.267  0.00  0.00    -0.047 A 
ATOM      9  C9  IND d   1       1.025  -0.657   0.524  0.00  0.00    -0.096 A 
ATOM     10  HN1 IND d   1      -1.054   1.349   1.559  0.00  0.00     0.298 HD
ENDROOT
TORSDOF 0
ENDMDL
