MODEL 1
REMARK minimizedAffinity -4.55076075
REMARK minimizedRMSD -1
REMARK  0 active torsions:
REMARK  status: ('A' for Active; 'I' for Inactive)
ROOT
ATOM      1  N1  IND d   1      -0.257   0.960   0.078  0.00  0.00    -0.196 N 
ATOM      2  C2  IND d   1      -1.097  -0.028   0.510  0.00  0.00     0.054 A 
ATOM      3  C3  IND d   1      -0.550  -1.243   0.287  0.00  0.00    -0.031 A 
ATOM      4  C4  IND d   1       1.758  -1.844  -0.684  0.00  0.00     0.051 A 
ATOM      5  C5  IND d   1       2.865  -1.283  -1.256  0.00  0.00    -0.031 A 
ATOM      6  C6  IND d   1       2.992   0.082  -1.413  0.00  0.00     0.015 A 
ATOM      7  C7  IND d   1       2.017   0.942  -0.992  0.00  0.00    -0.016 A 
ATOM      8  C8  IND d   1       0.888   0.375  -0.417  0.00  0.00    -0.047 A 
ATOM      9  C9  IND d   1       0.735  -1.012  -0.294  0.00  0.00    -0.096 A 
ATOM     10  HN1 IND d   1      -0.417   1.804   0.109  0.00  0.00     0.298 HD
ENDROOT
TORSDOF 0
ENDMDL
