MODEL 1
REMARK minimizedAffinity -4.30843973
REMARK minimizedRMSD -1
REMARK  0 active torsions:
REMARK  status: ('A' for Active; 'I' for Inactive)
ROOT
ATOM      1  N1  IND d   1       0.363   1.326   1.108  0.00  0.00    -0.196 N 
ATOM      2  C2  IND d   1      -0.892   1.018   1.554  0.00  0.00     0.054 A 
ATOM      3  C3  IND d   1      -1.294  -0.168   1.044  0.00  0.00    -0.031 A 
ATOM      4  C4  IND d   1      -0.014  -1.820  -0.460  0.00  0.00     0.051 A 
ATOM      5  C5  IND d   1       1.152  -1.959  -1.158  0.00  0.00    -0.031 A 
ATOM      6  C6  IND d   1       2.137  -0.993  -1.134  0.00  0.00     0.015 A 
ATOM      7  C7  IND d   1       1.995   0.150  -0.398  0.00  0.00    -0.016 A 
ATOM      8  C8  IND d   1       0.809   0.298   0.307  0.00  0.00    -0.047 A 
ATOM      9  C9  IND d   1      -0.212  -0.660   0.252  0.00  0.00    -0.096 A 
ATOM     10  HN1 IND d   1       0.801   2.041   1.297  0.00  0.00     0.298 HD
ENDROOT
TORSDOF 0
ENDMDL
