MODEL 1
REMARK minimizedAffinity -4.94240379
REMARK minimizedRMSD -1
REMARK  0 active torsions:
REMARK  status: ('A' for Active; 'I' for Inactive)
ROOT
ATOM      1  N1  IND d   1      -0.573   0.388   0.998  0.00  0.00    -0.196 N 
ATOM      2  C2  IND d   1      -0.860  -0.156  -0.223  0.00  0.00     0.054 A 
ATOM      3  C3  IND d   1      -2.070  -0.758  -0.197  0.00  0.00    -0.031 A 
ATOM      4  C4  IND d   1      -3.795  -0.882   1.710  0.00  0.00     0.051 A 
ATOM      5  C5  IND d   1      -3.969  -0.563   3.027  0.00  0.00    -0.031 A 
ATOM      6  C6  IND d   1      -3.001   0.104   3.750  0.00  0.00     0.015 A 
ATOM      7  C7  IND d   1      -1.823   0.490   3.176  0.00  0.00    -0.016 A 
ATOM      8  C8  IND d   1      -1.640   0.162   1.840  0.00  0.00    -0.047 A 
ATOM      9  C9  IND d   1      -2.601  -0.553   1.113  0.00  0.00    -0.096 A 
ATOM     10  HN1 IND d   1       0.151   0.801   1.205  0.00  0.00     0.298 HD
ENDROOT
TORSDOF 0
ENDMDL
