MODEL 1
REMARK minimizedAffinity -3.06726718
REMARK minimizedRMSD -1
REMARK  0 active torsions:
REMARK  status: ('A' for Active; 'I' for Inactive)
ROOT
ATOM      1  N1  IND d   1       0.463   1.155  -2.063  0.00  0.00    -0.196 N 
ATOM      2  C2  IND d   1      -0.680   1.432  -1.366  0.00  0.00     0.054 A 
ATOM      3  C3  IND d   1      -0.931   0.455  -0.466  0.00  0.00    -0.031 A 
ATOM      4  C4  IND d   1       0.454  -1.638   0.104  0.00  0.00     0.051 A 
ATOM      5  C5  IND d   1       1.559  -2.339  -0.290  0.00  0.00    -0.031 A 
ATOM      6  C6  IND d   1       2.374  -1.900  -1.314  0.00  0.00     0.015 A 
ATOM      7  C7  IND d   1       2.118  -0.734  -1.977  0.00  0.00    -0.016 A 
ATOM      8  C8  IND d   1       0.993  -0.023  -1.585  0.00  0.00    -0.047 A 
ATOM      9  C9  IND d   1       0.139  -0.485  -0.575  0.00  0.00    -0.096 A 
ATOM     10  HN1 IND d   1       0.795   1.636  -2.693  0.00  0.00     0.298 HD
ENDROOT
TORSDOF 0
ENDMDL
