MODEL 1
REMARK minimizedAffinity -4.34926319
REMARK minimizedRMSD -1
REMARK  0 active torsions:
REMARK  status: ('A' for Active; 'I' for Inactive)
ROOT
ATOM      1  N1  IND d   1      -0.879  -0.626   0.414  0.00  0.00    -0.196 N 
ATOM      2  C2  IND d   1      -1.356   0.653   0.340  0.00  0.00     0.054 A 
ATOM      3  C3  IND d   1      -0.464   1.451  -0.289  0.00  0.00    -0.031 A 
ATOM      4  C4  IND d   1       1.795   0.849  -1.367  0.00  0.00     0.051 A 
ATOM      5  C5  IND d   1       2.672  -0.187  -1.522  0.00  0.00    -0.031 A 
ATOM      6  C6  IND d   1       2.404  -1.449  -1.032  0.00  0.00     0.015 A 
ATOM      7  C7  IND d   1       1.238  -1.725  -0.375  0.00  0.00    -0.016 A 
ATOM      8  C8  IND d   1       0.348  -0.674  -0.210  0.00  0.00    -0.047 A 
ATOM      9  C9  IND d   1       0.633   0.619  -0.668  0.00  0.00    -0.096 A 
ATOM     10  HN1 IND d   1      -1.278  -1.289   0.788  0.00  0.00     0.298 HD
ENDROOT
TORSDOF 0
ENDMDL
