MODEL 1
REMARK minimizedAffinity -4.62790251
REMARK minimizedRMSD -1
REMARK  0 active torsions:
REMARK  status: ('A' for Active; 'I' for Inactive)
ROOT
ATOM      1  N1  IND d   1      -0.750  -2.104  -0.554  0.00  0.00    -0.196 N 
ATOM      2  C2  IND d   1      -0.073  -3.283  -0.694  0.00  0.00     0.054 A 
ATOM      3  C3  IND d   1       1.250  -3.050  -0.852  0.00  0.00    -0.031 A 
ATOM      4  C4  IND d   1       2.533  -0.818  -0.810  0.00  0.00     0.051 A 
ATOM      5  C5  IND d   1       2.341   0.533  -0.746  0.00  0.00    -0.031 A 
ATOM      6  C6  IND d   1       1.084   1.086  -0.610  0.00  0.00     0.015 A 
ATOM      7  C7  IND d   1      -0.032   0.304  -0.520  0.00  0.00    -0.016 A 
ATOM      8  C8  IND d   1       0.158  -1.069  -0.591  0.00  0.00    -0.047 A 
ATOM      9  C9  IND d   1       1.427  -1.634  -0.772  0.00  0.00    -0.096 A 
ATOM     10  HN1 IND d   1      -1.601  -2.023  -0.459  0.00  0.00     0.298 HD
ENDROOT
TORSDOF 0
ENDMDL
