MODEL 1
REMARK minimizedAffinity -5.19228315
REMARK minimizedRMSD -1
REMARK  0 active torsions:
REMARK  status: ('A' for Active; 'I' for Inactive)
ROOT
ATOM      1  N1  IND d   1       1.697  -1.895  -1.319  0.00  0.00    -0.196 N 
ATOM      2  C2  IND d   1       2.505  -0.797  -1.214  0.00  0.00     0.054 A 
ATOM      3  C3  IND d   1       1.784   0.284  -0.842  0.00  0.00    -0.031 A 
ATOM      4  C4  IND d   1      -0.716   0.458  -0.251  0.00  0.00     0.051 A 
ATOM      5  C5  IND d   1      -1.872  -0.271  -0.234  0.00  0.00    -0.031 A 
ATOM      6  C6  IND d   1      -1.897  -1.606  -0.582  0.00  0.00     0.015 A 
ATOM      7  C7  IND d   1      -0.760  -2.268  -0.951  0.00  0.00    -0.016 A 
ATOM      8  C8  IND d   1       0.414  -1.529  -0.976  0.00  0.00    -0.047 A 
ATOM      9  C9  IND d   1       0.439  -0.163  -0.665  0.00  0.00    -0.096 A 
ATOM     10  HN1 IND d   1       1.948  -2.681  -1.559  0.00  0.00     0.298 HD
ENDROOT
TORSDOF 0
ENDMDL
