MODEL 1
REMARK minimizedAffinity -5.20826769
REMARK minimizedRMSD -1
REMARK  0 active torsions:
REMARK  status: ('A' for Active; 'I' for Inactive)
ROOT
ATOM      1  N1  IND d   1      -0.799   0.372   0.407  0.00  0.00    -0.196 N 
ATOM      2  C2  IND d   1      -0.484   1.702   0.390  0.00  0.00     0.054 A 
ATOM      3  C3  IND d   1       0.729   1.891  -0.175  0.00  0.00    -0.031 A 
ATOM      4  C4  IND d   1       2.327   0.171  -1.231  0.00  0.00     0.051 A 
ATOM      5  C5  IND d   1       2.491  -1.173  -1.420  0.00  0.00    -0.031 A 
ATOM      6  C6  IND d   1       1.547  -2.089  -1.004  0.00  0.00     0.015 A 
ATOM      7  C7  IND d   1       0.392  -1.692  -0.391  0.00  0.00    -0.016 A 
ATOM      8  C8  IND d   1       0.226  -0.329  -0.190  0.00  0.00    -0.047 A 
ATOM      9  C9  IND d   1       1.200   0.602  -0.572  0.00  0.00    -0.096 A 
ATOM     10  HN1 IND d   1      -1.516   0.030   0.736  0.00  0.00     0.298 HD
ENDROOT
TORSDOF 0
ENDMDL
