MODEL 1
REMARK minimizedAffinity -4.08889389
REMARK minimizedRMSD -1
REMARK  0 active torsions:
REMARK  status: ('A' for Active; 'I' for Inactive)
ROOT
ATOM      1  N1  IND d   1      -0.314   0.973  -0.684  0.00  0.00    -0.196 N 
ATOM      2  C2  IND d   1      -0.217   2.097  -1.456  0.00  0.00     0.054 A 
ATOM      3  C3  IND d   1       0.839   2.002  -2.295  0.00  0.00    -0.031 A 
ATOM      4  C4  IND d   1       2.480   0.049  -2.643  0.00  0.00     0.051 A 
ATOM      5  C5  IND d   1       2.816  -1.178  -2.144  0.00  0.00    -0.031 A 
ATOM      6  C6  IND d   1       2.109  -1.764  -1.114  0.00  0.00     0.015 A 
ATOM      7  C7  IND d   1       1.029  -1.147  -0.550  0.00  0.00    -0.016 A 
ATOM      8  C8  IND d   1       0.690   0.103  -1.049  0.00  0.00    -0.047 A 
ATOM      9  C9  IND d   1       1.429   0.721  -2.066  0.00  0.00    -0.096 A 
ATOM     10  HN1 IND d   1      -0.903   0.833  -0.073  0.00  0.00     0.298 HD
ENDROOT
TORSDOF 0
ENDMDL
