MODEL 1
REMARK minimizedAffinity 15.700285
REMARK minimizedRMSD -1
REMARK  1 active torsions:
REMARK  status: ('A' for Active; 'I' for Inactive)
REMARK    1  A    between atoms: C1_2  and  C2_3 
ROOT
ATOM      1  C2  UNL d   1      -1.699  -2.866   1.919  0.00  0.00    -0.081 A 
ATOM      2  C3  UNL d   1      -0.717  -3.599   1.241  0.00  0.00     0.006 A 
ATOM      3  C4  UNL d   1      -0.369  -3.272  -0.072  0.00  0.00     0.002 A 
ATOM      4  C5  UNL d   1      -0.990  -2.202  -0.725  0.00  0.00    -0.080 A 
ATOM      5  C6  UNL d   1      -0.604  -1.820  -2.123  0.00  0.00     0.076 C 
ATOM      6  C7  UNL d   1      -1.983  -1.480  -0.054  0.00  0.00     0.002 A 
ATOM      7  C8  UNL d   1      -2.332  -1.808   1.258  0.00  0.00     0.006 A 
ENDROOT
BRANCH   1   8
ATOM      8  C1  UNL d   1      -2.031  -3.176   3.356  0.00  0.00     0.054 C 
ATOM      9  C   UNL d   1      -2.430  -1.919   4.115  0.00  0.00     0.018 C 
ENDBRANCH   1   8
TORSDOF 1
ENDMDL
