MODEL 1
REMARK minimizedAffinity 21.9057789
REMARK minimizedRMSD -1
REMARK  1 active torsions:
REMARK  status: ('A' for Active; 'I' for Inactive)
REMARK    1  A    between atoms: C1_2  and  C2_3 
ROOT
ATOM      1  C2  UNL d   1      -2.041   2.274  -4.142  0.00  0.00    -0.081 A 
ATOM      2  C3  UNL d   1      -0.836   1.837  -3.578  0.00  0.00     0.006 A 
ATOM      3  C4  UNL d   1       0.384   2.152  -4.183  0.00  0.00     0.002 A 
ATOM      4  C5  UNL d   1       0.419   2.915  -5.355  0.00  0.00    -0.080 A 
ATOM      5  C6  UNL d   1       1.723   3.285  -5.997  0.00  0.00     0.076 C 
ATOM      6  C7  UNL d   1      -0.786   3.336  -5.928  0.00  0.00     0.002 A 
ATOM      7  C8  UNL d   1      -2.005   3.021  -5.324  0.00  0.00     0.006 A 
ENDROOT
BRANCH   1   8
ATOM      8  C1  UNL d   1      -3.354   1.991  -3.458  0.00  0.00     0.054 C 
ATOM      9  C   UNL d   1      -3.261   0.757  -2.571  0.00  0.00     0.018 C 
ENDBRANCH   1   8
TORSDOF 1
ENDMDL
