MODEL 1
REMARK minimizedAffinity 15.2408113
REMARK minimizedRMSD -1
REMARK  1 active torsions:
REMARK  status: ('A' for Active; 'I' for Inactive)
REMARK    1  A    between atoms: C1_2  and  C2_3 
ROOT
ATOM      1  C2  UNL d   1       0.378   2.319  -3.993  0.00  0.00    -0.081 A 
ATOM      2  C3  UNL d   1       1.284   2.730  -3.007  0.00  0.00     0.006 A 
ATOM      3  C4  UNL d   1       2.198   1.824  -2.464  0.00  0.00     0.002 A 
ATOM      4  C5  UNL d   1       2.227   0.496  -2.903  0.00  0.00    -0.080 A 
ATOM      5  C6  UNL d   1       3.224  -0.480  -2.350  0.00  0.00     0.076 C 
ATOM      6  C7  UNL d   1       1.311   0.081  -3.875  0.00  0.00     0.002 A 
ATOM      7  C8  UNL d   1       0.396   0.987  -4.418  0.00  0.00     0.006 A 
ENDROOT
BRANCH   1   8
ATOM      8  C1  UNL d   1      -0.565   3.310  -4.626  0.00  0.00     0.054 C 
ATOM      9  C   UNL d   1      -2.008   3.030  -4.231  0.00  0.00     0.018 C 
ENDBRANCH   1   8
TORSDOF 1
ENDMDL
