MODEL 1
REMARK minimizedAffinity 16.7408295
REMARK minimizedRMSD -1
REMARK  1 active torsions:
REMARK  status: ('A' for Active; 'I' for Inactive)
REMARK    1  A    between atoms: C1_2  and  C2_3 
ROOT
ATOM      1  C2  UNL d   1      -2.110   0.252  -3.081  0.00  0.00    -0.081 A 
ATOM      2  C3  UNL d   1      -0.758   0.288  -3.443  0.00  0.00     0.006 A 
ATOM      3  C4  UNL d   1      -0.208   1.437  -4.016  0.00  0.00     0.002 A 
ATOM      4  C5  UNL d   1      -0.999   2.572  -4.229  0.00  0.00    -0.080 A 
ATOM      5  C6  UNL d   1      -0.414   3.822  -4.816  0.00  0.00     0.076 C 
ATOM      6  C7  UNL d   1      -2.354   2.530  -3.884  0.00  0.00     0.002 A 
ATOM      7  C8  UNL d   1      -2.904   1.381  -3.311  0.00  0.00     0.006 A 
ENDROOT
BRANCH   1   8
ATOM      8  C1  UNL d   1      -2.690  -0.963  -2.403  0.00  0.00     0.054 C 
ATOM      9  C   UNL d   1      -1.760  -1.489  -1.320  0.00  0.00     0.018 C 
ENDBRANCH   1   8
TORSDOF 1
ENDMDL
