MODEL 1
REMARK minimizedAffinity 24.585268
REMARK minimizedRMSD -1
REMARK  1 active torsions:
REMARK  status: ('A' for Active; 'I' for Inactive)
REMARK    1  A    between atoms: C1_2  and  C2_3 
ROOT
ATOM      1  C2  UNL d   1       4.375   2.652   4.747  0.00  0.00    -0.081 A 
ATOM      2  C3  UNL d   1       2.979   2.543   4.774  0.00  0.00     0.006 A 
ATOM      3  C4  UNL d   1       2.193   3.620   5.189  0.00  0.00     0.002 A 
ATOM      4  C5  UNL d   1       2.788   4.825   5.577  0.00  0.00    -0.080 A 
ATOM      5  C6  UNL d   1       1.954   5.999   5.997  0.00  0.00     0.076 C 
ATOM      6  C7  UNL d   1       4.183   4.928   5.568  0.00  0.00     0.002 A 
ATOM      7  C8  UNL d   1       4.970   3.851   5.153  0.00  0.00     0.006 A 
ENDROOT
BRANCH   1   8
ATOM      8  C1  UNL d   1       5.222   1.514   4.238  0.00  0.00     0.054 C 
ATOM      9  C   UNL d   1       4.505   0.736   3.144  0.00  0.00     0.018 C 
ENDBRANCH   1   8
TORSDOF 1
ENDMDL
