MODEL 1
REMARK minimizedAffinity 21.6252155
REMARK minimizedRMSD -1
REMARK  1 active torsions:
REMARK  status: ('A' for Active; 'I' for Inactive)
REMARK    1  A    between atoms: C1_2  and  C2_3 
ROOT
ATOM      1  C2  UNL d   1      -0.870  -2.672   3.803  0.00  0.00    -0.081 A 
ATOM      2  C3  UNL d   1      -2.136  -2.237   3.391  0.00  0.00     0.006 A 
ATOM      3  C4  UNL d   1      -2.811  -1.246   4.107  0.00  0.00     0.002 A 
ATOM      4  C5  UNL d   1      -2.230  -0.667   5.240  0.00  0.00    -0.080 A 
ATOM      5  C6  UNL d   1      -2.931   0.420   5.999  0.00  0.00     0.076 C 
ATOM      6  C7  UNL d   1      -0.973  -1.114   5.662  0.00  0.00     0.002 A 
ATOM      7  C8  UNL d   1      -0.297  -2.106   4.948  0.00  0.00     0.006 A 
ENDROOT
BRANCH   1   8
ATOM      8  C1  UNL d   1      -0.111  -3.695   2.997  0.00  0.00     0.054 C 
ATOM      9  C   UNL d   1      -0.154  -3.371   1.511  0.00  0.00     0.018 C 
ENDBRANCH   1   8
TORSDOF 1
ENDMDL
