MODEL 1
REMARK minimizedAffinity 17.8953896
REMARK minimizedRMSD -1
REMARK  1 active torsions:
REMARK  status: ('A' for Active; 'I' for Inactive)
REMARK    1  A    between atoms: C1_2  and  C2_3 
ROOT
ATOM      1  C2  UNL d   1      -2.601   3.522  -4.653  0.00  0.00    -0.081 A 
ATOM      2  C3  UNL d   1      -2.742   4.821  -4.150  0.00  0.00     0.006 A 
ATOM      3  C4  UNL d   1      -3.802   5.630  -4.564  0.00  0.00     0.002 A 
ATOM      4  C5  UNL d   1      -4.743   5.152  -5.482  0.00  0.00    -0.080 A 
ATOM      5  C6  UNL d   1      -5.903   5.999  -5.913  0.00  0.00     0.076 C 
ATOM      6  C7  UNL d   1      -4.593   3.860  -5.998  0.00  0.00     0.002 A 
ATOM      7  C8  UNL d   1      -3.533   3.051  -5.585  0.00  0.00     0.006 A 
ENDROOT
BRANCH   1   8
ATOM      8  C1  UNL d   1      -1.496   2.624  -4.159  0.00  0.00     0.054 C 
ATOM      9  C   UNL d   1      -0.127   3.241  -4.410  0.00  0.00     0.018 C 
ENDBRANCH   1   8
TORSDOF 1
ENDMDL
