MODEL 1
REMARK minimizedAffinity 16.5629845
REMARK minimizedRMSD -1
REMARK  1 active torsions:
REMARK  status: ('A' for Active; 'I' for Inactive)
REMARK    1  A    between atoms: C1_2  and  C2_3 
ROOT
ATOM      1  C2  UNL d   1      -3.920   1.244   5.458  0.00  0.00    -0.081 A 
ATOM      2  C3  UNL d   1      -5.311   1.308   5.310  0.00  0.00     0.006 A 
ATOM      3  C4  UNL d   1      -5.988   2.515   5.496  0.00  0.00     0.002 A 
ATOM      4  C5  UNL d   1      -5.286   3.680   5.825  0.00  0.00    -0.080 A 
ATOM      5  C6  UNL d   1      -5.997   4.989   5.998  0.00  0.00     0.076 C 
ATOM      6  C7  UNL d   1      -3.898   3.613   5.990  0.00  0.00     0.002 A 
ATOM      7  C8  UNL d   1      -3.220   2.406   5.804  0.00  0.00     0.006 A 
ENDROOT
BRANCH   1   8
ATOM      8  C1  UNL d   1      -3.179  -0.042   5.194  0.00  0.00     0.054 C 
ATOM      9  C   UNL d   1      -3.334  -0.483   3.746  0.00  0.00     0.018 C 
ENDBRANCH   1   8
TORSDOF 1
ENDMDL
