MODEL 1
REMARK minimizedAffinity 8.02732277
REMARK minimizedRMSD -1
REMARK  1 active torsions:
REMARK  status: ('A' for Active; 'I' for Inactive)
REMARK    1  A    between atoms: C1_2  and  C2_3 
ROOT
ATOM      1  C2  UNL d   1      -1.478  -2.633   0.304  0.00  0.00    -0.081 A 
ATOM      2  C3  UNL d   1      -0.807  -3.793  -0.103  0.00  0.00     0.006 A 
ATOM      3  C4  UNL d   1      -0.674  -4.876   0.770  0.00  0.00     0.002 A 
ATOM      4  C5  UNL d   1      -1.215  -4.820   2.059  0.00  0.00    -0.080 A 
ATOM      5  C6  UNL d   1      -1.105  -5.987   2.994  0.00  0.00     0.076 C 
ATOM      6  C7  UNL d   1      -1.869  -3.654   2.471  0.00  0.00     0.002 A 
ATOM      7  C8  UNL d   1      -2.002  -2.571   1.599  0.00  0.00     0.006 A 
ENDROOT
BRANCH   1   8
ATOM      8  C1  UNL d   1      -1.679  -1.488  -0.656  0.00  0.00     0.054 C 
ATOM      9  C   UNL d   1      -1.042  -1.781  -2.008  0.00  0.00     0.018 C 
ENDBRANCH   1   8
TORSDOF 1
ENDMDL
