MODEL 1
REMARK minimizedAffinity 10.6613855
REMARK minimizedRMSD -1
REMARK  1 active torsions:
REMARK  status: ('A' for Active; 'I' for Inactive)
REMARK    1  A    between atoms: C1_2  and  C2_3 
ROOT
ATOM      1  C2  UNL d   1      -1.854  -2.692   3.054  0.00  0.00    -0.081 A 
ATOM      2  C3  UNL d   1      -1.243  -3.906   3.392  0.00  0.00     0.006 A 
ATOM      3  C4  UNL d   1      -0.806  -4.780   2.394  0.00  0.00     0.002 A 
ATOM      4  C5  UNL d   1      -0.965  -4.452   1.043  0.00  0.00    -0.080 A 
ATOM      5  C6  UNL d   1      -0.472  -5.367  -0.038  0.00  0.00     0.076 C 
ATOM      6  C7  UNL d   1      -1.591  -3.247   0.706  0.00  0.00     0.002 A 
ATOM      7  C8  UNL d   1      -2.029  -2.373   1.703  0.00  0.00     0.006 A 
ENDROOT
BRANCH   1   8
ATOM      8  C1  UNL d   1      -2.269  -1.718   4.128  0.00  0.00     0.054 C 
ATOM      9  C   UNL d   1      -1.199  -1.591   5.203  0.00  0.00     0.018 C 
ENDBRANCH   1   8
TORSDOF 1
ENDMDL
