MODEL 1
REMARK minimizedAffinity 8.26041603
REMARK minimizedRMSD -1
REMARK  1 active torsions:
REMARK  status: ('A' for Active; 'I' for Inactive)
REMARK    1  A    between atoms: C1_2  and  C2_3 
ROOT
ATOM      1  C2  UNL d   1       2.206   0.512  -3.592  0.00  0.00    -0.081 A 
ATOM      2  C3  UNL d   1       1.024  -0.224  -3.741  0.00  0.00     0.006 A 
ATOM      3  C4  UNL d   1      -0.193   0.427  -3.953  0.00  0.00     0.002 A 
ATOM      4  C5  UNL d   1      -0.248   1.823  -4.028  0.00  0.00    -0.080 A 
ATOM      5  C6  UNL d   1      -1.544   2.533  -4.285  0.00  0.00     0.076 C 
ATOM      6  C7  UNL d   1       0.930   2.559  -3.862  0.00  0.00     0.002 A 
ATOM      7  C8  UNL d   1       2.148   1.908  -3.649  0.00  0.00     0.006 A 
ENDROOT
BRANCH   1   8
ATOM      8  C1  UNL d   1       3.530  -0.190  -3.428  0.00  0.00     0.054 C 
ATOM      9  C   UNL d   1       4.657   0.593  -4.086  0.00  0.00     0.018 C 
ENDBRANCH   1   8
TORSDOF 1
ENDMDL
