MODEL 1
REMARK minimizedAffinity 21.0274124
REMARK minimizedRMSD -1
REMARK  1 active torsions:
REMARK  status: ('A' for Active; 'I' for Inactive)
REMARK    1  A    between atoms: C1_2  and  C2_3 
ROOT
ATOM      1  C2  UNL d   1       4.614   3.499  -0.044  0.00  0.00    -0.081 A 
ATOM      2  C3  UNL d   1       5.196   2.698  -1.034  0.00  0.00     0.006 A 
ATOM      3  C4  UNL d   1       4.527   1.571  -1.518  0.00  0.00     0.002 A 
ATOM      4  C5  UNL d   1       3.262   1.231  -1.026  0.00  0.00    -0.080 A 
ATOM      5  C6  UNL d   1       2.520   0.041  -1.558  0.00  0.00     0.076 C 
ATOM      6  C7  UNL d   1       2.688   2.022  -0.025  0.00  0.00     0.002 A 
ATOM      7  C8  UNL d   1       3.357   3.148   0.459  0.00  0.00     0.006 A 
ENDROOT
BRANCH   1   8
ATOM      8  C1  UNL d   1       5.304   4.751   0.433  0.00  0.00     0.054 C 
ATOM      9  C   UNL d   1       4.627   5.999  -0.114  0.00  0.00     0.018 C 
ENDBRANCH   1   8
TORSDOF 1
ENDMDL
