MODEL 1
REMARK minimizedAffinity 9.71713161
REMARK minimizedRMSD -1
REMARK  0 active torsions:
REMARK  status: ('A' for Active; 'I' for Inactive)
ROOT
ATOM      1  C2' OXE d   1      -5.946  -1.515   3.295  0.00  0.00     0.078 C 
ATOM      2  C1' OXE d   1      -5.959  -3.056   5.641  0.00  0.00     0.078 C 
ATOM      3  C1  OXE d   1      -5.956  -3.785   4.321  0.00  0.00    -0.078 A 
ATOM      4  C2  OXE d   1      -5.997  -3.023   3.178  0.00  0.00    -0.078 A 
ATOM      5  C3  OXE d   1      -5.941  -3.643   1.933  0.00  0.00     0.003 A 
ATOM      6  C4  OXE d   1      -5.999  -5.039   1.834  0.00  0.00    -0.002 A 
ATOM      7  C5  OXE d   1      -5.998  -5.834   2.985  0.00  0.00    -0.002 A 
ATOM      8  C6  OXE d   1      -5.934  -5.224   4.233  0.00  0.00     0.003 A 
ENDROOT
TORSDOF 0
ENDMDL
