MODEL 1
REMARK minimizedAffinity 2.24296284
REMARK minimizedRMSD -1
REMARK  0 active torsions:
REMARK  status: ('A' for Active; 'I' for Inactive)
ROOT
ATOM      1  C2' OXE d   1       1.775  -0.343  -3.175  0.00  0.00     0.078 C 
ATOM      2  C1' OXE d   1       0.476  -2.344  -1.695  0.00  0.00     0.078 C 
ATOM      3  C1  OXE d   1       1.776  -1.801  -1.155  0.00  0.00    -0.078 A 
ATOM      4  C2  OXE d   1       2.428  -0.856  -1.910  0.00  0.00    -0.078 A 
ATOM      5  C3  OXE d   1       3.603  -0.283  -1.431  0.00  0.00     0.003 A 
ATOM      6  C4  OXE d   1       4.206  -0.770  -0.265  0.00  0.00    -0.002 A 
ATOM      7  C5  OXE d   1       3.578  -1.761   0.498  0.00  0.00    -0.002 A 
ATOM      8  C6  OXE d   1       2.345  -2.256   0.090  0.00  0.00     0.003 A 
ENDROOT
TORSDOF 0
ENDMDL
