MODEL 1
REMARK minimizedAffinity 2.4392345
REMARK minimizedRMSD -1
REMARK  0 active torsions:
REMARK  status: ('A' for Active; 'I' for Inactive)
ROOT
ATOM      1  C2' OXE d   1       3.802  -5.732  -3.669  0.00  0.00     0.078 C 
ATOM      2  C1' OXE d   1       2.040  -3.578  -3.302  0.00  0.00     0.078 C 
ATOM      3  C1  OXE d   1       2.960  -3.936  -2.162  0.00  0.00    -0.078 A 
ATOM      4  C2  OXE d   1       3.786  -5.020  -2.333  0.00  0.00    -0.078 A 
ATOM      5  C3  OXE d   1       4.694  -5.360  -1.333  0.00  0.00     0.003 A 
ATOM      6  C4  OXE d   1       4.665  -4.703  -0.097  0.00  0.00    -0.002 A 
ATOM      7  C5  OXE d   1       3.804  -3.621   0.112  0.00  0.00    -0.002 A 
ATOM      8  C6  OXE d   1       2.977  -3.198  -0.923  0.00  0.00     0.003 A 
ENDROOT
TORSDOF 0
ENDMDL
