MODEL 1
REMARK minimizedAffinity 15.5326138
REMARK minimizedRMSD -1
REMARK  0 active torsions:
REMARK  status: ('A' for Active; 'I' for Inactive)
ROOT
ATOM      1  C2' OXE d   1       2.314  -1.506  -0.136  0.00  0.00     0.078 C 
ATOM      2  C1' OXE d   1       2.843   1.041   0.917  0.00  0.00     0.078 C 
ATOM      3  C1  OXE d   1       2.264   0.961  -0.474  0.00  0.00    -0.078 A 
ATOM      4  C2  OXE d   1       2.052  -0.291  -0.999  0.00  0.00    -0.078 A 
ATOM      5  C3  OXE d   1       1.469  -0.421  -2.256  0.00  0.00     0.003 A 
ATOM      6  C4  OXE d   1       1.239   0.708  -3.052  0.00  0.00    -0.002 A 
ATOM      7  C5  OXE d   1       1.485   1.991  -2.551  0.00  0.00    -0.002 A 
ATOM      8  C6  OXE d   1       1.957   2.136  -1.251  0.00  0.00     0.003 A 
ENDROOT
TORSDOF 0
ENDMDL
