MODEL 1
REMARK minimizedAffinity 11.5102882
REMARK minimizedRMSD -1
REMARK  0 active torsions:
REMARK  status: ('A' for Active; 'I' for Inactive)
ROOT
ATOM      1  C2' OXE d   1       3.092  -0.122   0.471  0.00  0.00     0.078 C 
ATOM      2  C1' OXE d   1       1.163   0.597   2.379  0.00  0.00     0.078 C 
ATOM      3  C1  OXE d   1       2.216   1.618   2.024  0.00  0.00    -0.078 A 
ATOM      4  C2  OXE d   1       3.183   1.240   1.124  0.00  0.00    -0.078 A 
ATOM      5  C3  OXE d   1       4.146   2.161   0.720  0.00  0.00     0.003 A 
ATOM      6  C4  OXE d   1       4.229   3.416   1.336  0.00  0.00    -0.002 A 
ATOM      7  C5  OXE d   1       3.277   3.806   2.284  0.00  0.00    -0.002 A 
ATOM      8  C6  OXE d   1       2.241   2.936   2.607  0.00  0.00     0.003 A 
ENDROOT
TORSDOF 0
ENDMDL
