MODEL 1
REMARK minimizedAffinity 6.49041557
REMARK minimizedRMSD -1
REMARK  0 active torsions:
REMARK  status: ('A' for Active; 'I' for Inactive)
ROOT
ATOM      1  C2' OXE d   1       4.828  -5.281  -0.540  0.00  0.00     0.078 C 
ATOM      2  C1' OXE d   1       3.223  -3.099   0.198  0.00  0.00     0.078 C 
ATOM      3  C1  OXE d   1       3.157  -3.568  -1.234  0.00  0.00    -0.078 A 
ATOM      4  C2  OXE d   1       3.981  -4.606  -1.597  0.00  0.00    -0.078 A 
ATOM      5  C3  OXE d   1       3.920  -5.113  -2.892  0.00  0.00     0.003 A 
ATOM      6  C4  OXE d   1       3.142  -4.477  -3.867  0.00  0.00    -0.002 A 
ATOM      7  C5  OXE d   1       2.326  -3.393  -3.528  0.00  0.00    -0.002 A 
ATOM      8  C6  OXE d   1       2.290  -2.954  -2.209  0.00  0.00     0.003 A 
ENDROOT
TORSDOF 0
ENDMDL
