MODEL 1
REMARK minimizedAffinity 12.2606726
REMARK minimizedRMSD -1
REMARK  0 active torsions:
REMARK  status: ('A' for Active; 'I' for Inactive)
ROOT
ATOM      1  C2' OXE d   1      -0.072  -4.610  -2.035  0.00  0.00     0.078 C 
ATOM      2  C1' OXE d   1       1.178  -2.166  -1.451  0.00  0.00     0.078 C 
ATOM      3  C1  OXE d   1      -0.263  -2.131  -1.895  0.00  0.00    -0.078 A 
ATOM      4  C2  OXE d   1      -0.853  -3.327  -2.223  0.00  0.00    -0.078 A 
ATOM      5  C3  OXE d   1      -2.196  -3.357  -2.586  0.00  0.00     0.003 A 
ATOM      6  C4  OXE d   1      -2.908  -2.165  -2.768  0.00  0.00    -0.002 A 
ATOM      7  C5  OXE d   1      -2.314  -0.932  -2.477  0.00  0.00    -0.002 A 
ATOM      8  C6  OXE d   1      -1.008  -0.901  -2.000  0.00  0.00     0.003 A 
ENDROOT
TORSDOF 0
ENDMDL
