MODEL 1
REMARK minimizedAffinity 6.04290342
REMARK minimizedRMSD -1
REMARK  0 active torsions:
REMARK  status: ('A' for Active; 'I' for Inactive)
ROOT
ATOM      1  C2' OXE d   1       1.449  -1.002  -0.598  0.00  0.00     0.078 C 
ATOM      2  C1' OXE d   1       2.617  -3.550  -0.449  0.00  0.00     0.078 C 
ATOM      3  C1  OXE d   1       1.261  -3.435  -1.100  0.00  0.00    -0.078 A 
ATOM      4  C2  OXE d   1       0.677  -2.191  -1.127  0.00  0.00    -0.078 A 
ATOM      5  C3  OXE d   1      -0.549  -2.019  -1.764  0.00  0.00     0.003 A 
ATOM      6  C4  OXE d   1      -1.261  -3.126  -2.242  0.00  0.00    -0.002 A 
ATOM      7  C5  OXE d   1      -0.701  -4.407  -2.189  0.00  0.00    -0.002 A 
ATOM      8  C6  OXE d   1       0.575  -4.572  -1.661  0.00  0.00     0.003 A 
ENDROOT
TORSDOF 0
ENDMDL
