MODEL 1
REMARK minimizedAffinity 11.0420847
REMARK minimizedRMSD -1
REMARK  0 active torsions:
REMARK  status: ('A' for Active; 'I' for Inactive)
ROOT
ATOM      1  C2' OXE d   1      -0.365  -2.993  -1.112  0.00  0.00     0.078 C 
ATOM      2  C1' OXE d   1      -2.685  -2.534  -2.625  0.00  0.00     0.078 C 
ATOM      3  C1  OXE d   1      -1.877  -3.770  -2.933  0.00  0.00    -0.078 A 
ATOM      4  C2  OXE d   1      -0.718  -3.962  -2.220  0.00  0.00    -0.078 A 
ATOM      5  C3  OXE d   1       0.036  -5.114  -2.426  0.00  0.00     0.003 A 
ATOM      6  C4  OXE d   1      -0.292  -6.000  -3.459  0.00  0.00    -0.002 A 
ATOM      7  C5  OXE d   1      -1.446  -5.802  -4.225  0.00  0.00    -0.002 A 
ATOM      8  C6  OXE d   1      -2.271  -4.717  -3.947  0.00  0.00     0.003 A 
ENDROOT
TORSDOF 0
ENDMDL
