MODEL 1
REMARK minimizedAffinity 12.4393787
REMARK minimizedRMSD -1
REMARK  0 active torsions:
REMARK  status: ('A' for Active; 'I' for Inactive)
ROOT
ATOM      1  C2' OXE d   1       1.090  -0.630   4.750  0.00  0.00     0.078 C 
ATOM      2  C1' OXE d   1       1.360   0.784   2.341  0.00  0.00     0.078 C 
ATOM      3  C1  OXE d   1       1.849   1.447   3.604  0.00  0.00    -0.078 A 
ATOM      4  C2  OXE d   1       1.670   0.767   4.785  0.00  0.00    -0.078 A 
ATOM      5  C3  OXE d   1       2.152   1.310   5.972  0.00  0.00     0.003 A 
ATOM      6  C4  OXE d   1       2.679   2.607   5.997  0.00  0.00    -0.002 A 
ATOM      7  C5  OXE d   1       2.833   3.333   4.811  0.00  0.00    -0.002 A 
ATOM      8  C6  OXE d   1       2.463   2.752   3.603  0.00  0.00     0.003 A 
ENDROOT
TORSDOF 0
ENDMDL
