MODEL 1
REMARK minimizedAffinity 17.421196
REMARK minimizedRMSD -1
REMARK  0 active torsions:
REMARK  status: ('A' for Active; 'I' for Inactive)
ROOT
ATOM      1  C2' OXE d   1      -5.962   0.400   1.684  0.00  0.00     0.078 C 
ATOM      2  C1' OXE d   1      -5.962   0.456   4.490  0.00  0.00     0.078 C 
ATOM      3  C1  OXE d   1      -5.951  -0.892   3.814  0.00  0.00    -0.078 A 
ATOM      4  C2  OXE d   1      -5.999  -0.911   2.441  0.00  0.00    -0.078 A 
ATOM      5  C3  OXE d   1      -5.936  -2.126   1.765  0.00  0.00     0.003 A 
ATOM      6  C4  OXE d   1      -5.980  -3.333   2.473  0.00  0.00    -0.002 A 
ATOM      7  C5  OXE d   1      -5.973  -3.337   3.872  0.00  0.00    -0.002 A 
ATOM      8  C6  OXE d   1      -5.915  -2.128   4.556  0.00  0.00     0.003 A 
ENDROOT
TORSDOF 0
ENDMDL
