MODEL 1
REMARK minimizedAffinity 11.1699295
REMARK minimizedRMSD -1
REMARK  0 active torsions:
REMARK  status: ('A' for Active; 'I' for Inactive)
ROOT
ATOM      1  C2' OXE d   1      -5.947  -0.566   1.743  0.00  0.00     0.078 C 
ATOM      2  C1' OXE d   1      -5.978  -3.193   0.754  0.00  0.00     0.078 C 
ATOM      3  C1  OXE d   1      -5.967  -3.005   2.251  0.00  0.00    -0.078 A 
ATOM      4  C2  OXE d   1      -5.905  -1.717   2.725  0.00  0.00    -0.078 A 
ATOM      5  C3  OXE d   1      -5.947  -1.485   4.097  0.00  0.00     0.003 A 
ATOM      6  C4  OXE d   1      -5.898  -2.555   4.999  0.00  0.00    -0.002 A 
ATOM      7  C5  OXE d   1      -5.920  -3.875   4.536  0.00  0.00    -0.002 A 
ATOM      8  C6  OXE d   1      -5.998  -4.116   3.169  0.00  0.00     0.003 A 
ENDROOT
TORSDOF 0
ENDMDL
