MODEL 1
REMARK minimizedAffinity 8.70661545
REMARK minimizedRMSD -1
REMARK  0 active torsions:
REMARK  status: ('A' for Active; 'I' for Inactive)
ROOT
ATOM      1  C2' OXE d   1       1.158  -2.889  -1.488  0.00  0.00     0.078 C 
ATOM      2  C1' OXE d   1      -0.447  -5.097  -2.142  0.00  0.00     0.078 C 
ATOM      3  C1  OXE d   1      -0.962  -3.724  -2.496  0.00  0.00    -0.078 A 
ATOM      4  C2  OXE d   1      -0.191  -2.646  -2.130  0.00  0.00    -0.078 A 
ATOM      5  C3  OXE d   1      -0.593  -1.361  -2.480  0.00  0.00     0.003 A 
ATOM      6  C4  OXE d   1      -1.847  -1.144  -3.064  0.00  0.00    -0.002 A 
ATOM      7  C5  OXE d   1      -2.665  -2.225  -3.409  0.00  0.00    -0.002 A 
ATOM      8  C6  OXE d   1      -2.220  -3.520  -3.171  0.00  0.00     0.003 A 
ENDROOT
TORSDOF 0
ENDMDL
