MODEL 1
REMARK minimizedAffinity 9.19090176
REMARK minimizedRMSD -1
REMARK  0 active torsions:
REMARK  status: ('A' for Active; 'I' for Inactive)
ROOT
ATOM      1  C2' OXE d   1       1.754   3.673  -2.214  0.00  0.00     0.078 C 
ATOM      2  C1' OXE d   1       0.430   1.957  -3.998  0.00  0.00     0.078 C 
ATOM      3  C1  OXE d   1       1.265   1.331  -2.909  0.00  0.00    -0.078 A 
ATOM      4  C2  OXE d   1       1.947   2.179  -2.069  0.00  0.00    -0.078 A 
ATOM      5  C3  OXE d   1       2.687   1.655  -1.013  0.00  0.00     0.003 A 
ATOM      6  C4  OXE d   1       2.868   0.272  -0.892  0.00  0.00    -0.002 A 
ATOM      7  C5  OXE d   1       2.215  -0.608  -1.761  0.00  0.00    -0.002 A 
ATOM      8  C6  OXE d   1       1.377  -0.097  -2.746  0.00  0.00     0.003 A 
ENDROOT
TORSDOF 0
ENDMDL
