MODEL 1
REMARK minimizedAffinity 12.1122942
REMARK minimizedRMSD -1
REMARK  0 active torsions:
REMARK  status: ('A' for Active; 'I' for Inactive)
ROOT
ATOM      1  C2' OXE d   1      -0.614  -4.930  -1.907  0.00  0.00     0.078 C 
ATOM      2  C1' OXE d   1       0.888  -2.597  -1.482  0.00  0.00     0.078 C 
ATOM      3  C1  OXE d   1      -0.494  -2.446  -2.067  0.00  0.00    -0.078 A 
ATOM      4  C2  OXE d   1      -1.204  -3.597  -2.315  0.00  0.00    -0.078 A 
ATOM      5  C3  OXE d   1      -2.505  -3.512  -2.802  0.00  0.00     0.003 A 
ATOM      6  C4  OXE d   1      -3.040  -2.276  -3.186  0.00  0.00    -0.002 A 
ATOM      7  C5  OXE d   1      -2.318  -1.096  -2.978  0.00  0.00    -0.002 A 
ATOM      8  C6  OXE d   1      -1.064  -1.160  -2.382  0.00  0.00     0.003 A 
ENDROOT
TORSDOF 0
ENDMDL
