MODEL 1
REMARK minimizedAffinity 15.8108368
REMARK minimizedRMSD -1
REMARK  0 active torsions:
REMARK  status: ('A' for Active; 'I' for Inactive)
ROOT
ATOM      1  C2' OXE d   1       3.398   0.934   0.079  0.00  0.00     0.078 C 
ATOM      2  C1' OXE d   1       2.217  -1.306  -1.132  0.00  0.00     0.078 C 
ATOM      3  C1  OXE d   1       1.974   0.043  -1.761  0.00  0.00    -0.078 A 
ATOM      4  C2  OXE d   1       2.518   1.139  -1.135  0.00  0.00    -0.078 A 
ATOM      5  C3  OXE d   1       2.370   2.401  -1.703  0.00  0.00     0.003 A 
ATOM      6  C4  OXE d   1       1.545   2.583  -2.820  0.00  0.00    -0.002 A 
ATOM      7  C5  OXE d   1       0.950   1.485  -3.450  0.00  0.00    -0.002 A 
ATOM      8  C6  OXE d   1       1.189   0.206  -2.959  0.00  0.00     0.003 A 
ENDROOT
TORSDOF 0
ENDMDL
