MODEL 1
REMARK minimizedAffinity 2.83102608
REMARK minimizedRMSD -1
REMARK  0 active torsions:
REMARK  status: ('A' for Active; 'I' for Inactive)
ROOT
ATOM      1  C2' OXE d   1       2.890  -0.967  -0.604  0.00  0.00     0.078 C 
ATOM      2  C1' OXE d   1       1.641  -0.198  -2.998  0.00  0.00     0.078 C 
ATOM      3  C1  OXE d   1       1.156  -1.457  -2.324  0.00  0.00    -0.078 A 
ATOM      4  C2  OXE d   1       1.804  -1.851  -1.178  0.00  0.00    -0.078 A 
ATOM      5  C3  OXE d   1       1.361  -2.975  -0.487  0.00  0.00     0.003 A 
ATOM      6  C4  OXE d   1       0.363  -3.793  -1.030  0.00  0.00    -0.002 A 
ATOM      7  C5  OXE d   1      -0.284  -3.432  -2.217  0.00  0.00    -0.002 A 
ATOM      8  C6  OXE d   1       0.071  -2.247  -2.852  0.00  0.00     0.003 A 
ENDROOT
TORSDOF 0
ENDMDL
