MODEL 1
REMARK minimizedAffinity -5.21435833
REMARK minimizedRMSD -1
REMARK  1 active torsions:
REMARK  status: ('A' for Active; 'I' for Inactive)
REMARK    1  A    between atoms: C1_2  and  C2_3 
ROOT
ATOM      1  C2  UNL d   1      -0.684  -0.174   0.417  0.00  0.00    -0.077 A 
ATOM      2  C3  UNL d   1       0.652   0.216   0.247  0.00  0.00     0.002 A 
ATOM      3  C4  UNL d   1       1.368   0.767   1.311  0.00  0.00     0.002 A 
ATOM      4  C5  UNL d   1       0.759   0.929   2.554  0.00  0.00    -0.004 A 
ATOM      5  C6  UNL d   1      -0.570   0.546   2.733  0.00  0.00     0.002 A 
ATOM      6  C7  UNL d   1      -1.288  -0.003   1.670  0.00  0.00     0.002 A 
ENDROOT
BRANCH   1   7
ATOM      7  C1  UNL d   1      -1.444  -0.813  -0.715  0.00  0.00     0.055 C 
ATOM      8  C   UNL d   1      -2.943  -0.800  -0.454  0.00  0.00     0.019 C 
ENDBRANCH   1   7
TORSDOF 1
ENDMDL
