MODEL 1
REMARK minimizedAffinity -2.54073119
REMARK minimizedRMSD -1
REMARK  1 active torsions:
REMARK  status: ('A' for Active; 'I' for Inactive)
REMARK    1  A    between atoms: C1_2  and  C2_3 
ROOT
ATOM      1  C2  UNL d   1      -0.824   0.328   0.744  0.00  0.00    -0.077 A 
ATOM      2  C3  UNL d   1       0.568   0.267   0.900  0.00  0.00     0.002 A 
ATOM      3  C4  UNL d   1       1.160   0.635   2.109  0.00  0.00     0.002 A 
ATOM      4  C5  UNL d   1       0.369   1.063   3.172  0.00  0.00    -0.004 A 
ATOM      5  C6  UNL d   1      -1.016   1.130   3.027  0.00  0.00     0.002 A 
ATOM      6  C7  UNL d   1      -1.610   0.763   1.818  0.00  0.00     0.002 A 
ENDROOT
BRANCH   1   7
ATOM      7  C1  UNL d   1      -1.468  -0.116  -0.543  0.00  0.00     0.055 C 
ATOM      8  C   UNL d   1      -0.629  -1.172  -1.248  0.00  0.00     0.019 C 
ENDBRANCH   1   7
TORSDOF 1
ENDMDL
