MODEL 1
REMARK minimizedAffinity 4.90804434
REMARK minimizedRMSD -1
REMARK  1 active torsions:
REMARK  status: ('A' for Active; 'I' for Inactive)
REMARK    1  A    between atoms: C1_2  and  C2_3 
ROOT
ATOM      1  C2  UNL d   1      -1.889  -1.882  -5.324  0.00  0.00    -0.077 A 
ATOM      2  C3  UNL d   1      -1.695  -0.591  -5.835  0.00  0.00     0.002 A 
ATOM      3  C4  UNL d   1      -0.777   0.275  -5.237  0.00  0.00     0.002 A 
ATOM      4  C5  UNL d   1      -0.044  -0.142  -4.128  0.00  0.00    -0.004 A 
ATOM      5  C6  UNL d   1      -0.231  -1.423  -3.611  0.00  0.00     0.002 A 
ATOM      6  C7  UNL d   1      -1.149  -2.290  -4.207  0.00  0.00     0.002 A 
ENDROOT
BRANCH   1   7
ATOM      7  C1  UNL d   1      -2.842  -2.835  -5.998  0.00  0.00     0.055 C 
ATOM      8  C   UNL d   1      -4.262  -2.288  -6.000  0.00  0.00     0.019 C 
ENDBRANCH   1   7
TORSDOF 1
ENDMDL
