MODEL 1
REMARK minimizedAffinity 0.256076425
REMARK minimizedRMSD -1
REMARK  1 active torsions:
REMARK  status: ('A' for Active; 'I' for Inactive)
REMARK    1  A    between atoms: C1_2  and  C2_3 
ROOT
ATOM      1  C2  UNL d   1      -0.759  -0.274   2.961  0.00  0.00    -0.077 A 
ATOM      2  C3  UNL d   1      -1.508   0.023   1.814  0.00  0.00     0.002 A 
ATOM      3  C4  UNL d   1      -0.871   0.230   0.589  0.00  0.00     0.002 A 
ATOM      4  C5  UNL d   1       0.516   0.140   0.499  0.00  0.00    -0.004 A 
ATOM      5  C6  UNL d   1       1.270  -0.153   1.635  0.00  0.00     0.002 A 
ATOM      6  C7  UNL d   1       0.635  -0.359   2.860  0.00  0.00     0.002 A 
ENDROOT
BRANCH   1   7
ATOM      7  C1  UNL d   1      -1.448  -0.547   4.273  0.00  0.00     0.055 C 
ATOM      8  C   UNL d   1      -0.913   0.354   5.377  0.00  0.00     0.019 C 
ENDBRANCH   1   7
TORSDOF 1
ENDMDL
