MODEL 1
REMARK minimizedAffinity 4.73379326
REMARK minimizedRMSD -1
REMARK  1 active torsions:
REMARK  status: ('A' for Active; 'I' for Inactive)
REMARK    1  A    between atoms: C1_2  and  C2_3 
ROOT
ATOM      1  C2  UNL d   1       3.406   3.676   1.977  0.00  0.00    -0.077 A 
ATOM      2  C3  UNL d   1       3.786   5.004   2.218  0.00  0.00     0.002 A 
ATOM      3  C4  UNL d   1       4.579   5.323   3.321  0.00  0.00     0.002 A 
ATOM      4  C5  UNL d   1       5.003   4.320   4.190  0.00  0.00    -0.004 A 
ATOM      5  C6  UNL d   1       4.628   2.996   3.961  0.00  0.00     0.002 A 
ATOM      6  C7  UNL d   1       3.834   2.676   2.859  0.00  0.00     0.002 A 
ENDROOT
BRANCH   1   7
ATOM      7  C1  UNL d   1       2.591   3.324   0.760  0.00  0.00     0.055 C 
ATOM      8  C   UNL d   1       1.500   2.318   1.097  0.00  0.00     0.019 C 
ENDBRANCH   1   7
TORSDOF 1
ENDMDL
