MODEL 1
REMARK minimizedAffinity -2.36839342
REMARK minimizedRMSD -1
REMARK  1 active torsions:
REMARK  status: ('A' for Active; 'I' for Inactive)
REMARK    1  A    between atoms: C1_2  and  C2_3 
ROOT
ATOM      1  C2  UNL d   1      -0.522  -1.353   3.847  0.00  0.00    -0.077 A 
ATOM      2  C3  UNL d   1      -1.420  -2.307   4.345  0.00  0.00     0.002 A 
ATOM      3  C4  UNL d   1      -2.780  -2.225   4.039  0.00  0.00     0.002 A 
ATOM      4  C5  UNL d   1      -3.253  -1.193   3.230  0.00  0.00    -0.004 A 
ATOM      5  C6  UNL d   1      -2.368  -0.238   2.731  0.00  0.00     0.002 A 
ATOM      6  C7  UNL d   1      -1.009  -0.318   3.038  0.00  0.00     0.002 A 
ENDROOT
BRANCH   1   7
ATOM      7  C1  UNL d   1       0.952  -1.467   4.136  0.00  0.00     0.055 C 
ATOM      8  C   UNL d   1       1.785  -1.111   2.913  0.00  0.00     0.019 C 
ENDBRANCH   1   7
TORSDOF 1
ENDMDL
