MODEL 1
REMARK minimizedAffinity 10.5034637
REMARK minimizedRMSD -1
REMARK  0 active torsions:
REMARK  status: ('A' for Active; 'I' for Inactive)
ROOT
ATOM      1  N1  IND d   1       0.633   1.204  -0.466  0.00  0.00    -0.196 N 
ATOM      2  C2  IND d   1       0.306   1.565  -1.743  0.00  0.00     0.054 A 
ATOM      3  C3  IND d   1      -0.929   2.113  -1.775  0.00  0.00    -0.031 A 
ATOM      4  C4  IND d   1      -2.549   2.610   0.163  0.00  0.00     0.051 A 
ATOM      5  C5  IND d   1      -2.707   2.427   1.508  0.00  0.00    -0.031 A 
ATOM      6  C6  IND d   1      -1.740   1.817   2.280  0.00  0.00     0.015 A 
ATOM      7  C7  IND d   1      -0.567   1.376   1.735  0.00  0.00    -0.016 A 
ATOM      8  C8  IND d   1      -0.406   1.554   0.368  0.00  0.00    -0.047 A 
ATOM      9  C9  IND d   1      -1.402   2.133  -0.427  0.00  0.00    -0.096 A 
ATOM     10  HN1 IND d   1       1.365   0.823  -0.224  0.00  0.00     0.298 HD
ENDROOT
TORSDOF 0
ENDMDL
