MODEL 1
REMARK minimizedAffinity 7.09162426
REMARK minimizedRMSD -1
REMARK  0 active torsions:
REMARK  status: ('A' for Active; 'I' for Inactive)
ROOT
ATOM      1  N1  IND d   1       0.884   1.125  -0.020  0.00  0.00    -0.196 N 
ATOM      2  C2  IND d   1       0.539   1.786  -1.166  0.00  0.00     0.054 A 
ATOM      3  C3  IND d   1      -0.673   2.369  -1.026  0.00  0.00    -0.031 A 
ATOM      4  C4  IND d   1      -2.220   2.452   1.030  0.00  0.00     0.051 A 
ATOM      5  C5  IND d   1      -2.351   1.964   2.300  0.00  0.00    -0.031 A 
ATOM      6  C6  IND d   1      -1.390   1.158   2.874  0.00  0.00     0.015 A 
ATOM      7  C7  IND d   1      -0.251   0.817   2.200  0.00  0.00    -0.016 A 
ATOM      8  C8  IND d   1      -0.118   1.305   0.908  0.00  0.00    -0.047 A 
ATOM      9  C9  IND d   1      -1.110   2.088   0.305  0.00  0.00    -0.096 A 
ATOM     10  HN1 IND d   1       1.605   0.673   0.100  0.00  0.00     0.298 HD
ENDROOT
TORSDOF 0
ENDMDL
