MODEL 1
REMARK minimizedAffinity 1.86610126
REMARK minimizedRMSD -1
REMARK  0 active torsions:
REMARK  status: ('A' for Active; 'I' for Inactive)
ROOT
ATOM      1  N1  IND d   1      -2.785   0.856   1.035  0.00  0.00    -0.196 N 
ATOM      2  C2  IND d   1      -3.603   1.949   1.096  0.00  0.00     0.054 A 
ATOM      3  C3  IND d   1      -3.073   2.888   1.912  0.00  0.00    -0.031 A 
ATOM      4  C4  IND d   1      -0.827   2.882   3.170  0.00  0.00     0.051 A 
ATOM      5  C5  IND d   1       0.247   2.087   3.452  0.00  0.00    -0.031 A 
ATOM      6  C6  IND d   1       0.370   0.815   2.930  0.00  0.00     0.015 A 
ATOM      7  C7  IND d   1      -0.576   0.294   2.094  0.00  0.00    -0.016 A 
ATOM      8  C8  IND d   1      -1.672   1.097   1.811  0.00  0.00    -0.047 A 
ATOM      9  C9  IND d   1      -1.823   2.372   2.372  0.00  0.00    -0.096 A 
ATOM     10  HN1 IND d   1      -2.939   0.138   0.588  0.00  0.00     0.298 HD
ENDROOT
TORSDOF 0
ENDMDL
