MODEL 1
REMARK minimizedAffinity 7.15302515
REMARK minimizedRMSD -1
REMARK  0 active torsions:
REMARK  status: ('A' for Active; 'I' for Inactive)
ROOT
ATOM      1  N1  IND d   1       0.531   1.821  -0.685  0.00  0.00    -0.196 N 
ATOM      2  C2  IND d   1       0.036   2.210  -1.899  0.00  0.00     0.054 A 
ATOM      3  C3  IND d   1      -1.249   2.612  -1.775  0.00  0.00    -0.031 A 
ATOM      4  C4  IND d   1      -2.705   2.810   0.339  0.00  0.00     0.051 A 
ATOM      5  C5  IND d   1      -2.702   2.536   1.678  0.00  0.00    -0.031 A 
ATOM      6  C6  IND d   1      -1.599   2.001   2.311  0.00  0.00     0.015 A 
ATOM      7  C7  IND d   1      -0.447   1.730   1.627  0.00  0.00    -0.016 A 
ATOM      8  C8  IND d   1      -0.449   2.000   0.266  0.00  0.00    -0.047 A 
ATOM      9  C9  IND d   1      -1.580   2.503  -0.390  0.00  0.00    -0.096 A 
ATOM     10  HN1 IND d   1       1.322   1.515  -0.541  0.00  0.00     0.298 HD
ENDROOT
TORSDOF 0
ENDMDL
