MODEL 1
REMARK minimizedAffinity 12.053853
REMARK minimizedRMSD -1
REMARK  0 active torsions:
REMARK  status: ('A' for Active; 'I' for Inactive)
ROOT
ATOM      1  N1  IND d   1       4.147  -1.550  -5.280  0.00  0.00    -0.196 N 
ATOM      2  C2  IND d   1       2.859  -1.850  -5.624  0.00  0.00     0.054 A 
ATOM      3  C3  IND d   1       2.468  -2.999  -5.028  0.00  0.00    -0.031 A 
ATOM      4  C4  IND d   1       3.744  -4.496  -3.368  0.00  0.00     0.051 A 
ATOM      5  C5  IND d   1       4.966  -4.652  -2.778  0.00  0.00    -0.031 A 
ATOM      6  C6  IND d   1       5.999  -3.762  -2.993  0.00  0.00     0.015 A 
ATOM      7  C7  IND d   1       5.842  -2.672  -3.802  0.00  0.00    -0.016 A 
ATOM      8  C8  IND d   1       4.604  -2.515  -4.409  0.00  0.00    -0.047 A 
ATOM      9  C9  IND d   1       3.566  -3.438  -4.228  0.00  0.00    -0.096 A 
ATOM     10  HN1 IND d   1       4.597  -0.873  -5.560  0.00  0.00     0.298 HD
ENDROOT
TORSDOF 0
ENDMDL
