MODEL 1
REMARK minimizedAffinity 14.6005478
REMARK minimizedRMSD -1
REMARK  0 active torsions:
REMARK  status: ('A' for Active; 'I' for Inactive)
ROOT
ATOM      1  N1  IND d   1      -2.244  -1.625   3.626  0.00  0.00    -0.196 N 
ATOM      2  C2  IND d   1      -1.313  -2.590   3.892  0.00  0.00     0.054 A 
ATOM      3  C3  IND d   1      -0.064  -2.096   3.732  0.00  0.00    -0.031 A 
ATOM      4  C4  IND d   1       0.686   0.294   3.139  0.00  0.00     0.051 A 
ATOM      5  C5  IND d   1       0.197   1.516   2.770  0.00  0.00    -0.031 A 
ATOM      6  C6  IND d   1      -1.157   1.759   2.668  0.00  0.00     0.015 A 
ATOM      7  C7  IND d   1      -2.078   0.788   2.944  0.00  0.00    -0.016 A 
ATOM      8  C8  IND d   1      -1.586  -0.456   3.312  0.00  0.00    -0.047 A 
ATOM      9  C9  IND d   1      -0.211  -0.721   3.375  0.00  0.00    -0.096 A 
ATOM     10  HN1 IND d   1      -3.097  -1.730   3.651  0.00  0.00     0.298 HD
ENDROOT
TORSDOF 0
ENDMDL
