MODEL 1
REMARK minimizedAffinity -1.65323174
REMARK minimizedRMSD -1
REMARK  0 active torsions:
REMARK  status: ('A' for Active; 'I' for Inactive)
ROOT
ATOM      1  N1  IND d   1       0.762   1.456  -0.898  0.00  0.00    -0.196 N 
ATOM      2  C2  IND d   1       0.205   2.366  -1.753  0.00  0.00     0.054 A 
ATOM      3  C3  IND d   1      -0.984   2.795  -1.273  0.00  0.00    -0.031 A 
ATOM      4  C4  IND d   1      -2.159   2.215   0.943  0.00  0.00     0.051 A 
ATOM      5  C5  IND d   1      -2.054   1.402   2.037  0.00  0.00    -0.031 A 
ATOM      6  C6  IND d   1      -0.983   0.551   2.213  0.00  0.00     0.015 A 
ATOM      7  C7  IND d   1       0.035   0.489   1.304  0.00  0.00    -0.016 A 
ATOM      8  C8  IND d   1      -0.072   1.307   0.188  0.00  0.00    -0.047 A 
ATOM      9  C9  IND d   1      -1.178   2.142  -0.017  0.00  0.00    -0.096 A 
ATOM     10  HN1 IND d   1       1.508   1.046  -1.019  0.00  0.00     0.298 HD
ENDROOT
TORSDOF 0
ENDMDL
