MODEL 1
REMARK minimizedAffinity 10.7621651
REMARK minimizedRMSD -1
REMARK  0 active torsions:
REMARK  status: ('A' for Active; 'I' for Inactive)
ROOT
ATOM      1  N1  IND d   1      -1.469  -0.767  -2.807  0.00  0.00    -0.196 N 
ATOM      2  C2  IND d   1      -2.756  -0.468  -2.456  0.00  0.00     0.054 A 
ATOM      3  C3  IND d   1      -2.794   0.680  -1.743  0.00  0.00    -0.031 A 
ATOM      4  C4  IND d   1      -0.879   2.283  -1.121  0.00  0.00     0.051 A 
ATOM      5  C5  IND d   1       0.480   2.416  -1.188  0.00  0.00    -0.031 A 
ATOM      6  C6  IND d   1       1.274   1.477  -1.814  0.00  0.00     0.015 A 
ATOM      7  C7  IND d   1       0.735   0.370  -2.408  0.00  0.00    -0.016 A 
ATOM      8  C8  IND d   1      -0.643   0.229  -2.335  0.00  0.00    -0.047 A 
ATOM      9  C9  IND d   1      -1.450   1.157  -1.665  0.00  0.00    -0.096 A 
ATOM     10  HN1 IND d   1      -1.218  -1.461  -3.248  0.00  0.00     0.298 HD
ENDROOT
TORSDOF 0
ENDMDL
