MODEL 1
REMARK minimizedAffinity 8.70487785
REMARK minimizedRMSD -1
REMARK  0 active torsions:
REMARK  status: ('A' for Active; 'I' for Inactive)
ROOT
ATOM      1  N1  IND d   1       4.806  -3.893  -2.335  0.00  0.00    -0.196 N 
ATOM      2  C2  IND d   1       4.572  -5.202  -2.652  0.00  0.00     0.054 A 
ATOM      3  C3  IND d   1       4.853  -5.999  -1.596  0.00  0.00    -0.031 A 
ATOM      4  C4  IND d   1       5.612  -5.359   0.779  0.00  0.00     0.051 A 
ATOM      5  C5  IND d   1       5.996  -4.287   1.536  0.00  0.00    -0.031 A 
ATOM      6  C6  IND d   1       6.000  -3.003   1.031  0.00  0.00     0.015 A 
ATOM      7  C7  IND d   1       5.608  -2.740  -0.251  0.00  0.00    -0.016 A 
ATOM      8  C8  IND d   1       5.224  -3.827  -1.024  0.00  0.00    -0.047 A 
ATOM      9  C9  IND d   1       5.258  -5.138  -0.531  0.00  0.00    -0.096 A 
ATOM     10  HN1 IND d   1       4.708  -3.223  -2.866  0.00  0.00     0.298 HD
ENDROOT
TORSDOF 0
ENDMDL
