MODEL 1
REMARK minimizedAffinity 4.85074806
REMARK minimizedRMSD -1
REMARK  0 active torsions:
REMARK  status: ('A' for Active; 'I' for Inactive)
ROOT
ATOM      1  N1  IND d   1       1.243   4.470  -1.352  0.00  0.00    -0.196 N 
ATOM      2  C2  IND d   1       0.842   5.427  -0.462  0.00  0.00     0.054 A 
ATOM      3  C3  IND d   1       0.023   4.889   0.469  0.00  0.00    -0.031 A 
ATOM      4  C4  IND d   1      -0.711   2.442   0.784  0.00  0.00     0.051 A 
ATOM      5  C5  IND d   1      -0.632   1.210   0.199  0.00  0.00    -0.031 A 
ATOM      6  C6  IND d   1       0.093   0.996  -0.955  0.00  0.00     0.015 A 
ATOM      7  C7  IND d   1       0.779   2.010  -1.564  0.00  0.00    -0.016 A 
ATOM      8  C8  IND d   1       0.695   3.264  -0.976  0.00  0.00    -0.047 A 
ATOM      9  C9  IND d   1      -0.075   3.495   0.172  0.00  0.00    -0.096 A 
ATOM     10  HN1 IND d   1       1.752   4.600  -2.033  0.00  0.00     0.298 HD
ENDROOT
TORSDOF 0
ENDMDL
