MODEL 1
REMARK minimizedAffinity 11.568162
REMARK minimizedRMSD -1
REMARK  0 active torsions:
REMARK  status: ('A' for Active; 'I' for Inactive)
ROOT
ATOM      1  N1  IND d   1       0.463   3.459   1.743  0.00  0.00    -0.196 N 
ATOM      2  C2  IND d   1       1.171   2.855   2.745  0.00  0.00     0.054 A 
ATOM      3  C3  IND d   1       0.427   1.888   3.328  0.00  0.00    -0.031 A 
ATOM      4  C4  IND d   1      -1.937   1.060   2.734  0.00  0.00     0.051 A 
ATOM      5  C5  IND d   1      -2.998   1.329   1.917  0.00  0.00    -0.031 A 
ATOM      6  C6  IND d   1      -2.959   2.341   0.979  0.00  0.00     0.015 A 
ATOM      7  C7  IND d   1      -1.846   3.117   0.815  0.00  0.00    -0.016 A 
ATOM      8  C8  IND d   1      -0.769   2.851   1.648  0.00  0.00    -0.047 A 
ATOM      9  C9  IND d   1      -0.819   1.854   2.631  0.00  0.00    -0.096 A 
ATOM     10  HN1 IND d   1       0.742   4.110   1.255  0.00  0.00     0.298 HD
ENDROOT
TORSDOF 0
ENDMDL
