MODEL 1
REMARK minimizedAffinity 4.55769777
REMARK minimizedRMSD -1
REMARK  0 active torsions:
REMARK  status: ('A' for Active; 'I' for Inactive)
ROOT
ATOM      1  N1  IND d   1       2.450  -3.960   1.244  0.00  0.00    -0.196 N 
ATOM      2  C2  IND d   1       2.987  -5.135   1.690  0.00  0.00     0.054 A 
ATOM      3  C3  IND d   1       4.337  -5.069   1.681  0.00  0.00    -0.031 A 
ATOM      4  C4  IND d   1       5.874  -3.096   1.070  0.00  0.00     0.051 A 
ATOM      5  C5  IND d   1       5.847  -1.824   0.570  0.00  0.00    -0.031 A 
ATOM      6  C6  IND d   1       4.663  -1.185   0.266  0.00  0.00     0.015 A 
ATOM      7  C7  IND d   1       3.455  -1.793   0.462  0.00  0.00    -0.016 A 
ATOM      8  C8  IND d   1       3.478  -3.087   0.962  0.00  0.00    -0.047 A 
ATOM      9  C9  IND d   1       4.679  -3.756   1.233  0.00  0.00    -0.096 A 
ATOM     10  HN1 IND d   1       1.611  -3.793   1.155  0.00  0.00     0.298 HD
ENDROOT
TORSDOF 0
ENDMDL
