MODEL 1
REMARK minimizedAffinity 5.19528389
REMARK minimizedRMSD -1
REMARK  0 active torsions:
REMARK  status: ('A' for Active; 'I' for Inactive)
ROOT
ATOM      1  C4' PXY d   1       2.019  -0.491   2.164  0.00  0.00     0.077 C 
ATOM      2  C1' PXY d   1       2.939  -5.161   5.443  0.00  0.00     0.077 C 
ATOM      3  C1  PXY d   1       2.690  -3.944   4.575  0.00  0.00    -0.082 A 
ATOM      4  C2  PXY d   1       3.567  -2.952   4.572  0.00  0.00     0.003 A 
ATOM      5  C3  PXY d   1       3.342  -1.830   3.818  0.00  0.00     0.003 A 
ATOM      6  C4  PXY d   1       2.234  -1.744   3.018  0.00  0.00    -0.082 A 
ATOM      7  C5  PXY d   1       1.340  -2.755   3.007  0.00  0.00     0.003 A 
ATOM      8  C6  PXY d   1       1.567  -3.868   3.811  0.00  0.00     0.003 A 
ENDROOT
TORSDOF 0
ENDMDL
