MODEL 1
REMARK minimizedAffinity -1.95467329
REMARK minimizedRMSD -1
REMARK  0 active torsions:
REMARK  status: ('A' for Active; 'I' for Inactive)
ROOT
ATOM      1  C4' PXY d   1       2.257  -5.249   6.000  0.00  0.00     0.077 C 
ATOM      2  C1' PXY d   1       1.592  -1.111   2.018  0.00  0.00     0.077 C 
ATOM      3  C1  PXY d   1       1.765  -2.205   3.053  0.00  0.00    -0.082 A 
ATOM      4  C2  PXY d   1       1.484  -1.956   4.322  0.00  0.00     0.003 A 
ATOM      5  C3  PXY d   1       1.666  -2.925   5.275  0.00  0.00     0.003 A 
ATOM      6  C4  PXY d   1       2.088  -4.177   4.919  0.00  0.00    -0.082 A 
ATOM      7  C5  PXY d   1       2.366  -4.443   3.625  0.00  0.00     0.003 A 
ATOM      8  C6  PXY d   1       2.215  -3.434   2.678  0.00  0.00     0.003 A 
ENDROOT
TORSDOF 0
ENDMDL
