MODEL 1
REMARK minimizedAffinity 5.22539282
REMARK minimizedRMSD -1
REMARK  0 active torsions:
REMARK  status: ('A' for Active; 'I' for Inactive)
ROOT
ATOM      1  C4' PXY d   1       2.423  -0.810   2.119  0.00  0.00     0.077 C 
ATOM      2  C1' PXY d   1       3.053  -5.344   5.649  0.00  0.00     0.077 C 
ATOM      3  C1  PXY d   1       2.880  -4.162   4.716  0.00  0.00    -0.082 A 
ATOM      4  C2  PXY d   1       3.823  -3.236   4.651  0.00  0.00     0.003 A 
ATOM      5  C3  PXY d   1       3.668  -2.144   3.836  0.00  0.00     0.003 A 
ATOM      6  C4  PXY d   1       2.560  -2.025   3.040  0.00  0.00    -0.082 A 
ATOM      7  C5  PXY d   1       1.599  -2.971   3.093  0.00  0.00     0.003 A 
ATOM      8  C6  PXY d   1       1.756  -4.051   3.957  0.00  0.00     0.003 A 
ENDROOT
TORSDOF 0
ENDMDL
