MODEL 1
REMARK minimizedAffinity -1.5355612
REMARK minimizedRMSD -1
REMARK  0 active torsions:
REMARK  status: ('A' for Active; 'I' for Inactive)
ROOT
ATOM      1  C4' PXY d   1       2.181   0.764   2.217  0.00  0.00     0.077 C 
ATOM      2  C1' PXY d   1       2.389  -4.901   3.346  0.00  0.00     0.077 C 
ATOM      3  C1  PXY d   1       2.329  -3.418   3.039  0.00  0.00    -0.082 A 
ATOM      4  C2  PXY d   1       3.152  -2.588   3.659  0.00  0.00     0.003 A 
ATOM      5  C3  PXY d   1       3.090  -1.240   3.416  0.00  0.00     0.003 A 
ATOM      6  C4  PXY d   1       2.212  -0.742   2.490  0.00  0.00    -0.082 A 
ATOM      7  C5  PXY d   1       1.377  -1.584   1.845  0.00  0.00     0.003 A 
ATOM      8  C6  PXY d   1       1.428  -2.944   2.136  0.00  0.00     0.003 A 
ENDROOT
TORSDOF 0
ENDMDL
