MODEL 1
REMARK minimizedAffinity 3.39883089
REMARK minimizedRMSD -1
REMARK  0 active torsions:
REMARK  status: ('A' for Active; 'I' for Inactive)
ROOT
ATOM      1  C4' PXY d   1       0.287  -3.036   3.348  0.00  0.00     0.077 C 
ATOM      2  C1' PXY d   1       6.000  -2.862   4.216  0.00  0.00     0.077 C 
ATOM      3  C1  PXY d   1       4.503  -2.899   3.979  0.00  0.00    -0.082 A 
ATOM      4  C2  PXY d   1       3.697  -3.305   4.947  0.00  0.00     0.003 A 
ATOM      5  C3  PXY d   1       2.344  -3.375   4.739  0.00  0.00     0.003 A 
ATOM      6  C4  PXY d   1       1.804  -2.974   3.546  0.00  0.00    -0.082 A 
ATOM      7  C5  PXY d   1       2.619  -2.548   2.557  0.00  0.00     0.003 A 
ATOM      8  C6  PXY d   1       3.993  -2.524   2.775  0.00  0.00     0.003 A 
ENDROOT
TORSDOF 0
ENDMDL
