MODEL 1
REMARK minimizedAffinity 7.49135876
REMARK minimizedRMSD -1
REMARK  0 active torsions:
REMARK  status: ('A' for Active; 'I' for Inactive)
ROOT
ATOM      1  C4' PXY d   1      -2.949   2.843  -2.471  0.00  0.00     0.077 C 
ATOM      2  C1' PXY d   1      -5.823   3.070   2.540  0.00  0.00     0.077 C 
ATOM      3  C1  PXY d   1      -5.058   3.012   1.232  0.00  0.00    -0.082 A 
ATOM      4  C2  PXY d   1      -5.678   3.297   0.098  0.00  0.00     0.003 A 
ATOM      5  C3  PXY d   1      -5.010   3.219  -1.096  0.00  0.00     0.003 A 
ATOM      6  C4  PXY d   1      -3.679   2.898  -1.126  0.00  0.00    -0.082 A 
ATOM      7  C5  PXY d   1      -3.037   2.616   0.027  0.00  0.00     0.003 A 
ATOM      8  C6  PXY d   1      -3.743   2.661   1.225  0.00  0.00     0.003 A 
ENDROOT
TORSDOF 0
ENDMDL
