MODEL 1
REMARK minimizedAffinity 7.38918924
REMARK minimizedRMSD -1
REMARK  0 active torsions:
REMARK  status: ('A' for Active; 'I' for Inactive)
ROOT
ATOM      1  C4' PXY d   1      -3.195  -1.490  -3.886  0.00  0.00     0.077 C 
ATOM      2  C1' PXY d   1      -2.268   2.950  -0.303  0.00  0.00     0.077 C 
ATOM      3  C1  PXY d   1      -2.521   1.792  -1.248  0.00  0.00    -0.082 A 
ATOM      4  C2  PXY d   1      -2.141   0.572  -0.904  0.00  0.00     0.003 A 
ATOM      5  C3  PXY d   1      -2.333  -0.481  -1.761  0.00  0.00     0.003 A 
ATOM      6  C4  PXY d   1      -2.969  -0.293  -2.959  0.00  0.00    -0.082 A 
ATOM      7  C5  PXY d   1      -3.369   0.947  -3.312  0.00  0.00     0.003 A 
ATOM      8  C6  PXY d   1      -3.127   2.010  -2.446  0.00  0.00     0.003 A 
ENDROOT
TORSDOF 0
ENDMDL
