MODEL 1
REMARK minimizedAffinity 10.0786839
REMARK minimizedRMSD -1
REMARK  0 active torsions:
REMARK  status: ('A' for Active; 'I' for Inactive)
ROOT
ATOM      1  C4' PXY d   1      -3.073  -1.163  -4.282  0.00  0.00     0.077 C 
ATOM      2  C1' PXY d   1      -2.489   3.463  -0.864  0.00  0.00     0.077 C 
ATOM      3  C1  PXY d   1      -2.632   2.244  -1.755  0.00  0.00    -0.082 A 
ATOM      4  C2  PXY d   1      -3.218   2.362  -2.935  0.00  0.00     0.003 A 
ATOM      5  C3  PXY d   1      -3.384   1.264  -3.739  0.00  0.00     0.003 A 
ATOM      6  C4  PXY d   1      -2.898   0.043  -3.354  0.00  0.00    -0.082 A 
ATOM      7  C5  PXY d   1      -2.290  -0.083  -2.155  0.00  0.00     0.003 A 
ATOM      8  C6  PXY d   1      -2.168   1.036  -1.336  0.00  0.00     0.003 A 
ENDROOT
TORSDOF 0
ENDMDL
