MODEL 1
REMARK minimizedAffinity 0.73354727
REMARK minimizedRMSD -1
REMARK  0 active torsions:
REMARK  status: ('A' for Active; 'I' for Inactive)
ROOT
ATOM      1  C4' PXY d   1       5.512  -5.976  -5.996  0.00  0.00     0.077 C 
ATOM      2  C1' PXY d   1       2.495  -5.997  -1.065  0.00  0.00     0.077 C 
ATOM      3  C1  PXY d   1       3.276  -5.997  -2.365  0.00  0.00    -0.082 A 
ATOM      4  C2  PXY d   1       4.599  -5.995  -2.333  0.00  0.00     0.003 A 
ATOM      5  C3  PXY d   1       5.321  -5.963  -3.498  0.00  0.00     0.003 A 
ATOM      6  C4  PXY d   1       4.683  -5.986  -4.709  0.00  0.00    -0.082 A 
ATOM      7  C5  PXY d   1       3.334  -5.999  -4.750  0.00  0.00     0.003 A 
ATOM      8  C6  PXY d   1       2.619  -5.990  -3.556  0.00  0.00     0.003 A 
ENDROOT
TORSDOF 0
ENDMDL
