MODEL 1
REMARK minimizedAffinity 0.255676389
REMARK minimizedRMSD -1
REMARK  0 active torsions:
REMARK  status: ('A' for Active; 'I' for Inactive)
ROOT
ATOM      1  C4' PXY d   1       2.158  -5.776  -5.998  0.00  0.00     0.077 C 
ATOM      2  C1' PXY d   1       4.148  -5.869  -0.571  0.00  0.00     0.077 C 
ATOM      3  C1  PXY d   1       3.616  -5.851  -1.991  0.00  0.00    -0.082 A 
ATOM      4  C2  PXY d   1       4.453  -5.682  -3.001  0.00  0.00     0.003 A 
ATOM      5  C3  PXY d   1       3.984  -5.632  -4.289  0.00  0.00     0.003 A 
ATOM      6  C4  PXY d   1       2.652  -5.810  -4.549  0.00  0.00    -0.082 A 
ATOM      7  C5  PXY d   1       1.793  -5.993  -3.524  0.00  0.00     0.003 A 
ATOM      8  C6  PXY d   1       2.283  -6.000  -2.221  0.00  0.00     0.003 A 
ENDROOT
TORSDOF 0
ENDMDL
