MODEL 1
REMARK minimizedAffinity 11.140975
REMARK minimizedRMSD -1
REMARK  0 active torsions:
REMARK  status: ('A' for Active; 'I' for Inactive)
ROOT
ATOM      1  C4' PXY d   1       1.276  -2.992   3.781  0.00  0.00     0.077 C 
ATOM      2  C1' PXY d   1       2.612   1.412   0.283  0.00  0.00     0.077 C 
ATOM      3  C1  PXY d   1       2.250   0.256   1.195  0.00  0.00    -0.082 A 
ATOM      4  C2  PXY d   1       2.879   0.112   2.350  0.00  0.00     0.003 A 
ATOM      5  C3  PXY d   1       2.586  -0.945   3.172  0.00  0.00     0.003 A 
ATOM      6  C4  PXY d   1       1.602  -1.835   2.833  0.00  0.00    -0.082 A 
ATOM      7  C5  PXY d   1       0.948  -1.689   1.661  0.00  0.00     0.003 A 
ATOM      8  C6  PXY d   1       1.289  -0.632   0.822  0.00  0.00     0.003 A 
ENDROOT
TORSDOF 0
ENDMDL
