MODEL 1
REMARK minimizedAffinity 3.26703238
REMARK minimizedRMSD -1
REMARK  1 active torsions:
REMARK  status: ('A' for Active; 'I' for Inactive)
REMARK    1  A    between atoms: C1_2  and  C2_3 
ROOT
ATOM      1  C2  UNL d   1       0.296   1.999   0.289  0.00  0.00    -0.077 A 
ATOM      2  C3  UNL d   1      -0.178   1.091   1.246  0.00  0.00     0.002 A 
ATOM      3  C4  UNL d   1      -0.323  -0.261   0.926  0.00  0.00     0.002 A 
ATOM      4  C5  UNL d   1       0.008  -0.717  -0.348  0.00  0.00    -0.004 A 
ATOM      5  C6  UNL d   1       0.479   0.179  -1.307  0.00  0.00     0.002 A 
ATOM      6  C7  UNL d   1       0.623   1.531  -0.990  0.00  0.00     0.002 A 
ENDROOT
BRANCH   1   7
ATOM      7  C1  UNL d   1       0.499   3.448   0.646  0.00  0.00     0.055 C 
ATOM      8  C   UNL d   1       0.972   3.602   2.084  0.00  0.00     0.019 C 
ENDBRANCH   1   7
TORSDOF 1
ENDMDL
