MODEL 1
REMARK minimizedAffinity -2.82237387
REMARK minimizedRMSD -1
REMARK  1 active torsions:
REMARK  status: ('A' for Active; 'I' for Inactive)
REMARK    1  A    between atoms: C1_2  and  C2_3 
ROOT
ATOM      1  C2  UNL d   1      -0.570  -0.714   0.272  0.00  0.00    -0.077 A 
ATOM      2  C3  UNL d   1      -1.014   0.589   0.540  0.00  0.00     0.002 A 
ATOM      3  C4  UNL d   1      -0.653   1.645  -0.299  0.00  0.00     0.002 A 
ATOM      4  C5  UNL d   1       0.150   1.408  -1.413  0.00  0.00    -0.004 A 
ATOM      5  C6  UNL d   1       0.598   0.117  -1.687  0.00  0.00     0.002 A 
ATOM      6  C7  UNL d   1       0.239  -0.940  -0.848  0.00  0.00     0.002 A 
ENDROOT
BRANCH   1   7
ATOM      7  C1  UNL d   1      -0.999  -1.862   1.148  0.00  0.00     0.055 C 
ATOM      8  C   UNL d   1      -0.581  -3.199   0.553  0.00  0.00     0.019 C 
ENDBRANCH   1   7
TORSDOF 1
ENDMDL
