MODEL 1
REMARK minimizedAffinity 4.0515976
REMARK minimizedRMSD -1
REMARK  1 active torsions:
REMARK  status: ('A' for Active; 'I' for Inactive)
REMARK    1  A    between atoms: C1_2  and  C2_3 
ROOT
ATOM      1  C2  UNL d   1       1.598   1.456   1.089  0.00  0.00    -0.077 A 
ATOM      2  C3  UNL d   1       2.259   1.068  -0.085  0.00  0.00     0.002 A 
ATOM      3  C4  UNL d   1       3.201   1.911  -0.677  0.00  0.00     0.002 A 
ATOM      4  C5  UNL d   1       3.495   3.144  -0.099  0.00  0.00    -0.004 A 
ATOM      5  C6  UNL d   1       2.843   3.540   1.068  0.00  0.00     0.002 A 
ATOM      6  C7  UNL d   1       1.899   2.699   1.660  0.00  0.00     0.002 A 
ENDROOT
BRANCH   1   7
ATOM      7  C1  UNL d   1       0.617   0.527   1.756  0.00  0.00     0.055 C 
ATOM      8  C   UNL d   1      -0.508   0.138   0.809  0.00  0.00     0.019 C 
ENDBRANCH   1   7
TORSDOF 1
ENDMDL
