MODEL 1
REMARK minimizedAffinity 0.360544622
REMARK minimizedRMSD -1
REMARK  1 active torsions:
REMARK  status: ('A' for Active; 'I' for Inactive)
REMARK    1  A    between atoms: C1_2  and  C2_3 
ROOT
ATOM      1  C2  UNL d   1      -0.649  -1.703   0.495  0.00  0.00    -0.077 A 
ATOM      2  C3  UNL d   1      -0.498  -1.257  -0.825  0.00  0.00     0.002 A 
ATOM      3  C4  UNL d   1       0.114  -0.030  -1.091  0.00  0.00     0.002 A 
ATOM      4  C5  UNL d   1       0.581   0.759  -0.041  0.00  0.00    -0.004 A 
ATOM      5  C6  UNL d   1       0.433   0.325   1.275  0.00  0.00     0.002 A 
ATOM      6  C7  UNL d   1      -0.178  -0.901   1.542  0.00  0.00     0.002 A 
ENDROOT
BRANCH   1   7
ATOM      7  C1  UNL d   1      -1.264  -3.048   0.781  0.00  0.00     0.055 C 
ATOM      8  C   UNL d   1      -0.280  -4.176   0.503  0.00  0.00     0.019 C 
ENDBRANCH   1   7
TORSDOF 1
ENDMDL
