MODEL 1
REMARK minimizedAffinity -5.31509876
REMARK minimizedRMSD -1
REMARK  1 active torsions:
REMARK  status: ('A' for Active; 'I' for Inactive)
REMARK    1  A    between atoms: C1_2  and  C2_3 
ROOT
ATOM      1  C2  UNL d   1       0.341  -0.787  -0.525  0.00  0.00    -0.077 A 
ATOM      2  C3  UNL d   1      -0.084  -2.021  -0.012  0.00  0.00     0.002 A 
ATOM      3  C4  UNL d   1      -1.049  -2.072   0.997  0.00  0.00     0.002 A 
ATOM      4  C5  UNL d   1      -1.599  -0.894   1.498  0.00  0.00    -0.004 A 
ATOM      5  C6  UNL d   1      -1.181   0.338   0.996  0.00  0.00     0.002 A 
ATOM      6  C7  UNL d   1      -0.216   0.391  -0.012  0.00  0.00     0.002 A 
ENDROOT
BRANCH   1   7
ATOM      7  C1  UNL d   1       1.344  -0.732  -1.646  0.00  0.00     0.055 C 
ATOM      8  C   UNL d   1       0.794   0.028  -2.845  0.00  0.00     0.019 C 
ENDBRANCH   1   7
TORSDOF 1
ENDMDL
