MODEL 1
REMARK minimizedAffinity 0.497040838
REMARK minimizedRMSD -1
REMARK  1 active torsions:
REMARK  status: ('A' for Active; 'I' for Inactive)
REMARK    1  A    between atoms: C1_2  and  C2_3 
ROOT
ATOM      1  C2  UNL d   1      -0.341  -0.998  -0.304  0.00  0.00    -0.077 A 
ATOM      2  C3  UNL d   1       0.372  -2.205  -0.346  0.00  0.00     0.002 A 
ATOM      3  C4  UNL d   1       1.468  -2.348  -1.199  0.00  0.00     0.002 A 
ATOM      4  C5  UNL d   1       1.863  -1.289  -2.013  0.00  0.00    -0.004 A 
ATOM      5  C6  UNL d   1       1.159  -0.085  -1.980  0.00  0.00     0.002 A 
ATOM      6  C7  UNL d   1       0.063   0.060  -1.129  0.00  0.00     0.002 A 
ENDROOT
BRANCH   1   7
ATOM      7  C1  UNL d   1      -1.493  -0.824   0.651  0.00  0.00     0.055 C 
ATOM      8  C   UNL d   1      -1.811   0.647   0.872  0.00  0.00     0.019 C 
ENDBRANCH   1   7
TORSDOF 1
ENDMDL
