MODEL 1
REMARK minimizedAffinity -2.73240089
REMARK minimizedRMSD -1
REMARK  1 active torsions:
REMARK  status: ('A' for Active; 'I' for Inactive)
REMARK    1  A    between atoms: C1_2  and  C2_3 
ROOT
ATOM      1  C2  UNL d   1      -0.236   0.316  -0.130  0.00  0.00    -0.077 A 
ATOM      2  C3  UNL d   1      -1.360  -0.298   0.440  0.00  0.00     0.002 A 
ATOM      3  C4  UNL d   1      -1.322  -1.647   0.798  0.00  0.00     0.002 A 
ATOM      4  C5  UNL d   1      -0.162  -2.391   0.595  0.00  0.00    -0.004 A 
ATOM      5  C6  UNL d   1       0.960  -1.790   0.028  0.00  0.00     0.002 A 
ATOM      6  C7  UNL d   1       0.924  -0.442  -0.332  0.00  0.00     0.002 A 
ENDROOT
BRANCH   1   7
ATOM      7  C1  UNL d   1      -0.258   1.783  -0.471  0.00  0.00     0.055 C 
ATOM      8  C   UNL d   1       0.122   2.637   0.729  0.00  0.00     0.019 C 
ENDBRANCH   1   7
TORSDOF 1
ENDMDL
