MODEL 1
REMARK minimizedAffinity -6.25418663
REMARK minimizedRMSD -1
REMARK  1 active torsions:
REMARK  status: ('A' for Active; 'I' for Inactive)
REMARK    1  A    between atoms: C1_2  and  C2_3 
ROOT
ATOM      1  C2  UNL d   1       0.071  -0.191  -0.449  0.00  0.00    -0.077 A 
ATOM      2  C3  UNL d   1      -0.733  -0.242   0.699  0.00  0.00     0.002 A 
ATOM      3  C4  UNL d   1      -1.011  -1.465   1.312  0.00  0.00     0.002 A 
ATOM      4  C5  UNL d   1      -0.487  -2.645   0.788  0.00  0.00    -0.004 A 
ATOM      5  C6  UNL d   1       0.312  -2.605  -0.354  0.00  0.00     0.002 A 
ATOM      6  C7  UNL d   1       0.591  -1.384  -0.969  0.00  0.00     0.002 A 
ENDROOT
BRANCH   1   7
ATOM      7  C1  UNL d   1       0.413   1.132  -1.083  0.00  0.00     0.055 C 
ATOM      8  C   UNL d   1       1.223   2.006  -0.137  0.00  0.00     0.019 C 
ENDBRANCH   1   7
TORSDOF 1
ENDMDL
