MODEL 1
REMARK minimizedAffinity -0.427335799
REMARK minimizedRMSD -1
REMARK  1 active torsions:
REMARK  status: ('A' for Active; 'I' for Inactive)
REMARK    1  A    between atoms: C1_2  and  C2_3 
ROOT
ATOM      1  C2  UNL d   1      -0.757  -1.525  -0.012  0.00  0.00    -0.077 A 
ATOM      2  C3  UNL d   1      -0.081  -1.203  -1.198  0.00  0.00     0.002 A 
ATOM      3  C4  UNL d   1       0.439   0.078  -1.389  0.00  0.00     0.002 A 
ATOM      4  C5  UNL d   1       0.292   1.047  -0.398  0.00  0.00    -0.004 A 
ATOM      5  C6  UNL d   1      -0.381   0.737   0.783  0.00  0.00     0.002 A 
ATOM      6  C7  UNL d   1      -0.902  -0.543   0.976  0.00  0.00     0.002 A 
ENDROOT
BRANCH   1   7
ATOM      7  C1  UNL d   1      -1.275  -2.921   0.216  0.00  0.00     0.055 C 
ATOM      8  C   UNL d   1      -1.103  -3.785  -1.024  0.00  0.00     0.019 C 
ENDBRANCH   1   7
TORSDOF 1
ENDMDL
