MODEL 1
REMARK minimizedAffinity 5.09756899
REMARK minimizedRMSD -1
REMARK  1 active torsions:
REMARK  status: ('A' for Active; 'I' for Inactive)
REMARK    1  A    between atoms: C1_2  and  C2_3 
ROOT
ATOM      1  C2  UNL d   1      -1.999  -1.598   1.358  0.00  0.00    -0.077 A 
ATOM      2  C3  UNL d   1      -2.884  -0.626   1.845  0.00  0.00     0.002 A 
ATOM      3  C4  UNL d   1      -2.458   0.692   2.024  0.00  0.00     0.002 A 
ATOM      4  C5  UNL d   1      -1.148   1.050   1.714  0.00  0.00    -0.004 A 
ATOM      5  C6  UNL d   1      -0.259   0.090   1.232  0.00  0.00     0.002 A 
ATOM      6  C7  UNL d   1      -0.683  -1.227   1.054  0.00  0.00     0.002 A 
ENDROOT
BRANCH   1   7
ATOM      7  C1  UNL d   1      -2.470  -3.008   1.118  0.00  0.00     0.055 C 
ATOM      8  C   UNL d   1      -3.974  -3.059   0.897  0.00  0.00     0.019 C 
ENDBRANCH   1   7
TORSDOF 1
ENDMDL
