MODEL 1
REMARK minimizedAffinity -0.843321681
REMARK minimizedRMSD -1
REMARK  1 active torsions:
REMARK  status: ('A' for Active; 'I' for Inactive)
REMARK    1  A    between atoms: C1_2  and  C2_3 
ROOT
ATOM      1  C2  UNL d   1       0.813  -1.658  -0.290  0.00  0.00    -0.077 A 
ATOM      2  C3  UNL d   1      -0.391  -0.946  -0.203  0.00  0.00     0.002 A 
ATOM      3  C4  UNL d   1      -1.566  -1.590   0.189  0.00  0.00     0.002 A 
ATOM      4  C5  UNL d   1      -1.547  -2.948   0.501  0.00  0.00    -0.004 A 
ATOM      5  C6  UNL d   1      -0.355  -3.666   0.415  0.00  0.00     0.002 A 
ATOM      6  C7  UNL d   1       0.820  -3.023   0.022  0.00  0.00     0.002 A 
ENDROOT
BRANCH   1   7
ATOM      7  C1  UNL d   1       2.091  -0.954  -0.666  0.00  0.00     0.055 C 
ATOM      8  C   UNL d   1       2.417  -1.148  -2.139  0.00  0.00     0.019 C 
ENDBRANCH   1   7
TORSDOF 1
ENDMDL
