MODEL 1
REMARK minimizedAffinity -5.27697468
REMARK minimizedRMSD -1
REMARK  1 active torsions:
REMARK  status: ('A' for Active; 'I' for Inactive)
REMARK    1  A    between atoms: C1_2  and  C2_3 
ROOT
ATOM      1  C2  UNL d   1       0.026  -1.437  -1.004  0.00  0.00    -0.077 A 
ATOM      2  C3  UNL d   1       0.132  -1.688   0.371  0.00  0.00     0.002 A 
ATOM      3  C4  UNL d   1       0.061  -2.994   0.858  0.00  0.00     0.002 A 
ATOM      4  C5  UNL d   1      -0.110  -4.060  -0.023  0.00  0.00    -0.004 A 
ATOM      5  C6  UNL d   1      -0.217  -3.820  -1.392  0.00  0.00     0.002 A 
ATOM      6  C7  UNL d   1      -0.149  -2.515  -1.881  0.00  0.00     0.002 A 
ENDROOT
BRANCH   1   7
ATOM      7  C1  UNL d   1       0.151  -0.033  -1.536  0.00  0.00     0.055 C 
ATOM      8  C   UNL d   1      -0.509   0.973  -0.604  0.00  0.00     0.019 C 
ENDBRANCH   1   7
TORSDOF 1
ENDMDL
