MODEL 1
REMARK minimizedAffinity -6.43539858
REMARK minimizedRMSD -1
REMARK  0 active torsions:
REMARK  status: ('A' for Active; 'I' for Inactive)
ROOT
ATOM      1  C1  DEN d   1       0.740   0.476  -1.944  0.00  0.00     0.130 A 
ATOM      2  C2  DEN d   1       0.256   1.740  -1.395  0.00  0.00    -0.031 A 
ATOM      3  C3  DEN d   1      -0.282   1.475  -0.046  0.00  0.00     0.027 A 
ATOM      4  C4  DEN d   1      -0.409  -0.756   1.241  0.00  0.00     0.027 A 
ATOM      5  C5  DEN d   1      -0.135  -2.105   1.180  0.00  0.00    -0.003 A 
ATOM      6  C6  DEN d   1       0.414  -2.689   0.070  0.00  0.00     0.001 A 
ATOM      7  C7  DEN d   1       0.749  -1.914  -1.009  0.00  0.00     0.017 A 
ATOM      8  C8  DEN d   1       0.469  -0.555  -0.958  0.00  0.00    -0.094 A 
ATOM      9  C9  DEN d   1      -0.076   0.019   0.179  0.00  0.00    -0.072 A 
ENDROOT
TORSDOF 0
ENDMDL
