MODEL 1
REMARK minimizedAffinity 4.90696383
REMARK minimizedRMSD -1
REMARK  0 active torsions:
REMARK  status: ('A' for Active; 'I' for Inactive)
ROOT
ATOM      1  C1  DEN d   1      -0.697  -1.553  -2.141  0.00  0.00     0.130 A 
ATOM      2  C2  DEN d   1      -1.476  -1.294  -0.933  0.00  0.00    -0.031 A 
ATOM      3  C3  DEN d   1      -2.440  -2.400  -0.766  0.00  0.00     0.027 A 
ATOM      4  C4  DEN d   1      -2.797  -4.479  -2.250  0.00  0.00     0.027 A 
ATOM      5  C5  DEN d   1      -2.381  -5.128  -3.391  0.00  0.00    -0.003 A 
ATOM      6  C6  DEN d   1      -1.406  -4.619  -4.207  0.00  0.00     0.001 A 
ATOM      7  C7  DEN d   1      -0.782  -3.447  -3.869  0.00  0.00     0.017 A 
ATOM      8  C8  DEN d   1      -1.202  -2.782  -2.724  0.00  0.00    -0.094 A 
ATOM      9  C9  DEN d   1      -2.180  -3.320  -1.906  0.00  0.00    -0.072 A 
ENDROOT
TORSDOF 0
ENDMDL
