MODEL 1
REMARK minimizedAffinity -0.182592139
REMARK minimizedRMSD -1
REMARK  0 active torsions:
REMARK  status: ('A' for Active; 'I' for Inactive)
ROOT
ATOM      1  C1  DEN d   1       0.563   0.076  -2.381  0.00  0.00     0.130 A 
ATOM      2  C2  DEN d   1       0.588  -1.193  -3.103  0.00  0.00    -0.031 A 
ATOM      3  C3  DEN d   1       0.007  -2.229  -2.226  0.00  0.00     0.027 A 
ATOM      4  C4  DEN d   1      -0.928  -1.992   0.166  0.00  0.00     0.027 A 
ATOM      5  C5  DEN d   1      -1.153  -1.111   1.201  0.00  0.00    -0.003 A 
ATOM      6  C6  DEN d   1      -0.793   0.208   1.129  0.00  0.00     0.001 A 
ATOM      7  C7  DEN d   1      -0.230   0.696  -0.021  0.00  0.00     0.017 A 
ATOM      8  C8  DEN d   1       0.007  -0.187  -1.066  0.00  0.00    -0.094 A 
ATOM      9  C9  DEN d   1      -0.376  -1.515  -0.978  0.00  0.00    -0.072 A 
ENDROOT
TORSDOF 0
ENDMDL
