MODEL 1
REMARK minimizedAffinity -6.3882308
REMARK minimizedRMSD -1
REMARK  0 active torsions:
REMARK  status: ('A' for Active; 'I' for Inactive)
ROOT
ATOM      1  C1  DEN d   1      -0.127  -3.511  -0.584  0.00  0.00     0.130 A 
ATOM      2  C2  DEN d   1       0.389  -3.461  -1.949  0.00  0.00    -0.031 A 
ATOM      3  C3  DEN d   1       0.479  -2.043  -2.352  0.00  0.00     0.027 A 
ATOM      4  C4  DEN d   1      -0.122   0.069  -0.999  0.00  0.00     0.027 A 
ATOM      5  C5  DEN d   1      -0.610   0.531   0.203  0.00  0.00    -0.003 A 
ATOM      6  C6  DEN d   1      -1.000  -0.316   1.207  0.00  0.00     0.001 A 
ATOM      7  C7  DEN d   1      -0.867  -1.670   1.043  0.00  0.00     0.017 A 
ATOM      8  C8  DEN d   1      -0.382  -2.143  -0.169  0.00  0.00    -0.094 A 
ATOM      9  C9  DEN d   1       0.018  -1.270  -1.167  0.00  0.00    -0.072 A 
ENDROOT
TORSDOF 0
ENDMDL
