MODEL 1
REMARK minimizedAffinity 0.0830659047
REMARK minimizedRMSD -1
REMARK  0 active torsions:
REMARK  status: ('A' for Active; 'I' for Inactive)
ROOT
ATOM      1  C1  DEN d   1       1.250   0.331  -0.315  0.00  0.00     0.130 A 
ATOM      2  C2  DEN d   1      -0.137  -0.112  -0.210  0.00  0.00    -0.031 A 
ATOM      3  C3  DEN d   1      -0.931   1.003   0.345  0.00  0.00     0.027 A 
ATOM      4  C4  DEN d   1      -0.152   3.361   1.042  0.00  0.00     0.027 A 
ATOM      5  C5  DEN d   1       0.937   4.198   1.147  0.00  0.00    -0.003 A 
ATOM      6  C6  DEN d   1       2.202   3.797   0.807  0.00  0.00     0.001 A 
ATOM      7  C7  DEN d   1       2.402   2.539   0.302  0.00  0.00     0.017 A 
ATOM      8  C8  DEN d   1       1.310   1.687   0.200  0.00  0.00    -0.094 A 
ATOM      9  C9  DEN d   1       0.038   2.115   0.538  0.00  0.00    -0.072 A 
ENDROOT
TORSDOF 0
ENDMDL
