MODEL 1
REMARK minimizedAffinity -7.07010603
REMARK minimizedRMSD -1
REMARK  0 active torsions:
REMARK  status: ('A' for Active; 'I' for Inactive)
ROOT
ATOM      1  C1  DEN d   1       0.492   0.270  -0.599  0.00  0.00     0.130 A 
ATOM      2  C2  DEN d   1      -0.263   0.810   0.529  0.00  0.00    -0.031 A 
ATOM      3  C3  DEN d   1      -0.917  -0.318   1.223  0.00  0.00     0.027 A 
ATOM      4  C4  DEN d   1      -0.830  -2.835   0.666  0.00  0.00     0.027 A 
ATOM      5  C5  DEN d   1      -0.328  -3.775  -0.206  0.00  0.00    -0.003 A 
ATOM      6  C6  DEN d   1       0.449  -3.432  -1.281  0.00  0.00     0.001 A 
ATOM      7  C7  DEN d   1       0.783  -2.120  -1.486  0.00  0.00     0.017 A 
ATOM      8  C8  DEN d   1       0.274  -1.165  -0.615  0.00  0.00    -0.094 A 
ATOM      9  C9  DEN d   1      -0.499  -1.533   0.473  0.00  0.00    -0.072 A 
ENDROOT
TORSDOF 0
ENDMDL
