MODEL 1
REMARK minimizedAffinity -5.38419533
REMARK minimizedRMSD -1
REMARK  0 active torsions:
REMARK  status: ('A' for Active; 'I' for Inactive)
ROOT
ATOM      1  C1  DEN d   1      -0.032  -0.470  -2.167  0.00  0.00     0.130 A 
ATOM      2  C2  DEN d   1      -0.196   0.887  -1.652  0.00  0.00    -0.031 A 
ATOM      3  C3  DEN d   1      -0.435   0.798  -0.198  0.00  0.00     0.027 A 
ATOM      4  C4  DEN d   1      -0.559  -1.298   1.300  0.00  0.00     0.027 A 
ATOM      5  C5  DEN d   1      -0.493  -2.674   1.313  0.00  0.00    -0.003 A 
ATOM      6  C6  DEN d   1      -0.304  -3.407   0.172  0.00  0.00     0.001 A 
ATOM      7  C7  DEN d   1      -0.129  -2.765  -1.026  0.00  0.00     0.017 A 
ATOM      8  C8  DEN d   1      -0.202  -1.379  -1.048  0.00  0.00    -0.094 A 
ATOM      9  C9  DEN d   1      -0.382  -0.655   0.118  0.00  0.00    -0.072 A 
ENDROOT
TORSDOF 0
ENDMDL
