MODEL 1
REMARK minimizedAffinity -6.52816153
REMARK minimizedRMSD -1
REMARK  0 active torsions:
REMARK  status: ('A' for Active; 'I' for Inactive)
ROOT
ATOM      1  C1  DEN d   1       0.221   0.039   0.073  0.00  0.00     0.130 A 
ATOM      2  C2  DEN d   1       0.259   0.646  -1.255  0.00  0.00    -0.031 A 
ATOM      3  C3  DEN d   1       0.338  -0.442  -2.251  0.00  0.00     0.027 A 
ATOM      4  C4  DEN d   1       0.398  -2.992  -1.869  0.00  0.00     0.027 A 
ATOM      5  C5  DEN d   1       0.399  -3.984  -0.914  0.00  0.00    -0.003 A 
ATOM      6  C6  DEN d   1       0.375  -3.706   0.428  0.00  0.00     0.001 A 
ATOM      7  C7  DEN d   1       0.304  -2.405   0.850  0.00  0.00     0.017 A 
ATOM      8  C8  DEN d   1       0.310  -1.399  -0.107  0.00  0.00    -0.094 A 
ATOM      9  C9  DEN d   1       0.322  -1.700  -1.458  0.00  0.00    -0.072 A 
ENDROOT
TORSDOF 0
ENDMDL
