MODEL 1
REMARK minimizedAffinity -6.36900425
REMARK minimizedRMSD -1
REMARK  0 active torsions:
REMARK  status: ('A' for Active; 'I' for Inactive)
ROOT
ATOM      1  C1  DEN d   1       1.359  -1.266  -1.060  0.00  0.00     0.130 A 
ATOM      2  C2  DEN d   1       1.266  -2.711  -0.869  0.00  0.00    -0.031 A 
ATOM      3  C3  DEN d   1       0.122  -2.980   0.025  0.00  0.00     0.027 A 
ATOM      4  C4  DEN d   1      -1.507  -1.310   1.124  0.00  0.00     0.027 A 
ATOM      5  C5  DEN d   1      -1.821   0.024   1.267  0.00  0.00    -0.003 A 
ATOM      6  C6  DEN d   1      -1.082   1.015   0.676  0.00  0.00     0.001 A 
ATOM      7  C7  DEN d   1      -0.019   0.685  -0.122  0.00  0.00     0.017 A 
ATOM      8  C8  DEN d   1       0.308  -0.657  -0.265  0.00  0.00    -0.094 A 
ATOM      9  C9  DEN d   1      -0.459  -1.645   0.331  0.00  0.00    -0.072 A 
ENDROOT
TORSDOF 0
ENDMDL
