MODEL 1
REMARK minimizedAffinity -5.4337039
REMARK minimizedRMSD -1
REMARK  0 active torsions:
REMARK  status: ('A' for Active; 'I' for Inactive)
ROOT
ATOM      1  C1  DEN d   1       1.896   0.509  -0.654  0.00  0.00     0.130 A 
ATOM      2  C2  DEN d   1       1.440   1.840  -0.261  0.00  0.00    -0.031 A 
ATOM      3  C3  DEN d   1       0.154   1.691   0.449  0.00  0.00     0.027 A 
ATOM      4  C4  DEN d   1      -1.165  -0.461   0.981  0.00  0.00     0.027 A 
ATOM      5  C5  DEN d   1      -1.183  -1.831   0.840  0.00  0.00    -0.003 A 
ATOM      6  C6  DEN d   1      -0.201  -2.508   0.167  0.00  0.00     0.001 A 
ATOM      7  C7  DEN d   1       0.865  -1.820  -0.352  0.00  0.00     0.017 A 
ATOM      8  C8  DEN d   1       0.886  -0.438  -0.219  0.00  0.00    -0.094 A 
ATOM      9  C9  DEN d   1      -0.110   0.227   0.475  0.00  0.00    -0.072 A 
ENDROOT
TORSDOF 0
ENDMDL
