MODEL 1
REMARK minimizedAffinity -4.89053822
REMARK minimizedRMSD -1
REMARK  0 active torsions:
REMARK  status: ('A' for Active; 'I' for Inactive)
ROOT
ATOM      1  C1  DEN d   1       0.458   0.472  -1.237  0.00  0.00     0.130 A 
ATOM      2  C2  DEN d   1      -0.002   0.914   0.076  0.00  0.00    -0.031 A 
ATOM      3  C3  DEN d   1      -0.433  -0.279   0.834  0.00  0.00     0.027 A 
ATOM      4  C4  DEN d   1      -0.428  -2.753   0.106  0.00  0.00     0.027 A 
ATOM      5  C5  DEN d   1      -0.138  -3.619  -0.925  0.00  0.00    -0.003 A 
ATOM      6  C6  DEN d   1       0.335  -3.183  -2.134  0.00  0.00     0.001 A 
ATOM      7  C7  DEN d   1       0.575  -1.848  -2.327  0.00  0.00     0.017 A 
ATOM      8  C8  DEN d   1       0.278  -0.968  -1.295  0.00  0.00    -0.094 A 
ATOM      9  C9  DEN d   1      -0.188  -1.430  -0.076  0.00  0.00    -0.072 A 
ENDROOT
TORSDOF 0
ENDMDL
