MODEL 1
REMARK minimizedAffinity -3.92996883
REMARK minimizedRMSD -1
REMARK  0 active torsions:
REMARK  status: ('A' for Active; 'I' for Inactive)
ROOT
ATOM      1  C1  DEN d   1      -0.300  -3.643  -0.504  0.00  0.00     0.130 A 
ATOM      2  C2  DEN d   1       0.640  -3.700  -1.620  0.00  0.00    -0.031 A 
ATOM      3  C3  DEN d   1       1.140  -2.333  -1.866  0.00  0.00     0.027 A 
ATOM      4  C4  DEN d   1       0.558  -0.145  -0.629  0.00  0.00     0.027 A 
ATOM      5  C5  DEN d   1      -0.199   0.406   0.381  0.00  0.00    -0.003 A 
ATOM      6  C6  DEN d   1      -1.062  -0.342   1.138  0.00  0.00     0.001 A 
ATOM      7  C7  DEN d   1      -1.155  -1.692   0.927  0.00  0.00     0.017 A 
ATOM      8  C8  DEN d   1      -0.399  -2.254  -0.094  0.00  0.00    -0.094 A 
ATOM      9  C9  DEN d   1       0.476  -1.483  -0.840  0.00  0.00    -0.072 A 
ENDROOT
TORSDOF 0
ENDMDL
