MODEL 1
REMARK minimizedAffinity -3.25843573
REMARK minimizedRMSD -1
REMARK  0 active torsions:
REMARK  status: ('A' for Active; 'I' for Inactive)
ROOT
ATOM      1  C   UNL d   1      -0.249   0.045   0.206  0.00  0.00     0.078 C 
ATOM      2  C1  UNL d   1       0.160  -0.307  -1.193  0.00  0.00    -0.077 A 
ATOM      3  C2  UNL d   1       0.857   0.607  -1.993  0.00  0.00    -0.001 A 
ATOM      4  C3  UNL d   1       1.222   0.270  -3.297  0.00  0.00     0.003 A 
ATOM      5  C4  UNL d   1       0.894  -0.982  -3.813  0.00  0.00    -0.005 A 
ATOM      6  C5  UNL d   1       0.199  -1.898  -3.026  0.00  0.00     0.003 A 
ATOM      7  C6  UNL d   1      -0.167  -1.562  -1.722  0.00  0.00    -0.001 A 
ENDROOT
TORSDOF 0
ENDMDL
