MODEL 1
REMARK minimizedAffinity -5.07308435
REMARK minimizedRMSD -1
REMARK  0 active torsions:
REMARK  status: ('A' for Active; 'I' for Inactive)
ROOT
ATOM      1  C   UNL d   1      -0.686  -0.785   2.943  0.00  0.00     0.078 C 
ATOM      2  C1  UNL d   1      -0.348  -0.315   1.560  0.00  0.00    -0.077 A 
ATOM      3  C2  UNL d   1       0.945   0.119   1.242  0.00  0.00    -0.001 A 
ATOM      4  C3  UNL d   1       1.244   0.563  -0.047  0.00  0.00     0.003 A 
ATOM      5  C4  UNL d   1       0.255   0.579  -1.028  0.00  0.00    -0.005 A 
ATOM      6  C5  UNL d   1      -1.035   0.151  -0.721  0.00  0.00     0.003 A 
ATOM      7  C6  UNL d   1      -1.336  -0.293   0.568  0.00  0.00    -0.001 A 
ENDROOT
TORSDOF 0
ENDMDL
