MODEL 1
REMARK minimizedAffinity -3.8324585
REMARK minimizedRMSD -1
REMARK  0 active torsions:
REMARK  status: ('A' for Active; 'I' for Inactive)
ROOT
ATOM      1  C   UNL d   1       0.414   0.186  -1.567  0.00  0.00     0.078 C 
ATOM      2  C1  UNL d   1       0.305   0.162  -0.071  0.00  0.00    -0.077 A 
ATOM      3  C2  UNL d   1      -0.779  -0.456   0.563  0.00  0.00    -0.001 A 
ATOM      4  C3  UNL d   1      -0.872  -0.462   1.956  0.00  0.00     0.003 A 
ATOM      5  C4  UNL d   1       0.116   0.149   2.726  0.00  0.00    -0.005 A 
ATOM      6  C5  UNL d   1       1.198   0.768   2.103  0.00  0.00     0.003 A 
ATOM      7  C6  UNL d   1       1.292   0.775   0.710  0.00  0.00    -0.001 A 
ENDROOT
TORSDOF 0
ENDMDL
