MODEL 1
REMARK minimizedAffinity -4.08428383
REMARK minimizedRMSD -1
REMARK  0 active torsions:
REMARK  status: ('A' for Active; 'I' for Inactive)
ROOT
ATOM      1  C   UNL d   1       0.305  -0.065  -1.614  0.00  0.00     0.078 C 
ATOM      2  C1  UNL d   1       0.132  -0.167  -0.128  0.00  0.00    -0.077 A 
ATOM      3  C2  UNL d   1       1.190   0.120   0.743  0.00  0.00    -0.001 A 
ATOM      4  C3  UNL d   1       1.017   0.011   2.124  0.00  0.00     0.003 A 
ATOM      5  C4  UNL d   1      -0.212  -0.386   2.646  0.00  0.00    -0.005 A 
ATOM      6  C5  UNL d   1      -1.271  -0.676   1.787  0.00  0.00     0.003 A 
ATOM      7  C6  UNL d   1      -1.100  -0.567   0.406  0.00  0.00    -0.001 A 
ENDROOT
TORSDOF 0
ENDMDL
