MODEL 1
REMARK minimizedAffinity -5.52681589
REMARK minimizedRMSD -1
REMARK  0 active torsions:
REMARK  status: ('A' for Active; 'I' for Inactive)
ROOT
ATOM      1  C   UNL d   1      -0.862  -1.190   3.002  0.00  0.00     0.078 C 
ATOM      2  C1  UNL d   1      -0.496  -0.586   1.679  0.00  0.00    -0.077 A 
ATOM      3  C2  UNL d   1      -1.370  -0.659   0.587  0.00  0.00    -0.001 A 
ATOM      4  C3  UNL d   1      -1.012  -0.101  -0.641  0.00  0.00     0.003 A 
ATOM      5  C4  UNL d   1       0.220   0.532  -0.790  0.00  0.00    -0.005 A 
ATOM      6  C5  UNL d   1       1.097   0.608   0.291  0.00  0.00     0.003 A 
ATOM      7  C6  UNL d   1       0.741   0.050   1.520  0.00  0.00    -0.001 A 
ENDROOT
TORSDOF 0
ENDMDL
