MODEL 1
REMARK minimizedAffinity -2.74065804
REMARK minimizedRMSD -1
REMARK  0 active torsions:
REMARK  status: ('A' for Active; 'I' for Inactive)
ROOT
ATOM      1  C   UNL d   1      -0.677  -1.743   2.907  0.00  0.00     0.078 C 
ATOM      2  C1  UNL d   1      -0.286  -0.723   1.879  0.00  0.00    -0.077 A 
ATOM      3  C2  UNL d   1      -0.963  -0.636   0.657  0.00  0.00    -0.001 A 
ATOM      4  C3  UNL d   1      -0.583   0.312  -0.295  0.00  0.00     0.003 A 
ATOM      5  C4  UNL d   1       0.477   1.178  -0.035  0.00  0.00    -0.005 A 
ATOM      6  C5  UNL d   1       1.159   1.097   1.178  0.00  0.00     0.003 A 
ATOM      7  C6  UNL d   1       0.779   0.150   2.131  0.00  0.00    -0.001 A 
ENDROOT
TORSDOF 0
ENDMDL
