MODEL 1
REMARK minimizedAffinity -4.20182037
REMARK minimizedRMSD -1
REMARK  0 active torsions:
REMARK  status: ('A' for Active; 'I' for Inactive)
ROOT
ATOM      1  C   UNL d   1      -0.775  -0.975   3.006  0.00  0.00     0.078 C 
ATOM      2  C1  UNL d   1      -0.440  -0.372   1.675  0.00  0.00    -0.077 A 
ATOM      3  C2  UNL d   1      -1.294  -0.529   0.576  0.00  0.00    -0.001 A 
ATOM      4  C3  UNL d   1      -0.964   0.030  -0.660  0.00  0.00     0.003 A 
ATOM      5  C4  UNL d   1       0.221   0.748  -0.809  0.00  0.00    -0.005 A 
ATOM      6  C5  UNL d   1       1.078   0.907   0.277  0.00  0.00     0.003 A 
ATOM      7  C6  UNL d   1       0.750   0.349   1.514  0.00  0.00    -0.001 A 
ENDROOT
TORSDOF 0
ENDMDL
