MODEL 1
REMARK minimizedAffinity -3.08013391
REMARK minimizedRMSD -1
REMARK  0 active torsions:
REMARK  status: ('A' for Active; 'I' for Inactive)
ROOT
ATOM      1  C   UNL d   1       0.762   0.390  -2.662  0.00  0.00     0.078 C 
ATOM      2  C1  UNL d   1       0.339   0.243  -1.231  0.00  0.00    -0.077 A 
ATOM      3  C2  UNL d   1       1.238   0.481  -0.185  0.00  0.00    -0.001 A 
ATOM      4  C3  UNL d   1       0.833   0.330   1.143  0.00  0.00     0.003 A 
ATOM      5  C4  UNL d   1      -0.472  -0.061   1.436  0.00  0.00    -0.005 A 
ATOM      6  C5  UNL d   1      -1.373  -0.302   0.401  0.00  0.00     0.003 A 
ATOM      7  C6  UNL d   1      -0.970  -0.152  -0.927  0.00  0.00    -0.001 A 
ENDROOT
TORSDOF 0
ENDMDL
