MODEL 1
REMARK minimizedAffinity -5.88647366
REMARK minimizedRMSD -1
REMARK  0 active torsions:
REMARK  status: ('A' for Active; 'I' for Inactive)
ROOT
ATOM      1  C   UNL d   1      -0.015   0.433  -1.448  0.00  0.00     0.078 C 
ATOM      2  C1  UNL d   1       0.024   0.026  -0.005  0.00  0.00    -0.077 A 
ATOM      3  C2  UNL d   1      -1.155  -0.241   0.701  0.00  0.00    -0.001 A 
ATOM      4  C3  UNL d   1      -1.104  -0.609   2.047  0.00  0.00     0.003 A 
ATOM      5  C4  UNL d   1       0.123  -0.711   2.698  0.00  0.00    -0.005 A 
ATOM      6  C5  UNL d   1       1.302  -0.445   2.004  0.00  0.00     0.003 A 
ATOM      7  C6  UNL d   1       1.253  -0.077   0.659  0.00  0.00    -0.001 A 
ENDROOT
TORSDOF 0
ENDMDL
