MODEL 1
REMARK minimizedAffinity -4.05476665
REMARK minimizedRMSD -1
REMARK  0 active torsions:
REMARK  status: ('A' for Active; 'I' for Inactive)
ROOT
ATOM      1  C   UNL d   1      -0.218   0.528  -1.238  0.00  0.00     0.078 C 
ATOM      2  C1  UNL d   1      -0.147   0.058   0.184  0.00  0.00    -0.077 A 
ATOM      3  C2  UNL d   1      -1.015  -0.932   0.661  0.00  0.00    -0.001 A 
ATOM      4  C3  UNL d   1      -0.945  -1.353   1.990  0.00  0.00     0.003 A 
ATOM      5  C4  UNL d   1      -0.008  -0.789   2.853  0.00  0.00    -0.005 A 
ATOM      6  C5  UNL d   1       0.859   0.198   2.389  0.00  0.00     0.003 A 
ATOM      7  C6  UNL d   1       0.790   0.620   1.060  0.00  0.00    -0.001 A 
ENDROOT
TORSDOF 0
ENDMDL
