MODEL 1
REMARK minimizedAffinity -3.95814943
REMARK minimizedRMSD -1
REMARK  0 active torsions:
REMARK  status: ('A' for Active; 'I' for Inactive)
ROOT
ATOM      1  C   UNL d   1      -0.990  -0.431   3.193  0.00  0.00     0.078 C 
ATOM      2  C1  UNL d   1      -0.854  -0.132   1.730  0.00  0.00    -0.077 A 
ATOM      3  C2  UNL d   1      -1.984   0.051   0.924  0.00  0.00    -0.001 A 
ATOM      4  C3  UNL d   1      -1.843   0.319  -0.439  0.00  0.00     0.003 A 
ATOM      5  C4  UNL d   1      -0.574   0.407  -1.007  0.00  0.00    -0.005 A 
ATOM      6  C5  UNL d   1       0.557   0.225  -0.213  0.00  0.00     0.003 A 
ATOM      7  C6  UNL d   1       0.417  -0.044   1.150  0.00  0.00    -0.001 A 
ENDROOT
TORSDOF 0
ENDMDL
