MODEL 1
REMARK minimizedAffinity -3.39282393
REMARK minimizedRMSD -1
REMARK  0 active torsions:
REMARK  status: ('A' for Active; 'I' for Inactive)
ROOT
ATOM      1  C   UNL d   1      -0.274  -0.217   2.996  0.00  0.00     0.078 C 
ATOM      2  C1  UNL d   1      -0.165  -0.025   1.513  0.00  0.00    -0.077 A 
ATOM      3  C2  UNL d   1      -1.307  -0.000   0.703  0.00  0.00    -0.001 A 
ATOM      4  C3  UNL d   1      -1.190   0.170  -0.678  0.00  0.00     0.003 A 
ATOM      5  C4  UNL d   1       0.067   0.316  -1.260  0.00  0.00    -0.005 A 
ATOM      6  C5  UNL d   1       1.210   0.291  -0.463  0.00  0.00     0.003 A 
ATOM      7  C6  UNL d   1       1.094   0.120   0.918  0.00  0.00    -0.001 A 
ENDROOT
TORSDOF 0
ENDMDL
