MODEL 1
REMARK minimizedAffinity -5.02420092
REMARK minimizedRMSD -1
REMARK  0 active torsions:
REMARK  status: ('A' for Active; 'I' for Inactive)
ROOT
ATOM      1  C   UNL d   1       0.438  -0.124  -1.604  0.00  0.00     0.078 C 
ATOM      2  C1  UNL d   1       0.231  -0.200  -0.121  0.00  0.00    -0.077 A 
ATOM      3  C2  UNL d   1       1.188   0.305   0.767  0.00  0.00    -0.001 A 
ATOM      4  C3  UNL d   1       0.987   0.219   2.146  0.00  0.00     0.003 A 
ATOM      5  C4  UNL d   1      -0.170  -0.372   2.648  0.00  0.00    -0.005 A 
ATOM      6  C5  UNL d   1      -1.128  -0.880   1.772  0.00  0.00     0.003 A 
ATOM      7  C6  UNL d   1      -0.928  -0.794   0.393  0.00  0.00    -0.001 A 
ENDROOT
TORSDOF 0
ENDMDL
