MODEL 1
REMARK minimizedAffinity -1.8612932
REMARK minimizedRMSD -1
REMARK  0 active torsions:
REMARK  status: ('A' for Active; 'I' for Inactive)
ROOT
ATOM      1  C   UNL d   1      -0.774   0.750  -1.882  0.00  0.00     0.077 C 
ATOM      2  C1  UNL d   1       0.060  -0.147  -1.016  0.00  0.00    -0.074 A 
ATOM      3  C2  UNL d   1       1.155  -0.839  -1.543  0.00  0.00    -0.005 A 
ATOM      4  C3  UNL d   1       1.928  -1.662  -0.724  0.00  0.00     0.006 A 
ATOM      5  C4  UNL d   1       1.615  -1.800   0.629  0.00  0.00    -0.005 A 
ATOM      6  C5  UNL d   1       0.524  -1.114   1.174  0.00  0.00    -0.074 A 
ATOM      7  C6  UNL d   1       0.180  -1.244   2.628  0.00  0.00     0.077 C 
ATOM      8  C7  UNL d   1      -0.243  -0.284   0.346  0.00  0.00    -0.001 A 
ENDROOT
TORSDOF 0
ENDMDL
