MODEL 1
REMARK minimizedAffinity 3.09512854
REMARK minimizedRMSD -1
REMARK  0 active torsions:
REMARK  status: ('A' for Active; 'I' for Inactive)
ROOT
ATOM      1  C   UNL d   1      -0.191   5.896   4.566  0.00  0.00     0.077 C 
ATOM      2  C1  UNL d   1       1.306   5.938   4.643  0.00  0.00    -0.074 A 
ATOM      3  C2  UNL d   1       1.962   5.962   5.878  0.00  0.00    -0.005 A 
ATOM      4  C3  UNL d   1       3.356   5.992   5.934  0.00  0.00     0.006 A 
ATOM      5  C4  UNL d   1       4.106   5.999   4.758  0.00  0.00    -0.005 A 
ATOM      6  C5  UNL d   1       3.468   5.974   3.514  0.00  0.00    -0.074 A 
ATOM      7  C6  UNL d   1       4.260   5.971   2.240  0.00  0.00     0.077 C 
ATOM      8  C7  UNL d   1       2.068   5.937   3.466  0.00  0.00    -0.001 A 
ENDROOT
TORSDOF 0
ENDMDL
