MODEL 1
REMARK minimizedAffinity 0.49195388
REMARK minimizedRMSD -1
REMARK  0 active torsions:
REMARK  status: ('A' for Active; 'I' for Inactive)
ROOT
ATOM      1  C   UNL d   1      -0.932   0.132   1.182  0.00  0.00     0.077 C 
ATOM      2  C1  UNL d   1       0.369   0.025   0.443  0.00  0.00    -0.074 A 
ATOM      3  C2  UNL d   1       0.847  -1.215   0.007  0.00  0.00    -0.005 A 
ATOM      4  C3  UNL d   1       2.055  -1.298  -0.687  0.00  0.00     0.006 A 
ATOM      5  C4  UNL d   1       2.794  -0.144  -0.951  0.00  0.00    -0.005 A 
ATOM      6  C5  UNL d   1       2.331   1.104  -0.522  0.00  0.00    -0.074 A 
ATOM      7  C6  UNL d   1       3.109   2.355  -0.806  0.00  0.00     0.077 C 
ATOM      8  C7  UNL d   1       1.114   1.180   0.168  0.00  0.00    -0.001 A 
ENDROOT
TORSDOF 0
ENDMDL
