MODEL 1
REMARK minimizedAffinity 5.86833572
REMARK minimizedRMSD -1
REMARK  0 active torsions:
REMARK  status: ('A' for Active; 'I' for Inactive)
ROOT
ATOM      1  C   UNL d   1       1.969  -0.748   2.759  0.00  0.00     0.077 C 
ATOM      2  C1  UNL d   1       1.085  -0.685   1.548  0.00  0.00    -0.074 A 
ATOM      3  C2  UNL d   1       1.607  -0.884   0.266  0.00  0.00    -0.005 A 
ATOM      4  C3  UNL d   1       0.771  -0.832  -0.849  0.00  0.00     0.006 A 
ATOM      5  C4  UNL d   1      -0.593  -0.580  -0.694  0.00  0.00    -0.005 A 
ATOM      6  C5  UNL d   1      -1.133  -0.378   0.581  0.00  0.00    -0.074 A 
ATOM      7  C6  UNL d   1      -2.598  -0.116   0.766  0.00  0.00     0.077 C 
ATOM      8  C7  UNL d   1      -0.287  -0.440   1.697  0.00  0.00    -0.001 A 
ENDROOT
TORSDOF 0
ENDMDL
