MODEL 1
REMARK minimizedAffinity 4.38657188
REMARK minimizedRMSD -1
REMARK  0 active torsions:
REMARK  status: ('A' for Active; 'I' for Inactive)
ROOT
ATOM      1  C   UNL d   1      -3.660  -1.101   0.720  0.00  0.00     0.077 C 
ATOM      2  C1  UNL d   1      -2.213  -0.848   0.417  0.00  0.00    -0.074 A 
ATOM      3  C2  UNL d   1      -1.739  -0.872  -0.898  0.00  0.00    -0.005 A 
ATOM      4  C3  UNL d   1      -0.392  -0.625  -1.165  0.00  0.00     0.006 A 
ATOM      5  C4  UNL d   1       0.493  -0.353  -0.121  0.00  0.00    -0.005 A 
ATOM      6  C5  UNL d   1       0.037  -0.325   1.201  0.00  0.00    -0.074 A 
ATOM      7  C6  UNL d   1       0.973  -0.025   2.334  0.00  0.00     0.077 C 
ATOM      8  C7  UNL d   1      -1.319  -0.567   1.460  0.00  0.00    -0.001 A 
ENDROOT
TORSDOF 0
ENDMDL
