MODEL 1
REMARK minimizedAffinity 5.31556988
REMARK minimizedRMSD -1
REMARK  0 active torsions:
REMARK  status: ('A' for Active; 'I' for Inactive)
ROOT
ATOM      1  C   UNL d   1      -1.094  -1.750   3.240  0.00  0.00     0.077 C 
ATOM      2  C1  UNL d   1      -0.174  -1.457   2.092  0.00  0.00    -0.074 A 
ATOM      3  C2  UNL d   1      -0.377  -0.339   1.276  0.00  0.00    -0.005 A 
ATOM      4  C3  UNL d   1       0.492  -0.074   0.217  0.00  0.00     0.006 A 
ATOM      5  C4  UNL d   1       1.571  -0.923  -0.035  0.00  0.00    -0.005 A 
ATOM      6  C5  UNL d   1       1.790  -2.044   0.771  0.00  0.00    -0.074 A 
ATOM      7  C6  UNL d   1       2.951  -2.961   0.520  0.00  0.00     0.077 C 
ATOM      8  C7  UNL d   1       0.916  -2.300   1.837  0.00  0.00    -0.001 A 
ENDROOT
TORSDOF 0
ENDMDL
