MODEL 1
REMARK minimizedAffinity -0.628329396
REMARK minimizedRMSD -1
REMARK  0 active torsions:
REMARK  status: ('A' for Active; 'I' for Inactive)
ROOT
ATOM      1  C   UNL d   1      -3.230  -3.140   3.973  0.00  0.00     0.077 C 
ATOM      2  C1  UNL d   1      -2.668  -2.110   3.040  0.00  0.00    -0.074 A 
ATOM      3  C2  UNL d   1      -3.506  -1.351   2.217  0.00  0.00    -0.005 A 
ATOM      4  C3  UNL d   1      -2.969  -0.390   1.361  0.00  0.00     0.006 A 
ATOM      5  C4  UNL d   1      -1.590  -0.179   1.318  0.00  0.00    -0.005 A 
ATOM      6  C5  UNL d   1      -0.736  -0.928   2.133  0.00  0.00    -0.074 A 
ATOM      7  C6  UNL d   1       0.747  -0.707   2.107  0.00  0.00     0.077 C 
ATOM      8  C7  UNL d   1      -1.284  -1.887   2.997  0.00  0.00    -0.001 A 
ENDROOT
TORSDOF 0
ENDMDL
