MODEL 1
REMARK minimizedAffinity -1.77911413
REMARK minimizedRMSD -1
REMARK  0 active torsions:
REMARK  status: ('A' for Active; 'I' for Inactive)
ROOT
ATOM      1  C   UNL d   1       0.990  -0.842   3.316  0.00  0.00     0.077 C 
ATOM      2  C1  UNL d   1       0.114  -0.716   2.105  0.00  0.00    -0.074 A 
ATOM      3  C2  UNL d   1       0.667  -0.627   0.824  0.00  0.00    -0.005 A 
ATOM      4  C3  UNL d   1      -0.161  -0.519  -0.293  0.00  0.00     0.006 A 
ATOM      5  C4  UNL d   1      -1.548  -0.500  -0.141  0.00  0.00    -0.005 A 
ATOM      6  C5  UNL d   1      -2.119  -0.588   1.133  0.00  0.00    -0.074 A 
ATOM      7  C6  UNL d   1      -3.608  -0.578   1.313  0.00  0.00     0.077 C 
ATOM      8  C7  UNL d   1      -1.281  -0.703   2.250  0.00  0.00    -0.001 A 
ENDROOT
TORSDOF 0
ENDMDL
