MODEL 1
REMARK minimizedAffinity 5.29280376
REMARK minimizedRMSD -1
REMARK  0 active torsions:
REMARK  status: ('A' for Active; 'I' for Inactive)
ROOT
ATOM      1  C   UNL d   1      -3.514  -0.322   1.205  0.00  0.00     0.077 C 
ATOM      2  C1  UNL d   1      -2.035  -0.562   1.270  0.00  0.00    -0.074 A 
ATOM      3  C2  UNL d   1      -1.395  -0.775   2.495  0.00  0.00    -0.005 A 
ATOM      4  C3  UNL d   1      -0.020  -1.007   2.539  0.00  0.00     0.006 A 
ATOM      5  C4  UNL d   1       0.727  -1.028   1.361  0.00  0.00    -0.005 A 
ATOM      6  C5  UNL d   1       0.103  -0.819   0.127  0.00  0.00    -0.074 A 
ATOM      7  C6  UNL d   1       0.890  -0.849  -1.150  0.00  0.00     0.077 C 
ATOM      8  C7  UNL d   1      -1.279  -0.593   0.090  0.00  0.00    -0.001 A 
ENDROOT
TORSDOF 0
ENDMDL
