MODEL 1
REMARK minimizedAffinity 13.5864639
REMARK minimizedRMSD -1
REMARK  0 active torsions:
REMARK  status: ('A' for Active; 'I' for Inactive)
ROOT
ATOM      1  C   UNL d   1      -1.179  -1.677  -5.987  0.00  0.00    -0.002 A 
ATOM      2  C1  UNL d   1      -1.111  -3.063  -5.995  0.00  0.00     0.010 A 
ATOM      3  C2  UNL d   1      -2.277  -3.831  -5.998  0.00  0.00     0.041 A 
ATOM      4  C3  UNL d   1      -3.524  -3.177  -5.995  0.00  0.00    -0.075 A 
ATOM      5  S   UNL d   1      -5.084  -3.912  -5.999  0.00  0.00     0.015 SA
ATOM      6  C4  UNL d   1      -5.877  -2.403  -5.990  0.00  0.00     0.022 A 
ATOM      7  C5  UNL d   1      -4.989  -1.354  -5.984  0.00  0.00     0.026 A 
ATOM      8  C6  UNL d   1      -3.618  -1.782  -5.987  0.00  0.00    -0.082 A 
ATOM      9  C7  UNL d   1      -2.418  -1.031  -5.983  0.00  0.00     0.045 A 
ENDROOT
TORSDOF 0
ENDMDL
