MODEL 1
REMARK minimizedAffinity 22.8445053
REMARK minimizedRMSD -1
REMARK  0 active torsions:
REMARK  status: ('A' for Active; 'I' for Inactive)
ROOT
ATOM      1  C   UNL d   1       3.325   5.276  -4.001  0.00  0.00    -0.002 A 
ATOM      2  C1  UNL d   1       4.408   4.484  -4.356  0.00  0.00     0.010 A 
ATOM      3  C2  UNL d   1       4.538   3.190  -3.849  0.00  0.00     0.041 A 
ATOM      4  C3  UNL d   1       3.550   2.699  -2.972  0.00  0.00    -0.075 A 
ATOM      5  S   UNL d   1       3.500   1.145  -2.228  0.00  0.00     0.015 SA
ATOM      6  C4  UNL d   1       2.040   1.495  -1.422  0.00  0.00     0.022 A 
ATOM      7  C5  UNL d   1       1.588   2.763  -1.702  0.00  0.00     0.026 A 
ATOM      8  C6  UNL d   1       2.450   3.477  -2.600  0.00  0.00    -0.082 A 
ATOM      9  C7  UNL d   1       2.348   4.786  -3.130  0.00  0.00     0.045 A 
ENDROOT
TORSDOF 0
ENDMDL
