MODEL 1
REMARK minimizedAffinity 2.62639093
REMARK minimizedRMSD -1
REMARK  0 active torsions:
REMARK  status: ('A' for Active; 'I' for Inactive)
ROOT
ATOM      1  C   UNL d   1       1.054   0.691   2.950  0.00  0.00    -0.002 A 
ATOM      2  C1  UNL d   1       1.189   0.180   1.667  0.00  0.00     0.010 A 
ATOM      3  C2  UNL d   1       0.078   0.066   0.828  0.00  0.00     0.041 A 
ATOM      4  C3  UNL d   1      -1.181   0.480   1.304  0.00  0.00    -0.075 A 
ATOM      5  S   UNL d   1      -2.680   0.434   0.454  0.00  0.00     0.015 SA
ATOM      6  C4  UNL d   1      -3.535   1.092   1.774  0.00  0.00     0.022 A 
ATOM      7  C5  UNL d   1      -2.712   1.346   2.845  0.00  0.00     0.026 A 
ATOM      8  C6  UNL d   1      -1.342   0.998   2.592  0.00  0.00    -0.082 A 
ATOM      9  C7  UNL d   1      -0.197   1.100   3.419  0.00  0.00     0.045 A 
ENDROOT
TORSDOF 0
ENDMDL
