MODEL 1
REMARK minimizedAffinity 10.800312
REMARK minimizedRMSD -1
REMARK  0 active torsions:
REMARK  status: ('A' for Active; 'I' for Inactive)
ROOT
ATOM      1  C   UNL d   1      -1.444   0.781   3.520  0.00  0.00    -0.002 A 
ATOM      2  C1  UNL d   1      -1.463   1.900   2.700  0.00  0.00     0.010 A 
ATOM      3  C2  UNL d   1      -2.607   2.223   1.966  0.00  0.00     0.041 A 
ATOM      4  C3  UNL d   1      -3.742   1.396   2.074  0.00  0.00    -0.075 A 
ATOM      5  S   UNL d   1      -5.254   1.597   1.270  0.00  0.00     0.015 SA
ATOM      6  C4  UNL d   1      -5.910   0.202   1.998  0.00  0.00     0.022 A 
ATOM      7  C5  UNL d   1      -5.012  -0.413   2.836  0.00  0.00     0.026 A 
ATOM      8  C6  UNL d   1      -3.747   0.265   2.894  0.00  0.00    -0.082 A 
ATOM      9  C7  UNL d   1      -2.573  -0.037   3.624  0.00  0.00     0.045 A 
ENDROOT
TORSDOF 0
ENDMDL
