MODEL 1
REMARK minimizedAffinity 1.66588235
REMARK minimizedRMSD -1
REMARK  0 active torsions:
REMARK  status: ('A' for Active; 'I' for Inactive)
ROOT
ATOM      1  C   UNL d   1      -2.573  -4.065   0.296  0.00  0.00    -0.002 A 
ATOM      2  C1  UNL d   1      -1.257  -3.845   0.679  0.00  0.00     0.010 A 
ATOM      3  C2  UNL d   1      -0.840  -2.577   1.090  0.00  0.00     0.041 A 
ATOM      4  C3  UNL d   1      -1.777  -1.525   1.112  0.00  0.00    -0.075 A 
ATOM      5  S   UNL d   1      -1.493   0.109   1.580  0.00  0.00     0.015 SA
ATOM      6  C4  UNL d   1      -3.111   0.554   1.285  0.00  0.00     0.022 A 
ATOM      7  C5  UNL d   1      -3.864  -0.507   0.839  0.00  0.00     0.026 A 
ATOM      8  C6  UNL d   1      -3.107  -1.723   0.733  0.00  0.00    -0.082 A 
ATOM      9  C7  UNL d   1      -3.499  -3.019   0.320  0.00  0.00     0.045 A 
ENDROOT
TORSDOF 0
ENDMDL
