MODEL 1
REMARK minimizedAffinity 5.76882315
REMARK minimizedRMSD -1
REMARK  0 active torsions:
REMARK  status: ('A' for Active; 'I' for Inactive)
ROOT
ATOM      1  C   UNL d   1      -4.060   0.939   1.612  0.00  0.00    -0.002 A 
ATOM      2  C1  UNL d   1      -2.714   0.988   1.947  0.00  0.00     0.010 A 
ATOM      3  C2  UNL d   1      -1.878  -0.100   1.691  0.00  0.00     0.041 A 
ATOM      4  C3  UNL d   1      -2.422  -1.250   1.086  0.00  0.00    -0.075 A 
ATOM      5  S   UNL d   1      -1.588  -2.703   0.677  0.00  0.00     0.015 SA
ATOM      6  C4  UNL d   1      -2.999  -3.423   0.048  0.00  0.00     0.022 A 
ATOM      7  C5  UNL d   1      -4.088  -2.590   0.139  0.00  0.00     0.026 A 
ATOM      8  C6  UNL d   1      -3.774  -1.324   0.738  0.00  0.00    -0.082 A 
ATOM      9  C7  UNL d   1      -4.596  -0.204   1.011  0.00  0.00     0.045 A 
ENDROOT
TORSDOF 0
ENDMDL
