MODEL 1
REMARK minimizedAffinity 18.90695
REMARK minimizedRMSD -1
REMARK  0 active torsions:
REMARK  status: ('A' for Active; 'I' for Inactive)
ROOT
ATOM      1  C   UNL d   1       5.500  -0.638   2.488  0.00  0.00    -0.002 A 
ATOM      2  C1  UNL d   1       5.494   0.208   1.388  0.00  0.00     0.010 A 
ATOM      3  C2  UNL d   1       4.364   0.970   1.083  0.00  0.00     0.041 A 
ATOM      4  C3  UNL d   1       3.230   0.868   1.913  0.00  0.00    -0.075 A 
ATOM      5  S   UNL d   1       1.734   1.707   1.735  0.00  0.00     0.015 SA
ATOM      6  C4  UNL d   1       1.068   0.963   3.116  0.00  0.00     0.022 A 
ATOM      7  C5  UNL d   1       1.951   0.093   3.710  0.00  0.00     0.026 A 
ATOM      8  C6  UNL d   1       3.212   0.024   3.027  0.00  0.00    -0.082 A 
ATOM      9  C7  UNL d   1       4.373  -0.736   3.308  0.00  0.00     0.045 A 
ENDROOT
TORSDOF 0
ENDMDL
