MODEL 1
REMARK minimizedAffinity 15.3555088
REMARK minimizedRMSD -1
REMARK  0 active torsions:
REMARK  status: ('A' for Active; 'I' for Inactive)
ROOT
ATOM      1  C   UNL d   1      -1.248  -0.060   1.955  0.00  0.00    -0.002 A 
ATOM      2  C1  UNL d   1      -1.848   0.243   0.741  0.00  0.00     0.010 A 
ATOM      3  C2  UNL d   1      -3.201   0.582   0.682  0.00  0.00     0.041 A 
ATOM      4  C3  UNL d   1      -3.948   0.614   1.875  0.00  0.00    -0.075 A 
ATOM      5  S   UNL d   1      -5.619   1.003   2.046  0.00  0.00     0.015 SA
ATOM      6  C4  UNL d   1      -5.577   0.778   3.734  0.00  0.00     0.022 A 
ATOM      7  C5  UNL d   1      -4.326   0.414   4.175  0.00  0.00     0.026 A 
ATOM      8  C6  UNL d   1      -3.367   0.314   3.111  0.00  0.00    -0.082 A 
ATOM      9  C7  UNL d   1      -1.993  -0.027   3.137  0.00  0.00     0.045 A 
ENDROOT
TORSDOF 0
ENDMDL
