MODEL 1
REMARK minimizedAffinity 2.78217316
REMARK minimizedRMSD -1
REMARK  0 active torsions:
REMARK  status: ('A' for Active; 'I' for Inactive)
ROOT
ATOM      1  C   UNL d   1      -6.000   2.489   3.312  0.00  0.00    -0.002 A 
ATOM      2  C1  UNL d   1      -5.486   2.017   4.512  0.00  0.00     0.010 A 
ATOM      3  C2  UNL d   1      -4.330   1.235   4.530  0.00  0.00     0.041 A 
ATOM      4  C3  UNL d   1      -3.690   0.935   3.311  0.00  0.00    -0.075 A 
ATOM      5  S   UNL d   1      -2.261  -0.004   3.090  0.00  0.00     0.015 SA
ATOM      6  C4  UNL d   1      -2.298   0.201   1.398  0.00  0.00     0.022 A 
ATOM      7  C5  UNL d   1      -3.368   0.964   0.995  0.00  0.00     0.026 A 
ATOM      8  C6  UNL d   1      -4.188   1.400   2.090  0.00  0.00    -0.082 A 
ATOM      9  C7  UNL d   1      -5.363   2.190   2.105  0.00  0.00     0.045 A 
ENDROOT
TORSDOF 0
ENDMDL
