MODEL 1
REMARK minimizedAffinity 8.51304245
REMARK minimizedRMSD -1
REMARK  0 active torsions:
REMARK  status: ('A' for Active; 'I' for Inactive)
ROOT
ATOM      1  C   UNL d   1      -5.168  -0.264   1.206  0.00  0.00    -0.002 A 
ATOM      2  C1  UNL d   1      -4.468   0.529   2.104  0.00  0.00     0.010 A 
ATOM      3  C2  UNL d   1      -4.282   0.113   3.424  0.00  0.00     0.041 A 
ATOM      4  C3  UNL d   1      -4.816  -1.126   3.829  0.00  0.00    -0.075 A 
ATOM      5  S   UNL d   1      -4.713  -1.840   5.395  0.00  0.00     0.015 SA
ATOM      6  C4  UNL d   1      -5.595  -3.214   4.909  0.00  0.00     0.022 A 
ATOM      7  C5  UNL d   1      -5.968  -3.147   3.587  0.00  0.00     0.026 A 
ATOM      8  C6  UNL d   1      -5.525  -1.942   2.943  0.00  0.00    -0.082 A 
ATOM      9  C7  UNL d   1      -5.697  -1.492   1.612  0.00  0.00     0.045 A 
ENDROOT
TORSDOF 0
ENDMDL
