MODEL 1
REMARK minimizedAffinity 12.760499
REMARK minimizedRMSD -1
REMARK  0 active torsions:
REMARK  status: ('A' for Active; 'I' for Inactive)
ROOT
ATOM      1  C   UNL d   1      -4.124  -3.316  -0.162  0.00  0.00    -0.002 A 
ATOM      2  C1  UNL d   1      -2.849  -3.774   0.140  0.00  0.00     0.010 A 
ATOM      3  C2  UNL d   1      -1.926  -2.941   0.775  0.00  0.00     0.041 A 
ATOM      4  C3  UNL d   1      -2.310  -1.627   1.107  0.00  0.00    -0.075 A 
ATOM      5  S   UNL d   1      -1.348  -0.429   1.889  0.00  0.00     0.015 SA
ATOM      6  C4  UNL d   1      -2.606   0.719   1.842  0.00  0.00     0.022 A 
ATOM      7  C5  UNL d   1      -3.740   0.218   1.248  0.00  0.00     0.026 A 
ATOM      8  C6  UNL d   1      -3.588  -1.143   0.815  0.00  0.00    -0.082 A 
ATOM      9  C7  UNL d   1      -4.501  -2.012   0.170  0.00  0.00     0.045 A 
ENDROOT
TORSDOF 0
ENDMDL
