MODEL 1
REMARK minimizedAffinity 9.0258112
REMARK minimizedRMSD -1
REMARK  0 active torsions:
REMARK  status: ('A' for Active; 'I' for Inactive)
ROOT
ATOM      1  C   UNL d   1      -1.859   1.540   2.269  0.00  0.00    -0.002 A 
ATOM      2  C1  UNL d   1      -1.026   0.434   2.179  0.00  0.00     0.010 A 
ATOM      3  C2  UNL d   1      -1.501  -0.773   1.663  0.00  0.00     0.041 A 
ATOM      4  C3  UNL d   1      -2.840  -0.850   1.232  0.00  0.00    -0.075 A 
ATOM      5  S   UNL d   1      -3.640  -2.223   0.563  0.00  0.00     0.015 SA
ATOM      6  C4  UNL d   1      -5.106  -1.374   0.381  0.00  0.00     0.022 A 
ATOM      7  C5  UNL d   1      -5.006  -0.073   0.814  0.00  0.00     0.026 A 
ATOM      8  C6  UNL d   1      -3.698   0.251   1.311  0.00  0.00    -0.082 A 
ATOM      9  C7  UNL d   1      -3.187   1.460   1.841  0.00  0.00     0.045 A 
ENDROOT
TORSDOF 0
ENDMDL
