MODEL 1
REMARK minimizedAffinity 10.8194342
REMARK minimizedRMSD -1
REMARK  0 active torsions:
REMARK  status: ('A' for Active; 'I' for Inactive)
ROOT
ATOM      1  C   UNL d   1      -0.240   0.770   2.870  0.00  0.00    -0.002 A 
ATOM      2  C1  UNL d   1      -0.524   0.738   1.512  0.00  0.00     0.010 A 
ATOM      3  C2  UNL d   1      -1.831   0.541   1.064  0.00  0.00     0.041 A 
ATOM      4  C3  UNL d   1      -2.860   0.377   2.013  0.00  0.00    -0.075 A 
ATOM      5  S   UNL d   1      -4.535   0.123   1.696  0.00  0.00     0.015 SA
ATOM      6  C4  UNL d   1      -4.914   0.052   3.357  0.00  0.00     0.022 A 
ATOM      7  C5  UNL d   1      -3.802   0.216   4.147  0.00  0.00     0.026 A 
ATOM      8  C6  UNL d   1      -2.599   0.406   3.386  0.00  0.00    -0.082 A 
ATOM      9  C7  UNL d   1      -1.263   0.607   3.808  0.00  0.00     0.045 A 
ENDROOT
TORSDOF 0
ENDMDL
