MODEL 1
REMARK minimizedAffinity 6.8134141
REMARK minimizedRMSD -1
REMARK  0 active torsions:
REMARK  status: ('A' for Active; 'I' for Inactive)
ROOT
ATOM      1  C   UNL d   1      -3.642   1.327   1.934  0.00  0.00    -0.002 A 
ATOM      2  C1  UNL d   1      -2.317   1.082   2.266  0.00  0.00     0.010 A 
ATOM      3  C2  UNL d   1      -1.709  -0.127   1.921  0.00  0.00     0.041 A 
ATOM      4  C3  UNL d   1      -2.463  -1.095   1.228  0.00  0.00    -0.075 A 
ATOM      5  S   UNL d   1      -1.928  -2.647   0.701  0.00  0.00     0.015 SA
ATOM      6  C4  UNL d   1      -3.446  -3.021   0.022  0.00  0.00     0.022 A 
ATOM      7  C5  UNL d   1      -4.350  -1.999   0.184  0.00  0.00     0.026 A 
ATOM      8  C6  UNL d   1      -3.798  -0.871   0.882  0.00  0.00    -0.082 A 
ATOM      9  C7  UNL d   1      -4.386   0.364   1.247  0.00  0.00     0.045 A 
ENDROOT
TORSDOF 0
ENDMDL
