MODEL 1
REMARK minimizedAffinity 5.79623127
REMARK minimizedRMSD -1
REMARK  2 active torsions:
REMARK  status: ('A' for Active; 'I' for Inactive)
REMARK    1  A    between atoms: C1_2  and  C2_3 
REMARK    2  A    between atoms: C2_3  and  C3_4 
ROOT
ATOM      1  C3  UNL d   1      -3.360  -0.271   5.931  0.00  0.00    -0.075 A 
ATOM      2  C4  UNL d   1      -3.131   1.112   5.960  0.00  0.00     0.002 A 
ATOM      3  C5  UNL d   1      -4.201   2.006   6.000  0.00  0.00     0.002 A 
ATOM      4  C6  UNL d   1      -5.510   1.531   5.999  0.00  0.00    -0.004 A 
ATOM      5  C7  UNL d   1      -5.750   0.159   5.953  0.00  0.00     0.002 A 
ATOM      6  C8  UNL d   1      -4.681  -0.738   5.919  0.00  0.00     0.002 A 
ENDROOT
BRANCH   1   7
ATOM      7  C2  UNL d   1      -2.206  -1.245   5.918  0.00  0.00     0.056 C 
BRANCH   7   8
ATOM      8  C1  UNL d   1      -2.478  -2.524   5.120  0.00  0.00     0.007 C 
ATOM      9  C   UNL d   1      -2.986  -2.255   3.710  0.00  0.00     0.009 C 
ENDBRANCH   7   8
ENDBRANCH   1   7
TORSDOF 2
ENDMDL
