MODEL 1
REMARK minimizedAffinity 16.0200634
REMARK minimizedRMSD -1
REMARK  2 active torsions:
REMARK  status: ('A' for Active; 'I' for Inactive)
REMARK    1  A    between atoms: C1_2  and  C2_3 
REMARK    2  A    between atoms: C2_3  and  C3_4 
ROOT
ATOM      1  C3  UNL d   1       3.760   2.275  -0.071  0.00  0.00    -0.075 A 
ATOM      2  C4  UNL d   1       4.143   0.929  -0.174  0.00  0.00     0.002 A 
ATOM      3  C5  UNL d   1       3.383   0.033  -0.926  0.00  0.00     0.002 A 
ATOM      4  C6  UNL d   1       2.229   0.466  -1.575  0.00  0.00    -0.004 A 
ATOM      5  C7  UNL d   1       1.831   1.796  -1.466  0.00  0.00     0.002 A 
ATOM      6  C8  UNL d   1       2.591   2.697  -0.718  0.00  0.00     0.002 A 
ENDROOT
BRANCH   1   7
ATOM      7  C2  UNL d   1       4.593   3.257   0.717  0.00  0.00     0.056 C 
BRANCH   7   8
ATOM      8  C1  UNL d   1       5.074   4.462  -0.098  0.00  0.00     0.007 C 
ATOM      9  C   UNL d   1       5.010   5.773   0.674  0.00  0.00     0.009 C 
ENDBRANCH   7   8
ENDBRANCH   1   7
TORSDOF 2
ENDMDL
