MODEL 1
REMARK minimizedAffinity 1.12921011
REMARK minimizedRMSD -1
REMARK  2 active torsions:
REMARK  status: ('A' for Active; 'I' for Inactive)
REMARK    1  A    between atoms: C1_2  and  C2_3 
REMARK    2  A    between atoms: C2_3  and  C3_4 
ROOT
ATOM      1  C3  UNL d   1      -4.245   5.315  -0.873  0.00  0.00    -0.075 A 
ATOM      2  C4  UNL d   1      -5.269   5.999  -0.201  0.00  0.00     0.002 A 
ATOM      3  C5  UNL d   1      -5.997   5.370   0.809  0.00  0.00     0.002 A 
ATOM      4  C6  UNL d   1      -5.718   4.049   1.154  0.00  0.00    -0.004 A 
ATOM      5  C7  UNL d   1      -4.714   3.355   0.482  0.00  0.00     0.002 A 
ATOM      6  C8  UNL d   1      -3.981   3.983  -0.526  0.00  0.00     0.002 A 
ENDROOT
BRANCH   1   7
ATOM      7  C2  UNL d   1      -3.434   6.000  -1.947  0.00  0.00     0.056 C 
BRANCH   7   8
ATOM      8  C1  UNL d   1      -3.559   5.353  -3.330  0.00  0.00     0.007 C 
ATOM      9  C   UNL d   1      -4.644   5.984  -4.193  0.00  0.00     0.009 C 
ENDBRANCH   7   8
ENDBRANCH   1   7
TORSDOF 2
ENDMDL
