MODEL 1
REMARK minimizedAffinity 9.2763586
REMARK minimizedRMSD -1
REMARK  2 active torsions:
REMARK  status: ('A' for Active; 'I' for Inactive)
REMARK    1  A    between atoms: C1_2  and  C2_3 
REMARK    2  A    between atoms: C2_3  and  C3_4 
ROOT
ATOM      1  C3  UNL d   1      -2.823  -0.690   5.300  0.00  0.00    -0.075 A 
ATOM      2  C4  UNL d   1      -4.128  -1.056   5.659  0.00  0.00     0.002 A 
ATOM      3  C5  UNL d   1      -5.069  -0.083   5.998  0.00  0.00     0.002 A 
ATOM      4  C6  UNL d   1      -4.715   1.264   5.990  0.00  0.00    -0.004 A 
ATOM      5  C7  UNL d   1      -3.417   1.638   5.651  0.00  0.00     0.002 A 
ATOM      6  C8  UNL d   1      -2.475   0.667   5.308  0.00  0.00     0.002 A 
ENDROOT
BRANCH   1   7
ATOM      7  C2  UNL d   1      -1.808  -1.736   4.904  0.00  0.00     0.056 C 
BRANCH   7   8
ATOM      8  C1  UNL d   1      -2.419  -2.985   4.259  0.00  0.00     0.007 C 
ATOM      9  C   UNL d   1      -2.411  -2.938   2.737  0.00  0.00     0.009 C 
ENDBRANCH   7   8
ENDBRANCH   1   7
TORSDOF 2
ENDMDL
