MODEL 1
REMARK minimizedAffinity 14.7984972
REMARK minimizedRMSD -1
REMARK  2 active torsions:
REMARK  status: ('A' for Active; 'I' for Inactive)
REMARK    1  A    between atoms: C1_2  and  C2_3 
REMARK    2  A    between atoms: C2_3  and  C3_4 
ROOT
ATOM      1  C3  UNL d   1      -2.561  -1.661  -0.049  0.00  0.00    -0.075 A 
ATOM      2  C4  UNL d   1      -1.766  -2.714   0.427  0.00  0.00     0.002 A 
ATOM      3  C5  UNL d   1      -0.656  -3.148  -0.299  0.00  0.00     0.002 A 
ATOM      4  C6  UNL d   1      -0.334  -2.545  -1.512  0.00  0.00    -0.004 A 
ATOM      5  C7  UNL d   1      -1.127  -1.509  -2.003  0.00  0.00     0.002 A 
ATOM      6  C8  UNL d   1      -2.235  -1.070  -1.277  0.00  0.00     0.002 A 
ENDROOT
BRANCH   1   7
ATOM      7  C2  UNL d   1      -3.745  -1.167   0.746  0.00  0.00     0.056 C 
BRANCH   7   8
ATOM      8  C1  UNL d   1      -4.527  -2.277   1.456  0.00  0.00     0.007 C 
ATOM      9  C   UNL d   1      -6.000  -2.315   1.071  0.00  0.00     0.009 C 
ENDBRANCH   7   8
ENDBRANCH   1   7
TORSDOF 2
ENDMDL
