MODEL 1
REMARK minimizedAffinity 8.68618393
REMARK minimizedRMSD -1
REMARK  2 active torsions:
REMARK  status: ('A' for Active; 'I' for Inactive)
REMARK    1  A    between atoms: C1_2  and  C2_3 
REMARK    2  A    between atoms: C2_3  and  C3_4 
ROOT
ATOM      1  C3  UNL d   1       1.937   1.926  -1.300  0.00  0.00    -0.075 A 
ATOM      2  C4  UNL d   1       1.517   2.691  -2.398  0.00  0.00     0.002 A 
ATOM      3  C5  UNL d   1       0.805   2.101  -3.442  0.00  0.00     0.002 A 
ATOM      4  C6  UNL d   1       0.513   0.739  -3.408  0.00  0.00    -0.004 A 
ATOM      5  C7  UNL d   1       0.940  -0.034  -2.330  0.00  0.00     0.002 A 
ATOM      6  C8  UNL d   1       1.649   0.555  -1.282  0.00  0.00     0.002 A 
ENDROOT
BRANCH   1   7
ATOM      7  C2  UNL d   1       2.682   2.565  -0.153  0.00  0.00     0.056 C 
BRANCH   7   8
ATOM      8  C1  UNL d   1       4.169   2.808  -0.433  0.00  0.00     0.007 C 
ATOM      9  C   UNL d   1       4.613   4.232  -0.123  0.00  0.00     0.009 C 
ENDBRANCH   7   8
ENDBRANCH   1   7
TORSDOF 2
ENDMDL
