MODEL 1
REMARK minimizedAffinity 14.7359276
REMARK minimizedRMSD -1
REMARK  2 active torsions:
REMARK  status: ('A' for Active; 'I' for Inactive)
REMARK    1  A    between atoms: C1_2  and  C2_3 
REMARK    2  A    between atoms: C2_3  and  C3_4 
ROOT
ATOM      1  C3  UNL d   1      -3.247  -2.086   0.661  0.00  0.00    -0.075 A 
ATOM      2  C4  UNL d   1      -2.313  -1.860  -0.361  0.00  0.00     0.002 A 
ATOM      3  C5  UNL d   1      -0.975  -2.212  -0.189  0.00  0.00     0.002 A 
ATOM      4  C6  UNL d   1      -0.550  -2.783   1.009  0.00  0.00    -0.004 A 
ATOM      5  C7  UNL d   1      -1.465  -2.997   2.037  0.00  0.00     0.002 A 
ATOM      6  C8  UNL d   1      -2.806  -2.650   1.866  0.00  0.00     0.002 A 
ENDROOT
BRANCH   1   7
ATOM      7  C2  UNL d   1      -4.703  -1.734   0.470  0.00  0.00     0.056 C 
BRANCH   7   8
ATOM      8  C1  UNL d   1      -5.669  -2.640   1.238  0.00  0.00     0.007 C 
ATOM      9  C   UNL d   1      -5.999  -3.931   0.499  0.00  0.00     0.009 C 
ENDBRANCH   7   8
ENDBRANCH   1   7
TORSDOF 2
ENDMDL
