MODEL 1
REMARK minimizedAffinity 8.99048519
REMARK minimizedRMSD -1
REMARK  2 active torsions:
REMARK  status: ('A' for Active; 'I' for Inactive)
REMARK    1  A    between atoms: C1_2  and  C2_3 
REMARK    2  A    between atoms: C2_3  and  C3_4 
ROOT
ATOM      1  C3  UNL d   1      -3.582   0.068   5.506  0.00  0.00    -0.075 A 
ATOM      2  C4  UNL d   1      -4.887  -0.445   5.520  0.00  0.00     0.002 A 
ATOM      3  C5  UNL d   1      -5.976   0.394   5.757  0.00  0.00     0.002 A 
ATOM      4  C6  UNL d   1      -5.774   1.752   5.994  0.00  0.00    -0.004 A 
ATOM      5  C7  UNL d   1      -4.481   2.270   6.000  0.00  0.00     0.002 A 
ATOM      6  C8  UNL d   1      -3.390   1.433   5.758  0.00  0.00     0.002 A 
ENDROOT
BRANCH   1   7
ATOM      7  C2  UNL d   1      -2.401  -0.829   5.221  0.00  0.00     0.056 C 
BRANCH   7   8
ATOM      8  C1  UNL d   1      -2.633  -1.819   4.074  0.00  0.00     0.007 C 
ATOM      9  C   UNL d   1      -1.603  -2.940   4.032  0.00  0.00     0.009 C 
ENDBRANCH   7   8
ENDBRANCH   1   7
TORSDOF 2
ENDMDL
