MODEL 1
REMARK minimizedAffinity 10.9972801
REMARK minimizedRMSD -1
REMARK  2 active torsions:
REMARK  status: ('A' for Active; 'I' for Inactive)
REMARK    1  A    between atoms: C1_2  and  C2_3 
REMARK    2  A    between atoms: C2_3  and  C3_4 
ROOT
ATOM      1  C3  UNL d   1      -1.832  -1.880  -0.438  0.00  0.00    -0.075 A 
ATOM      2  C4  UNL d   1      -3.055  -1.204  -0.320  0.00  0.00     0.002 A 
ATOM      3  C5  UNL d   1      -3.552  -0.449  -1.382  0.00  0.00     0.002 A 
ATOM      4  C6  UNL d   1      -2.829  -0.350  -2.569  0.00  0.00    -0.004 A 
ATOM      5  C7  UNL d   1      -1.605  -1.004  -2.691  0.00  0.00     0.002 A 
ATOM      6  C8  UNL d   1      -1.107  -1.764  -1.632  0.00  0.00     0.002 A 
ENDROOT
BRANCH   1   7
ATOM      7  C2  UNL d   1      -1.303  -2.724   0.698  0.00  0.00     0.056 C 
BRANCH   7   8
ATOM      8  C1  UNL d   1      -0.112  -3.608   0.315  0.00  0.00     0.007 C 
ATOM      9  C   UNL d   1      -0.519  -4.881  -0.416  0.00  0.00     0.009 C 
ENDBRANCH   7   8
ENDBRANCH   1   7
TORSDOF 2
ENDMDL
