MODEL 1
REMARK minimizedAffinity 5.70811892
REMARK minimizedRMSD -1
REMARK  2 active torsions:
REMARK  status: ('A' for Active; 'I' for Inactive)
REMARK    1  A    between atoms: C1_2  and  C2_3 
REMARK    2  A    between atoms: C2_3  and  C3_4 
ROOT
ATOM      1  C3  UNL d   1      -3.265  -0.059   5.555  0.00  0.00    -0.075 A 
ATOM      2  C4  UNL d   1      -4.431  -0.838   5.600  0.00  0.00     0.002 A 
ATOM      3  C5  UNL d   1      -5.673  -0.241   5.816  0.00  0.00     0.002 A 
ATOM      4  C6  UNL d   1      -5.765   1.137   6.000  0.00  0.00    -0.004 A 
ATOM      5  C7  UNL d   1      -4.612   1.918   5.974  0.00  0.00     0.002 A 
ATOM      6  C8  UNL d   1      -3.368   1.324   5.753  0.00  0.00     0.002 A 
ENDROOT
BRANCH   1   7
ATOM      7  C2  UNL d   1      -1.921  -0.695   5.292  0.00  0.00     0.056 C 
BRANCH   7   8
ATOM      8  C1  UNL d   1      -1.998  -2.168   4.878  0.00  0.00     0.007 C 
ATOM      9  C   UNL d   1      -2.145  -2.363   3.375  0.00  0.00     0.009 C 
ENDBRANCH   7   8
ENDBRANCH   1   7
TORSDOF 2
ENDMDL
