MODEL 1
REMARK minimizedAffinity 4.63601494
REMARK minimizedRMSD -1
REMARK  2 active torsions:
REMARK  status: ('A' for Active; 'I' for Inactive)
REMARK    1  A    between atoms: C1_2  and  C2_3 
REMARK    2  A    between atoms: C2_3  and  C3_4 
ROOT
ATOM      1  C3  UNL d   1       2.887   1.785  -0.740  0.00  0.00    -0.075 A 
ATOM      2  C4  UNL d   1       3.516   2.609  -1.686  0.00  0.00     0.002 A 
ATOM      3  C5  UNL d   1       4.279   3.703  -1.276  0.00  0.00     0.002 A 
ATOM      4  C6  UNL d   1       4.414   3.993   0.079  0.00  0.00    -0.004 A 
ATOM      5  C7  UNL d   1       3.781   3.192   1.027  0.00  0.00     0.002 A 
ATOM      6  C8  UNL d   1       3.020   2.094   0.620  0.00  0.00     0.002 A 
ENDROOT
BRANCH   1   7
ATOM      7  C2  UNL d   1       2.085   0.583  -1.176  0.00  0.00     0.056 C 
BRANCH   7   8
ATOM      8  C1  UNL d   1       2.592  -0.073  -2.464  0.00  0.00     0.007 C 
ATOM      9  C   UNL d   1       1.483  -0.711  -3.290  0.00  0.00     0.009 C 
ENDBRANCH   7   8
ENDBRANCH   1   7
TORSDOF 2
ENDMDL
