MODEL 1
REMARK minimizedAffinity 12.4946527
REMARK minimizedRMSD -1
REMARK  2 active torsions:
REMARK  status: ('A' for Active; 'I' for Inactive)
REMARK    1  A    between atoms: C1_2  and  C2_3 
REMARK    2  A    between atoms: C2_3  and  C3_4 
ROOT
ATOM      1  C3  UNL d   1       3.939   3.000  -0.295  0.00  0.00    -0.075 A 
ATOM      2  C4  UNL d   1       5.069   2.881  -1.117  0.00  0.00     0.002 A 
ATOM      3  C5  UNL d   1       6.000   3.917  -1.194  0.00  0.00     0.002 A 
ATOM      4  C6  UNL d   1       5.809   5.086  -0.461  0.00  0.00    -0.004 A 
ATOM      5  C7  UNL d   1       4.681   5.221   0.346  0.00  0.00     0.002 A 
ATOM      6  C8  UNL d   1       3.750   4.185   0.429  0.00  0.00     0.002 A 
ENDROOT
BRANCH   1   7
ATOM      7  C2  UNL d   1       2.942   1.871  -0.184  0.00  0.00     0.056 C 
BRANCH   7   8
ATOM      8  C1  UNL d   1       2.252   1.515  -1.505  0.00  0.00     0.007 C 
ATOM      9  C   UNL d   1       2.611   0.125  -2.014  0.00  0.00     0.009 C 
ENDBRANCH   7   8
ENDBRANCH   1   7
TORSDOF 2
ENDMDL
