MODEL 1
REMARK minimizedAffinity 9.82308578
REMARK minimizedRMSD -1
REMARK  2 active torsions:
REMARK  status: ('A' for Active; 'I' for Inactive)
REMARK    1  A    between atoms: C1_2  and  C2_3 
REMARK    2  A    between atoms: C2_3  and  C3_4 
ROOT
ATOM      1  C3  UNL d   1      -1.960  -2.870   1.248  0.00  0.00    -0.075 A 
ATOM      2  C4  UNL d   1      -0.891  -3.217   0.409  0.00  0.00     0.002 A 
ATOM      3  C5  UNL d   1      -0.628  -2.478  -0.746  0.00  0.00     0.002 A 
ATOM      4  C6  UNL d   1      -1.434  -1.393  -1.080  0.00  0.00    -0.004 A 
ATOM      5  C7  UNL d   1      -2.509  -1.049  -0.263  0.00  0.00     0.002 A 
ATOM      6  C8  UNL d   1      -2.772  -1.784   0.895  0.00  0.00     0.002 A 
ENDROOT
BRANCH   1   7
ATOM      7  C2  UNL d   1      -2.232  -3.647   2.514  0.00  0.00     0.056 C 
BRANCH   7   8
ATOM      8  C1  UNL d   1      -3.017  -2.863   3.571  0.00  0.00     0.007 C 
ATOM      9  C   UNL d   1      -2.211  -1.736   4.204  0.00  0.00     0.009 C 
ENDBRANCH   7   8
ENDBRANCH   1   7
TORSDOF 2
ENDMDL
