MODEL 1
REMARK minimizedAffinity 11.3810692
REMARK minimizedRMSD -1
REMARK  2 active torsions:
REMARK  status: ('A' for Active; 'I' for Inactive)
REMARK    1  A    between atoms: C1_2  and  C2_3 
REMARK    2  A    between atoms: C2_3  and  C3_4 
ROOT
ATOM      1  C3  UNL d   1      -0.159  -2.925  -1.269  0.00  0.00    -0.075 A 
ATOM      2  C4  UNL d   1      -0.041  -3.943  -2.226  0.00  0.00     0.002 A 
ATOM      3  C5  UNL d   1       0.065  -5.277  -1.831  0.00  0.00     0.002 A 
ATOM      4  C6  UNL d   1       0.064  -5.608  -0.478  0.00  0.00    -0.004 A 
ATOM      5  C7  UNL d   1      -0.036  -4.603   0.482  0.00  0.00     0.002 A 
ATOM      6  C8  UNL d   1      -0.146  -3.268   0.089  0.00  0.00     0.002 A 
ENDROOT
BRANCH   1   7
ATOM      7  C2  UNL d   1      -0.303  -1.482  -1.691  0.00  0.00     0.056 C 
BRANCH   7   8
ATOM      8  C1  UNL d   1       0.659  -1.059  -2.806  0.00  0.00     0.007 C 
ATOM      9  C   UNL d   1       1.724  -0.076  -2.340  0.00  0.00     0.009 C 
ENDBRANCH   7   8
ENDBRANCH   1   7
TORSDOF 2
ENDMDL
