MODEL 1
REMARK minimizedAffinity -3.95248246
REMARK minimizedRMSD -1
REMARK  1 active torsions:
REMARK  status: ('A' for Active; 'I' for Inactive)
REMARK    1  A    between atoms: C1_2  and  C2_3 
ROOT
ATOM      1  C2  UNL d   1       1.303   0.687   0.564  0.00  0.00    -0.081 A 
ATOM      2  C3  UNL d   1       0.894   0.635  -0.775  0.00  0.00     0.006 A 
ATOM      3  C4  UNL d   1      -0.348   0.093  -1.116  0.00  0.00     0.002 A 
ATOM      4  C5  UNL d   1      -1.204  -0.397  -0.125  0.00  0.00    -0.080 A 
ATOM      5  C6  UNL d   1      -2.553  -0.953  -0.474  0.00  0.00     0.076 C 
ATOM      6  C7  UNL d   1      -0.789  -0.361   1.211  0.00  0.00     0.002 A 
ATOM      7  C8  UNL d   1       0.453   0.179   1.552  0.00  0.00     0.006 A 
ENDROOT
BRANCH   1   8
ATOM      8  C1  UNL d   1       2.613   1.329   0.941  0.00  0.00     0.054 C 
ATOM      9  C   UNL d   1       2.874   2.580   0.114  0.00  0.00     0.018 C 
ENDBRANCH   1   8
TORSDOF 1
ENDMDL
