MODEL 1
REMARK minimizedAffinity 1.61756527
REMARK minimizedRMSD -1
REMARK  1 active torsions:
REMARK  status: ('A' for Active; 'I' for Inactive)
REMARK    1  A    between atoms: C1_2  and  C2_3 
ROOT
ATOM      1  C2  UNL d   1       1.631   1.086  -0.209  0.00  0.00    -0.081 A 
ATOM      2  C3  UNL d   1       1.295  -0.109   0.439  0.00  0.00     0.006 A 
ATOM      3  C4  UNL d   1       0.125  -0.793   0.100  0.00  0.00     0.002 A 
ATOM      4  C5  UNL d   1      -0.723  -0.299  -0.897  0.00  0.00    -0.080 A 
ATOM      5  C6  UNL d   1      -1.966  -1.040  -1.292  0.00  0.00     0.076 C 
ATOM      6  C7  UNL d   1      -0.395   0.903  -1.532  0.00  0.00     0.002 A 
ATOM      7  C8  UNL d   1       0.774   1.588  -1.193  0.00  0.00     0.006 A 
ENDROOT
BRANCH   1   8
ATOM      8  C1  UNL d   1       2.924   1.792   0.109  0.00  0.00     0.054 C 
ATOM      9  C   UNL d   1       2.708   3.288   0.292  0.00  0.00     0.018 C 
ENDBRANCH   1   8
TORSDOF 1
ENDMDL
