MODEL 1
REMARK minimizedAffinity -0.975034416
REMARK minimizedRMSD -1
REMARK  1 active torsions:
REMARK  status: ('A' for Active; 'I' for Inactive)
REMARK    1  A    between atoms: C1_2  and  C2_3 
ROOT
ATOM      1  C2  UNL d   1       1.050   0.809  -0.009  0.00  0.00    -0.081 A 
ATOM      2  C3  UNL d   1       0.349   1.228  -1.147  0.00  0.00     0.006 A 
ATOM      3  C4  UNL d   1      -0.796   0.545  -1.564  0.00  0.00     0.002 A 
ATOM      4  C5  UNL d   1      -1.263  -0.562  -0.847  0.00  0.00    -0.080 A 
ATOM      5  C6  UNL d   1      -2.508  -1.285  -1.266  0.00  0.00     0.076 C 
ATOM      6  C7  UNL d   1      -0.552  -0.991   0.279  0.00  0.00     0.002 A 
ATOM      7  C8  UNL d   1       0.593  -0.309   0.696  0.00  0.00     0.006 A 
ENDROOT
BRANCH   1   8
ATOM      8  C1  UNL d   1       2.248   1.582   0.480  0.00  0.00     0.054 C 
ATOM      9  C   UNL d   1       1.942   2.313   1.780  0.00  0.00     0.018 C 
ENDBRANCH   1   8
TORSDOF 1
ENDMDL
