MODEL 1
REMARK minimizedAffinity -3.21719408
REMARK minimizedRMSD -1
REMARK  1 active torsions:
REMARK  status: ('A' for Active; 'I' for Inactive)
REMARK    1  A    between atoms: C1_2  and  C2_3 
ROOT
ATOM      1  C2  UNL d   1       0.203  -0.815   1.460  0.00  0.00    -0.081 A 
ATOM      2  C3  UNL d   1       0.624  -1.994   2.086  0.00  0.00     0.006 A 
ATOM      3  C4  UNL d   1      -0.201  -2.639   3.010  0.00  0.00     0.002 A 
ATOM      4  C5  UNL d   1      -1.463  -2.119   3.318  0.00  0.00    -0.080 A 
ATOM      5  C6  UNL d   1      -2.371  -2.818   4.286  0.00  0.00     0.076 C 
ATOM      6  C7  UNL d   1      -1.877  -0.932   2.706  0.00  0.00     0.002 A 
ATOM      7  C8  UNL d   1      -1.052  -0.286   1.782  0.00  0.00     0.006 A 
ENDROOT
BRANCH   1   8
ATOM      8  C1  UNL d   1       1.064  -0.153   0.414  0.00  0.00     0.054 C 
ATOM      9  C   UNL d   1       0.307   0.024  -0.895  0.00  0.00     0.018 C 
ENDBRANCH   1   8
TORSDOF 1
ENDMDL
