MODEL 1
REMARK minimizedAffinity 1.89168334
REMARK minimizedRMSD -1
REMARK  1 active torsions:
REMARK  status: ('A' for Active; 'I' for Inactive)
REMARK    1  A    between atoms: C1_2  and  C2_3 
ROOT
ATOM      1  C2  UNL d   1       1.626   1.698   2.539  0.00  0.00    -0.081 A 
ATOM      2  C3  UNL d   1       2.229   0.471   2.236  0.00  0.00     0.006 A 
ATOM      3  C4  UNL d   1       1.455  -0.685   2.107  0.00  0.00     0.002 A 
ATOM      4  C5  UNL d   1       0.067  -0.632   2.272  0.00  0.00    -0.080 A 
ATOM      5  C6  UNL d   1      -0.779  -1.860   2.106  0.00  0.00     0.076 C 
ATOM      6  C7  UNL d   1      -0.533   0.590   2.592  0.00  0.00     0.002 A 
ATOM      7  C8  UNL d   1       0.240   1.746   2.721  0.00  0.00     0.006 A 
ENDROOT
BRANCH   1   8
ATOM      8  C1  UNL d   1       2.450   2.958   2.615  0.00  0.00     0.054 C 
ATOM      9  C   UNL d   1       3.301   3.138   1.366  0.00  0.00     0.018 C 
ENDBRANCH   1   8
TORSDOF 1
ENDMDL
