MODEL 1
REMARK minimizedAffinity 0.223994225
REMARK minimizedRMSD -1
REMARK  1 active torsions:
REMARK  status: ('A' for Active; 'I' for Inactive)
REMARK    1  A    between atoms: C1_2  and  C2_3 
ROOT
ATOM      1  C2  UNL d   1      -3.754  -1.499   0.171  0.00  0.00    -0.081 A 
ATOM      2  C3  UNL d   1      -2.628  -1.992  -0.499  0.00  0.00     0.006 A 
ATOM      3  C4  UNL d   1      -1.890  -1.163  -1.347  0.00  0.00     0.002 A 
ATOM      4  C5  UNL d   1      -2.261   0.173  -1.534  0.00  0.00    -0.080 A 
ATOM      5  C6  UNL d   1      -1.460   1.081  -2.418  0.00  0.00     0.076 C 
ATOM      6  C7  UNL d   1      -3.397   0.660  -0.878  0.00  0.00     0.002 A 
ATOM      7  C8  UNL d   1      -4.135  -0.168  -0.030  0.00  0.00     0.006 A 
ENDROOT
BRANCH   1   8
ATOM      8  C1  UNL d   1      -4.514  -2.372   1.137  0.00  0.00     0.054 C 
ATOM      9  C   UNL d   1      -6.000  -2.041   1.131  0.00  0.00     0.018 C 
ENDBRANCH   1   8
TORSDOF 1
ENDMDL
