MODEL 1
REMARK minimizedAffinity 3.85238791
REMARK minimizedRMSD -1
REMARK  1 active torsions:
REMARK  status: ('A' for Active; 'I' for Inactive)
REMARK    1  A    between atoms: C1_2  and  C2_3 
ROOT
ATOM      1  C2  UNL d   1      -0.915  -1.066   0.152  0.00  0.00    -0.081 A 
ATOM      2  C3  UNL d   1       0.452  -0.765   0.121  0.00  0.00     0.006 A 
ATOM      3  C4  UNL d   1       1.293  -1.182   1.155  0.00  0.00     0.002 A 
ATOM      4  C5  UNL d   1       0.783  -1.913   2.234  0.00  0.00    -0.080 A 
ATOM      5  C6  UNL d   1       1.680  -2.392   3.336  0.00  0.00     0.076 C 
ATOM      6  C7  UNL d   1      -0.586  -2.198   2.274  0.00  0.00     0.002 A 
ATOM      7  C8  UNL d   1      -1.428  -1.781   1.240  0.00  0.00     0.006 A 
ENDROOT
BRANCH   1   8
ATOM      8  C1  UNL d   1      -1.813  -0.674  -0.993  0.00  0.00     0.054 C 
ATOM      9  C   UNL d   1      -1.029   0.018  -2.099  0.00  0.00     0.018 C 
ENDBRANCH   1   8
TORSDOF 1
ENDMDL
