MODEL 1
REMARK minimizedAffinity 4.52910185
REMARK minimizedRMSD -1
REMARK  1 active torsions:
REMARK  status: ('A' for Active; 'I' for Inactive)
REMARK    1  A    between atoms: C1_2  and  C2_3 
ROOT
ATOM      1  C2  UNL d   1      -1.797  -0.182  -1.606  0.00  0.00    -0.081 A 
ATOM      2  C3  UNL d   1      -0.517  -0.651  -1.924  0.00  0.00     0.006 A 
ATOM      3  C4  UNL d   1       0.329   0.099  -2.745  0.00  0.00     0.002 A 
ATOM      4  C5  UNL d   1      -0.089   1.333  -3.256  0.00  0.00    -0.080 A 
ATOM      5  C6  UNL d   1       0.820   2.161  -4.114  0.00  0.00     0.076 C 
ATOM      6  C7  UNL d   1      -1.374   1.793  -2.953  0.00  0.00     0.002 A 
ATOM      7  C8  UNL d   1      -2.220   1.044  -2.132  0.00  0.00     0.006 A 
ENDROOT
BRANCH   1   8
ATOM      8  C1  UNL d   1      -2.687  -0.957  -0.668  0.00  0.00     0.054 C 
ATOM      9  C   UNL d   1      -1.880  -1.619   0.439  0.00  0.00     0.018 C 
ENDBRANCH   1   8
TORSDOF 1
ENDMDL
