MODEL 1
REMARK minimizedAffinity 7.78074217
REMARK minimizedRMSD -1
REMARK  1 active torsions:
REMARK  status: ('A' for Active; 'I' for Inactive)
REMARK    1  A    between atoms: C1_2  and  C2_3 
ROOT
ATOM      1  C2  UNL d   1      -2.020  -0.783  -1.018  0.00  0.00    -0.081 A 
ATOM      2  C3  UNL d   1      -0.772  -0.701  -1.649  0.00  0.00     0.006 A 
ATOM      3  C4  UNL d   1      -0.538   0.262  -2.634  0.00  0.00     0.002 A 
ATOM      4  C5  UNL d   1      -1.544   1.163  -2.999  0.00  0.00    -0.080 A 
ATOM      5  C6  UNL d   1      -1.297   2.220  -4.033  0.00  0.00     0.076 C 
ATOM      6  C7  UNL d   1      -2.796   1.069  -2.381  0.00  0.00     0.002 A 
ATOM      7  C8  UNL d   1      -3.031   0.107  -1.397  0.00  0.00     0.006 A 
ENDROOT
BRANCH   1   8
ATOM      8  C1  UNL d   1      -2.255  -1.778   0.089  0.00  0.00     0.054 C 
ATOM      9  C   UNL d   1      -1.121  -1.754   1.105  0.00  0.00     0.018 C 
ENDBRANCH   1   8
TORSDOF 1
ENDMDL
