MODEL 1
REMARK minimizedAffinity 3.67753243
REMARK minimizedRMSD -1
REMARK  1 active torsions:
REMARK  status: ('A' for Active; 'I' for Inactive)
REMARK    1  A    between atoms: C1_2  and  C2_3 
ROOT
ATOM      1  C2  UNL d   1      -0.801   1.514  -3.420  0.00  0.00    -0.081 A 
ATOM      2  C3  UNL d   1      -2.124   1.704  -3.002  0.00  0.00     0.006 A 
ATOM      3  C4  UNL d   1      -2.721   0.807  -2.112  0.00  0.00     0.002 A 
ATOM      4  C5  UNL d   1      -2.003  -0.288  -1.620  0.00  0.00    -0.080 A 
ATOM      5  C6  UNL d   1      -2.622  -1.241  -0.640  0.00  0.00     0.076 C 
ATOM      6  C7  UNL d   1      -0.687  -0.487  -2.051  0.00  0.00     0.002 A 
ATOM      7  C8  UNL d   1      -0.090   0.408  -2.942  0.00  0.00     0.006 A 
ENDROOT
BRANCH   1   8
ATOM      8  C1  UNL d   1      -0.134   2.515  -4.329  0.00  0.00     0.054 C 
ATOM      9  C   UNL d   1       0.830   1.833  -5.289  0.00  0.00     0.018 C 
ENDBRANCH   1   8
TORSDOF 1
ENDMDL
