MODEL 1
REMARK minimizedAffinity -2.38817859
REMARK minimizedRMSD -1
REMARK  1 active torsions:
REMARK  status: ('A' for Active; 'I' for Inactive)
REMARK    1  A    between atoms: C1_2  and  C2_3 
ROOT
ATOM      1  C2  UNL d   1       5.190   3.621  -2.882  0.00  0.00    -0.081 A 
ATOM      2  C3  UNL d   1       4.124   4.495  -2.634  0.00  0.00     0.006 A 
ATOM      3  C4  UNL d   1       3.415   4.425  -1.433  0.00  0.00     0.002 A 
ATOM      4  C5  UNL d   1       3.765   3.486  -0.456  0.00  0.00    -0.080 A 
ATOM      5  C6  UNL d   1       3.031   3.421   0.850  0.00  0.00     0.076 C 
ATOM      6  C7  UNL d   1       4.818   2.601  -0.710  0.00  0.00     0.002 A 
ATOM      7  C8  UNL d   1       5.527   2.670  -1.912  0.00  0.00     0.006 A 
ENDROOT
BRANCH   1   8
ATOM      8  C1  UNL d   1       5.998   3.736  -4.149  0.00  0.00     0.054 C 
ATOM      9  C   UNL d   1       5.998   5.164  -4.677  0.00  0.00     0.018 C 
ENDBRANCH   1   8
TORSDOF 1
ENDMDL
