MODEL 1
REMARK minimizedAffinity 8.32222939
REMARK minimizedRMSD -1
REMARK  1 active torsions:
REMARK  status: ('A' for Active; 'I' for Inactive)
REMARK    1  A    between atoms: C1_2  and  C2_3 
ROOT
ATOM      1  C2  UNL d   1       1.848   1.015   1.272  0.00  0.00    -0.081 A 
ATOM      2  C3  UNL d   1       2.101   2.344   1.634  0.00  0.00     0.006 A 
ATOM      3  C4  UNL d   1       2.681   3.228   0.721  0.00  0.00     0.002 A 
ATOM      4  C5  UNL d   1       3.011   2.801  -0.570  0.00  0.00    -0.080 A 
ATOM      5  C6  UNL d   1       3.606   3.747  -1.569  0.00  0.00     0.076 C 
ATOM      6  C7  UNL d   1       2.774   1.468  -0.926  0.00  0.00     0.002 A 
ATOM      7  C8  UNL d   1       2.194   0.584  -0.013  0.00  0.00     0.006 A 
ENDROOT
BRANCH   1   8
ATOM      8  C1  UNL d   1       1.163   0.077   2.232  0.00  0.00     0.054 C 
ATOM      9  C   UNL d   1       0.708  -1.196   1.533  0.00  0.00     0.018 C 
ENDBRANCH   1   8
TORSDOF 1
ENDMDL
