MODEL 1
REMARK minimizedAffinity 10.1090488
REMARK minimizedRMSD -1
REMARK  1 active torsions:
REMARK  status: ('A' for Active; 'I' for Inactive)
REMARK    1  A    between atoms: N_2  and  C1_3 
ROOT
ATOM      1  C1  UNL d   1      -1.720  -5.470  -4.507  0.00  0.00     0.143 A 
ATOM      2  C2  UNL d   1      -0.423  -5.982  -4.618  0.00  0.00    -0.057 A 
ATOM      3  C3  UNL d   1       0.664  -5.348  -4.003  0.00  0.00     0.033 A 
ATOM      4  C4  UNL d   1       0.475  -4.169  -3.288  0.00  0.00    -0.042 A 
ATOM      5  C5  UNL d   1      -0.802  -3.629  -3.186  0.00  0.00     0.033 A 
ATOM      6  C6  UNL d   1      -1.883  -4.270  -3.796  0.00  0.00    -0.057 A 
ENDROOT
BRANCH   1   7
ATOM      7  N   UNL d   1      -2.825  -6.000  -5.177  0.00  0.00    -0.732 N 
ATOM      8  C   UNL d   1      -4.141  -5.959  -4.575  0.00  0.00     0.284 C 
ATOM      9  H3  UNL d   1      -2.816  -5.785  -6.171  0.00  0.00     0.395 HD
ENDBRANCH   1   7
TORSDOF 1
ENDMDL
