MODEL 1
REMARK minimizedAffinity 7.1610136
REMARK minimizedRMSD -1
REMARK  1 active torsions:
REMARK  status: ('A' for Active; 'I' for Inactive)
REMARK    1  A    between atoms: N_2  and  C1_3 
ROOT
ATOM      1  C1  UNL d   1      -1.079  -0.269   2.707  0.00  0.00     0.143 A 
ATOM      2  C2  UNL d   1      -1.450  -1.129   1.668  0.00  0.00    -0.057 A 
ATOM      3  C3  UNL d   1      -2.536  -0.834   0.834  0.00  0.00     0.033 A 
ATOM      4  C4  UNL d   1      -3.290   0.316   1.044  0.00  0.00    -0.042 A 
ATOM      5  C5  UNL d   1      -2.955   1.172   2.087  0.00  0.00     0.033 A 
ATOM      6  C6  UNL d   1      -1.866   0.875   2.912  0.00  0.00    -0.057 A 
ENDROOT
BRANCH   1   7
ATOM      7  N   UNL d   1      -0.072  -0.556   3.632  0.00  0.00    -0.732 N 
ATOM      8  C   UNL d   1       0.877  -1.620   3.382  0.00  0.00     0.284 C 
ATOM      9  H3  UNL d   1       0.341   0.284   4.029  0.00  0.00     0.395 HD
ENDBRANCH   1   7
TORSDOF 1
ENDMDL
