MODEL 1
REMARK minimizedAffinity 6.77228832
REMARK minimizedRMSD -1
REMARK  1 active torsions:
REMARK  status: ('A' for Active; 'I' for Inactive)
REMARK    1  A    between atoms: N_2  and  C1_3 
ROOT
ATOM      1  C1  UNL d   1      -4.170  -4.729   3.259  0.00  0.00     0.143 A 
ATOM      2  C2  UNL d   1      -4.496  -5.943   3.874  0.00  0.00    -0.057 A 
ATOM      3  C3  UNL d   1      -4.850  -5.999   5.228  0.00  0.00     0.033 A 
ATOM      4  C4  UNL d   1      -4.856  -4.842   6.000  0.00  0.00    -0.042 A 
ATOM      5  C5  UNL d   1      -4.511  -3.629   5.416  0.00  0.00     0.033 A 
ATOM      6  C6  UNL d   1      -4.165  -3.578   4.062  0.00  0.00    -0.057 A 
ENDROOT
BRANCH   1   7
ATOM      7  N   UNL d   1      -3.714  -4.622   1.943  0.00  0.00    -0.732 N 
ATOM      8  C   UNL d   1      -3.042  -3.423   1.491  0.00  0.00     0.284 C 
ATOM      9  H3  UNL d   1      -3.296  -5.486   1.605  0.00  0.00     0.395 HD
ENDBRANCH   1   7
TORSDOF 1
ENDMDL
