MODEL 1
REMARK minimizedAffinity 11.7405977
REMARK minimizedRMSD -1
REMARK  1 active torsions:
REMARK  status: ('A' for Active; 'I' for Inactive)
REMARK    1  A    between atoms: N_2  and  C1_3 
ROOT
ATOM      1  C1  UNL d   1       4.527  -3.336  -0.642  0.00  0.00     0.143 A 
ATOM      2  C2  UNL d   1       3.551  -4.329  -0.782  0.00  0.00    -0.057 A 
ATOM      3  C3  UNL d   1       3.780  -5.638  -0.341  0.00  0.00     0.033 A 
ATOM      4  C4  UNL d   1       5.003  -5.985   0.223  0.00  0.00    -0.042 A 
ATOM      5  C5  UNL d   1       5.996  -5.021   0.349  0.00  0.00     0.033 A 
ATOM      6  C6  UNL d   1       5.760  -3.713  -0.087  0.00  0.00    -0.057 A 
ENDROOT
BRANCH   1   7
ATOM      7  N   UNL d   1       4.397  -2.041  -1.149  0.00  0.00    -0.732 N 
ATOM      8  C   UNL d   1       3.698  -1.021  -0.396  0.00  0.00     0.284 C 
ATOM      9  H3  UNL d   1       5.247  -1.714  -1.602  0.00  0.00     0.395 HD
ENDBRANCH   1   7
TORSDOF 1
ENDMDL
