MODEL 1
REMARK minimizedAffinity 12.8132582
REMARK minimizedRMSD -1
REMARK  1 active torsions:
REMARK  status: ('A' for Active; 'I' for Inactive)
REMARK    1  A    between atoms: N_2  and  C1_3 
ROOT
ATOM      1  C1  UNL d   1       2.352   2.103  -1.760  0.00  0.00     0.143 A 
ATOM      2  C2  UNL d   1       3.330   1.113  -1.614  0.00  0.00    -0.057 A 
ATOM      3  C3  UNL d   1       3.661   0.599  -0.354  0.00  0.00     0.033 A 
ATOM      4  C4  UNL d   1       3.038   1.090   0.789  0.00  0.00    -0.042 A 
ATOM      5  C5  UNL d   1       2.081   2.091   0.670  0.00  0.00     0.033 A 
ATOM      6  C6  UNL d   1       1.750   2.595  -0.592  0.00  0.00    -0.057 A 
ENDROOT
BRANCH   1   7
ATOM      7  N   UNL d   1       2.049   2.724  -2.974  0.00  0.00    -0.732 N 
ATOM      8  C   UNL d   1       3.083   3.381  -3.745  0.00  0.00     0.284 C 
ATOM      9  H3  UNL d   1       1.394   2.182  -3.534  0.00  0.00     0.395 HD
ENDBRANCH   1   7
TORSDOF 1
ENDMDL
