MODEL 1
REMARK minimizedAffinity 11.6236858
REMARK minimizedRMSD -1
REMARK  1 active torsions:
REMARK  status: ('A' for Active; 'I' for Inactive)
REMARK    1  A    between atoms: N_2  and  C1_3 
ROOT
ATOM      1  C1  UNL d   1      -2.906   5.507  -3.721  0.00  0.00     0.143 A 
ATOM      2  C2  UNL d   1      -4.161   5.507  -3.103  0.00  0.00    -0.057 A 
ATOM      3  C3  UNL d   1      -4.285   5.534  -1.709  0.00  0.00     0.033 A 
ATOM      4  C4  UNL d   1      -3.150   5.532  -0.904  0.00  0.00    -0.042 A 
ATOM      5  C5  UNL d   1      -1.892   5.507  -1.495  0.00  0.00     0.033 A 
ATOM      6  C6  UNL d   1      -1.776   5.486  -2.888  0.00  0.00    -0.057 A 
ENDROOT
BRANCH   1   7
ATOM      7  N   UNL d   1      -2.717   5.380  -5.099  0.00  0.00    -0.732 N 
ATOM      8  C   UNL d   1      -1.384   5.291  -5.655  0.00  0.00     0.284 C 
ATOM      9  H3  UNL d   1      -3.389   4.748  -5.527  0.00  0.00     0.395 HD
ENDBRANCH   1   7
TORSDOF 1
ENDMDL
