MODEL 1
REMARK minimizedAffinity 13.7350855
REMARK minimizedRMSD -1
REMARK  1 active torsions:
REMARK  status: ('A' for Active; 'I' for Inactive)
REMARK    1  A    between atoms: N_2  and  C1_3 
ROOT
ATOM      1  C1  UNL d   1       4.297   2.220   1.045  0.00  0.00     0.143 A 
ATOM      2  C2  UNL d   1       2.901   2.251   1.119  0.00  0.00    -0.057 A 
ATOM      3  C3  UNL d   1       2.110   1.519   0.225  0.00  0.00     0.033 A 
ATOM      4  C4  UNL d   1       2.704   0.763  -0.780  0.00  0.00    -0.042 A 
ATOM      5  C5  UNL d   1       4.090   0.738  -0.888  0.00  0.00     0.033 A 
ATOM      6  C6  UNL d   1       4.874   1.466   0.011  0.00  0.00    -0.057 A 
ENDROOT
BRANCH   1   7
ATOM      7  N   UNL d   1       5.136   3.003   1.842  0.00  0.00    -0.732 N 
ATOM      8  C   UNL d   1       6.000   4.000   1.246  0.00  0.00     0.284 C 
ATOM      9  H3  UNL d   1       4.684   3.305   2.702  0.00  0.00     0.395 HD
ENDBRANCH   1   7
TORSDOF 1
ENDMDL
