MODEL 1
REMARK minimizedAffinity 1.80316818
REMARK minimizedRMSD -1
REMARK  0 active torsions:
REMARK  status: ('A' for Active; 'I' for Inactive)
ROOT
ATOM      1  C2' OXE d   1       5.998  -0.355   5.250  0.00  0.00     0.078 C 
ATOM      2  C1' OXE d   1       5.106  -1.177   2.719  0.00  0.00     0.078 C 
ATOM      3  C1  OXE d   1       5.338  -2.241   3.762  0.00  0.00    -0.078 A 
ATOM      4  C2  OXE d   1       5.820  -1.834   4.984  0.00  0.00    -0.078 A 
ATOM      5  C3  OXE d   1       5.999  -2.768   6.000  0.00  0.00     0.003 A 
ATOM      6  C4  OXE d   1       5.841  -4.135   5.742  0.00  0.00    -0.002 A 
ATOM      7  C5  OXE d   1       5.390  -4.574   4.493  0.00  0.00    -0.002 A 
ATOM      8  C6  OXE d   1       5.094  -3.639   3.508  0.00  0.00     0.003 A 
ENDROOT
TORSDOF 0
ENDMDL
