MODEL 1
REMARK minimizedAffinity -2.32951593
REMARK minimizedRMSD -1
REMARK  0 active torsions:
REMARK  status: ('A' for Active; 'I' for Inactive)
ROOT
ATOM      1  C2' OXE d   1       4.300   0.459   1.929  0.00  0.00     0.078 C 
ATOM      2  C1' OXE d   1       2.346   2.210   0.932  0.00  0.00     0.078 C 
ATOM      3  C1  OXE d   1       1.892   1.090   1.834  0.00  0.00    -0.078 A 
ATOM      4  C2  OXE d   1       2.849   0.210   2.279  0.00  0.00    -0.078 A 
ATOM      5  C3  OXE d   1       2.493  -0.810   3.158  0.00  0.00     0.003 A 
ATOM      6  C4  OXE d   1       1.148  -1.039   3.469  0.00  0.00    -0.002 A 
ATOM      7  C5  OXE d   1       0.152  -0.179   2.994  0.00  0.00    -0.002 A 
ATOM      8  C6  OXE d   1       0.512   0.913   2.212  0.00  0.00     0.003 A 
ENDROOT
TORSDOF 0
ENDMDL
