MODEL 1
REMARK minimizedAffinity 16.0793724
REMARK minimizedRMSD -1
REMARK  0 active torsions:
REMARK  status: ('A' for Active; 'I' for Inactive)
ROOT
ATOM      1  C2' OXE d   1       2.242   3.863  -0.882  0.00  0.00     0.078 C 
ATOM      2  C1' OXE d   1       3.457   1.616  -2.047  0.00  0.00     0.078 C 
ATOM      3  C1  OXE d   1       3.644   2.949  -2.727  0.00  0.00    -0.078 A 
ATOM      4  C2  OXE d   1       3.007   4.035  -2.176  0.00  0.00    -0.078 A 
ATOM      5  C3  OXE d   1       3.190   5.297  -2.733  0.00  0.00     0.003 A 
ATOM      6  C4  OXE d   1       3.891   5.447  -3.936  0.00  0.00    -0.002 A 
ATOM      7  C5  OXE d   1       4.514   4.347  -4.536  0.00  0.00    -0.002 A 
ATOM      8  C6  OXE d   1       4.436   3.101  -3.923  0.00  0.00     0.003 A 
ENDROOT
TORSDOF 0
ENDMDL
