MODEL 1
REMARK minimizedAffinity 1.67697966
REMARK minimizedRMSD -1
REMARK  0 active torsions:
REMARK  status: ('A' for Active; 'I' for Inactive)
ROOT
ATOM      1  C2' OXE d   1      -5.938  -5.104   1.672  0.00  0.00     0.078 C 
ATOM      2  C1' OXE d   1      -5.989  -5.560  -1.097  0.00  0.00     0.078 C 
ATOM      3  C1  OXE d   1      -5.970  -4.129  -0.620  0.00  0.00    -0.078 A 
ATOM      4  C2  OXE d   1      -5.992  -3.915   0.737  0.00  0.00    -0.078 A 
ATOM      5  C3  OXE d   1      -5.921  -2.616   1.231  0.00  0.00     0.003 A 
ATOM      6  C4  OXE d   1      -5.982  -1.521   0.360  0.00  0.00    -0.002 A 
ATOM      7  C5  OXE d   1      -6.000  -1.717  -1.025  0.00  0.00    -0.002 A 
ATOM      8  C6  OXE d   1      -5.951  -3.011  -1.531  0.00  0.00     0.003 A 
ENDROOT
TORSDOF 0
ENDMDL
