MODEL 1
REMARK minimizedAffinity 2.59457254
REMARK minimizedRMSD -1
REMARK  0 active torsions:
REMARK  status: ('A' for Active; 'I' for Inactive)
ROOT
ATOM      1  C2' OXE d   1      -5.735  -3.380  -5.602  0.00  0.00     0.078 C 
ATOM      2  C1' OXE d   1      -4.687  -5.957  -5.977  0.00  0.00     0.078 C 
ATOM      3  C1  OXE d   1      -3.715  -4.806  -5.907  0.00  0.00    -0.078 A 
ATOM      4  C2  OXE d   1      -4.240  -3.543  -5.771  0.00  0.00    -0.078 A 
ATOM      5  C3  OXE d   1      -3.385  -2.451  -5.646  0.00  0.00     0.003 A 
ATOM      6  C4  OXE d   1      -2.004  -2.609  -5.813  0.00  0.00    -0.002 A 
ATOM      7  C5  OXE d   1      -1.452  -3.882  -5.993  0.00  0.00    -0.002 A 
ATOM      8  C6  OXE d   1      -2.288  -4.993  -6.000  0.00  0.00     0.003 A 
ENDROOT
TORSDOF 0
ENDMDL
