MODEL 1
REMARK minimizedAffinity 11.2195168
REMARK minimizedRMSD -1
REMARK  0 active torsions:
REMARK  status: ('A' for Active; 'I' for Inactive)
ROOT
ATOM      1  C2' OXE d   1      -2.164  -1.958  -5.996  0.00  0.00     0.078 C 
ATOM      2  C1' OXE d   1      -0.898  -4.463  -5.999  0.00  0.00     0.078 C 
ATOM      3  C1  OXE d   1      -2.406  -4.437  -5.984  0.00  0.00    -0.078 A 
ATOM      4  C2  OXE d   1      -3.016  -3.207  -5.936  0.00  0.00    -0.078 A 
ATOM      5  C3  OXE d   1      -4.405  -3.124  -5.975  0.00  0.00     0.003 A 
ATOM      6  C4  OXE d   1      -5.186  -4.284  -5.909  0.00  0.00    -0.002 A 
ATOM      7  C5  OXE d   1      -4.584  -5.547  -5.917  0.00  0.00    -0.002 A 
ATOM      8  C6  OXE d   1      -3.199  -5.641  -5.997  0.00  0.00     0.003 A 
ENDROOT
TORSDOF 0
ENDMDL
