MODEL 1
REMARK minimizedAffinity 1.97873914
REMARK minimizedRMSD -1
REMARK  0 active torsions:
REMARK  status: ('A' for Active; 'I' for Inactive)
ROOT
ATOM      1  C2' OXE d   1       4.411   1.886  -6.000  0.00  0.00     0.078 C 
ATOM      2  C1' OXE d   1       5.501   4.043  -4.571  0.00  0.00     0.078 C 
ATOM      3  C1  OXE d   1       4.030   4.089  -4.901  0.00  0.00    -0.078 A 
ATOM      4  C2  OXE d   1       3.515   3.052  -5.641  0.00  0.00    -0.078 A 
ATOM      5  C3  OXE d   1       2.153   3.018  -5.925  0.00  0.00     0.003 A 
ATOM      6  C4  OXE d   1       1.333   4.105  -5.598  0.00  0.00    -0.002 A 
ATOM      7  C5  OXE d   1       1.846   5.190  -4.879  0.00  0.00    -0.002 A 
ATOM      8  C6  OXE d   1       3.180   5.178  -4.487  0.00  0.00     0.003 A 
ENDROOT
TORSDOF 0
ENDMDL
