MODEL 1
REMARK minimizedAffinity 14.0748024
REMARK minimizedRMSD -1
REMARK  0 active torsions:
REMARK  status: ('A' for Active; 'I' for Inactive)
ROOT
ATOM      1  C2' OXE d   1      -0.495   0.150  -5.212  0.00  0.00     0.078 C 
ATOM      2  C1' OXE d   1       1.966  -1.015  -4.527  0.00  0.00     0.078 C 
ATOM      3  C1  OXE d   1       1.380   0.002  -3.578  0.00  0.00    -0.078 A 
ATOM      4  C2  OXE d   1       0.199   0.601  -3.944  0.00  0.00    -0.078 A 
ATOM      5  C3  OXE d   1      -0.412   1.505  -3.080  0.00  0.00     0.003 A 
ATOM      6  C4  OXE d   1       0.241   1.924  -1.915  0.00  0.00    -0.002 A 
ATOM      7  C5  OXE d   1       1.464   1.355  -1.543  0.00  0.00    -0.002 A 
ATOM      8  C6  OXE d   1       2.025   0.364  -2.341  0.00  0.00     0.003 A 
ENDROOT
TORSDOF 0
ENDMDL
