MODEL 1
REMARK minimizedAffinity 14.5062666
REMARK minimizedRMSD -1
REMARK  0 active torsions:
REMARK  status: ('A' for Active; 'I' for Inactive)
ROOT
ATOM      1  C2' OXE d   1       1.716   2.485  -1.141  0.00  0.00     0.078 C 
ATOM      2  C1' OXE d   1      -0.365   0.854  -0.199  0.00  0.00     0.078 C 
ATOM      3  C1  OXE d   1       0.432   0.364  -1.382  0.00  0.00    -0.078 A 
ATOM      4  C2  OXE d   1       1.418   1.190  -1.866  0.00  0.00    -0.078 A 
ATOM      5  C3  OXE d   1       2.219   0.763  -2.921  0.00  0.00     0.003 A 
ATOM      6  C4  OXE d   1       1.930  -0.432  -3.591  0.00  0.00    -0.002 A 
ATOM      7  C5  OXE d   1       0.904  -1.269  -3.140  0.00  0.00    -0.002 A 
ATOM      8  C6  OXE d   1       0.175  -0.907  -2.013  0.00  0.00     0.003 A 
ENDROOT
TORSDOF 0
ENDMDL
