MODEL 1
REMARK minimizedAffinity 11.7793207
REMARK minimizedRMSD -1
REMARK  0 active torsions:
REMARK  status: ('A' for Active; 'I' for Inactive)
ROOT
ATOM      1  C2' OXE d   1      -4.880  -1.885   1.127  0.00  0.00     0.078 C 
ATOM      2  C1' OXE d   1      -5.266  -2.880  -1.470  0.00  0.00     0.078 C 
ATOM      3  C1  OXE d   1      -4.712  -3.822  -0.431  0.00  0.00    -0.078 A 
ATOM      4  C2  OXE d   1      -4.483  -3.314   0.825  0.00  0.00    -0.078 A 
ATOM      5  C3  OXE d   1      -4.024  -4.155   1.835  0.00  0.00     0.003 A 
ATOM      6  C4  OXE d   1      -3.649  -5.473   1.545  0.00  0.00    -0.002 A 
ATOM      7  C5  OXE d   1      -3.838  -5.998   0.263  0.00  0.00    -0.002 A 
ATOM      8  C6  OXE d   1      -4.406  -5.201  -0.724  0.00  0.00     0.003 A 
ENDROOT
TORSDOF 0
ENDMDL
