MODEL 1
REMARK minimizedAffinity 7.43827248
REMARK minimizedRMSD -1
REMARK  0 active torsions:
REMARK  status: ('A' for Active; 'I' for Inactive)
ROOT
ATOM      1  C2' OXE d   1      -5.945  -0.211  -3.284  0.00  0.00     0.078 C 
ATOM      2  C1' OXE d   1      -5.998  -1.071  -0.612  0.00  0.00     0.078 C 
ATOM      3  C1  OXE d   1      -5.975  -2.126  -1.690  0.00  0.00    -0.078 A 
ATOM      4  C2  OXE d   1      -5.996  -1.696  -2.995  0.00  0.00    -0.078 A 
ATOM      5  C3  OXE d   1      -5.921  -2.626  -4.028  0.00  0.00     0.003 A 
ATOM      6  C4  OXE d   1      -5.979  -3.998  -3.753  0.00  0.00    -0.002 A 
ATOM      7  C5  OXE d   1      -5.998  -4.456  -2.432  0.00  0.00    -0.002 A 
ATOM      8  C6  OXE d   1      -5.954  -3.536  -1.390  0.00  0.00     0.003 A 
ENDROOT
TORSDOF 0
ENDMDL
