MODEL 1
REMARK minimizedAffinity 12.2429371
REMARK minimizedRMSD -1
REMARK  0 active torsions:
REMARK  status: ('A' for Active; 'I' for Inactive)
ROOT
ATOM      1  C2' OXE d   1      -5.999  -2.910  -4.791  0.00  0.00     0.078 C 
ATOM      2  C1' OXE d   1      -5.926  -1.787  -2.219  0.00  0.00     0.078 C 
ATOM      3  C1  OXE d   1      -5.665  -3.267  -2.348  0.00  0.00    -0.078 A 
ATOM      4  C2  OXE d   1      -5.749  -3.817  -3.605  0.00  0.00    -0.078 A 
ATOM      5  C3  OXE d   1      -5.463  -5.167  -3.787  0.00  0.00     0.003 A 
ATOM      6  C4  OXE d   1      -5.242  -6.000  -2.684  0.00  0.00    -0.002 A 
ATOM      7  C5  OXE d   1      -5.192  -5.468  -1.391  0.00  0.00    -0.002 A 
ATOM      8  C6  OXE d   1      -5.359  -4.099  -1.211  0.00  0.00     0.003 A 
ENDROOT
TORSDOF 0
ENDMDL
