MODEL 1
REMARK minimizedAffinity 10.8628788
REMARK minimizedRMSD -1
REMARK  0 active torsions:
REMARK  status: ('A' for Active; 'I' for Inactive)
ROOT
ATOM      1  C2' OXE d   1       4.888   2.093  -5.998  0.00  0.00     0.078 C 
ATOM      2  C1' OXE d   1       6.000   3.676  -3.964  0.00  0.00     0.078 C 
ATOM      3  C1  OXE d   1       4.631   4.048  -4.476  0.00  0.00    -0.078 A 
ATOM      4  C2  OXE d   1       4.114   3.296  -5.504  0.00  0.00    -0.078 A 
ATOM      5  C3  OXE d   1       2.832   3.563  -5.976  0.00  0.00     0.003 A 
ATOM      6  C4  OXE d   1       2.127   4.683  -5.520  0.00  0.00    -0.002 A 
ATOM      7  C5  OXE d   1       2.652   5.486  -4.501  0.00  0.00    -0.002 A 
ATOM      8  C6  OXE d   1       3.881   5.157  -3.940  0.00  0.00     0.003 A 
ENDROOT
TORSDOF 0
ENDMDL
