MODEL 1
REMARK minimizedAffinity 9.74189758
REMARK minimizedRMSD -1
REMARK  0 active torsions:
REMARK  status: ('A' for Active; 'I' for Inactive)
ROOT
ATOM      1  C2' OXE d   1       2.078   2.757  -1.123  0.00  0.00     0.078 C 
ATOM      2  C1' OXE d   1       0.083   1.064  -0.108  0.00  0.00     0.078 C 
ATOM      3  C1  OXE d   1       0.902   0.567  -1.273  0.00  0.00    -0.078 A 
ATOM      4  C2  OXE d   1       1.844   1.420  -1.793  0.00  0.00    -0.078 A 
ATOM      5  C3  OXE d   1       2.664   0.991  -2.833  0.00  0.00     0.003 A 
ATOM      6  C4  OXE d   1       2.434  -0.243  -3.454  0.00  0.00    -0.002 A 
ATOM      7  C5  OXE d   1       1.453  -1.112  -2.965  0.00  0.00    -0.002 A 
ATOM      8  C6  OXE d   1       0.708  -0.740  -1.851  0.00  0.00     0.003 A 
ENDROOT
TORSDOF 0
ENDMDL
