MODEL 1
REMARK minimizedAffinity 7.66153526
REMARK minimizedRMSD -1
REMARK  0 active torsions:
REMARK  status: ('A' for Active; 'I' for Inactive)
ROOT
ATOM      1  C2' OXE d   1       1.173   2.182   2.530  0.00  0.00     0.078 C 
ATOM      2  C1' OXE d   1       2.795   0.068   3.414  0.00  0.00     0.078 C 
ATOM      3  C1  OXE d   1       1.302  -0.072   3.582  0.00  0.00    -0.078 A 
ATOM      4  C2  OXE d   1       0.520   0.987   3.190  0.00  0.00    -0.078 A 
ATOM      5  C3  OXE d   1      -0.866   0.888   3.273  0.00  0.00     0.003 A 
ATOM      6  C4  OXE d   1      -1.462  -0.217   3.893  0.00  0.00    -0.002 A 
ATOM      7  C5  OXE d   1      -0.681  -1.289   4.336  0.00  0.00    -0.002 A 
ATOM      8  C6  OXE d   1       0.697  -1.251   4.150  0.00  0.00     0.003 A 
ENDROOT
TORSDOF 0
ENDMDL
