MODEL 1
REMARK minimizedAffinity 9.30281734
REMARK minimizedRMSD -1
REMARK  0 active torsions:
REMARK  status: ('A' for Active; 'I' for Inactive)
ROOT
ATOM      1  C2' OXE d   1       2.321   2.405  -1.375  0.00  0.00     0.078 C 
ATOM      2  C1' OXE d   1      -0.041   1.021  -0.756  0.00  0.00     0.078 C 
ATOM      3  C1  OXE d   1       0.842   0.455  -1.839  0.00  0.00    -0.078 A 
ATOM      4  C2  OXE d   1       1.973   1.164  -2.168  0.00  0.00    -0.078 A 
ATOM      5  C3  OXE d   1       2.851   0.657  -3.122  0.00  0.00     0.003 A 
ATOM      6  C4  OXE d   1       2.516  -0.486  -3.857  0.00  0.00    -0.002 A 
ATOM      7  C5  OXE d   1       1.350  -1.202  -3.565  0.00  0.00    -0.002 A 
ATOM      8  C6  OXE d   1       0.525  -0.769  -2.533  0.00  0.00     0.003 A 
ENDROOT
TORSDOF 0
ENDMDL
