MODEL 1
REMARK minimizedAffinity 7.09074736
REMARK minimizedRMSD -1
REMARK  0 active torsions:
REMARK  status: ('A' for Active; 'I' for Inactive)
ROOT
ATOM      1  C2' OXE d   1       1.852  -1.089  -4.264  0.00  0.00     0.078 C 
ATOM      2  C1' OXE d   1      -0.665   0.085  -4.675  0.00  0.00     0.078 C 
ATOM      3  C1  OXE d   1       0.092   0.463  -3.427  0.00  0.00    -0.078 A 
ATOM      4  C2  OXE d   1       1.302  -0.151  -3.211  0.00  0.00    -0.078 A 
ATOM      5  C3  OXE d   1       2.067   0.203  -2.102  0.00  0.00     0.003 A 
ATOM      6  C4  OXE d   1       1.546   1.063  -1.128  0.00  0.00    -0.002 A 
ATOM      7  C5  OXE d   1       0.299   1.670  -1.309  0.00  0.00    -0.002 A 
ATOM      8  C6  OXE d   1      -0.421   1.414  -2.471  0.00  0.00     0.003 A 
ENDROOT
TORSDOF 0
ENDMDL
