MODEL 1
REMARK minimizedAffinity 10.2773533
REMARK minimizedRMSD -1
REMARK  0 active torsions:
REMARK  status: ('A' for Active; 'I' for Inactive)
ROOT
ATOM      1  C2' OXE d   1       2.622   2.900  -0.013  0.00  0.00     0.078 C 
ATOM      2  C1' OXE d   1       0.367   1.267   0.344  0.00  0.00     0.078 C 
ATOM      3  C1  OXE d   1       1.270   0.973  -0.828  0.00  0.00    -0.078 A 
ATOM      4  C2  OXE d   1       2.345   1.807  -1.022  0.00  0.00    -0.078 A 
ATOM      5  C3  OXE d   1       3.240   1.548  -2.056  0.00  0.00     0.003 A 
ATOM      6  C4  OXE d   1       2.972   0.541  -2.990  0.00  0.00    -0.002 A 
ATOM      7  C5  OXE d   1       1.860  -0.295  -2.834  0.00  0.00    -0.002 A 
ATOM      8  C6  OXE d   1       1.025  -0.119  -1.737  0.00  0.00     0.003 A 
ENDROOT
TORSDOF 0
ENDMDL
