MODEL 1
REMARK minimizedAffinity 12.3423748
REMARK minimizedRMSD -1
REMARK  0 active torsions:
REMARK  status: ('A' for Active; 'I' for Inactive)
ROOT
ATOM      1  C2' OXE d   1      -0.912   0.453   0.982  0.00  0.00     0.078 C 
ATOM      2  C1' OXE d   1      -0.743  -2.274   0.337  0.00  0.00     0.078 C 
ATOM      3  C1  OXE d   1      -0.128  -1.284  -0.622  0.00  0.00    -0.078 A 
ATOM      4  C2  OXE d   1      -0.257   0.050  -0.321  0.00  0.00    -0.078 A 
ATOM      5  C3  OXE d   1       0.339   1.002  -1.143  0.00  0.00     0.003 A 
ATOM      6  C4  OXE d   1       0.935   0.622  -2.352  0.00  0.00    -0.002 A 
ATOM      7  C5  OXE d   1       1.041  -0.729  -2.696  0.00  0.00    -0.002 A 
ATOM      8  C6  OXE d   1       0.554  -1.696  -1.824  0.00  0.00     0.003 A 
ENDROOT
TORSDOF 0
ENDMDL
