MODEL 1
REMARK minimizedAffinity 13.7372684
REMARK minimizedRMSD -1
REMARK  0 active torsions:
REMARK  status: ('A' for Active; 'I' for Inactive)
ROOT
ATOM      1  C1  DEN d   1       3.485   5.674  -4.820  0.00  0.00     0.130 A 
ATOM      2  C2  DEN d   1       4.811   5.741  -5.428  0.00  0.00    -0.031 A 
ATOM      3  C3  DEN d   1       5.804   5.871  -4.342  0.00  0.00     0.027 A 
ATOM      4  C4  DEN d   1       5.418   5.971  -1.794  0.00  0.00     0.027 A 
ATOM      5  C5  DEN d   1       4.463   5.963  -0.802  0.00  0.00    -0.003 A 
ATOM      6  C6  DEN d   1       3.123   5.892  -1.079  0.00  0.00     0.001 A 
ATOM      7  C7  DEN d   1       2.704   5.782  -2.379  0.00  0.00     0.017 A 
ATOM      8  C8  DEN d   1       3.661   5.797  -3.385  0.00  0.00    -0.094 A 
ATOM      9  C9  DEN d   1       5.011   5.856  -3.083  0.00  0.00    -0.072 A 
ENDROOT
TORSDOF 0
ENDMDL
