MODEL 1
REMARK minimizedAffinity 8.06235695
REMARK minimizedRMSD -1
REMARK  0 active torsions:
REMARK  status: ('A' for Active; 'I' for Inactive)
ROOT
ATOM      1  C1  DEN d   1       0.881  -4.190   3.809  0.00  0.00     0.130 A 
ATOM      2  C2  DEN d   1       1.869  -3.787   4.806  0.00  0.00    -0.031 A 
ATOM      3  C3  DEN d   1       2.372  -2.449   4.436  0.00  0.00     0.027 A 
ATOM      4  C4  DEN d   1       1.717  -0.967   2.430  0.00  0.00     0.027 A 
ATOM      5  C5  DEN d   1       0.928  -0.887   1.304  0.00  0.00    -0.003 A 
ATOM      6  C6  DEN d   1       0.100  -1.908   0.918  0.00  0.00     0.001 A 
ATOM      7  C7  DEN d   1       0.008  -3.035   1.690  0.00  0.00     0.017 A 
ATOM      8  C8  DEN d   1       0.806  -3.126   2.823  0.00  0.00    -0.094 A 
ATOM      9  C9  DEN d   1       1.627  -2.079   3.203  0.00  0.00    -0.072 A 
ENDROOT
TORSDOF 0
ENDMDL
