MODEL 1
REMARK minimizedAffinity 5.06706047
REMARK minimizedRMSD -1
REMARK  0 active torsions:
REMARK  status: ('A' for Active; 'I' for Inactive)
ROOT
ATOM      1  C1  DEN d   1       2.691   0.635   2.876  0.00  0.00     0.130 A 
ATOM      2  C2  DEN d   1       2.571   1.069   1.487  0.00  0.00    -0.031 A 
ATOM      3  C3  DEN d   1       1.799   0.045   0.755  0.00  0.00     0.027 A 
ATOM      4  C4  DEN d   1       0.779  -2.156   1.633  0.00  0.00     0.027 A 
ATOM      5  C5  DEN d   1       0.630  -2.959   2.741  0.00  0.00    -0.003 A 
ATOM      6  C6  DEN d   1       1.181  -2.641   3.954  0.00  0.00     0.001 A 
ATOM      7  C7  DEN d   1       1.870  -1.466   4.099  0.00  0.00     0.017 A 
ATOM      8  C8  DEN d   1       2.032  -0.654   2.984  0.00  0.00    -0.094 A 
ATOM      9  C9  DEN d   1       1.457  -0.987   1.770  0.00  0.00    -0.072 A 
ENDROOT
TORSDOF 0
ENDMDL
