MODEL 1
REMARK minimizedAffinity 2.67204833
REMARK minimizedRMSD -1
REMARK  0 active torsions:
REMARK  status: ('A' for Active; 'I' for Inactive)
ROOT
ATOM      1  C1  DEN d   1       0.744  -1.108   0.369  0.00  0.00     0.130 A 
ATOM      2  C2  DEN d   1       0.597  -2.203   1.325  0.00  0.00    -0.031 A 
ATOM      3  C3  DEN d   1       1.169  -1.764   2.613  0.00  0.00     0.027 A 
ATOM      4  C4  DEN d   1       2.258   0.494   3.220  0.00  0.00     0.027 A 
ATOM      5  C5  DEN d   1       2.620   1.732   2.736  0.00  0.00    -0.003 A 
ATOM      6  C6  DEN d   1       2.415   2.094   1.431  0.00  0.00     0.001 A 
ATOM      7  C7  DEN d   1       1.790   1.226   0.576  0.00  0.00     0.017 A 
ATOM      8  C8  DEN d   1       1.429  -0.027   1.054  0.00  0.00    -0.094 A 
ATOM      9  C9  DEN d   1       1.634  -0.370   2.380  0.00  0.00    -0.072 A 
ENDROOT
TORSDOF 0
ENDMDL
