MODEL 1
REMARK minimizedAffinity 3.52648425
REMARK minimizedRMSD -1
REMARK  0 active torsions:
REMARK  status: ('A' for Active; 'I' for Inactive)
ROOT
ATOM      1  C1  DEN d   1       0.611  -1.420   1.746  0.00  0.00     0.130 A 
ATOM      2  C2  DEN d   1       1.407  -1.707   2.935  0.00  0.00    -0.031 A 
ATOM      3  C3  DEN d   1       2.338  -0.580   3.145  0.00  0.00     0.027 A 
ATOM      4  C4  DEN d   1       2.617   1.574   1.754  0.00  0.00     0.027 A 
ATOM      5  C5  DEN d   1       2.172   2.260   0.645  0.00  0.00    -0.003 A 
ATOM      6  C6  DEN d   1       1.207   1.756  -0.186  0.00  0.00     0.001 A 
ATOM      7  C7  DEN d   1       0.623   0.551   0.103  0.00  0.00     0.017 A 
ATOM      8  C8  DEN d   1       1.072  -0.150   1.215  0.00  0.00    -0.094 A 
ATOM      9  C9  DEN d   1       2.040   0.382   2.050  0.00  0.00    -0.072 A 
ENDROOT
TORSDOF 0
ENDMDL
