MODEL 1
REMARK minimizedAffinity -0.738778293
REMARK minimizedRMSD -1
REMARK  0 active torsions:
REMARK  status: ('A' for Active; 'I' for Inactive)
ROOT
ATOM      1  C1  DEN d   1      -1.439  -0.357   0.763  0.00  0.00     0.130 A 
ATOM      2  C2  DEN d   1      -2.318  -0.230  -0.396  0.00  0.00    -0.031 A 
ATOM      3  C3  DEN d   1      -2.092  -1.397  -1.271  0.00  0.00     0.027 A 
ATOM      4  C4  DEN d   1      -0.478  -3.382  -0.944  0.00  0.00     0.027 A 
ATOM      5  C5  DEN d   1       0.481  -3.924  -0.117  0.00  0.00    -0.003 A 
ATOM      6  C6  DEN d   1       0.889  -3.303   1.033  0.00  0.00     0.001 A 
ATOM      7  C7  DEN d   1       0.303  -2.125   1.414  0.00  0.00     0.017 A 
ATOM      8  C8  DEN d   1      -0.660  -1.569   0.582  0.00  0.00    -0.094 A 
ATOM      9  C9  DEN d   1      -1.068  -2.218  -0.571  0.00  0.00    -0.072 A 
ENDROOT
TORSDOF 0
ENDMDL
