MODEL 1
REMARK minimizedAffinity -1.97120488
REMARK minimizedRMSD -1
REMARK  0 active torsions:
REMARK  status: ('A' for Active; 'I' for Inactive)
ROOT
ATOM      1  C1  DEN d   1       2.838   0.890   2.141  0.00  0.00     0.130 A 
ATOM      2  C2  DEN d   1       2.607   1.826   1.044  0.00  0.00    -0.031 A 
ATOM      3  C3  DEN d   1       1.562   1.257   0.170  0.00  0.00     0.027 A 
ATOM      4  C4  DEN d   1       0.281  -0.969   0.410  0.00  0.00     0.027 A 
ATOM      5  C5  DEN d   1       0.140  -2.106   1.174  0.00  0.00    -0.003 A 
ATOM      6  C6  DEN d   1       0.905  -2.338   2.286  0.00  0.00     0.001 A 
ATOM      7  C7  DEN d   1       1.816  -1.398   2.691  0.00  0.00     0.017 A 
ATOM      8  C8  DEN d   1       1.970  -0.253   1.922  0.00  0.00    -0.094 A 
ATOM      9  C9  DEN d   1       1.178  -0.031   0.808  0.00  0.00    -0.072 A 
ENDROOT
TORSDOF 0
ENDMDL
