MODEL 1
REMARK minimizedAffinity 1.43615532
REMARK minimizedRMSD -1
REMARK  0 active torsions:
REMARK  status: ('A' for Active; 'I' for Inactive)
ROOT
ATOM      1  C   UNL d   1      -5.155   3.476   1.126  0.00  0.00     0.172 C 
ATOM      2  N   UNL d   1      -5.341   2.203   0.470  0.00  0.00    -0.070 N 
ATOM      3  C1  UNL d   1      -6.000   1.124   0.996  0.00  0.00    -0.004 A 
ATOM      4  C2  UNL d   1      -5.959   0.110   0.063  0.00  0.00    -0.047 A 
ATOM      5  C3  UNL d   1      -5.250   0.596  -1.061  0.00  0.00    -0.047 A 
ATOM      6  C4  UNL d   1      -4.879   1.895  -0.782  0.00  0.00    -0.004 A 
ENDROOT
TORSDOF 0
ENDMDL
