MODEL 1
REMARK minimizedAffinity 0.467687964
REMARK minimizedRMSD -1
REMARK  0 active torsions:
REMARK  status: ('A' for Active; 'I' for Inactive)
ROOT
ATOM      1  C   UNL d   1       3.121   0.008  -0.114  0.00  0.00     0.172 C 
ATOM      2  N   UNL d   1       4.131   0.998  -0.405  0.00  0.00    -0.070 N 
ATOM      3  C1  UNL d   1       4.076   2.321  -0.056  0.00  0.00    -0.004 A 
ATOM      4  C2  UNL d   1       5.227   2.927  -0.513  0.00  0.00    -0.047 A 
ATOM      5  C3  UNL d   1       6.000   1.934  -1.160  0.00  0.00    -0.047 A 
ATOM      6  C4  UNL d   1       5.298   0.749  -1.078  0.00  0.00    -0.004 A 
ENDROOT
TORSDOF 0
ENDMDL
