MODEL 1
REMARK minimizedAffinity 0.151375011
REMARK minimizedRMSD -1
REMARK  0 active torsions:
REMARK  status: ('A' for Active; 'I' for Inactive)
ROOT
ATOM      1  C   UNL d   1       2.667   0.754   0.156  0.00  0.00     0.172 C 
ATOM      2  N   UNL d   1       1.903   0.264   1.280  0.00  0.00    -0.070 N 
ATOM      3  C1  UNL d   1       1.535  -1.039   1.487  0.00  0.00    -0.004 A 
ATOM      4  C2  UNL d   1       0.822  -1.093   2.665  0.00  0.00    -0.047 A 
ATOM      5  C3  UNL d   1       0.758   0.222   3.183  0.00  0.00    -0.047 A 
ATOM      6  C4  UNL d   1       1.436   1.042   2.305  0.00  0.00    -0.004 A 
ENDROOT
TORSDOF 0
ENDMDL
