MODEL 1
REMARK minimizedAffinity -2.74840307
REMARK minimizedRMSD -1
REMARK  0 active torsions:
REMARK  status: ('A' for Active; 'I' for Inactive)
ROOT
ATOM      1  C   UNL d   1      -2.920   0.599  -4.253  0.00  0.00     0.172 C 
ATOM      2  N   UNL d   1      -3.785   1.619  -3.708  0.00  0.00    -0.070 N 
ATOM      3  C1  UNL d   1      -5.111   1.463  -3.404  0.00  0.00    -0.004 A 
ATOM      4  C2  UNL d   1      -5.575   2.662  -2.909  0.00  0.00    -0.047 A 
ATOM      5  C3  UNL d   1      -4.490   3.571  -2.916  0.00  0.00    -0.047 A 
ATOM      6  C4  UNL d   1      -3.394   2.899  -3.416  0.00  0.00    -0.004 A 
ENDROOT
TORSDOF 0
ENDMDL
