MODEL 1
REMARK minimizedAffinity -1.47987771
REMARK minimizedRMSD -1
REMARK  0 active torsions:
REMARK  status: ('A' for Active; 'I' for Inactive)
ROOT
ATOM      1  C   UNL d   1       2.158  -2.126  -0.809  0.00  0.00     0.172 C 
ATOM      2  N   UNL d   1       2.947  -0.917  -0.753  0.00  0.00    -0.070 N 
ATOM      3  C1  UNL d   1       3.395  -0.206  -1.833  0.00  0.00    -0.004 A 
ATOM      4  C2  UNL d   1       4.106   0.876  -1.361  0.00  0.00    -0.047 A 
ATOM      5  C3  UNL d   1       4.086   0.811   0.053  0.00  0.00    -0.047 A 
ATOM      6  C4  UNL d   1       3.361  -0.308   0.402  0.00  0.00    -0.004 A 
ENDROOT
TORSDOF 0
ENDMDL
