MODEL 1
REMARK minimizedAffinity -1.16735578
REMARK minimizedRMSD -1
REMARK  0 active torsions:
REMARK  status: ('A' for Active; 'I' for Inactive)
ROOT
ATOM      1  C   UNL d   1      -2.552   0.088  -4.125  0.00  0.00     0.172 C 
ATOM      2  N   UNL d   1      -3.825   0.665  -3.760  0.00  0.00    -0.070 N 
ATOM      3  C1  UNL d   1      -4.031   1.574  -2.757  0.00  0.00    -0.004 A 
ATOM      4  C2  UNL d   1      -5.376   1.874  -2.729  0.00  0.00    -0.047 A 
ATOM      5  C3  UNL d   1      -6.000   1.118  -3.750  0.00  0.00    -0.047 A 
ATOM      6  C4  UNL d   1      -5.017   0.378  -4.372  0.00  0.00    -0.004 A 
ENDROOT
TORSDOF 0
ENDMDL
