MODEL 1
REMARK minimizedAffinity -0.56802839
REMARK minimizedRMSD -1
REMARK  0 active torsions:
REMARK  status: ('A' for Active; 'I' for Inactive)
ROOT
ATOM      1  C   UNL d   1      -5.939   5.178   5.576  0.00  0.00     0.172 C 
ATOM      2  N   UNL d   1      -5.941   4.949   4.150  0.00  0.00    -0.070 N 
ATOM      3  C1  UNL d   1      -5.886   5.920   3.186  0.00  0.00    -0.004 A 
ATOM      4  C2  UNL d   1      -5.909   5.296   1.957  0.00  0.00    -0.047 A 
ATOM      5  C3  UNL d   1      -5.981   3.902   2.191  0.00  0.00    -0.047 A 
ATOM      6  C4  UNL d   1      -6.000   3.716   3.557  0.00  0.00    -0.004 A 
ENDROOT
TORSDOF 0
ENDMDL
