MODEL 1
REMARK minimizedAffinity 3.17685986
REMARK minimizedRMSD -1
REMARK  0 active torsions:
REMARK  status: ('A' for Active; 'I' for Inactive)
ROOT
ATOM      1  C   UNL d   1      -1.778  -0.368  -4.081  0.00  0.00     0.172 C 
ATOM      2  N   UNL d   1      -2.954   0.470  -4.062  0.00  0.00    -0.070 N 
ATOM      3  C1  UNL d   1      -3.101   1.622  -3.337  0.00  0.00    -0.004 A 
ATOM      4  C2  UNL d   1      -4.360   2.122  -3.591  0.00  0.00    -0.047 A 
ATOM      5  C3  UNL d   1      -4.991   1.239  -4.499  0.00  0.00    -0.047 A 
ATOM      6  C4  UNL d   1      -4.098   0.225  -4.774  0.00  0.00    -0.004 A 
ENDROOT
TORSDOF 0
ENDMDL
