MODEL 1
REMARK minimizedAffinity -2.09038925
REMARK minimizedRMSD -1
REMARK  0 active torsions:
REMARK  status: ('A' for Active; 'I' for Inactive)
ROOT
ATOM      1  C   UNL d   1      -2.996   3.098  -3.383  0.00  0.00     0.172 C 
ATOM      2  N   UNL d   1      -4.067   2.149  -3.581  0.00  0.00    -0.070 N 
ATOM      3  C1  UNL d   1      -5.250   2.127  -2.893  0.00  0.00    -0.004 A 
ATOM      4  C2  UNL d   1      -5.999   1.075  -3.376  0.00  0.00    -0.047 A 
ATOM      5  C3  UNL d   1      -5.239   0.444  -4.388  0.00  0.00    -0.047 A 
ATOM      6  C4  UNL d   1      -4.047   1.129  -4.495  0.00  0.00    -0.004 A 
ENDROOT
TORSDOF 0
ENDMDL
