MODEL 1
REMARK minimizedAffinity -0.529289722
REMARK minimizedRMSD -1
REMARK  0 active torsions:
REMARK  status: ('A' for Active; 'I' for Inactive)
ROOT
ATOM      1  C   UNL d   1      -5.175   0.124  -0.443  0.00  0.00     0.172 C 
ATOM      2  N   UNL d   1      -5.290   0.528  -1.825  0.00  0.00    -0.070 N 
ATOM      3  C1  UNL d   1      -5.922   1.656  -2.277  0.00  0.00    -0.004 A 
ATOM      4  C2  UNL d   1      -5.810   1.681  -3.650  0.00  0.00    -0.047 A 
ATOM      5  C3  UNL d   1      -5.086   0.528  -4.037  0.00  0.00    -0.047 A 
ATOM      6  C4  UNL d   1      -4.776  -0.167  -2.887  0.00  0.00    -0.004 A 
ENDROOT
TORSDOF 0
ENDMDL
