MODEL 1
REMARK minimizedAffinity 1.0119319
REMARK minimizedRMSD -1
REMARK  0 active torsions:
REMARK  status: ('A' for Active; 'I' for Inactive)
ROOT
ATOM      1  C   UNL d   1       0.976   0.785  -0.446  0.00  0.00     0.172 C 
ATOM      2  N   UNL d   1       0.731  -0.624  -0.645  0.00  0.00    -0.070 N 
ATOM      3  C1  UNL d   1       1.690  -1.599  -0.712  0.00  0.00    -0.004 A 
ATOM      4  C2  UNL d   1       1.053  -2.805  -0.909  0.00  0.00    -0.047 A 
ATOM      5  C3  UNL d   1      -0.337  -2.546  -0.964  0.00  0.00    -0.047 A 
ATOM      6  C4  UNL d   1      -0.508  -1.188  -0.797  0.00  0.00    -0.004 A 
ENDROOT
TORSDOF 0
ENDMDL
