MODEL 1
REMARK minimizedAffinity 2.73869419
REMARK minimizedRMSD -1
REMARK  0 active torsions:
REMARK  status: ('A' for Active; 'I' for Inactive)
ROOT
ATOM      1  C   UNL d   1      -0.489  -0.718   3.138  0.00  0.00     0.020 A 
ATOM      2  C1  UNL d   1      -1.771  -0.376   2.710  0.00  0.00     0.020 A 
ATOM      3  C2  UNL d   1      -1.984   0.016   1.386  0.00  0.00     0.034 A 
ATOM      4  C3  UNL d   1      -0.913   0.066   0.486  0.00  0.00     0.017 A 
ATOM      5  C4  UNL d   1       0.373  -0.277   0.917  0.00  0.00     0.017 A 
ATOM      6  C5  UNL d   1       0.581  -0.669   2.243  0.00  0.00     0.034 A 
ATOM      7 Cl   UNL d   1       1.744  -0.239  -0.135  0.00  0.00    -0.070 Cl
ATOM      8 Cl1  UNL d   1      -1.249   0.559  -1.135  0.00  0.00    -0.070 Cl
ENDROOT
TORSDOF 0
ENDMDL
