MODEL 1
REMARK minimizedAffinity 0.459769934
REMARK minimizedRMSD -1
REMARK  0 active torsions:
REMARK  status: ('A' for Active; 'I' for Inactive)
ROOT
ATOM      1  C   UNL d   1      -1.201  -0.947   3.837  0.00  0.00     0.020 A 
ATOM      2  C1  UNL d   1       0.186  -1.077   3.908  0.00  0.00     0.020 A 
ATOM      3  C2  UNL d   1       0.973  -0.778   2.795  0.00  0.00     0.034 A 
ATOM      4  C3  UNL d   1       0.375  -0.348   1.605  0.00  0.00     0.017 A 
ATOM      5  C4  UNL d   1      -1.016  -0.218   1.534  0.00  0.00     0.017 A 
ATOM      6  C5  UNL d   1      -1.800  -0.519   2.652  0.00  0.00     0.034 A 
ATOM      7 Cl   UNL d   1      -1.826   0.307   0.100  0.00  0.00    -0.070 Cl
ATOM      8 Cl1  UNL d   1       1.411   0.005   0.267  0.00  0.00    -0.070 Cl
ENDROOT
TORSDOF 0
ENDMDL
