MODEL 1
REMARK minimizedAffinity -0.920419931
REMARK minimizedRMSD -1
REMARK  0 active torsions:
REMARK  status: ('A' for Active; 'I' for Inactive)
ROOT
ATOM      1  C   UNL d   1      -2.983   0.147   2.089  0.00  0.00     0.020 A 
ATOM      2  C1  UNL d   1      -2.548   0.351   0.780  0.00  0.00     0.020 A 
ATOM      3  C2  UNL d   1      -1.223   0.078   0.434  0.00  0.00     0.034 A 
ATOM      4  C3  UNL d   1      -0.328  -0.400   1.398  0.00  0.00     0.017 A 
ATOM      5  C4  UNL d   1      -0.765  -0.604   2.711  0.00  0.00     0.017 A 
ATOM      6  C5  UNL d   1      -2.093  -0.329   3.053  0.00  0.00     0.034 A 
ATOM      7 Cl   UNL d   1       0.281  -1.191   3.956  0.00  0.00    -0.070 Cl
ATOM      8 Cl1  UNL d   1       1.296  -0.717   0.899  0.00  0.00    -0.070 Cl
ENDROOT
TORSDOF 0
ENDMDL
