MODEL 1
REMARK minimizedAffinity 2.80770946
REMARK minimizedRMSD -1
REMARK  0 active torsions:
REMARK  status: ('A' for Active; 'I' for Inactive)
ROOT
ATOM      1  C   UNL d   1       0.926  -0.685   1.201  0.00  0.00     0.020 A 
ATOM      2  C1  UNL d   1       0.583  -0.700  -0.150  0.00  0.00     0.020 A 
ATOM      3  C2  UNL d   1      -0.738  -0.465  -0.538  0.00  0.00     0.034 A 
ATOM      4  C3  UNL d   1      -1.720  -0.215   0.426  0.00  0.00     0.017 A 
ATOM      5  C4  UNL d   1      -1.375  -0.199   1.783  0.00  0.00     0.017 A 
ATOM      6  C5  UNL d   1      -0.051  -0.435   2.165  0.00  0.00     0.034 A 
ATOM      7 Cl   UNL d   1      -2.533   0.103   3.030  0.00  0.00    -0.070 Cl
ATOM      8 Cl1  UNL d   1      -3.334   0.068  -0.125  0.00  0.00    -0.070 Cl
ENDROOT
TORSDOF 0
ENDMDL
