MODEL 1
REMARK minimizedAffinity -0.13698037
REMARK minimizedRMSD -1
REMARK  0 active torsions:
REMARK  status: ('A' for Active; 'I' for Inactive)
ROOT
ATOM      1  C   UNL d   1       2.206   3.324   1.337  0.00  0.00     0.020 A 
ATOM      2  C1  UNL d   1       2.423   4.637   0.920  0.00  0.00     0.020 A 
ATOM      3  C2  UNL d   1       3.408   5.412   1.537  0.00  0.00     0.034 A 
ATOM      4  C3  UNL d   1       4.178   4.875   2.575  0.00  0.00     0.017 A 
ATOM      5  C4  UNL d   1       3.958   3.557   2.994  0.00  0.00     0.017 A 
ATOM      6  C5  UNL d   1       2.971   2.786   2.372  0.00  0.00     0.034 A 
ATOM      7 Cl   UNL d   1       4.868   2.825   4.268  0.00  0.00    -0.070 Cl
ATOM      8 Cl1  UNL d   1       5.378   5.889   3.294  0.00  0.00    -0.070 Cl
ENDROOT
TORSDOF 0
ENDMDL
