MODEL 1
REMARK minimizedAffinity -1.95796442
REMARK minimizedRMSD -1
REMARK  0 active torsions:
REMARK  status: ('A' for Active; 'I' for Inactive)
ROOT
ATOM      1  C   UNL d   1      -0.069  -0.554   4.057  0.00  0.00     0.020 A 
ATOM      2  C1  UNL d   1      -1.380  -0.125   3.856  0.00  0.00     0.020 A 
ATOM      3  C2  UNL d   1      -1.916  -0.098   2.567  0.00  0.00     0.034 A 
ATOM      4  C3  UNL d   1      -1.141  -0.500   1.473  0.00  0.00     0.017 A 
ATOM      5  C4  UNL d   1       0.176  -0.930   1.676  0.00  0.00     0.017 A 
ATOM      6  C5  UNL d   1       0.707  -0.956   2.969  0.00  0.00     0.034 A 
ATOM      7 Cl   UNL d   1       1.194  -1.442   0.376  0.00  0.00    -0.070 Cl
ATOM      8 Cl1  UNL d   1      -1.868  -0.441  -0.093  0.00  0.00    -0.070 Cl
ENDROOT
TORSDOF 0
ENDMDL
