MODEL 1
REMARK minimizedAffinity -0.545436502
REMARK minimizedRMSD -1
REMARK  0 active torsions:
REMARK  status: ('A' for Active; 'I' for Inactive)
ROOT
ATOM      1  C   UNL d   1      -2.400   0.736   0.187  0.00  0.00     0.020 A 
ATOM      2  C1  UNL d   1      -2.910   0.839   1.481  0.00  0.00     0.020 A 
ATOM      3  C2  UNL d   1      -2.192   0.317   2.558  0.00  0.00     0.034 A 
ATOM      4  C3  UNL d   1      -0.959  -0.311   2.345  0.00  0.00     0.017 A 
ATOM      5  C4  UNL d   1      -0.448  -0.413   1.046  0.00  0.00     0.017 A 
ATOM      6  C5  UNL d   1      -1.171   0.112  -0.029  0.00  0.00     0.034 A 
ATOM      7 Cl   UNL d   1       1.066  -1.173   0.704  0.00  0.00    -0.070 Cl
ATOM      8 Cl1  UNL d   1      -0.125  -0.933   3.724  0.00  0.00    -0.070 Cl
ENDROOT
TORSDOF 0
ENDMDL
