MODEL 1
REMARK minimizedAffinity -0.855190277
REMARK minimizedRMSD -1
REMARK  0 active torsions:
REMARK  status: ('A' for Active; 'I' for Inactive)
ROOT
ATOM      1  C   UNL d   1      -2.176   0.178   0.805  0.00  0.00     0.020 A 
ATOM      2  C1  UNL d   1      -2.377   0.065   2.180  0.00  0.00     0.020 A 
ATOM      3  C2  UNL d   1      -1.328  -0.339   3.009  0.00  0.00     0.034 A 
ATOM      4  C3  UNL d   1      -0.073  -0.633   2.462  0.00  0.00     0.017 A 
ATOM      5  C4  UNL d   1       0.128  -0.520   1.082  0.00  0.00     0.017 A 
ATOM      6  C5  UNL d   1      -0.926  -0.114   0.257  0.00  0.00     0.034 A 
ATOM      7 Cl   UNL d   1       1.647  -0.865   0.335  0.00  0.00    -0.070 Cl
ATOM      8 Cl1  UNL d   1       1.179  -1.127   3.546  0.00  0.00    -0.070 Cl
ENDROOT
TORSDOF 0
ENDMDL
