MODEL 1
REMARK minimizedAffinity 12.290988
REMARK minimizedRMSD -1
REMARK  0 active torsions:
REMARK  status: ('A' for Active; 'I' for Inactive)
ROOT
ATOM      1  C4' PXY d   1      -2.280  -3.282   0.615  0.00  0.00     0.077 C 
ATOM      2  C1' PXY d   1       2.775  -5.490   2.342  0.00  0.00     0.077 C 
ATOM      3  C1  PXY d   1       1.454  -4.899   1.891  0.00  0.00    -0.082 A 
ATOM      4  C2  PXY d   1       0.355  -5.632   1.952  0.00  0.00     0.003 A 
ATOM      5  C3  PXY d   1      -0.843  -5.124   1.519  0.00  0.00     0.003 A 
ATOM      6  C4  PXY d   1      -0.926  -3.834   1.068  0.00  0.00    -0.082 A 
ATOM      7  C5  PXY d   1       0.190  -3.076   1.013  0.00  0.00     0.003 A 
ATOM      8  C6  PXY d   1       1.403  -3.624   1.418  0.00  0.00     0.003 A 
ENDROOT
TORSDOF 0
ENDMDL
