MODEL 1
REMARK minimizedAffinity 10.5958481
REMARK minimizedRMSD -1
REMARK  0 active torsions:
REMARK  status: ('A' for Active; 'I' for Inactive)
ROOT
ATOM      1  C4' PXY d   1       0.613  -4.863   2.188  0.00  0.00     0.077 C 
ATOM      2  C1' PXY d   1       2.239   0.445   0.578  0.00  0.00     0.077 C 
ATOM      3  C1  PXY d   1       1.816  -0.951   0.988  0.00  0.00    -0.082 A 
ATOM      4  C2  PXY d   1       0.970  -1.109   1.994  0.00  0.00     0.003 A 
ATOM      5  C3  PXY d   1       0.601  -2.366   2.399  0.00  0.00     0.003 A 
ATOM      6  C4  PXY d   1       1.061  -3.471   1.733  0.00  0.00    -0.082 A 
ATOM      7  C5  PXY d   1       1.915  -3.318   0.699  0.00  0.00     0.003 A 
ATOM      8  C6  PXY d   1       2.310  -2.035   0.330  0.00  0.00     0.003 A 
ENDROOT
TORSDOF 0
ENDMDL
