MODEL 1
REMARK minimizedAffinity 19.4149456
REMARK minimizedRMSD -1
REMARK  0 active torsions:
REMARK  status: ('A' for Active; 'I' for Inactive)
ROOT
ATOM      1  C4' PXY d   1       3.452   1.642   1.365  0.00  0.00     0.077 C 
ATOM      2  C1' PXY d   1      -0.829   2.941  -2.296  0.00  0.00     0.077 C 
ATOM      3  C1  PXY d   1       0.298   2.591  -1.343  0.00  0.00    -0.082 A 
ATOM      4  C2  PXY d   1       0.205   2.929  -0.068  0.00  0.00     0.003 A 
ATOM      5  C3  PXY d   1       1.228   2.648   0.801  0.00  0.00     0.003 A 
ATOM      6  C4  PXY d   1       2.335   1.967   0.370  0.00  0.00    -0.082 A 
ATOM      7  C5  PXY d   1       2.433   1.609  -0.928  0.00  0.00     0.003 A 
ATOM      8  C6  PXY d   1       1.401   1.940  -1.802  0.00  0.00     0.003 A 
ENDROOT
TORSDOF 0
ENDMDL
