MODEL 1
REMARK minimizedAffinity 14.7305613
REMARK minimizedRMSD -1
REMARK  0 active torsions:
REMARK  status: ('A' for Active; 'I' for Inactive)
ROOT
ATOM      1  C4' PXY d   1      -5.984   5.027   0.234  0.00  0.00     0.077 C 
ATOM      2  C1' PXY d   1      -1.841   3.070  -3.289  0.00  0.00     0.077 C 
ATOM      3  C1  PXY d   1      -2.920   3.594  -2.362  0.00  0.00    -0.082 A 
ATOM      4  C2  PXY d   1      -3.775   2.748  -1.810  0.00  0.00     0.003 A 
ATOM      5  C3  PXY d   1      -4.777   3.209  -0.995  0.00  0.00     0.003 A 
ATOM      6  C4  PXY d   1      -4.873   4.542  -0.700  0.00  0.00    -0.082 A 
ATOM      7  C5  PXY d   1      -3.998   5.410  -1.251  0.00  0.00     0.003 A 
ATOM      8  C6  PXY d   1      -3.013   4.928  -2.109  0.00  0.00     0.003 A 
ENDROOT
TORSDOF 0
ENDMDL
