MODEL 1
REMARK minimizedAffinity 7.38995886
REMARK minimizedRMSD -1
REMARK  0 active torsions:
REMARK  status: ('A' for Active; 'I' for Inactive)
ROOT
ATOM      1  C4' PXY d   1      -2.181  -2.508   3.010  0.00  0.00     0.077 C 
ATOM      2  C1' PXY d   1       3.061  -1.155   0.983  0.00  0.00     0.077 C 
ATOM      3  C1  PXY d   1       1.684  -1.497   1.517  0.00  0.00    -0.082 A 
ATOM      4  C2  PXY d   1       1.453  -2.706   2.003  0.00  0.00     0.003 A 
ATOM      5  C3  PXY d   1       0.204  -3.042   2.460  0.00  0.00     0.003 A 
ATOM      6  C4  PXY d   1      -0.803  -2.115   2.469  0.00  0.00    -0.082 A 
ATOM      7  C5  PXY d   1      -0.572  -0.877   1.985  0.00  0.00     0.003 A 
ATOM      8  C6  PXY d   1       0.690  -0.568   1.487  0.00  0.00     0.003 A 
ENDROOT
TORSDOF 0
ENDMDL
