MODEL 1
REMARK minimizedAffinity 7.19486904
REMARK minimizedRMSD -1
REMARK  0 active torsions:
REMARK  status: ('A' for Active; 'I' for Inactive)
ROOT
ATOM      1  C4' PXY d   1      -4.492  -5.360  -0.384  0.00  0.00     0.077 C 
ATOM      2  C1' PXY d   1      -4.906  -3.666   5.127  0.00  0.00     0.077 C 
ATOM      3  C1  PXY d   1      -4.797  -4.123   3.686  0.00  0.00    -0.082 A 
ATOM      4  C2  PXY d   1      -4.306  -3.299   2.774  0.00  0.00     0.003 A 
ATOM      5  C3  PXY d   1      -4.230  -3.685   1.460  0.00  0.00     0.003 A 
ATOM      6  C4  PXY d   1      -4.611  -4.945   1.085  0.00  0.00    -0.082 A 
ATOM      7  C5  PXY d   1      -5.103  -5.795   2.011  0.00  0.00     0.003 A 
ATOM      8  C6  PXY d   1      -5.210  -5.370   3.332  0.00  0.00     0.003 A 
ENDROOT
TORSDOF 0
ENDMDL
