MODEL 1
REMARK minimizedAffinity -0.229905158
REMARK minimizedRMSD -1
REMARK  0 active torsions:
REMARK  status: ('A' for Active; 'I' for Inactive)
ROOT
ATOM      1  C4' PXY d   1      -5.241  -3.434   4.374  0.00  0.00     0.077 C 
ATOM      2  C1' PXY d   1      -5.165  -5.992  -0.809  0.00  0.00     0.077 C 
ATOM      3  C1  PXY d   1      -5.176  -5.312   0.546  0.00  0.00    -0.082 A 
ATOM      4  C2  PXY d   1      -5.530  -6.000   1.620  0.00  0.00     0.003 A 
ATOM      5  C3  PXY d   1      -5.576  -5.392   2.848  0.00  0.00     0.003 A 
ATOM      6  C4  PXY d   1      -5.206  -4.082   2.987  0.00  0.00    -0.082 A 
ATOM      7  C5  PXY d   1      -4.833  -3.376   1.898  0.00  0.00     0.003 A 
ATOM      8  C6  PXY d   1      -4.832  -4.000   0.654  0.00  0.00     0.003 A 
ENDROOT
TORSDOF 0
ENDMDL
