MODEL 1
REMARK minimizedAffinity 13.4477673
REMARK minimizedRMSD -1
REMARK  0 active torsions:
REMARK  status: ('A' for Active; 'I' for Inactive)
ROOT
ATOM      1  C4' PXY d   1       2.816   1.049   1.001  0.00  0.00     0.077 C 
ATOM      2  C1' PXY d   1       1.112  -4.431   0.307  0.00  0.00     0.077 C 
ATOM      3  C1  PXY d   1       1.546  -2.990   0.490  0.00  0.00    -0.082 A 
ATOM      4  C2  PXY d   1       2.720  -2.596   0.023  0.00  0.00     0.003 A 
ATOM      5  C3  PXY d   1       3.142  -1.305   0.208  0.00  0.00     0.003 A 
ATOM      6  C4  PXY d   1       2.332  -0.394   0.831  0.00  0.00    -0.082 A 
ATOM      7  C5  PXY d   1       1.129  -0.785   1.301  0.00  0.00     0.003 A 
ATOM      8  C6  PXY d   1       0.736  -2.110   1.139  0.00  0.00     0.003 A 
ENDROOT
TORSDOF 0
ENDMDL
