MODEL 1
REMARK minimizedAffinity 6.57467031
REMARK minimizedRMSD -1
REMARK  0 active torsions:
REMARK  status: ('A' for Active; 'I' for Inactive)
ROOT
ATOM      1  C4' PXY d   1      -5.318  -3.480   5.997  0.00  0.00     0.077 C 
ATOM      2  C1' PXY d   1      -5.098  -6.000   0.799  0.00  0.00     0.077 C 
ATOM      3  C1  PXY d   1      -5.144  -5.334   2.160  0.00  0.00    -0.082 A 
ATOM      4  C2  PXY d   1      -5.899  -5.850   3.116  0.00  0.00     0.003 A 
ATOM      5  C3  PXY d   1      -5.978  -5.242   4.343  0.00  0.00     0.003 A 
ATOM      6  C4  PXY d   1      -5.233  -4.125   4.611  0.00  0.00    -0.082 A 
ATOM      7  C5  PXY d   1      -4.452  -3.598   3.644  0.00  0.00     0.003 A 
ATOM      8  C6  PXY d   1      -4.418  -4.206   2.393  0.00  0.00     0.003 A 
ENDROOT
TORSDOF 0
ENDMDL
