MODEL 1
REMARK minimizedAffinity 5.61893034
REMARK minimizedRMSD -1
REMARK  0 active torsions:
REMARK  status: ('A' for Active; 'I' for Inactive)
ROOT
ATOM      1  C4' PXY d   1      -2.731  -2.787   2.765  0.00  0.00     0.077 C 
ATOM      2  C1' PXY d   1       2.590  -0.693   1.915  0.00  0.00     0.077 C 
ATOM      3  C1  PXY d   1       1.194  -1.236   2.149  0.00  0.00    -0.082 A 
ATOM      4  C2  PXY d   1       0.809  -2.339   1.528  0.00  0.00     0.003 A 
ATOM      5  C3  PXY d   1      -0.461  -2.826   1.704  0.00  0.00     0.003 A 
ATOM      6  C4  PXY d   1      -1.327  -2.207   2.565  0.00  0.00    -0.082 A 
ATOM      7  C5  PXY d   1      -0.938  -1.088   3.211  0.00  0.00     0.003 A 
ATOM      8  C6  PXY d   1       0.341  -0.586   2.987  0.00  0.00     0.003 A 
ENDROOT
TORSDOF 0
ENDMDL
