MODEL 1
REMARK minimizedAffinity 12.6906652
REMARK minimizedRMSD -1
REMARK  0 active torsions:
REMARK  status: ('A' for Active; 'I' for Inactive)
ROOT
ATOM      1  C4' PXY d   1      -1.141   4.530  -5.999  0.00  0.00     0.077 C 
ATOM      2  C1' PXY d   1      -4.009   4.206  -0.991  0.00  0.00     0.077 C 
ATOM      3  C1  PXY d   1      -3.255   4.278  -2.304  0.00  0.00    -0.082 A 
ATOM      4  C2  PXY d   1      -2.672   5.411  -2.663  0.00  0.00     0.003 A 
ATOM      5  C3  PXY d   1      -2.013   5.503  -3.862  0.00  0.00     0.003 A 
ATOM      6  C4  PXY d   1      -1.904   4.409  -4.678  0.00  0.00    -0.082 A 
ATOM      7  C5  PXY d   1      -2.487   3.247  -4.315  0.00  0.00     0.003 A 
ATOM      8  C6  PXY d   1      -3.186   3.186  -3.113  0.00  0.00     0.003 A 
ENDROOT
TORSDOF 0
ENDMDL
