MODEL 1
REMARK minimizedAffinity 9.05457401
REMARK minimizedRMSD -1
REMARK  0 active torsions:
REMARK  status: ('A' for Active; 'I' for Inactive)
ROOT
ATOM      1  C4' PXY d   1      -6.000  -6.000   0.362  0.00  0.00     0.077 C 
ATOM      2  C1' PXY d   1      -0.791  -3.498   0.215  0.00  0.00     0.077 C 
ATOM      3  C1  PXY d   1      -2.161  -4.145   0.263  0.00  0.00    -0.082 A 
ATOM      4  C2  PXY d   1      -2.301  -5.408  -0.107  0.00  0.00     0.003 A 
ATOM      5  C3  PXY d   1      -3.538  -6.000  -0.101  0.00  0.00     0.003 A 
ATOM      6  C4  PXY d   1      -4.634  -5.308   0.339  0.00  0.00    -0.082 A 
ATOM      7  C5  PXY d   1      -4.498  -4.023   0.729  0.00  0.00     0.003 A 
ATOM      8  C6  PXY d   1      -3.241  -3.428   0.676  0.00  0.00     0.003 A 
ENDROOT
TORSDOF 0
ENDMDL
