MODEL 1
REMARK minimizedAffinity 0.71196115
REMARK minimizedRMSD -1
REMARK  0 active torsions:
REMARK  status: ('A' for Active; 'I' for Inactive)
ROOT
ATOM      1  C4' PXY d   1      -5.338  -3.683   5.794  0.00  0.00     0.077 C 
ATOM      2  C1' PXY d   1      -4.981  -6.000   0.510  0.00  0.00     0.077 C 
ATOM      3  C1  PXY d   1      -5.086  -5.398   1.897  0.00  0.00    -0.082 A 
ATOM      4  C2  PXY d   1      -4.419  -4.292   2.183  0.00  0.00     0.003 A 
ATOM      5  C3  PXY d   1      -4.477  -3.752   3.442  0.00  0.00     0.003 A 
ATOM      6  C4  PXY d   1      -5.269  -4.320   4.403  0.00  0.00    -0.082 A 
ATOM      7  C5  PXY d   1      -5.962  -5.443   4.117  0.00  0.00     0.003 A 
ATOM      8  C6  PXY d   1      -5.856  -5.998   2.845  0.00  0.00     0.003 A 
ENDROOT
TORSDOF 0
ENDMDL
