MODEL 1
REMARK minimizedAffinity 11.6759129
REMARK minimizedRMSD -1
REMARK  0 active torsions:
REMARK  status: ('A' for Active; 'I' for Inactive)
ROOT
ATOM      1  C4' PXY d   1      -5.081   3.758  -0.395  0.00  0.00     0.077 C 
ATOM      2  C1' PXY d   1      -1.478   3.695  -4.915  0.00  0.00     0.077 C 
ATOM      3  C1  PXY d   1      -2.415   3.721  -3.724  0.00  0.00    -0.082 A 
ATOM      4  C2  PXY d   1      -3.158   2.660  -3.453  0.00  0.00     0.003 A 
ATOM      5  C3  PXY d   1      -4.034   2.678  -2.398  0.00  0.00     0.003 A 
ATOM      6  C4  PXY d   1      -4.113   3.773  -1.581  0.00  0.00    -0.082 A 
ATOM      7  C5  PXY d   1      -3.351   4.856  -1.845  0.00  0.00     0.003 A 
ATOM      8  C6  PXY d   1      -2.498   4.833  -2.944  0.00  0.00     0.003 A 
ENDROOT
TORSDOF 0
ENDMDL
