MODEL 1
REMARK minimizedAffinity 16.2138786
REMARK minimizedRMSD -1
REMARK  0 active torsions:
REMARK  status: ('A' for Active; 'I' for Inactive)
ROOT
ATOM      1  C4' PXY d   1      -2.917  -3.036   3.702  0.00  0.00     0.077 C 
ATOM      2  C1' PXY d   1       1.929  -0.547   1.769  0.00  0.00     0.077 C 
ATOM      3  C1  PXY d   1       0.658  -1.192   2.287  0.00  0.00    -0.082 A 
ATOM      4  C2  PXY d   1       0.332  -2.409   1.884  0.00  0.00     0.003 A 
ATOM      5  C3  PXY d   1      -0.830  -2.994   2.317  0.00  0.00     0.003 A 
ATOM      6  C4  PXY d   1      -1.639  -2.349   3.213  0.00  0.00    -0.082 A 
ATOM      7  C5  PXY d   1      -1.307  -1.111   3.638  0.00  0.00     0.003 A 
ATOM      8  C6  PXY d   1      -0.145  -0.518   3.154  0.00  0.00     0.003 A 
ENDROOT
TORSDOF 0
ENDMDL
