MODEL 1
REMARK minimizedAffinity 1.93643665
REMARK minimizedRMSD -1
REMARK  0 active torsions:
REMARK  status: ('A' for Active; 'I' for Inactive)
ROOT
ATOM      1  C4' PXY d   1      -4.113  -3.457   3.754  0.00  0.00     0.077 C 
ATOM      2  C1' PXY d   1      -3.988  -6.000  -1.436  0.00  0.00     0.077 C 
ATOM      3  C1  PXY d   1      -4.031  -5.340  -0.072  0.00  0.00    -0.082 A 
ATOM      4  C2  PXY d   1      -3.530  -4.126   0.084  0.00  0.00     0.003 A 
ATOM      5  C3  PXY d   1      -3.532  -3.527   1.318  0.00  0.00     0.003 A 
ATOM      6  C4  PXY d   1      -4.100  -4.157   2.392  0.00  0.00    -0.082 A 
ATOM      7  C5  PXY d   1      -4.622  -5.393   2.240  0.00  0.00     0.003 A 
ATOM      8  C6  PXY d   1      -4.574  -5.999   0.988  0.00  0.00     0.003 A 
ENDROOT
TORSDOF 0
ENDMDL
