MODEL 1
REMARK minimizedAffinity 1.4125824
REMARK minimizedRMSD -1
REMARK  0 active torsions:
REMARK  status: ('A' for Active; 'I' for Inactive)
ROOT
ATOM      1  C4' PXY d   1       5.079  -3.339  -6.000  0.00  0.00     0.077 C 
ATOM      2  C1' PXY d   1       0.132  -5.998  -4.634  0.00  0.00     0.077 C 
ATOM      3  C1  PXY d   1       1.435  -5.312  -4.993  0.00  0.00    -0.082 A 
ATOM      4  C2  PXY d   1       1.628  -4.050  -4.644  0.00  0.00     0.003 A 
ATOM      5  C3  PXY d   1       2.788  -3.405  -4.989  0.00  0.00     0.003 A 
ATOM      6  C4  PXY d   1       3.783  -4.074  -5.650  0.00  0.00    -0.082 A 
ATOM      7  C5  PXY d   1       3.598  -5.365  -6.000  0.00  0.00     0.003 A 
ATOM      8  C6  PXY d   1       2.397  -5.990  -5.677  0.00  0.00     0.003 A 
ENDROOT
TORSDOF 0
ENDMDL
