MODEL 1
REMARK minimizedAffinity 17.4553509
REMARK minimizedRMSD -1
REMARK  0 active torsions:
REMARK  status: ('A' for Active; 'I' for Inactive)
ROOT
ATOM      1  C4' PXY d   1       4.110  -1.499  -4.290  0.00  0.00     0.077 C 
ATOM      2  C1' PXY d   1       0.766  -5.893  -5.999  0.00  0.00     0.077 C 
ATOM      3  C1  PXY d   1       1.654  -4.748  -5.553  0.00  0.00    -0.082 A 
ATOM      4  C2  PXY d   1       1.171  -3.826  -4.736  0.00  0.00     0.003 A 
ATOM      5  C3  PXY d   1       1.950  -2.766  -4.348  0.00  0.00     0.003 A 
ATOM      6  C4  PXY d   1       3.253  -2.678  -4.759  0.00  0.00    -0.082 A 
ATOM      7  C5  PXY d   1       3.756  -3.620  -5.584  0.00  0.00     0.003 A 
ATOM      8  C6  PXY d   1       2.937  -4.666  -5.999  0.00  0.00     0.003 A 
ENDROOT
TORSDOF 0
ENDMDL
