MODEL 1
REMARK minimizedAffinity 1.0138303
REMARK minimizedRMSD -1
REMARK  0 active torsions:
REMARK  status: ('A' for Active; 'I' for Inactive)
ROOT
ATOM      1  C4' PXY d   1      -4.196  -6.000  -1.375  0.00  0.00     0.077 C 
ATOM      2  C1' PXY d   1      -4.544  -3.431   3.792  0.00  0.00     0.077 C 
ATOM      3  C1  PXY d   1      -4.455  -4.117   2.443  0.00  0.00    -0.082 A 
ATOM      4  C2  PXY d   1      -3.777  -3.543   1.462  0.00  0.00     0.003 A 
ATOM      5  C3  PXY d   1      -3.713  -4.133   0.226  0.00  0.00     0.003 A 
ATOM      6  C4  PXY d   1      -4.304  -5.349   0.007  0.00  0.00    -0.082 A 
ATOM      7  C5  PXY d   1      -4.989  -5.945   1.006  0.00  0.00     0.003 A 
ATOM      8  C6  PXY d   1      -5.077  -5.310   2.241  0.00  0.00     0.003 A 
ENDROOT
TORSDOF 0
ENDMDL
