MODEL 1
REMARK minimizedAffinity -4.41891956
REMARK minimizedRMSD -1
REMARK  0 active torsions:
REMARK  status: ('A' for Active; 'I' for Inactive)
ROOT
ATOM      1  C2' OXE d   1      -1.638   0.579   1.876  0.00  0.00     0.078 C 
ATOM      2  C1' OXE d   1       0.731  -0.751   2.585  0.00  0.00     0.078 C 
ATOM      3  C1  OXE d   1       0.448  -0.552   1.117  0.00  0.00    -0.078 A 
ATOM      4  C2  OXE d   1      -0.735   0.058   0.778  0.00  0.00    -0.078 A 
ATOM      5  C3  OXE d   1      -1.020   0.315  -0.561  0.00  0.00     0.003 A 
ATOM      6  C4  OXE d   1      -0.185  -0.178  -1.570  0.00  0.00    -0.002 A 
ATOM      7  C5  OXE d   1       1.006  -0.837  -1.248  0.00  0.00    -0.002 A 
ATOM      8  C6  OXE d   1       1.358  -0.995   0.089  0.00  0.00     0.003 A 
ENDROOT
TORSDOF 0
ENDMDL
