MODEL 1
REMARK minimizedAffinity -3.85506105
REMARK minimizedRMSD -1
REMARK  0 active torsions:
REMARK  status: ('A' for Active; 'I' for Inactive)
ROOT
ATOM      1  C2' OXE d   1       0.805  -0.541   2.750  0.00  0.00     0.078 C 
ATOM      2  C1' OXE d   1      -1.732  -0.004   1.676  0.00  0.00     0.078 C 
ATOM      3  C1  OXE d   1      -0.588  -0.201   0.713  0.00  0.00    -0.078 A 
ATOM      4  C2  OXE d   1       0.659  -0.417   1.249  0.00  0.00    -0.078 A 
ATOM      5  C3  OXE d   1       1.739  -0.660   0.405  0.00  0.00     0.003 A 
ATOM      6  C4  OXE d   1       1.597  -0.534  -0.982  0.00  0.00    -0.002 A 
ATOM      7  C5  OXE d   1       0.344  -0.275  -1.547  0.00  0.00    -0.002 A 
ATOM      8  C6  OXE d   1      -0.764  -0.149  -0.717  0.00  0.00     0.003 A 
ENDROOT
TORSDOF 0
ENDMDL
