MODEL 1
REMARK minimizedAffinity -4.36552811
REMARK minimizedRMSD -1
REMARK  0 active torsions:
REMARK  status: ('A' for Active; 'I' for Inactive)
ROOT
ATOM      1  C2' OXE d   1       2.658  -0.853   0.170  0.00  0.00     0.078 C 
ATOM      2  C1' OXE d   1       1.677  -0.647   2.793  0.00  0.00     0.078 C 
ATOM      3  C1  OXE d   1       0.674  -0.692   1.667  0.00  0.00    -0.078 A 
ATOM      4  C2  OXE d   1       1.164  -0.745   0.385  0.00  0.00    -0.078 A 
ATOM      5  C3  OXE d   1       0.281  -0.843  -0.687  0.00  0.00     0.003 A 
ATOM      6  C4  OXE d   1      -1.099  -0.732  -0.481  0.00  0.00    -0.002 A 
ATOM      7  C5  OXE d   1      -1.618  -0.637   0.815  0.00  0.00    -0.002 A 
ATOM      8  C6  OXE d   1      -0.749  -0.659   1.900  0.00  0.00     0.003 A 
ENDROOT
TORSDOF 0
ENDMDL
