MODEL 1
REMARK minimizedAffinity -4.42575026
REMARK minimizedRMSD -1
REMARK  0 active torsions:
REMARK  status: ('A' for Active; 'I' for Inactive)
ROOT
ATOM      1  C2' OXE d   1      -2.057  -0.395   1.149  0.00  0.00     0.078 C 
ATOM      2  C1' OXE d   1      -0.444   0.299  -1.042  0.00  0.00     0.078 C 
ATOM      3  C1  OXE d   1       0.233   0.073   0.287  0.00  0.00    -0.078 A 
ATOM      4  C2  OXE d   1      -0.569  -0.220   1.364  0.00  0.00    -0.078 A 
ATOM      5  C3  OXE d   1       0.009  -0.491   2.601  0.00  0.00     0.003 A 
ATOM      6  C4  OXE d   1       1.385  -0.318   2.793  0.00  0.00    -0.002 A 
ATOM      7  C5  OXE d   1       2.215   0.019   1.719  0.00  0.00    -0.002 A 
ATOM      8  C6  OXE d   1       1.662   0.176   0.453  0.00  0.00     0.003 A 
ENDROOT
TORSDOF 0
ENDMDL
