MODEL 1
REMARK minimizedAffinity -3.36487103
REMARK minimizedRMSD -1
REMARK  0 active torsions:
REMARK  status: ('A' for Active; 'I' for Inactive)
ROOT
ATOM      1  C2' OXE d   1      -2.075  -0.745   0.659  0.00  0.00     0.078 C 
ATOM      2  C1' OXE d   1      -0.380   0.914  -0.842  0.00  0.00     0.078 C 
ATOM      3  C1  OXE d   1       0.178   0.289   0.412  0.00  0.00    -0.078 A 
ATOM      4  C2  OXE d   1      -0.673  -0.484   1.165  0.00  0.00    -0.078 A 
ATOM      5  C3  OXE d   1      -0.194  -1.129   2.302  0.00  0.00     0.003 A 
ATOM      6  C4  OXE d   1       1.101  -0.875   2.769  0.00  0.00    -0.002 A 
ATOM      7  C5  OXE d   1       1.972  -0.059   2.038  0.00  0.00    -0.002 A 
ATOM      8  C6  OXE d   1       1.540   0.495   0.838  0.00  0.00     0.003 A 
ENDROOT
TORSDOF 0
ENDMDL
