MODEL 1
REMARK minimizedAffinity -3.9610827
REMARK minimizedRMSD -1
REMARK  0 active torsions:
REMARK  status: ('A' for Active; 'I' for Inactive)
ROOT
ATOM      1  C2' OXE d   1       0.792  -1.350  -1.832  0.00  0.00     0.078 C 
ATOM      2  C1' OXE d   1      -0.373   0.699  -0.307  0.00  0.00     0.078 C 
ATOM      3  C1  OXE d   1       0.670  -0.165   0.356  0.00  0.00    -0.078 A 
ATOM      4  C2  OXE d   1       1.201  -1.195  -0.383  0.00  0.00    -0.078 A 
ATOM      5  C3  OXE d   1       2.207  -1.988   0.162  0.00  0.00     0.003 A 
ATOM      6  C4  OXE d   1       2.573  -1.844   1.506  0.00  0.00    -0.002 A 
ATOM      7  C5  OXE d   1       2.016  -0.827   2.288  0.00  0.00    -0.002 A 
ATOM      8  C6  OXE d   1       1.096   0.046   1.717  0.00  0.00     0.003 A 
ENDROOT
TORSDOF 0
ENDMDL
