MODEL 1
REMARK minimizedAffinity -5.6467886
REMARK minimizedRMSD -1
REMARK  0 active torsions:
REMARK  status: ('A' for Active; 'I' for Inactive)
ROOT
ATOM      1  C2' OXE d   1      -0.042  -0.584  -1.577  0.00  0.00     0.078 C 
ATOM      2  C1' OXE d   1       2.404  -1.268  -0.383  0.00  0.00     0.078 C 
ATOM      3  C1  OXE d   1       1.283  -0.818   0.519  0.00  0.00    -0.078 A 
ATOM      4  C2  OXE d   1       0.104  -0.441  -0.077  0.00  0.00    -0.078 A 
ATOM      5  C3  OXE d   1      -0.981  -0.070   0.712  0.00  0.00     0.003 A 
ATOM      6  C4  OXE d   1      -0.834   0.070   2.098  0.00  0.00    -0.002 A 
ATOM      7  C5  OXE d   1       0.371  -0.272   2.722  0.00  0.00    -0.002 A 
ATOM      8  C6  OXE d   1       1.423  -0.757   1.953  0.00  0.00     0.003 A 
ENDROOT
TORSDOF 0
ENDMDL
