MODEL 1
REMARK minimizedAffinity -3.03340912
REMARK minimizedRMSD -1
REMARK  0 active torsions:
REMARK  status: ('A' for Active; 'I' for Inactive)
ROOT
ATOM      1  C2' OXE d   1      -2.024   0.345   0.945  0.00  0.00     0.078 C 
ATOM      2  C1' OXE d   1      -0.235   0.405  -1.217  0.00  0.00     0.078 C 
ATOM      3  C1  OXE d   1       0.310   0.021   0.136  0.00  0.00    -0.078 A 
ATOM      4  C2  OXE d   1      -0.563   0.040   1.197  0.00  0.00    -0.078 A 
ATOM      5  C3  OXE d   1      -0.125  -0.359   2.457  0.00  0.00     0.003 A 
ATOM      6  C4  OXE d   1       1.230  -0.629   2.683  0.00  0.00    -0.002 A 
ATOM      7  C5  OXE d   1       2.143  -0.615   1.624  0.00  0.00    -0.002 A 
ATOM      8  C6  OXE d   1       1.693  -0.334   0.339  0.00  0.00     0.003 A 
ENDROOT
TORSDOF 0
ENDMDL
