MODEL 1
REMARK minimizedAffinity -3.5772922
REMARK minimizedRMSD -1
REMARK  2 active torsions:
REMARK  status: ('A' for Active; 'I' for Inactive)
REMARK    1  A    between atoms: C2'_3  and  C1'_4 
REMARK    2  A    between atoms: C1'_4  and  C1_5 
ROOT
ATOM      1  C1  I4B d   1      -0.347   0.001  -0.952  0.00  0.00    -0.075 A 
ATOM      2  C2  I4B d   1      -0.020  -0.078   0.378  0.00  0.00     0.003 A 
ATOM      3  C3  I4B d   1       1.300  -0.408   0.770  0.00  0.00     0.002 A 
ATOM      4  C4  I4B d   1       2.242  -0.700  -0.196  0.00  0.00    -0.004 A 
ATOM      5  C5  I4B d   1       1.915  -0.597  -1.545  0.00  0.00     0.002 A 
ATOM      6  C6  I4B d   1       0.615  -0.232  -1.926  0.00  0.00     0.003 A 
ENDROOT
BRANCH   1   7
ATOM      7  C1' I4B d   1      -1.759   0.320  -1.330  0.00  0.00     0.060 C 
BRANCH   7   8
ATOM      8  C2' I4B d   1      -1.724   1.234  -2.538  0.00  0.00    -0.013 C 
ATOM      9  C4' I4B d   1      -3.062   1.277  -3.228  0.00  0.00     0.013 C 
ATOM     10  C3' I4B d   1      -1.309   2.599  -2.075  0.00  0.00     0.013 C 
ENDBRANCH   7   8
ENDBRANCH   1   7
TORSDOF 2
ENDMDL
