MODEL 1
REMARK minimizedAffinity -4.58684874
REMARK minimizedRMSD -1
REMARK  2 active torsions:
REMARK  status: ('A' for Active; 'I' for Inactive)
REMARK    1  A    between atoms: C2'_3  and  C1'_4 
REMARK    2  A    between atoms: C1'_4  and  C1_5 
ROOT
ATOM      1  C1  I4B d   1      -0.110  -0.134  -0.078  0.00  0.00    -0.075 A 
ATOM      2  C2  I4B d   1       0.647  -0.568  -1.138  0.00  0.00     0.003 A 
ATOM      3  C3  I4B d   1       1.611  -1.589  -0.955  0.00  0.00     0.002 A 
ATOM      4  C4  I4B d   1       1.818  -2.110   0.306  0.00  0.00    -0.004 A 
ATOM      5  C5  I4B d   1       1.034  -1.686   1.375  0.00  0.00     0.002 A 
ATOM      6  C6  I4B d   1       0.056  -0.700   1.180  0.00  0.00     0.003 A 
ENDROOT
BRANCH   1   7
ATOM      7  C1' I4B d   1      -1.095   0.969  -0.299  0.00  0.00     0.060 C 
BRANCH   7   8
ATOM      8  C2' I4B d   1      -1.396   1.035  -1.783  0.00  0.00    -0.013 C 
ATOM      9  C4' I4B d   1      -2.848   0.748  -2.058  0.00  0.00     0.013 C 
ATOM     10  C3' I4B d   1      -1.012   2.400  -2.272  0.00  0.00     0.013 C 
ENDBRANCH   7   8
ENDBRANCH   1   7
TORSDOF 2
ENDMDL
