MODEL 1
REMARK minimizedAffinity -0.0614714734
REMARK minimizedRMSD -1
REMARK  2 active torsions:
REMARK  status: ('A' for Active; 'I' for Inactive)
REMARK    1  A    between atoms: C2'_3  and  C1'_4 
REMARK    2  A    between atoms: C1'_4  and  C1_5 
ROOT
ATOM      1  C1  I4B d   1      -0.463  -0.145  -1.157  0.00  0.00    -0.075 A 
ATOM      2  C2  I4B d   1      -1.398   0.160  -0.200  0.00  0.00     0.003 A 
ATOM      3  C3  I4B d   1      -1.189  -0.222   1.148  0.00  0.00     0.002 A 
ATOM      4  C4  I4B d   1      -0.063  -0.946   1.482  0.00  0.00    -0.004 A 
ATOM      5  C5  I4B d   1       0.895  -1.235   0.514  0.00  0.00     0.002 A 
ATOM      6  C6  I4B d   1       0.700  -0.821  -0.812  0.00  0.00     0.003 A 
ENDROOT
BRANCH   1   7
ATOM      7  C1' I4B d   1      -0.731   0.245  -2.576  0.00  0.00     0.060 C 
BRANCH   7   8
ATOM      8  C2' I4B d   1      -1.635   1.461  -2.563  0.00  0.00    -0.013 C 
ATOM      9  C4' I4B d   1      -0.977   2.637  -3.235  0.00  0.00     0.013 C 
ATOM     10  C3' I4B d   1      -2.916   1.093  -3.250  0.00  0.00     0.013 C 
ENDBRANCH   7   8
ENDBRANCH   1   7
TORSDOF 2
ENDMDL
