MODEL 1
REMARK minimizedAffinity -2.0047977
REMARK minimizedRMSD -1
REMARK  2 active torsions:
REMARK  status: ('A' for Active; 'I' for Inactive)
REMARK    1  A    between atoms: C2'_3  and  C1'_4 
REMARK    2  A    between atoms: C1'_4  and  C1_5 
ROOT
ATOM      1  C1  I4B d   1      -0.201   0.435  -0.054  0.00  0.00    -0.075 A 
ATOM      2  C2  I4B d   1       0.928   0.308  -0.825  0.00  0.00     0.003 A 
ATOM      3  C3  I4B d   1       1.984  -0.538  -0.409  0.00  0.00     0.002 A 
ATOM      4  C4  I4B d   1       1.892  -1.195   0.801  0.00  0.00    -0.004 A 
ATOM      5  C5  I4B d   1       0.738  -1.084   1.570  0.00  0.00     0.002 A 
ATOM      6  C6  I4B d   1      -0.321  -0.273   1.134  0.00  0.00     0.003 A 
ENDROOT
BRANCH   1   7
ATOM      7  C1' I4B d   1      -1.283   1.362  -0.507  0.00  0.00     0.060 C 
BRANCH   7   8
ATOM      8  C2' I4B d   1      -1.379   1.266  -2.017  0.00  0.00    -0.013 C 
ATOM      9  C4' I4B d   1      -2.584   0.467  -2.437  0.00  0.00     0.013 C 
ATOM     10  C3' I4B d   1      -1.434   2.660  -2.567  0.00  0.00     0.013 C 
ENDBRANCH   7   8
ENDBRANCH   1   7
TORSDOF 2
ENDMDL
