MODEL 1
REMARK minimizedAffinity -5.14344025
REMARK minimizedRMSD -1
REMARK  2 active torsions:
REMARK  status: ('A' for Active; 'I' for Inactive)
REMARK    1  A    between atoms: C2'_3  and  C1'_4 
REMARK    2  A    between atoms: C1'_4  and  C1_5 
ROOT
ATOM      1  C1  I4B d   1      -0.688   0.436  -1.007  0.00  0.00    -0.075 A 
ATOM      2  C2  I4B d   1      -1.647   1.412  -0.907  0.00  0.00     0.003 A 
ATOM      3  C3  I4B d   1      -2.481   1.709  -2.013  0.00  0.00     0.002 A 
ATOM      4  C4  I4B d   1      -2.288   1.045  -3.207  0.00  0.00    -0.004 A 
ATOM      5  C5  I4B d   1      -1.330   0.039  -3.300  0.00  0.00     0.002 A 
ATOM      6  C6  I4B d   1      -0.533  -0.276  -2.190  0.00  0.00     0.003 A 
ENDROOT
BRANCH   1   7
ATOM      7  C1' I4B d   1       0.197   0.171   0.169  0.00  0.00     0.060 C 
BRANCH   7   8
ATOM      8  C2' I4B d   1       1.446  -0.524  -0.333  0.00  0.00    -0.013 C 
ATOM      9  C4' I4B d   1       2.517   0.472  -0.693  0.00  0.00     0.013 C 
ATOM     10  C3' I4B d   1       1.917  -1.461   0.739  0.00  0.00     0.013 C 
ENDBRANCH   7   8
ENDBRANCH   1   7
TORSDOF 2
ENDMDL
