MODEL 1
REMARK minimizedAffinity -3.25971103
REMARK minimizedRMSD -1
REMARK  2 active torsions:
REMARK  status: ('A' for Active; 'I' for Inactive)
REMARK    1  A    between atoms: C2'_3  and  C1'_4 
REMARK    2  A    between atoms: C1'_4  and  C1_5 
ROOT
ATOM      1  C1  I4B d   1      -0.070   0.235   0.000  0.00  0.00    -0.075 A 
ATOM      2  C2  I4B d   1       0.865   0.065  -0.991  0.00  0.00     0.003 A 
ATOM      3  C3  I4B d   1       1.928  -0.853  -0.817  0.00  0.00     0.002 A 
ATOM      4  C4  I4B d   1       2.047  -1.539   0.374  0.00  0.00    -0.004 A 
ATOM      5  C5  I4B d   1       1.086  -1.383   1.369  0.00  0.00     0.002 A 
ATOM      6  C6  I4B d   1       0.014  -0.499   1.176  0.00  0.00     0.003 A 
ENDROOT
BRANCH   1   7
ATOM      7  C1' I4B d   1      -1.161   1.238  -0.203  0.00  0.00     0.060 C 
BRANCH   7   8
ATOM      8  C2' I4B d   1      -1.311   1.470  -1.692  0.00  0.00    -0.013 C 
ATOM      9  C4' I4B d   1      -2.543   0.791  -2.229  0.00  0.00     0.013 C 
ATOM     10  C3' I4B d   1      -1.362   2.950  -1.927  0.00  0.00     0.013 C 
ENDBRANCH   7   8
ENDBRANCH   1   7
TORSDOF 2
ENDMDL
