MODEL 1
REMARK minimizedAffinity 4.310431
REMARK minimizedRMSD -1
REMARK  2 active torsions:
REMARK  status: ('A' for Active; 'I' for Inactive)
REMARK    1  A    between atoms: C2'_3  and  C1'_4 
REMARK    2  A    between atoms: C1'_4  and  C1_5 
ROOT
ATOM      1  C1  I4B d   1      -1.228   2.728  -1.934  0.00  0.00    -0.075 A 
ATOM      2  C2  I4B d   1      -1.728   2.844  -3.207  0.00  0.00     0.003 A 
ATOM      3  C3  I4B d   1      -2.440   1.770  -3.794  0.00  0.00     0.002 A 
ATOM      4  C4  I4B d   1      -2.584   0.588  -3.096  0.00  0.00    -0.004 A 
ATOM      5  C5  I4B d   1      -2.096   0.480  -1.797  0.00  0.00     0.002 A 
ATOM      6  C6  I4B d   1      -1.425   1.561  -1.207  0.00  0.00     0.003 A 
ENDROOT
BRANCH   1   7
ATOM      7  C1' I4B d   1      -0.453   3.869  -1.357  0.00  0.00     0.060 C 
BRANCH   7   8
ATOM      8  C2' I4B d   1      -1.201   5.148  -1.673  0.00  0.00    -0.013 C 
ATOM      9  C4' I4B d   1      -1.594   5.875  -0.414  0.00  0.00     0.013 C 
ATOM     10  C3' I4B d   1      -0.318   6.000  -2.536  0.00  0.00     0.013 C 
ENDBRANCH   7   8
ENDBRANCH   1   7
TORSDOF 2
ENDMDL
