MODEL 1
REMARK minimizedAffinity 7.58828688
REMARK minimizedRMSD -1
REMARK  2 active torsions:
REMARK  status: ('A' for Active; 'I' for Inactive)
REMARK    1  A    between atoms: C2'_3  and  C1'_4 
REMARK    2  A    between atoms: C1'_4  and  C1_5 
ROOT
ATOM      1  C1  I4B d   1      -2.661   3.660  -2.585  0.00  0.00    -0.075 A 
ATOM      2  C2  I4B d   1      -1.361   3.518  -3.002  0.00  0.00     0.003 A 
ATOM      3  C3  I4B d   1      -0.480   4.627  -2.980  0.00  0.00     0.002 A 
ATOM      4  C4  I4B d   1      -0.951   5.862  -2.585  0.00  0.00    -0.004 A 
ATOM      5  C5  I4B d   1      -2.263   5.999  -2.140  0.00  0.00     0.002 A 
ATOM      6  C6  I4B d   1      -3.120   4.889  -2.128  0.00  0.00     0.003 A 
ENDROOT
BRANCH   1   7
ATOM      7  C1' I4B d   1      -3.573   2.477  -2.652  0.00  0.00     0.060 C 
BRANCH   7   8
ATOM      8  C2' I4B d   1      -4.619   2.631  -1.567  0.00  0.00    -0.013 C 
ATOM      9  C4' I4B d   1      -5.975   2.920  -2.154  0.00  0.00     0.013 C 
ATOM     10  C3' I4B d   1      -4.637   1.369  -0.758  0.00  0.00     0.013 C 
ENDBRANCH   7   8
ENDBRANCH   1   7
TORSDOF 2
ENDMDL
