MODEL 1
REMARK minimizedAffinity 8.08944416
REMARK minimizedRMSD -1
REMARK  2 active torsions:
REMARK  status: ('A' for Active; 'I' for Inactive)
REMARK    1  A    between atoms: C2'_3  and  C1'_4 
REMARK    2  A    between atoms: C1'_4  and  C1_5 
ROOT
ATOM      1  C1  I4B d   1      -0.315  -0.216   0.259  0.00  0.00    -0.075 A 
ATOM      2  C2  I4B d   1       0.683   0.387   0.983  0.00  0.00     0.003 A 
ATOM      3  C3  I4B d   1       1.910   0.723   0.362  0.00  0.00     0.002 A 
ATOM      4  C4  I4B d   1       2.114   0.396  -0.963  0.00  0.00    -0.004 A 
ATOM      5  C5  I4B d   1       1.092  -0.194  -1.701  0.00  0.00     0.002 A 
ATOM      6  C6  I4B d   1      -0.135  -0.491  -1.090  0.00  0.00     0.003 A 
ENDROOT
BRANCH   1   7
ATOM      7  C1' I4B d   1      -1.586  -0.588   0.955  0.00  0.00     0.060 C 
BRANCH   7   8
ATOM      8  C2' I4B d   1      -2.372  -1.500   0.035  0.00  0.00    -0.013 C 
ATOM      9  C4' I4B d   1      -2.434  -2.902   0.581  0.00  0.00     0.013 C 
ATOM     10  C3' I4B d   1      -3.746  -0.922  -0.128  0.00  0.00     0.013 C 
ENDBRANCH   7   8
ENDBRANCH   1   7
TORSDOF 2
ENDMDL
