MODEL 1
REMARK minimizedAffinity -5.10478783
REMARK minimizedRMSD -1
REMARK  2 active torsions:
REMARK  status: ('A' for Active; 'I' for Inactive)
REMARK    1  A    between atoms: C2'_3  and  C1'_4 
REMARK    2  A    between atoms: C1'_4  and  C1_5 
ROOT
ATOM      1  C1  I4B d   1      -0.414   0.291  -1.204  0.00  0.00    -0.075 A 
ATOM      2  C2  I4B d   1      -1.125   1.459  -1.088  0.00  0.00     0.003 A 
ATOM      3  C3  I4B d   1      -1.773   2.014  -2.218  0.00  0.00     0.002 A 
ATOM      4  C4  I4B d   1      -1.642   1.400  -3.446  0.00  0.00    -0.004 A 
ATOM      5  C5  I4B d   1      -0.940   0.203  -3.557  0.00  0.00     0.002 A 
ATOM      6  C6  I4B d   1      -0.332  -0.362  -2.427  0.00  0.00     0.003 A 
ENDROOT
BRANCH   1   7
ATOM      7  C1' I4B d   1       0.286  -0.250   0.003  0.00  0.00     0.060 C 
BRANCH   7   8
ATOM      8  C2' I4B d   1       1.763  -0.346  -0.318  0.00  0.00    -0.013 C 
ATOM      9  C4' I4B d   1       2.432   1.000  -0.220  0.00  0.00     0.013 C 
ATOM     10  C3' I4B d   1       2.380  -1.328   0.633  0.00  0.00     0.013 C 
ENDBRANCH   7   8
ENDBRANCH   1   7
TORSDOF 2
ENDMDL
