MODEL 1
REMARK minimizedAffinity -1.99683642
REMARK minimizedRMSD -1
REMARK  2 active torsions:
REMARK  status: ('A' for Active; 'I' for Inactive)
REMARK    1  A    between atoms: C2'_3  and  C1'_4 
REMARK    2  A    between atoms: C1'_4  and  C1_5 
ROOT
ATOM      1  C1  I4B d   1       0.006   0.126  -1.581  0.00  0.00    -0.075 A 
ATOM      2  C2  I4B d   1       1.212  -0.454  -1.884  0.00  0.00     0.003 A 
ATOM      3  C3  I4B d   1       2.131  -0.767  -0.853  0.00  0.00     0.002 A 
ATOM      4  C4  I4B d   1       1.826  -0.440   0.452  0.00  0.00    -0.004 A 
ATOM      5  C5  I4B d   1       0.593   0.127   0.760  0.00  0.00     0.002 A 
ATOM      6  C6  I4B d   1      -0.328   0.401  -0.261  0.00  0.00     0.003 A 
ENDROOT
BRANCH   1   7
ATOM      7  C1' I4B d   1      -0.927   0.474  -2.697  0.00  0.00     0.060 C 
BRANCH   7   8
ATOM      8  C2' I4B d   1      -1.648   1.753  -2.322  0.00  0.00    -0.013 C 
ATOM      9  C4' I4B d   1      -0.938   2.961  -2.875  0.00  0.00     0.013 C 
ATOM     10  C3' I4B d   1      -3.051   1.663  -2.843  0.00  0.00     0.013 C 
ENDBRANCH   7   8
ENDBRANCH   1   7
TORSDOF 2
ENDMDL
