MODEL 1
REMARK minimizedAffinity -3.11912966
REMARK minimizedRMSD -1
REMARK  2 active torsions:
REMARK  status: ('A' for Active; 'I' for Inactive)
REMARK    1  A    between atoms: C2'_3  and  C1'_4 
REMARK    2  A    between atoms: C1'_4  and  C1_5 
ROOT
ATOM      1  C1  I4B d   1      -0.136   0.617  -0.882  0.00  0.00    -0.075 A 
ATOM      2  C2  I4B d   1      -0.013  -0.258  -1.932  0.00  0.00     0.003 A 
ATOM      3  C3  I4B d   1       1.145  -1.064  -2.056  0.00  0.00     0.002 A 
ATOM      4  C4  I4B d   1       2.170  -0.926  -1.142  0.00  0.00    -0.004 A 
ATOM      5  C5  I4B d   1       2.033  -0.055  -0.066  0.00  0.00     0.002 A 
ATOM      6  C6  I4B d   1       0.868   0.713   0.073  0.00  0.00     0.003 A 
ENDROOT
BRANCH   1   7
ATOM      7  C1' I4B d   1      -1.358   1.477  -0.800  0.00  0.00     0.060 C 
BRANCH   7   8
ATOM      8  C2' I4B d   1      -1.599   2.076  -2.170  0.00  0.00    -0.013 C 
ATOM      9  C4' I4B d   1      -2.934   1.651  -2.723  0.00  0.00     0.013 C 
ATOM     10  C3' I4B d   1      -1.516   3.568  -2.044  0.00  0.00     0.013 C 
ENDBRANCH   7   8
ENDBRANCH   1   7
TORSDOF 2
ENDMDL
