MODEL 1
REMARK minimizedAffinity -1.40212762
REMARK minimizedRMSD -1
REMARK  0 active torsions:
REMARK  status: ('A' for Active; 'I' for Inactive)
ROOT
ATOM      1  C   UNL d   1       2.824  -6.000  -2.247  0.00  0.00    -0.002 A 
ATOM      2  C1  UNL d   1       3.518  -6.000  -3.449  0.00  0.00     0.010 A 
ATOM      3  C2  UNL d   1       2.915  -5.528  -4.617  0.00  0.00     0.041 A 
ATOM      4  C3  UNL d   1       1.591  -5.050  -4.555  0.00  0.00    -0.075 A 
ATOM      5  S   UNL d   1       0.650  -4.423  -5.857  0.00  0.00     0.015 SA
ATOM      6  C4  UNL d   1      -0.694  -4.140  -4.848  0.00  0.00     0.022 A 
ATOM      7  C5  UNL d   1      -0.448  -4.509  -3.546  0.00  0.00     0.026 A 
ATOM      8  C6  UNL d   1       0.873  -5.039  -3.356  0.00  0.00    -0.082 A 
ATOM      9  C7  UNL d   1       1.511  -5.525  -2.190  0.00  0.00     0.045 A 
ENDROOT
TORSDOF 0
ENDMDL
