MODEL 1
REMARK minimizedAffinity 12.2005062
REMARK minimizedRMSD -1
REMARK  0 active torsions:
REMARK  status: ('A' for Active; 'I' for Inactive)
ROOT
ATOM      1  C   UNL d   1       0.371   1.660  -0.000  0.00  0.00    -0.002 A 
ATOM      2  C1  UNL d   1       0.004   2.321   1.163  0.00  0.00     0.010 A 
ATOM      3  C2  UNL d   1      -0.357   3.669   1.130  0.00  0.00     0.041 A 
ATOM      4  C3  UNL d   1      -0.345   4.348  -0.104  0.00  0.00    -0.075 A 
ATOM      5  S   UNL d   1      -0.750   6.000  -0.385  0.00  0.00     0.015 SA
ATOM      6  C4  UNL d   1      -0.446   5.867  -2.057  0.00  0.00     0.022 A 
ATOM      7  C5  UNL d   1      -0.044   4.601  -2.409  0.00  0.00     0.026 A 
ATOM      8  C6  UNL d   1       0.020   3.704  -1.289  0.00  0.00    -0.082 A 
ATOM      9  C7  UNL d   1       0.382   2.337  -1.223  0.00  0.00     0.045 A 
ENDROOT
TORSDOF 0
ENDMDL
