MODEL 1
REMARK minimizedAffinity -6.10656357
REMARK minimizedRMSD -1
REMARK  0 active torsions:
REMARK  status: ('A' for Active; 'I' for Inactive)
ROOT
ATOM      1  C   UNL d   1       1.557  -1.173   2.915  0.00  0.00    -0.002 A 
ATOM      2  C1  UNL d   1       2.666  -1.357   2.102  0.00  0.00     0.010 A 
ATOM      3  C2  UNL d   1       2.592  -1.104   0.731  0.00  0.00     0.041 A 
ATOM      4  C3  UNL d   1       1.373  -0.657   0.185  0.00  0.00    -0.075 A 
ATOM      5  S   UNL d   1       1.048  -0.284  -1.466  0.00  0.00     0.015 SA
ATOM      6  C4  UNL d   1      -0.571   0.130  -1.132  0.00  0.00     0.022 A 
ATOM      7  C5  UNL d   1      -0.873  -0.008   0.202  0.00  0.00     0.026 A 
ATOM      8  C6  UNL d   1       0.242  -0.463   0.983  0.00  0.00    -0.082 A 
ATOM      9  C7  UNL d   1       0.349  -0.729   2.369  0.00  0.00     0.045 A 
ENDROOT
TORSDOF 0
ENDMDL
