MODEL 1
REMARK minimizedAffinity -4.22433853
REMARK minimizedRMSD -1
REMARK  0 active torsions:
REMARK  status: ('A' for Active; 'I' for Inactive)
ROOT
ATOM      1  C   UNL d   1       2.356  -1.541   2.765  0.00  0.00    -0.002 A 
ATOM      2  C1  UNL d   1       2.888  -2.149   1.637  0.00  0.00     0.010 A 
ATOM      3  C2  UNL d   1       2.358  -1.887   0.372  0.00  0.00     0.041 A 
ATOM      4  C3  UNL d   1       1.275  -0.993   0.259  0.00  0.00    -0.075 A 
ATOM      5  S   UNL d   1       0.465  -0.520  -1.188  0.00  0.00     0.015 SA
ATOM      6  C4  UNL d   1      -0.606   0.501  -0.342  0.00  0.00     0.022 A 
ATOM      7  C5  UNL d   1      -0.366   0.493   1.011  0.00  0.00     0.026 A 
ATOM      8  C6  UNL d   1       0.723  -0.368   1.380  0.00  0.00    -0.082 A 
ATOM      9  C7  UNL d   1       1.282  -0.655   2.648  0.00  0.00     0.045 A 
ENDROOT
TORSDOF 0
ENDMDL
