MODEL 1
REMARK minimizedAffinity -3.42371106
REMARK minimizedRMSD -1
REMARK  0 active torsions:
REMARK  status: ('A' for Active; 'I' for Inactive)
ROOT
ATOM      1  C   UNL d   1       0.420  -0.616   2.891  0.00  0.00    -0.002 A 
ATOM      2  C1  UNL d   1      -0.798  -0.179   2.391  0.00  0.00     0.010 A 
ATOM      3  C2  UNL d   1      -1.028  -0.143   1.014  0.00  0.00     0.041 A 
ATOM      4  C3  UNL d   1      -0.005  -0.558   0.141  0.00  0.00    -0.075 A 
ATOM      5  S   UNL d   1      -0.061  -0.601  -1.582  0.00  0.00     0.015 SA
ATOM      6  C4  UNL d   1       1.530  -1.201  -1.694  0.00  0.00     0.022 A 
ATOM      7  C5  UNL d   1       2.106  -1.370  -0.457  0.00  0.00     0.026 A 
ATOM      8  C6  UNL d   1       1.231  -1.003   0.621  0.00  0.00    -0.082 A 
ATOM      9  C7  UNL d   1       1.434  -1.028   2.022  0.00  0.00     0.045 A 
ENDROOT
TORSDOF 0
ENDMDL
