MODEL 1
REMARK minimizedAffinity 0.288733631
REMARK minimizedRMSD -1
REMARK  3 active torsions:
REMARK  status: ('A' for Active; 'I' for Inactive)
REMARK    1  A    between atoms: C3'_2  and  C2'_3 
REMARK    2  A    between atoms: C2'_3  and  C1'_4 
REMARK    3  A    between atoms: C1'_4  and  C1_5 
ROOT
ATOM      1  C1  N4B d   1       0.709   1.347   0.145  0.00  0.00    -0.075 A 
ATOM      2  C2  N4B d   1      -0.106   1.033   1.255  0.00  0.00     0.002 A 
ATOM      3  C3  N4B d   1      -1.177   0.186   1.102  0.00  0.00     0.002 A 
ATOM      4  C4  N4B d   1      -1.461  -0.342  -0.148  0.00  0.00    -0.004 A 
ATOM      5  C5  N4B d   1      -0.654  -0.054  -1.209  0.00  0.00     0.002 A 
ATOM      6  C6  N4B d   1       0.428   0.792  -1.070  0.00  0.00     0.002 A 
ENDROOT
BRANCH   1   7
ATOM      7  C1' N4B d   1       1.839   2.335   0.244  0.00  0.00     0.057 C 
BRANCH   7   8
ATOM      8  C2' N4B d   1       1.296   3.666   0.756  0.00  0.00     0.009 C 
BRANCH   8   9
ATOM      9  C3' N4B d   1       1.518   3.833   2.249  0.00  0.00     0.004 C 
ATOM     10  C4' N4B d   1       0.385   4.543   2.928  0.00  0.00     0.003 C 
ENDBRANCH   8   9
ENDBRANCH   7   8
ENDBRANCH   1   7
TORSDOF 3
ENDMDL
