MODEL 1
REMARK minimizedAffinity -1.42303479
REMARK minimizedRMSD -1
REMARK  3 active torsions:
REMARK  status: ('A' for Active; 'I' for Inactive)
REMARK    1  A    between atoms: C3'_2  and  C2'_3 
REMARK    2  A    between atoms: C2'_3  and  C1'_4 
REMARK    3  A    between atoms: C1'_4  and  C1_5 
ROOT
ATOM      1  C1  N4B d   1       1.015   1.516   0.071  0.00  0.00    -0.075 A 
ATOM      2  C2  N4B d   1       0.569   2.626   0.823  0.00  0.00     0.002 A 
ATOM      3  C3  N4B d   1       1.463   3.590   1.219  0.00  0.00     0.002 A 
ATOM      4  C4  N4B d   1       2.804   3.458   0.894  0.00  0.00    -0.004 A 
ATOM      5  C5  N4B d   1       3.223   2.397   0.146  0.00  0.00     0.002 A 
ATOM      6  C6  N4B d   1       2.335   1.422  -0.263  0.00  0.00     0.002 A 
ENDROOT
BRANCH   1   7
ATOM      7  C1' N4B d   1       0.091   0.393  -0.311  0.00  0.00     0.057 C 
BRANCH   7   8
ATOM      8  C2' N4B d   1      -1.045   0.312   0.703  0.00  0.00     0.009 C 
BRANCH   8   9
ATOM      9  C3' N4B d   1      -0.756  -0.697   1.801  0.00  0.00     0.004 C 
ATOM     10  C4' N4B d   1      -1.415  -2.023   1.560  0.00  0.00     0.003 C 
ENDBRANCH   8   9
ENDBRANCH   7   8
ENDBRANCH   1   7
TORSDOF 3
ENDMDL
