MODEL 1
REMARK minimizedAffinity 6.40028667
REMARK minimizedRMSD -1
REMARK  3 active torsions:
REMARK  status: ('A' for Active; 'I' for Inactive)
REMARK    1  A    between atoms: C3'_2  and  C2'_3 
REMARK    2  A    between atoms: C2'_3  and  C1'_4 
REMARK    3  A    between atoms: C1'_4  and  C1_5 
ROOT
ATOM      1  C1  N4B d   1       1.385   1.897   0.667  0.00  0.00    -0.075 A 
ATOM      2  C2  N4B d   1       0.204   2.502   1.149  0.00  0.00     0.002 A 
ATOM      3  C3  N4B d   1       0.280   3.622   1.940  0.00  0.00     0.002 A 
ATOM      4  C4  N4B d   1       1.521   4.141   2.278  0.00  0.00    -0.004 A 
ATOM      5  C5  N4B d   1       2.656   3.565   1.788  0.00  0.00     0.002 A 
ATOM      6  C6  N4B d   1       2.595   2.442   0.988  0.00  0.00     0.002 A 
ENDROOT
BRANCH   1   7
ATOM      7  C1' N4B d   1       1.356   0.622  -0.130  0.00  0.00     0.057 C 
BRANCH   7   8
ATOM      8  C2' N4B d   1      -0.078   0.104  -0.194  0.00  0.00     0.009 C 
BRANCH   8   9
ATOM      9  C3' N4B d   1      -0.479  -0.617   1.081  0.00  0.00     0.004 C 
ATOM     10  C4' N4B d   1      -1.859  -0.253   1.544  0.00  0.00     0.003 C 
ENDBRANCH   8   9
ENDBRANCH   7   8
ENDBRANCH   1   7
TORSDOF 3
ENDMDL
