MODEL 1
REMARK minimizedAffinity -1.16642201
REMARK minimizedRMSD -1
REMARK  3 active torsions:
REMARK  status: ('A' for Active; 'I' for Inactive)
REMARK    1  A    between atoms: C3'_2  and  C2'_3 
REMARK    2  A    between atoms: C2'_3  and  C1'_4 
REMARK    3  A    between atoms: C1'_4  and  C1_5 
ROOT
ATOM      1  C1  N4B d   1       1.266   1.446   0.134  0.00  0.00    -0.075 A 
ATOM      2  C2  N4B d   1       0.861   2.507   0.974  0.00  0.00     0.002 A 
ATOM      3  C3  N4B d   1       1.776   3.447   1.382  0.00  0.00     0.002 A 
ATOM      4  C4  N4B d   1       3.099   3.336   0.981  0.00  0.00    -0.004 A 
ATOM      5  C5  N4B d   1       3.477   2.322   0.150  0.00  0.00     0.002 A 
ATOM      6  C6  N4B d   1       2.567   1.373  -0.272  0.00  0.00     0.002 A 
ENDROOT
BRANCH   1   7
ATOM      7  C1' N4B d   1       0.321   0.347  -0.268  0.00  0.00     0.057 C 
BRANCH   7   8
ATOM      8  C2' N4B d   1      -1.112   0.796  -0.001  0.00  0.00     0.009 C 
BRANCH   8   9
ATOM      9  C3' N4B d   1      -1.765  -0.017   1.104  0.00  0.00     0.004 C 
ATOM     10  C4' N4B d   1      -0.800  -0.415   2.180  0.00  0.00     0.003 C 
ENDBRANCH   8   9
ENDBRANCH   7   8
ENDBRANCH   1   7
TORSDOF 3
ENDMDL
