MODEL 1
REMARK minimizedAffinity 5.77155876
REMARK minimizedRMSD -1
REMARK  3 active torsions:
REMARK  status: ('A' for Active; 'I' for Inactive)
REMARK    1  A    between atoms: C3'_2  and  C2'_3 
REMARK    2  A    between atoms: C2'_3  and  C1'_4 
REMARK    3  A    between atoms: C1'_4  and  C1_5 
ROOT
ATOM      1  C1  N4B d   1       0.270   1.704   0.557  0.00  0.00    -0.075 A 
ATOM      2  C2  N4B d   1      -0.109   2.974   1.043  0.00  0.00     0.002 A 
ATOM      3  C3  N4B d   1       0.833   3.963   1.187  0.00  0.00     0.002 A 
ATOM      4  C4  N4B d   1       2.157   3.700   0.870  0.00  0.00    -0.004 A 
ATOM      5  C5  N4B d   1       2.511   2.478   0.377  0.00  0.00     0.002 A 
ATOM      6  C6  N4B d   1       1.574   1.476   0.223  0.00  0.00     0.002 A 
ENDROOT
BRANCH   1   7
ATOM      7  C1' N4B d   1      -0.708   0.565   0.463  0.00  0.00     0.057 C 
BRANCH   7   8
ATOM      8  C2' N4B d   1      -0.940  -0.011   1.857  0.00  0.00     0.009 C 
BRANCH   8   9
ATOM      9  C3' N4B d   1      -2.046  -1.053   1.865  0.00  0.00     0.004 C 
ATOM     10  C4' N4B d   1      -1.613  -2.364   1.281  0.00  0.00     0.003 C 
ENDBRANCH   8   9
ENDBRANCH   7   8
ENDBRANCH   1   7
TORSDOF 3
ENDMDL
