MODEL 1
REMARK minimizedAffinity 2.50581288
REMARK minimizedRMSD -1
REMARK  2 active torsions:
REMARK  status: ('A' for Active; 'I' for Inactive)
REMARK    1  A    between atoms: C1_2  and  C2_3 
REMARK    2  A    between atoms: C2_3  and  C3_4 
ROOT
ATOM      1  C3  UNL d   1      -4.985   3.802   3.651  0.00  0.00    -0.075 A 
ATOM      2  C4  UNL d   1      -4.786   3.793   5.039  0.00  0.00     0.002 A 
ATOM      3  C5  UNL d   1      -5.202   4.870   5.821  0.00  0.00     0.002 A 
ATOM      4  C6  UNL d   1      -5.812   5.973   5.226  0.00  0.00    -0.004 A 
ATOM      5  C7  UNL d   1      -6.000   6.000   3.846  0.00  0.00     0.002 A 
ATOM      6  C8  UNL d   1      -5.588   4.921   3.062  0.00  0.00     0.002 A 
ENDROOT
BRANCH   1   7
ATOM      7  C2  UNL d   1      -4.564   2.626   2.802  0.00  0.00     0.056 C 
BRANCH   7   8
ATOM      8  C1  UNL d   1      -4.357   1.329   3.592  0.00  0.00     0.007 C 
ATOM      9  C   UNL d   1      -5.196   0.169   3.073  0.00  0.00     0.009 C 
ENDBRANCH   7   8
ENDBRANCH   1   7
TORSDOF 2
ENDMDL
