MODEL 1
REMARK minimizedAffinity 16.5557194
REMARK minimizedRMSD -1
REMARK  2 active torsions:
REMARK  status: ('A' for Active; 'I' for Inactive)
REMARK    1  A    between atoms: C1_2  and  C2_3 
REMARK    2  A    between atoms: C2_3  and  C3_4 
ROOT
ATOM      1  C3  UNL d   1      -3.195  -4.822  -2.658  0.00  0.00    -0.075 A 
ATOM      2  C4  UNL d   1      -3.876  -5.983  -2.263  0.00  0.00     0.002 A 
ATOM      3  C5  UNL d   1      -5.269  -5.997  -2.187  0.00  0.00     0.002 A 
ATOM      4  C6  UNL d   1      -5.997  -4.850  -2.494  0.00  0.00    -0.004 A 
ATOM      5  C7  UNL d   1      -5.331  -3.686  -2.871  0.00  0.00     0.002 A 
ATOM      6  C8  UNL d   1      -3.938  -3.670  -2.953  0.00  0.00     0.002 A 
ENDROOT
BRANCH   1   7
ATOM      7  C2  UNL d   1      -1.690  -4.809  -2.771  0.00  0.00     0.056 C 
BRANCH   7   8
ATOM      8  C1  UNL d   1      -1.164  -5.233  -4.146  0.00  0.00     0.007 C 
ATOM      9  C   UNL d   1       0.324  -4.966  -4.328  0.00  0.00     0.009 C 
ENDBRANCH   7   8
ENDBRANCH   1   7
TORSDOF 2
ENDMDL
