MODEL 1
REMARK minimizedAffinity 6.2901845
REMARK minimizedRMSD -1
REMARK  2 active torsions:
REMARK  status: ('A' for Active; 'I' for Inactive)
REMARK    1  A    between atoms: C1_2  and  C2_3 
REMARK    2  A    between atoms: C2_3  and  C3_4 
ROOT
ATOM      1  C3  UNL d   1       3.031   3.248   1.767  0.00  0.00    -0.075 A 
ATOM      2  C4  UNL d   1       1.722   3.106   2.250  0.00  0.00     0.002 A 
ATOM      3  C5  UNL d   1       1.072   1.874   2.182  0.00  0.00     0.002 A 
ATOM      4  C6  UNL d   1       1.716   0.773   1.622  0.00  0.00    -0.004 A 
ATOM      5  C7  UNL d   1       3.010   0.906   1.124  0.00  0.00     0.002 A 
ATOM      6  C8  UNL d   1       3.665   2.137   1.195  0.00  0.00     0.002 A 
ENDROOT
BRANCH   1   7
ATOM      7  C2  UNL d   1       3.752   4.572   1.865  0.00  0.00     0.056 C 
BRANCH   7   8
ATOM      8  C1  UNL d   1       4.875   4.595   2.907  0.00  0.00     0.007 C 
ATOM      9  C   UNL d   1       5.235   6.000   3.371  0.00  0.00     0.009 C 
ENDBRANCH   7   8
ENDBRANCH   1   7
TORSDOF 2
ENDMDL
