MODEL 1
REMARK minimizedAffinity 9.07043648
REMARK minimizedRMSD -1
REMARK  2 active torsions:
REMARK  status: ('A' for Active; 'I' for Inactive)
REMARK    1  A    between atoms: C1_2  and  C2_3 
REMARK    2  A    between atoms: C2_3  and  C3_4 
ROOT
ATOM      1  C3  UNL d   1       0.689  -0.587   1.076  0.00  0.00    -0.075 A 
ATOM      2  C4  UNL d   1       0.301   0.089   2.242  0.00  0.00     0.002 A 
ATOM      3  C5  UNL d   1       0.995   1.222   2.667  0.00  0.00     0.002 A 
ATOM      4  C6  UNL d   1       2.089   1.687   1.941  0.00  0.00    -0.004 A 
ATOM      5  C7  UNL d   1       2.494   1.013   0.790  0.00  0.00     0.002 A 
ATOM      6  C8  UNL d   1       1.799  -0.119   0.360  0.00  0.00     0.002 A 
ENDROOT
BRANCH   1   7
ATOM      7  C2  UNL d   1      -0.075  -1.797   0.594  0.00  0.00     0.056 C 
BRANCH   7   8
ATOM      8  C1  UNL d   1      -1.196  -2.243   1.538  0.00  0.00     0.007 C 
ATOM      9  C   UNL d   1      -2.420  -2.778   0.807  0.00  0.00     0.009 C 
ENDBRANCH   7   8
ENDBRANCH   1   7
TORSDOF 2
ENDMDL
