MODEL 1
REMARK minimizedAffinity 3.68646097
REMARK minimizedRMSD -1
REMARK  2 active torsions:
REMARK  status: ('A' for Active; 'I' for Inactive)
REMARK    1  A    between atoms: C1_2  and  C2_3 
REMARK    2  A    between atoms: C2_3  and  C3_4 
ROOT
ATOM      1  C3  UNL d   1       3.274   5.126   1.703  0.00  0.00    -0.075 A 
ATOM      2  C4  UNL d   1       1.998   5.643   1.974  0.00  0.00     0.002 A 
ATOM      3  C5  UNL d   1       0.868   4.833   1.868  0.00  0.00     0.002 A 
ATOM      4  C6  UNL d   1       0.996   3.500   1.482  0.00  0.00    -0.004 A 
ATOM      5  C7  UNL d   1       2.256   2.980   1.194  0.00  0.00     0.002 A 
ATOM      6  C8  UNL d   1       3.389   3.788   1.303  0.00  0.00     0.002 A 
ENDROOT
BRANCH   1   7
ATOM      7  C2  UNL d   1       4.504   5.990   1.844  0.00  0.00     0.056 C 
BRANCH   7   8
ATOM      8  C1  UNL d   1       5.657   5.316   2.596  0.00  0.00     0.007 C 
ATOM      9  C   UNL d   1       5.995   6.000   3.914  0.00  0.00     0.009 C 
ENDBRANCH   7   8
ENDBRANCH   1   7
TORSDOF 2
ENDMDL
