MODEL 1
REMARK minimizedAffinity 0.618647993
REMARK minimizedRMSD -1
REMARK  2 active torsions:
REMARK  status: ('A' for Active; 'I' for Inactive)
REMARK    1  A    between atoms: C1_2  and  C2_3 
REMARK    2  A    between atoms: C2_3  and  C3_4 
ROOT
ATOM      1  C3  UNL d   1       4.070   3.937  -4.723  0.00  0.00    -0.075 A 
ATOM      2  C4  UNL d   1       4.680   5.014  -5.383  0.00  0.00     0.002 A 
ATOM      3  C5  UNL d   1       3.905   5.997  -6.000  0.00  0.00     0.002 A 
ATOM      4  C6  UNL d   1       2.515   5.911  -5.973  0.00  0.00    -0.004 A 
ATOM      5  C7  UNL d   1       1.899   4.837  -5.335  0.00  0.00     0.002 A 
ATOM      6  C8  UNL d   1       2.671   3.854  -4.713  0.00  0.00     0.002 A 
ENDROOT
BRANCH   1   7
ATOM      7  C2  UNL d   1       4.902   2.886  -4.028  0.00  0.00     0.056 C 
BRANCH   7   8
ATOM      8  C1  UNL d   1       5.312   3.259  -2.600  0.00  0.00     0.007 C 
ATOM      9  C   UNL d   1       5.970   2.111  -1.845  0.00  0.00     0.009 C 
ENDBRANCH   7   8
ENDBRANCH   1   7
TORSDOF 2
ENDMDL
