MODEL 1
REMARK minimizedAffinity 14.805233
REMARK minimizedRMSD -1
REMARK  2 active torsions:
REMARK  status: ('A' for Active; 'I' for Inactive)
REMARK    1  A    between atoms: C1_2  and  C2_3 
REMARK    2  A    between atoms: C2_3  and  C3_4 
ROOT
ATOM      1  C3  UNL d   1       3.010   4.080   1.506  0.00  0.00    -0.075 A 
ATOM      2  C4  UNL d   1       1.628   4.280   1.642  0.00  0.00     0.002 A 
ATOM      3  C5  UNL d   1       0.746   3.202   1.561  0.00  0.00     0.002 A 
ATOM      4  C6  UNL d   1       1.231   1.916   1.332  0.00  0.00    -0.004 A 
ATOM      5  C7  UNL d   1       2.600   1.709   1.179  0.00  0.00     0.002 A 
ATOM      6  C8  UNL d   1       3.486   2.785   1.265  0.00  0.00     0.002 A 
ENDROOT
BRANCH   1   7
ATOM      7  C2  UNL d   1       3.973   5.238   1.623  0.00  0.00     0.056 C 
BRANCH   7   8
ATOM      8  C1  UNL d   1       4.287   5.644   3.066  0.00  0.00     0.007 C 
ATOM      9  C   UNL d   1       5.753   5.996   3.285  0.00  0.00     0.009 C 
ENDBRANCH   7   8
ENDBRANCH   1   7
TORSDOF 2
ENDMDL
