MODEL 1
REMARK minimizedAffinity 8.86798096
REMARK minimizedRMSD -1
REMARK  2 active torsions:
REMARK  status: ('A' for Active; 'I' for Inactive)
REMARK    1  A    between atoms: C1_2  and  C2_3 
REMARK    2  A    between atoms: C2_3  and  C3_4 
ROOT
ATOM      1  C3  UNL d   1       1.750   0.822   2.092  0.00  0.00    -0.075 A 
ATOM      2  C4  UNL d   1       1.516   1.245   0.776  0.00  0.00     0.002 A 
ATOM      3  C5  UNL d   1       2.387   0.881  -0.251  0.00  0.00     0.002 A 
ATOM      4  C6  UNL d   1       3.507   0.099   0.026  0.00  0.00    -0.004 A 
ATOM      5  C7  UNL d   1       3.758  -0.312   1.333  0.00  0.00     0.002 A 
ATOM      6  C8  UNL d   1       2.886   0.047   2.362  0.00  0.00     0.002 A 
ENDROOT
BRANCH   1   7
ATOM      7  C2  UNL d   1       0.794   1.189   3.203  0.00  0.00     0.056 C 
BRANCH   7   8
ATOM      8  C1  UNL d   1       0.624   0.097   4.264  0.00  0.00     0.007 C 
ATOM      9  C   UNL d   1       0.469   0.649   5.675  0.00  0.00     0.009 C 
ENDBRANCH   7   8
ENDBRANCH   1   7
TORSDOF 2
ENDMDL
