MODEL 1
REMARK minimizedAffinity 3.55457354
REMARK minimizedRMSD -1
REMARK  2 active torsions:
REMARK  status: ('A' for Active; 'I' for Inactive)
REMARK    1  A    between atoms: C1_2  and  C2_3 
REMARK    2  A    between atoms: C2_3  and  C3_4 
ROOT
ATOM      1  C3  UNL d   1      -1.733  -2.803  -2.452  0.00  0.00    -0.075 A 
ATOM      2  C4  UNL d   1      -0.557  -3.536  -2.664  0.00  0.00     0.002 A 
ATOM      3  C5  UNL d   1       0.491  -3.476  -1.745  0.00  0.00     0.002 A 
ATOM      4  C6  UNL d   1       0.381  -2.676  -0.610  0.00  0.00    -0.004 A 
ATOM      5  C7  UNL d   1      -0.777  -1.931  -0.397  0.00  0.00     0.002 A 
ATOM      6  C8  UNL d   1      -1.829  -1.993  -1.313  0.00  0.00     0.002 A 
ENDROOT
BRANCH   1   7
ATOM      7  C2  UNL d   1      -2.883  -2.887  -3.427  0.00  0.00     0.056 C 
BRANCH   7   8
ATOM      8  C1  UNL d   1      -4.208  -3.323  -2.794  0.00  0.00     0.007 C 
ATOM      9  C   UNL d   1      -5.399  -3.175  -3.731  0.00  0.00     0.009 C 
ENDBRANCH   7   8
ENDBRANCH   1   7
TORSDOF 2
ENDMDL
