MODEL 1
REMARK minimizedAffinity 10.419837
REMARK minimizedRMSD -1
REMARK  2 active torsions:
REMARK  status: ('A' for Active; 'I' for Inactive)
REMARK    1  A    between atoms: C1_2  and  C2_3 
REMARK    2  A    between atoms: C2_3  and  C3_4 
ROOT
ATOM      1  C3  UNL d   1       3.351   1.146  -0.442  0.00  0.00    -0.075 A 
ATOM      2  C4  UNL d   1       2.311   1.937   0.068  0.00  0.00     0.002 A 
ATOM      3  C5  UNL d   1       1.806   1.705   1.347  0.00  0.00     0.002 A 
ATOM      4  C6  UNL d   1       2.325   0.675   2.128  0.00  0.00    -0.004 A 
ATOM      5  C7  UNL d   1       3.347  -0.128   1.626  0.00  0.00     0.002 A 
ATOM      6  C8  UNL d   1       3.857   0.104   0.347  0.00  0.00     0.002 A 
ENDROOT
BRANCH   1   7
ATOM      7  C2  UNL d   1       3.922   1.410  -1.815  0.00  0.00     0.056 C 
BRANCH   7   8
ATOM      8  C1  UNL d   1       5.389   1.854  -1.805  0.00  0.00     0.007 C 
ATOM      9  C   UNL d   1       5.751   2.754  -2.978  0.00  0.00     0.009 C 
ENDBRANCH   7   8
ENDBRANCH   1   7
TORSDOF 2
ENDMDL
