MODEL 1
REMARK minimizedAffinity 7.85157967
REMARK minimizedRMSD -1
REMARK  2 active torsions:
REMARK  status: ('A' for Active; 'I' for Inactive)
REMARK    1  A    between atoms: C1_2  and  C2_3 
REMARK    2  A    between atoms: C2_3  and  C3_4 
ROOT
ATOM      1  C3  UNL d   1      -3.587  -3.749  -2.408  0.00  0.00    -0.075 A 
ATOM      2  C4  UNL d   1      -3.055  -3.729  -3.705  0.00  0.00     0.002 A 
ATOM      3  C5  UNL d   1      -1.943  -2.941  -4.002  0.00  0.00     0.002 A 
ATOM      4  C6  UNL d   1      -1.356  -2.157  -3.011  0.00  0.00    -0.004 A 
ATOM      5  C7  UNL d   1      -1.887  -2.157  -1.723  0.00  0.00     0.002 A 
ATOM      6  C8  UNL d   1      -2.997  -2.948  -1.422  0.00  0.00     0.002 A 
ENDROOT
BRANCH   1   7
ATOM      7  C2  UNL d   1      -4.773  -4.623  -2.072  0.00  0.00     0.056 C 
BRANCH   7   8
ATOM      8  C1  UNL d   1      -4.395  -6.000  -1.515  0.00  0.00     0.007 C 
ATOM      9  C   UNL d   1      -4.022  -5.968  -0.039  0.00  0.00     0.009 C 
ENDBRANCH   7   8
ENDBRANCH   1   7
TORSDOF 2
ENDMDL
