MODEL 1
REMARK minimizedAffinity 16.1921806
REMARK minimizedRMSD -1
REMARK  2 active torsions:
REMARK  status: ('A' for Active; 'I' for Inactive)
REMARK    1  A    between atoms: C1_2  and  C2_3 
REMARK    2  A    between atoms: C2_3  and  C3_4 
ROOT
ATOM      1  C3  UNL d   1      -4.706   0.322   3.825  0.00  0.00    -0.075 A 
ATOM      2  C4  UNL d   1      -5.159   1.008   4.962  0.00  0.00     0.002 A 
ATOM      3  C5  UNL d   1      -5.797   0.322   5.996  0.00  0.00     0.002 A 
ATOM      4  C6  UNL d   1      -6.000  -1.053   5.903  0.00  0.00    -0.004 A 
ATOM      5  C7  UNL d   1      -5.569  -1.742   4.771  0.00  0.00     0.002 A 
ATOM      6  C8  UNL d   1      -4.926  -1.059   3.737  0.00  0.00     0.002 A 
ENDROOT
BRANCH   1   7
ATOM      7  C2  UNL d   1      -3.989   1.053   2.716  0.00  0.00     0.056 C 
BRANCH   7   8
ATOM      8  C1  UNL d   1      -3.241   2.309   3.179  0.00  0.00     0.007 C 
ATOM      9  C   UNL d   1      -1.730   2.194   3.036  0.00  0.00     0.009 C 
ENDBRANCH   7   8
ENDBRANCH   1   7
TORSDOF 2
ENDMDL
