MODEL 1
REMARK minimizedAffinity 10.3754234
REMARK minimizedRMSD -1
REMARK  2 active torsions:
REMARK  status: ('A' for Active; 'I' for Inactive)
REMARK    1  A    between atoms: C1_2  and  C2_3 
REMARK    2  A    between atoms: C2_3  and  C3_4 
ROOT
ATOM      1  C3  UNL d   1      -2.268  -2.983  -3.680  0.00  0.00    -0.075 A 
ATOM      2  C4  UNL d   1      -1.274  -1.995  -3.647  0.00  0.00     0.002 A 
ATOM      3  C5  UNL d   1      -0.513  -1.717  -4.783  0.00  0.00     0.002 A 
ATOM      4  C6  UNL d   1      -0.729  -2.429  -5.961  0.00  0.00    -0.004 A 
ATOM      5  C7  UNL d   1      -1.703  -3.425  -6.000  0.00  0.00     0.002 A 
ATOM      6  C8  UNL d   1      -2.468  -3.702  -4.866  0.00  0.00     0.002 A 
ENDROOT
BRANCH   1   7
ATOM      7  C2  UNL d   1      -3.115  -3.268  -2.462  0.00  0.00     0.056 C 
BRANCH   7   8
ATOM      8  C1  UNL d   1      -4.154  -4.375  -2.670  0.00  0.00     0.007 C 
ATOM      9  C   UNL d   1      -5.533  -3.842  -3.035  0.00  0.00     0.009 C 
ENDBRANCH   7   8
ENDBRANCH   1   7
TORSDOF 2
ENDMDL
