MODEL 1
REMARK minimizedAffinity 2.55959797
REMARK minimizedRMSD -1
REMARK  0 active torsions:
REMARK  status: ('A' for Active; 'I' for Inactive)
ROOT
ATOM      1  C1  BNZ d   1       0.816  -2.971   1.465  0.00  0.00     0.000 A 
ATOM      2  C2  BNZ d   1       1.134  -4.299   1.367  0.00  0.00     0.000 A 
ATOM      3  C3  BNZ d   1       2.394  -4.740   1.661  0.00  0.00     0.000 A 
ATOM      4  C4  BNZ d   1       3.343  -3.849   2.013  0.00  0.00     0.000 A 
ATOM      5  C5  BNZ d   1       3.040  -2.505   2.107  0.00  0.00     0.000 A 
ATOM      6  C6  BNZ d   1       1.761  -2.070   1.848  0.00  0.00     0.000 A 
ENDROOT
TORSDOF 0
ENDMDL
