MODEL 1
REMARK minimizedAffinity 2.23417306
REMARK minimizedRMSD -1
REMARK  0 active torsions:
REMARK  status: ('A' for Active; 'I' for Inactive)
ROOT
ATOM      1  C1  BNZ d   1      -3.826  -2.212  -2.278  0.00  0.00     0.000 A 
ATOM      2  C2  BNZ d   1      -4.616  -2.637  -3.313  0.00  0.00     0.000 A 
ATOM      3  C3  BNZ d   1      -5.385  -1.751  -4.015  0.00  0.00     0.000 A 
ATOM      4  C4  BNZ d   1      -5.393  -0.451  -3.657  0.00  0.00     0.000 A 
ATOM      5  C5  BNZ d   1      -4.609  -0.009  -2.611  0.00  0.00     0.000 A 
ATOM      6  C6  BNZ d   1      -3.806  -0.896  -1.931  0.00  0.00     0.000 A 
ENDROOT
TORSDOF 0
ENDMDL
