MODEL 1
REMARK minimizedAffinity 5.02429008
REMARK minimizedRMSD -1
REMARK  0 active torsions:
REMARK  status: ('A' for Active; 'I' for Inactive)
ROOT
ATOM      1  C1  BNZ d   1       0.033  -0.905   4.140  0.00  0.00     0.000 A 
ATOM      2  C2  BNZ d   1       1.183  -1.586   3.846  0.00  0.00     0.000 A 
ATOM      3  C3  BNZ d   1       1.181  -2.601   2.931  0.00  0.00     0.000 A 
ATOM      4  C4  BNZ d   1       0.023  -2.960   2.342  0.00  0.00     0.000 A 
ATOM      5  C5  BNZ d   1      -1.148  -2.289   2.634  0.00  0.00     0.000 A 
ATOM      6  C6  BNZ d   1      -1.135  -1.242   3.527  0.00  0.00     0.000 A 
ENDROOT
TORSDOF 0
ENDMDL
