MODEL 1
REMARK minimizedAffinity 4.8067894
REMARK minimizedRMSD -1
REMARK  0 active torsions:
REMARK  status: ('A' for Active; 'I' for Inactive)
ROOT
ATOM      1  C1  BNZ d   1      -4.441  -2.627  -2.689  0.00  0.00     0.000 A 
ATOM      2  C2  BNZ d   1      -4.870  -2.281  -3.942  0.00  0.00     0.000 A 
ATOM      3  C3  BNZ d   1      -4.565  -1.059  -4.474  0.00  0.00     0.000 A 
ATOM      4  C4  BNZ d   1      -3.866  -0.172  -3.738  0.00  0.00     0.000 A 
ATOM      5  C5  BNZ d   1      -3.434  -0.502  -2.469  0.00  0.00     0.000 A 
ATOM      6  C6  BNZ d   1      -3.710  -1.747  -1.952  0.00  0.00     0.000 A 
ENDROOT
TORSDOF 0
ENDMDL
