MODEL 1
REMARK minimizedAffinity 6.7705512
REMARK minimizedRMSD -1
REMARK  0 active torsions:
REMARK  status: ('A' for Active; 'I' for Inactive)
ROOT
ATOM      1  C1  BNZ d   1       1.168   1.771  -0.822  0.00  0.00     0.000 A 
ATOM      2  C2  BNZ d   1       0.359   0.862  -1.449  0.00  0.00     0.000 A 
ATOM      3  C3  BNZ d   1       0.243  -0.416  -0.978  0.00  0.00     0.000 A 
ATOM      4  C4  BNZ d   1       0.967  -0.794   0.096  0.00  0.00     0.000 A 
ATOM      5  C5  BNZ d   1       1.794   0.108   0.734  0.00  0.00     0.000 A 
ATOM      6  C6  BNZ d   1       1.878   1.404   0.280  0.00  0.00     0.000 A 
ENDROOT
TORSDOF 0
ENDMDL
