MODEL 1
REMARK minimizedAffinity 5.30889416
REMARK minimizedRMSD -1
REMARK  0 active torsions:
REMARK  status: ('A' for Active; 'I' for Inactive)
ROOT
ATOM      1  C1  BNZ d   1      -3.690  -2.420  -2.692  0.00  0.00     0.000 A 
ATOM      2  C2  BNZ d   1      -4.539  -2.350  -3.765  0.00  0.00     0.000 A 
ATOM      3  C3  BNZ d   1      -5.199  -1.191  -4.061  0.00  0.00     0.000 A 
ATOM      4  C4  BNZ d   1      -5.041  -0.115  -3.262  0.00  0.00     0.000 A 
ATOM      5  C5  BNZ d   1      -4.196  -0.172  -2.172  0.00  0.00     0.000 A 
ATOM      6  C6  BNZ d   1      -3.503  -1.330  -1.900  0.00  0.00     0.000 A 
ENDROOT
TORSDOF 0
ENDMDL
