MODEL 1
REMARK minimizedAffinity -0.445060372
REMARK minimizedRMSD -1
REMARK  0 active torsions:
REMARK  status: ('A' for Active; 'I' for Inactive)
ROOT
ATOM      1  C1  BNZ d   1       3.806  -5.950   5.778  0.00  0.00     0.000 A 
ATOM      2  C2  BNZ d   1       3.149  -4.749   5.831  0.00  0.00     0.000 A 
ATOM      3  C3  BNZ d   1       3.843  -3.575   5.921  0.00  0.00     0.000 A 
ATOM      4  C4  BNZ d   1       5.189  -3.605   5.998  0.00  0.00     0.000 A 
ATOM      5  C5  BNZ d   1       5.866  -4.808   5.955  0.00  0.00     0.000 A 
ATOM      6  C6  BNZ d   1       5.166  -5.985   5.825  0.00  0.00     0.000 A 
ENDROOT
TORSDOF 0
ENDMDL
