MODEL 1
REMARK minimizedAffinity 7.40976191
REMARK minimizedRMSD -1
REMARK  0 active torsions:
REMARK  status: ('A' for Active; 'I' for Inactive)
ROOT
ATOM      1  C1  BNZ d   1       1.948   0.270   0.470  0.00  0.00     0.000 A 
ATOM      2  C2  BNZ d   1       2.182   1.150  -0.554  0.00  0.00     0.000 A 
ATOM      3  C3  BNZ d   1       1.505   1.042  -1.737  0.00  0.00     0.000 A 
ATOM      4  C4  BNZ d   1       0.626   0.034  -1.909  0.00  0.00     0.000 A 
ATOM      5  C5  BNZ d   1       0.387  -0.866  -0.890  0.00  0.00     0.000 A 
ATOM      6  C6  BNZ d   1       1.041  -0.732   0.313  0.00  0.00     0.000 A 
ENDROOT
TORSDOF 0
ENDMDL
