MODEL 1
REMARK minimizedAffinity 8.31559944
REMARK minimizedRMSD -1
REMARK  0 active torsions:
REMARK  status: ('A' for Active; 'I' for Inactive)
ROOT
ATOM      1  C1  BNZ d   1       1.642  -1.249   3.638  0.00  0.00     0.000 A 
ATOM      2  C2  BNZ d   1       0.510  -1.489   2.905  0.00  0.00     0.000 A 
ATOM      3  C3  BNZ d   1       0.561  -2.242   1.765  0.00  0.00     0.000 A 
ATOM      4  C4  BNZ d   1       1.748  -2.721   1.339  0.00  0.00     0.000 A 
ATOM      5  C5  BNZ d   1       2.899  -2.480   2.063  0.00  0.00     0.000 A 
ATOM      6  C6  BNZ d   1       2.838  -1.754   3.230  0.00  0.00     0.000 A 
ENDROOT
TORSDOF 0
ENDMDL
