MODEL 1
REMARK minimizedAffinity 8.6083765
REMARK minimizedRMSD -1
REMARK  0 active torsions:
REMARK  status: ('A' for Active; 'I' for Inactive)
ROOT
ATOM      1  O1  BZF d   1      -5.198  -2.073  -0.165  0.00  0.00    -0.204 OA
ATOM      2  C2  BZF d   1      -5.598  -1.539  -1.375  0.00  0.00     0.174 A 
ATOM      3  C3  BZF d   1      -5.749  -2.509  -2.299  0.00  0.00    -0.012 A 
ATOM      4  C3A BZF d   1      -5.513  -3.735  -1.600  0.00  0.00    -0.107 A 
ATOM      5  C4  BZF d   1      -5.532  -5.048  -1.975  0.00  0.00     0.055 A 
ATOM      6  C5  BZF d   1      -5.183  -5.999  -1.068  0.00  0.00    -0.016 A 
ATOM      7  C6  BZF d   1      -4.806  -5.672   0.218  0.00  0.00     0.022 A 
ATOM      8  C7  BZF d   1      -4.776  -4.383   0.637  0.00  0.00     0.029 A 
ATOM      9  C7A BZF d   1      -5.160  -3.423  -0.267  0.00  0.00     0.058 A 
ENDROOT
TORSDOF 0
ENDMDL
