MODEL 1
REMARK minimizedAffinity 9.17797375
REMARK minimizedRMSD -1
REMARK  0 active torsions:
REMARK  status: ('A' for Active; 'I' for Inactive)
ROOT
ATOM      1  O1  BZF d   1       3.896   5.784  -3.846  0.00  0.00    -0.204 OA
ATOM      2  C2  BZF d   1       2.557   5.859  -4.176  0.00  0.00     0.174 A 
ATOM      3  C3  BZF d   1       2.230   4.905  -5.071  0.00  0.00    -0.012 A 
ATOM      4  C3A BZF d   1       3.421   4.130  -5.246  0.00  0.00    -0.107 A 
ATOM      5  C4  BZF d   1       3.724   3.032  -5.998  0.00  0.00     0.055 A 
ATOM      6  C5  BZF d   1       5.000   2.564  -6.000  0.00  0.00    -0.016 A 
ATOM      7  C6  BZF d   1       5.997   3.172  -5.266  0.00  0.00     0.022 A 
ATOM      8  C7  BZF d   1       5.743   4.261  -4.500  0.00  0.00     0.029 A 
ATOM      9  C7A BZF d   1       4.448   4.716  -4.470  0.00  0.00     0.058 A 
ENDROOT
TORSDOF 0
ENDMDL
