MODEL 1
REMARK minimizedAffinity -1.31083453
REMARK minimizedRMSD -1
REMARK  0 active torsions:
REMARK  status: ('A' for Active; 'I' for Inactive)
ROOT
ATOM      1  O1  BZF d   1      -5.964  -4.346  -0.232  0.00  0.00    -0.204 OA
ATOM      2  C2  BZF d   1      -5.950  -5.710  -0.447  0.00  0.00     0.174 A 
ATOM      3  C3  BZF d   1      -5.998  -5.987  -1.766  0.00  0.00    -0.012 A 
ATOM      4  C3A BZF d   1      -5.951  -4.715  -2.420  0.00  0.00    -0.107 A 
ATOM      5  C4  BZF d   1      -5.950  -4.332  -3.730  0.00  0.00     0.055 A 
ATOM      6  C5  BZF d   1      -5.971  -3.007  -4.031  0.00  0.00    -0.016 A 
ATOM      7  C6  BZF d   1      -5.998  -2.039  -3.048  0.00  0.00     0.022 A 
ATOM      8  C7  BZF d   1      -5.994  -2.370  -1.734  0.00  0.00     0.029 A 
ATOM      9  C7A BZF d   1      -5.940  -3.708  -1.427  0.00  0.00     0.058 A 
ENDROOT
TORSDOF 0
ENDMDL
