MODEL 1
REMARK minimizedAffinity 6.67380238
REMARK minimizedRMSD -1
REMARK  0 active torsions:
REMARK  status: ('A' for Active; 'I' for Inactive)
ROOT
ATOM      1  O1  BZF d   1      -0.304  -0.770   4.068  0.00  0.00    -0.204 OA
ATOM      2  C2  BZF d   1      -0.925  -1.857   3.483  0.00  0.00     0.174 A 
ATOM      3  C3  BZF d   1      -1.832  -1.456   2.569  0.00  0.00    -0.012 A 
ATOM      4  C3A BZF d   1      -1.709  -0.031   2.517  0.00  0.00    -0.107 A 
ATOM      5  C4  BZF d   1      -2.332   0.939   1.786  0.00  0.00     0.055 A 
ATOM      6  C5  BZF d   1      -2.033   2.242   2.027  0.00  0.00    -0.016 A 
ATOM      7  C6  BZF d   1      -1.121   2.611   2.994  0.00  0.00     0.022 A 
ATOM      8  C7  BZF d   1      -0.473   1.685   3.741  0.00  0.00     0.029 A 
ATOM      9  C7A BZF d   1      -0.749   0.365   3.477  0.00  0.00     0.058 A 
ENDROOT
TORSDOF 0
ENDMDL
