MODEL 1
REMARK minimizedAffinity 0.946280718
REMARK minimizedRMSD -1
REMARK  0 active torsions:
REMARK  status: ('A' for Active; 'I' for Inactive)
ROOT
ATOM      1  O1  BZF d   1      -5.552  -4.342  -2.863  0.00  0.00    -0.204 OA
ATOM      2  C2  BZF d   1      -5.598  -2.964  -2.949  0.00  0.00     0.174 A 
ATOM      3  C3  BZF d   1      -5.815  -2.415  -1.737  0.00  0.00    -0.012 A 
ATOM      4  C3A BZF d   1      -5.819  -3.515  -0.821  0.00  0.00    -0.107 A 
ATOM      5  C4  BZF d   1      -5.972  -3.609   0.532  0.00  0.00     0.055 A 
ATOM      6  C5  BZF d   1      -5.998  -4.839   1.110  0.00  0.00    -0.016 A 
ATOM      7  C6  BZF d   1      -5.880  -5.994   0.365  0.00  0.00     0.022 A 
ATOM      8  C7  BZF d   1      -5.722  -5.951  -0.980  0.00  0.00     0.029 A 
ATOM      9  C7A BZF d   1      -5.662  -4.708  -1.563  0.00  0.00     0.058 A 
ENDROOT
TORSDOF 0
ENDMDL
