MODEL 1
REMARK minimizedAffinity 9.20293903
REMARK minimizedRMSD -1
REMARK  0 active torsions:
REMARK  status: ('A' for Active; 'I' for Inactive)
ROOT
ATOM      1  O1  BZF d   1      -5.506  -0.904  -2.400  0.00  0.00    -0.204 OA
ATOM      2  C2  BZF d   1      -5.219  -0.939  -3.751  0.00  0.00     0.174 A 
ATOM      3  C3  BZF d   1      -5.057  -2.210  -4.172  0.00  0.00    -0.012 A 
ATOM      4  C3A BZF d   1      -5.346  -3.024  -3.032  0.00  0.00    -0.107 A 
ATOM      5  C4  BZF d   1      -5.371  -4.374  -2.825  0.00  0.00     0.055 A 
ATOM      6  C5  BZF d   1      -5.620  -4.846  -1.575  0.00  0.00    -0.016 A 
ATOM      7  C6  BZF d   1      -5.842  -3.997  -0.510  0.00  0.00     0.022 A 
ATOM      8  C7  BZF d   1      -5.832  -2.651  -0.668  0.00  0.00     0.029 A 
ATOM      9  C7A BZF d   1      -5.614  -2.172  -1.936  0.00  0.00     0.058 A 
ENDROOT
TORSDOF 0
ENDMDL
