MODEL 1
REMARK minimizedAffinity 7.03679752
REMARK minimizedRMSD -1
REMARK  0 active torsions:
REMARK  status: ('A' for Active; 'I' for Inactive)
ROOT
ATOM      1  O1  BZF d   1      -2.355   3.945   2.814  0.00  0.00    -0.204 OA
ATOM      2  C2  BZF d   1      -3.710   4.192   2.709  0.00  0.00     0.174 A 
ATOM      3  C3  BZF d   1      -4.360   3.105   2.244  0.00  0.00    -0.012 A 
ATOM      4  C3A BZF d   1      -3.360   2.088   2.133  0.00  0.00    -0.107 A 
ATOM      5  C4  BZF d   1      -3.391   0.780   1.741  0.00  0.00     0.055 A 
ATOM      6  C5  BZF d   1      -2.226   0.082   1.678  0.00  0.00    -0.016 A 
ATOM      7  C6  BZF d   1      -1.015   0.661   1.993  0.00  0.00     0.022 A 
ATOM      8  C7  BZF d   1      -0.935   1.954   2.392  0.00  0.00     0.029 A 
ATOM      9  C7A BZF d   1      -2.113   2.652   2.489  0.00  0.00     0.058 A 
ENDROOT
TORSDOF 0
ENDMDL
