MODEL 1
REMARK minimizedAffinity 12.9550962
REMARK minimizedRMSD -1
REMARK  0 active torsions:
REMARK  status: ('A' for Active; 'I' for Inactive)
ROOT
ATOM      1  O1  BZF d   1       1.161   3.612  -2.210  0.00  0.00    -0.204 OA
ATOM      2  C2  BZF d   1       2.028   2.925  -1.382  0.00  0.00     0.174 A 
ATOM      3  C3  BZF d   1       3.253   2.838  -1.938  0.00  0.00    -0.012 A 
ATOM      4  C3A BZF d   1       3.170   3.594  -3.151  0.00  0.00    -0.107 A 
ATOM      5  C4  BZF d   1       4.070   3.893  -4.134  0.00  0.00     0.055 A 
ATOM      6  C5  BZF d   1       3.651   4.592  -5.222  0.00  0.00    -0.016 A 
ATOM      7  C6  BZF d   1       2.341   5.002  -5.361  0.00  0.00     0.022 A 
ATOM      8  C7  BZF d   1       1.414   4.733  -4.410  0.00  0.00     0.029 A 
ATOM      9  C7A BZF d   1       1.842   4.056  -3.294  0.00  0.00     0.058 A 
ENDROOT
TORSDOF 0
ENDMDL
