MODEL 1
REMARK minimizedAffinity 4.75861406
REMARK minimizedRMSD -1
REMARK  0 active torsions:
REMARK  status: ('A' for Active; 'I' for Inactive)
ROOT
ATOM      1  O1  BZF d   1      -0.829   1.124   4.185  0.00  0.00    -0.204 OA
ATOM      2  C2  BZF d   1      -0.545  -0.222   4.309  0.00  0.00     0.174 A 
ATOM      3  C3  BZF d   1       0.604  -0.528   3.672  0.00  0.00    -0.012 A 
ATOM      4  C3A BZF d   1       1.114   0.720   3.193  0.00  0.00    -0.107 A 
ATOM      5  C4  BZF d   1       2.234   1.072   2.497  0.00  0.00     0.055 A 
ATOM      6  C5  BZF d   1       2.400   2.368   2.122  0.00  0.00    -0.016 A 
ATOM      7  C6  BZF d   1       1.464   3.335   2.423  0.00  0.00     0.022 A 
ATOM      8  C7  BZF d   1       0.339   3.036   3.116  0.00  0.00     0.029 A 
ATOM      9  C7A BZF d   1       0.184   1.733   3.524  0.00  0.00     0.058 A 
ENDROOT
TORSDOF 0
ENDMDL
