MODEL 1
REMARK minimizedAffinity 12.8277617
REMARK minimizedRMSD -1
REMARK  0 active torsions:
REMARK  status: ('A' for Active; 'I' for Inactive)
ROOT
ATOM      1  O1  BZF d   1       4.731   5.359  -4.507  0.00  0.00    -0.204 OA
ATOM      2  C2  BZF d   1       5.810   4.497  -4.483  0.00  0.00     0.174 A 
ATOM      3  C3  BZF d   1       5.447   3.265  -4.896  0.00  0.00    -0.012 A 
ATOM      4  C3A BZF d   1       4.076   3.387  -5.286  0.00  0.00    -0.107 A 
ATOM      5  C4  BZF d   1       3.164   2.509  -5.797  0.00  0.00     0.055 A 
ATOM      6  C5  BZF d   1       1.887   2.927  -6.000  0.00  0.00    -0.016 A 
ATOM      7  C6  BZF d   1       1.487   4.213  -5.698  0.00  0.00     0.022 A 
ATOM      8  C7  BZF d   1       2.358   5.121  -5.194  0.00  0.00     0.029 A 
ATOM      9  C7A BZF d   1       3.657   4.711  -5.019  0.00  0.00     0.058 A 
ENDROOT
TORSDOF 0
ENDMDL
