MODEL 1
REMARK minimizedAffinity 4.40343046
REMARK minimizedRMSD -1
REMARK  0 active torsions:
REMARK  status: ('A' for Active; 'I' for Inactive)
ROOT
ATOM      1  O1  BZF d   1       2.127   1.572   4.164  0.00  0.00    -0.204 OA
ATOM      2  C2  BZF d   1       1.821   2.904   4.370  0.00  0.00     0.174 A 
ATOM      3  C3  BZF d   1       0.591   3.191   3.897  0.00  0.00    -0.012 A 
ATOM      4  C3A BZF d   1       0.060   1.941   3.445  0.00  0.00    -0.107 A 
ATOM      5  C4  BZF d   1      -1.131   1.573   2.888  0.00  0.00     0.055 A 
ATOM      6  C5  BZF d   1      -1.305   0.285   2.493  0.00  0.00    -0.016 A 
ATOM      7  C6  BZF d   1      -0.310  -0.659   2.636  0.00  0.00     0.022 A 
ATOM      8  C7  BZF d   1       0.887  -0.343   3.188  0.00  0.00     0.029 A 
ATOM      9  C7A BZF d   1       1.054   0.950   3.618  0.00  0.00     0.058 A 
ENDROOT
TORSDOF 0
ENDMDL
