MODEL 1
REMARK minimizedAffinity 9.48940754
REMARK minimizedRMSD -1
REMARK  0 active torsions:
REMARK  status: ('A' for Active; 'I' for Inactive)
ROOT
ATOM      1  O1  BZF d   1       1.476   3.884  -1.375  0.00  0.00    -0.204 OA
ATOM      2  C2  BZF d   1       1.713   2.572  -1.011  0.00  0.00     0.174 A 
ATOM      3  C3  BZF d   1       2.585   1.990  -1.859  0.00  0.00    -0.012 A 
ATOM      4  C3A BZF d   1       2.984   3.028  -2.759  0.00  0.00    -0.107 A 
ATOM      5  C4  BZF d   1       3.847   3.074  -3.817  0.00  0.00     0.055 A 
ATOM      6  C5  BZF d   1       3.956   4.224  -4.531  0.00  0.00    -0.016 A 
ATOM      7  C6  BZF d   1       3.215   5.346  -4.220  0.00  0.00     0.022 A 
ATOM      8  C7  BZF d   1       2.350   5.350  -3.176  0.00  0.00     0.029 A 
ATOM      9  C7A BZF d   1       2.262   4.199  -2.432  0.00  0.00     0.058 A 
ENDROOT
TORSDOF 0
ENDMDL
