MODEL 1
REMARK minimizedAffinity 0.997318745
REMARK minimizedRMSD -1
REMARK  0 active torsions:
REMARK  status: ('A' for Active; 'I' for Inactive)
ROOT
ATOM      1  O1  BZF d   1      -5.970  -5.301  -3.345  0.00  0.00    -0.204 OA
ATOM      2  C2  BZF d   1      -5.982  -6.000  -2.153  0.00  0.00     0.174 A 
ATOM      3  C3  BZF d   1      -5.938  -5.155  -1.102  0.00  0.00    -0.012 A 
ATOM      4  C3A BZF d   1      -5.991  -3.843  -1.672  0.00  0.00    -0.107 A 
ATOM      5  C4  BZF d   1      -5.997  -2.587  -1.136  0.00  0.00     0.055 A 
ATOM      6  C5  BZF d   1      -5.980  -1.514  -1.970  0.00  0.00    -0.016 A 
ATOM      7  C6  BZF d   1      -5.951  -1.660  -3.341  0.00  0.00     0.022 A 
ATOM      8  C7  BZF d   1      -5.949  -2.886  -3.919  0.00  0.00     0.029 A 
ATOM      9  C7A BZF d   1      -6.000  -3.973  -3.080  0.00  0.00     0.058 A 
ENDROOT
TORSDOF 0
ENDMDL
