MODEL 1
REMARK minimizedAffinity 8.75170803
REMARK minimizedRMSD -1
REMARK  0 active torsions:
REMARK  status: ('A' for Active; 'I' for Inactive)
ROOT
ATOM      1  O1  BZF d   1       3.281   5.984  -4.440  0.00  0.00    -0.204 OA
ATOM      2  C2  BZF d   1       1.922   5.989  -4.686  0.00  0.00     0.174 A 
ATOM      3  C3  BZF d   1       1.552   4.877  -5.354  0.00  0.00    -0.012 A 
ATOM      4  C3A BZF d   1       2.740   4.087  -5.456  0.00  0.00    -0.107 A 
ATOM      5  C4  BZF d   1       3.011   2.864  -6.000  0.00  0.00     0.055 A 
ATOM      6  C5  BZF d   1       4.291   2.408  -5.997  0.00  0.00    -0.016 A 
ATOM      7  C6  BZF d   1       5.325   3.150  -5.465  0.00  0.00     0.022 A 
ATOM      8  C7  BZF d   1       5.105   4.367  -4.909  0.00  0.00     0.029 A 
ATOM      9  C7A BZF d   1       3.807   4.816  -4.881  0.00  0.00     0.058 A 
ENDROOT
TORSDOF 0
ENDMDL
