MODEL 1
REMARK minimizedAffinity 14.1313715
REMARK minimizedRMSD -1
REMARK  0 active torsions:
REMARK  status: ('A' for Active; 'I' for Inactive)
ROOT
ATOM      1  O1  BZF d   1       1.678   3.878  -1.482  0.00  0.00    -0.204 OA
ATOM      2  C2  BZF d   1       2.164   2.947  -0.584  0.00  0.00     0.174 A 
ATOM      3  C3  BZF d   1       3.360   2.472  -0.988  0.00  0.00    -0.012 A 
ATOM      4  C3A BZF d   1       3.682   3.215  -2.167  0.00  0.00    -0.107 A 
ATOM      5  C4  BZF d   1       4.751   3.210  -3.017  0.00  0.00     0.055 A 
ATOM      6  C5  BZF d   1       4.723   4.008  -4.117  0.00  0.00    -0.016 A 
ATOM      7  C6  BZF d   1       3.643   4.818  -4.400  0.00  0.00     0.022 A 
ATOM      8  C7  BZF d   1       2.562   4.861  -3.583  0.00  0.00     0.029 A 
ATOM      9  C7A BZF d   1       2.601   4.080  -2.454  0.00  0.00     0.058 A 
ENDROOT
TORSDOF 0
ENDMDL
