MODEL 1
REMARK minimizedAffinity 1.87265229
REMARK minimizedRMSD -1
REMARK  0 active torsions:
REMARK  status: ('A' for Active; 'I' for Inactive)
ROOT
ATOM      1  O1  BZF d   1       2.442  -0.345  -3.431  0.00  0.00    -0.204 OA
ATOM      2  C2  BZF d   1       1.571  -1.416  -3.403  0.00  0.00     0.174 A 
ATOM      3  C3  BZF d   1       0.606  -1.223  -2.480  0.00  0.00    -0.012 A 
ATOM      4  C3A BZF d   1       0.839   0.089  -1.960  0.00  0.00    -0.107 A 
ATOM      5  C4  BZF d   1       0.203   0.855  -1.025  0.00  0.00     0.055 A 
ATOM      6  C5  BZF d   1       0.728   2.064  -0.695  0.00  0.00    -0.016 A 
ATOM      7  C6  BZF d   1       1.887   2.536  -1.275  0.00  0.00     0.022 A 
ATOM      8  C7  BZF d   1       2.550   1.815  -2.211  0.00  0.00     0.029 A 
ATOM      9  C7A BZF d   1       2.004   0.606  -2.571  0.00  0.00     0.058 A 
ENDROOT
TORSDOF 0
ENDMDL
