MODEL 1
REMARK minimizedAffinity 5.52326679
REMARK minimizedRMSD -1
REMARK  2 active torsions:
REMARK  status: ('A' for Active; 'I' for Inactive)
REMARK    1  A    between atoms: C2'_3  and  C1'_4 
REMARK    2  A    between atoms: C1'_4  and  C1_5 
ROOT
ATOM      1  C1  I4B d   1       1.681   0.182   1.617  0.00  0.00    -0.075 A 
ATOM      2  C2  I4B d   1       0.787  -0.781   1.220  0.00  0.00     0.003 A 
ATOM      3  C3  I4B d   1       0.596  -1.944   2.005  0.00  0.00     0.002 A 
ATOM      4  C4  I4B d   1       1.352  -2.126   3.145  0.00  0.00    -0.004 A 
ATOM      5  C5  I4B d   1       2.241  -1.138   3.558  0.00  0.00     0.002 A 
ATOM      6  C6  I4B d   1       2.398   0.029   2.796  0.00  0.00     0.003 A 
ENDROOT
BRANCH   1   7
ATOM      7  C1' I4B d   1       1.882   1.382   0.747  0.00  0.00     0.060 C 
BRANCH   7   8
ATOM      8  C2' I4B d   1       0.568   1.679   0.052  0.00  0.00    -0.013 C 
ATOM      9  C4' I4B d   1      -0.163   2.808   0.729  0.00  0.00     0.013 C 
ATOM     10  C3' I4B d   1       0.867   2.009  -1.380  0.00  0.00     0.013 C 
ENDBRANCH   7   8
ENDBRANCH   1   7
TORSDOF 2
ENDMDL
