MODEL 1
REMARK minimizedAffinity 4.56701565
REMARK minimizedRMSD -1
REMARK  2 active torsions:
REMARK  status: ('A' for Active; 'I' for Inactive)
REMARK    1  A    between atoms: C2'_3  and  C1'_4 
REMARK    2  A    between atoms: C1'_4  and  C1_5 
ROOT
ATOM      1  C1  I4B d   1       0.212  -1.264   0.592  0.00  0.00    -0.075 A 
ATOM      2  C2  I4B d   1       0.908  -1.631   1.716  0.00  0.00     0.003 A 
ATOM      3  C3  I4B d   1       1.882  -0.762   2.266  0.00  0.00     0.002 A 
ATOM      4  C4  I4B d   1       2.161   0.433   1.635  0.00  0.00    -0.004 A 
ATOM      5  C5  I4B d   1       1.438   0.813   0.508  0.00  0.00     0.002 A 
ATOM      6  C6  I4B d   1       0.449  -0.035  -0.010  0.00  0.00     0.003 A 
ENDROOT
BRANCH   1   7
ATOM      7  C1' I4B d   1      -0.786  -2.220   0.019  0.00  0.00     0.060 C 
BRANCH   7   8
ATOM      8  C2' I4B d   1      -0.174  -2.848  -1.217  0.00  0.00    -0.013 C 
ATOM      9  C4' I4B d   1       1.101  -3.577  -0.883  0.00  0.00     0.013 C 
ATOM     10  C3' I4B d   1      -1.189  -3.777  -1.814  0.00  0.00     0.013 C 
ENDBRANCH   7   8
ENDBRANCH   1   7
TORSDOF 2
ENDMDL
