MODEL 1
REMARK minimizedAffinity 4.07709551
REMARK minimizedRMSD -1
REMARK  2 active torsions:
REMARK  status: ('A' for Active; 'I' for Inactive)
REMARK    1  A    between atoms: C2'_3  and  C1'_4 
REMARK    2  A    between atoms: C1'_4  and  C1_5 
ROOT
ATOM      1  C1  I4B d   1       0.863  -0.339   0.511  0.00  0.00    -0.075 A 
ATOM      2  C2  I4B d   1       1.001  -0.988   1.713  0.00  0.00     0.003 A 
ATOM      3  C3  I4B d   1       1.796  -0.424   2.740  0.00  0.00     0.002 A 
ATOM      4  C4  I4B d   1       2.471   0.757   2.506  0.00  0.00    -0.004 A 
ATOM      5  C5  I4B d   1       2.312   1.424   1.295  0.00  0.00     0.002 A 
ATOM      6  C6  I4B d   1       1.493   0.879   0.296  0.00  0.00     0.003 A 
ENDROOT
BRANCH   1   7
ATOM      7  C1' I4B d   1       0.042  -0.980  -0.563  0.00  0.00     0.060 C 
BRANCH   7   8
ATOM      8  C2' I4B d   1       0.594  -2.370  -0.806  0.00  0.00    -0.013 C 
ATOM      9  C4' I4B d   1      -0.385  -3.218  -1.574  0.00  0.00     0.013 C 
ATOM     10  C3' I4B d   1       1.889  -2.230  -1.549  0.00  0.00     0.013 C 
ENDBRANCH   7   8
ENDBRANCH   1   7
TORSDOF 2
ENDMDL
