MODEL 1
REMARK minimizedAffinity 0.107776269
REMARK minimizedRMSD -1
REMARK  2 active torsions:
REMARK  status: ('A' for Active; 'I' for Inactive)
REMARK    1  A    between atoms: C2'_3  and  C1'_4 
REMARK    2  A    between atoms: C1'_4  and  C1_5 
ROOT
ATOM      1  C1  I4B d   1       4.722  -2.559  -5.800  0.00  0.00    -0.075 A 
ATOM      2  C2  I4B d   1       5.916  -1.966  -5.471  0.00  0.00     0.003 A 
ATOM      3  C3  I4B d   1       5.998  -0.560  -5.328  0.00  0.00     0.002 A 
ATOM      4  C4  I4B d   1       4.881   0.214  -5.570  0.00  0.00    -0.004 A 
ATOM      5  C5  I4B d   1       3.666  -0.390  -5.880  0.00  0.00     0.002 A 
ATOM      6  C6  I4B d   1       3.583  -1.786  -5.984  0.00  0.00     0.003 A 
ENDROOT
BRANCH   1   7
ATOM      7  C1' I4B d   1       4.679  -4.044  -5.975  0.00  0.00     0.060 C 
BRANCH   7   8
ATOM      8  C2' I4B d   1       3.277  -4.513  -5.643  0.00  0.00    -0.013 C 
ATOM      9  C4' I4B d   1       3.132  -5.996  -5.862  0.00  0.00     0.013 C 
ATOM     10  C3' I4B d   1       2.992  -4.145  -4.217  0.00  0.00     0.013 C 
ENDBRANCH   7   8
ENDBRANCH   1   7
TORSDOF 2
ENDMDL
