MODEL 1
REMARK minimizedAffinity -2.6978724
REMARK minimizedRMSD -1
REMARK  2 active torsions:
REMARK  status: ('A' for Active; 'I' for Inactive)
REMARK    1  A    between atoms: C2'_3  and  C1'_4 
REMARK    2  A    between atoms: C1'_4  and  C1_5 
ROOT
ATOM      1  C1  I4B d   1       2.067   0.436   1.962  0.00  0.00    -0.075 A 
ATOM      2  C2  I4B d   1       0.961  -0.355   1.774  0.00  0.00     0.003 A 
ATOM      3  C3  I4B d   1      -0.024   0.012   0.825  0.00  0.00     0.002 A 
ATOM      4  C4  I4B d   1       0.111   1.195   0.128  0.00  0.00    -0.004 A 
ATOM      5  C5  I4B d   1       1.244   1.984   0.303  0.00  0.00     0.002 A 
ATOM      6  C6  I4B d   1       2.235   1.596   1.217  0.00  0.00     0.003 A 
ENDROOT
BRANCH   1   7
ATOM      7  C1' I4B d   1       3.071   0.036   2.996  0.00  0.00     0.060 C 
BRANCH   7   8
ATOM      8  C2' I4B d   1       2.479  -1.096   3.809  0.00  0.00    -0.013 C 
ATOM      9  C4' I4B d   1       3.403  -2.285   3.844  0.00  0.00     0.013 C 
ATOM     10  C3' I4B d   1       2.206  -0.581   5.191  0.00  0.00     0.013 C 
ENDBRANCH   7   8
ENDBRANCH   1   7
TORSDOF 2
ENDMDL
