MODEL 1
REMARK minimizedAffinity 7.25724983
REMARK minimizedRMSD -1
REMARK  2 active torsions:
REMARK  status: ('A' for Active; 'I' for Inactive)
REMARK    1  A    between atoms: C2'_3  and  C1'_4 
REMARK    2  A    between atoms: C1'_4  and  C1_5 
ROOT
ATOM      1  C1  I4B d   1       0.629   2.696   0.745  0.00  0.00    -0.075 A 
ATOM      2  C2  I4B d   1       1.388   1.679   1.268  0.00  0.00     0.003 A 
ATOM      3  C3  I4B d   1       1.424   0.416   0.628  0.00  0.00     0.002 A 
ATOM      4  C4  I4B d   1       0.652   0.200  -0.495  0.00  0.00    -0.004 A 
ATOM      5  C5  I4B d   1      -0.098   1.240  -1.037  0.00  0.00     0.002 A 
ATOM      6  C6  I4B d   1      -0.101   2.499  -0.420  0.00  0.00     0.003 A 
ENDROOT
BRANCH   1   7
ATOM      7  C1' I4B d   1       0.588   4.007   1.464  0.00  0.00     0.060 C 
BRANCH   7   8
ATOM      8  C2' I4B d   1      -0.095   5.014   0.561  0.00  0.00    -0.013 C 
ATOM      9  C4' I4B d   1      -0.909   5.998   1.358  0.00  0.00     0.013 C 
ATOM     10  C3' I4B d   1       0.964   5.711  -0.240  0.00  0.00     0.013 C 
ENDBRANCH   7   8
ENDBRANCH   1   7
TORSDOF 2
ENDMDL
