MODEL 1
REMARK minimizedAffinity 13.0251102
REMARK minimizedRMSD -1
REMARK  1 active torsions:
REMARK  status: ('A' for Active; 'I' for Inactive)
REMARK    1  A    between atoms: C1_2  and  C2_3 
ROOT
ATOM      1  C2  UNL d   1      -2.128   3.372  -3.392  0.00  0.00    -0.076 A 
ATOM      2  C3  UNL d   1      -0.787   2.965  -3.496  0.00  0.00     0.004 A 
ATOM      3  C4  UNL d   1      -0.012   2.750  -2.358  0.00  0.00    -0.003 A 
ATOM      4  C5  UNL d   1      -0.566   2.938  -1.097  0.00  0.00     0.000 A 
ATOM      5  C6  UNL d   1      -1.900   3.325  -0.974  0.00  0.00     0.000 A 
ATOM      6  C7  UNL d   1      -2.700   3.530  -2.112  0.00  0.00    -0.073 A 
ATOM      7  C8  UNL d   1      -4.131   3.953  -1.921  0.00  0.00     0.078 C 
ENDROOT
BRANCH   1   8
ATOM      8  C1  UNL d   1      -2.912   3.616  -4.662  0.00  0.00     0.053 C 
ATOM      9  C   UNL d   1      -2.118   4.401  -5.695  0.00  0.00     0.018 C 
ENDBRANCH   1   8
TORSDOF 1
ENDMDL
