MODEL 1
REMARK minimizedAffinity 10.8882685
REMARK minimizedRMSD -1
REMARK  1 active torsions:
REMARK  status: ('A' for Active; 'I' for Inactive)
REMARK    1  A    between atoms: C1_2  and  C2_3 
ROOT
ATOM      1  C2  UNL d   1      -2.758   5.033  -2.622  0.00  0.00    -0.076 A 
ATOM      2  C3  UNL d   1      -3.737   5.762  -1.923  0.00  0.00     0.004 A 
ATOM      3  C4  UNL d   1      -4.718   5.112  -1.177  0.00  0.00    -0.003 A 
ATOM      4  C5  UNL d   1      -4.737   3.723  -1.116  0.00  0.00     0.000 A 
ATOM      5  C6  UNL d   1      -3.763   2.985  -1.789  0.00  0.00     0.000 A 
ATOM      6  C7  UNL d   1      -2.757   3.625  -2.532  0.00  0.00    -0.073 A 
ATOM      7  C8  UNL d   1      -1.736   2.779  -3.242  0.00  0.00     0.078 C 
ENDROOT
BRANCH   1   8
ATOM      8  C1  UNL d   1      -1.735   5.792  -3.437  0.00  0.00     0.053 C 
ATOM      9  C   UNL d   1      -2.176   6.000  -4.877  0.00  0.00     0.018 C 
ENDBRANCH   1   8
TORSDOF 1
ENDMDL
