MODEL 1
REMARK minimizedAffinity 16.6113949
REMARK minimizedRMSD -1
REMARK  1 active torsions:
REMARK  status: ('A' for Active; 'I' for Inactive)
REMARK    1  A    between atoms: C1_2  and  C2_3 
ROOT
ATOM      1  C2  UNL d   1       1.230   3.290   0.093  0.00  0.00    -0.076 A 
ATOM      2  C3  UNL d   1       0.951   4.271   1.062  0.00  0.00     0.004 A 
ATOM      3  C4  UNL d   1       0.836   5.614   0.710  0.00  0.00    -0.003 A 
ATOM      4  C5  UNL d   1       0.999   6.000  -0.616  0.00  0.00     0.000 A 
ATOM      5  C6  UNL d   1       1.259   5.039  -1.593  0.00  0.00     0.000 A 
ATOM      6  C7  UNL d   1       1.361   3.678  -1.257  0.00  0.00    -0.073 A 
ATOM      7  C8  UNL d   1       1.649   2.685  -2.350  0.00  0.00     0.078 C 
ENDROOT
BRANCH   1   8
ATOM      8  C1  UNL d   1       1.370   1.852   0.538  0.00  0.00     0.053 C 
ATOM      9  C   UNL d   1       2.814   1.469   0.827  0.00  0.00     0.018 C 
ENDBRANCH   1   8
TORSDOF 1
ENDMDL
