MODEL 1
REMARK minimizedAffinity 18.1709099
REMARK minimizedRMSD -1
REMARK  1 active torsions:
REMARK  status: ('A' for Active; 'I' for Inactive)
REMARK    1  A    between atoms: C1_2  and  C2_3 
ROOT
ATOM      1  C2  UNL d   1      -2.801   3.581  -2.316  0.00  0.00    -0.076 A 
ATOM      2  C3  UNL d   1      -3.800   2.871  -1.626  0.00  0.00     0.004 A 
ATOM      3  C4  UNL d   1      -4.829   3.540  -0.967  0.00  0.00    -0.003 A 
ATOM      4  C5  UNL d   1      -4.878   4.929  -0.987  0.00  0.00     0.000 A 
ATOM      5  C6  UNL d   1      -3.906   5.649  -1.681  0.00  0.00     0.000 A 
ATOM      6  C7  UNL d   1      -2.870   4.990  -2.365  0.00  0.00    -0.073 A 
ATOM      7  C8  UNL d   1      -1.845   5.816  -3.092  0.00  0.00     0.078 C 
ENDROOT
BRANCH   1   8
ATOM      8  C1  UNL d   1      -1.694   2.803  -2.990  0.00  0.00     0.053 C 
ATOM      9  C   UNL d   1      -0.644   2.311  -2.005  0.00  0.00     0.018 C 
ENDBRANCH   1   8
TORSDOF 1
ENDMDL
