MODEL 1
REMARK minimizedAffinity 6.72767019
REMARK minimizedRMSD -1
REMARK  1 active torsions:
REMARK  status: ('A' for Active; 'I' for Inactive)
REMARK    1  A    between atoms: C1_2  and  C2_3 
ROOT
ATOM      1  C2  UNL d   1       0.128  -1.073   3.167  0.00  0.00    -0.076 A 
ATOM      2  C3  UNL d   1       1.208  -0.209   2.915  0.00  0.00     0.004 A 
ATOM      3  C4  UNL d   1       2.178  -0.530   1.966  0.00  0.00    -0.003 A 
ATOM      4  C5  UNL d   1       2.083  -1.720   1.254  0.00  0.00     0.000 A 
ATOM      5  C6  UNL d   1       1.009  -2.581   1.479  0.00  0.00     0.000 A 
ATOM      6  C7  UNL d   1       0.014  -2.265   2.420  0.00  0.00    -0.073 A 
ATOM      7  C8  UNL d   1      -1.118  -3.233   2.626  0.00  0.00     0.078 C 
ENDROOT
BRANCH   1   8
ATOM      8  C1  UNL d   1      -0.878  -0.685   4.227  0.00  0.00     0.053 C 
ATOM      9  C   UNL d   1      -0.266  -0.629   5.618  0.00  0.00     0.018 C 
ENDBRANCH   1   8
TORSDOF 1
ENDMDL
