MODEL 1
REMARK minimizedAffinity 20.0873795
REMARK minimizedRMSD -1
REMARK  1 active torsions:
REMARK  status: ('A' for Active; 'I' for Inactive)
REMARK    1  A    between atoms: C1_2  and  C2_3 
ROOT
ATOM      1  C2  UNL d   1      -0.890   4.968  -2.777  0.00  0.00    -0.076 A 
ATOM      2  C3  UNL d   1       0.292   5.438  -2.179  0.00  0.00     0.004 A 
ATOM      3  C4  UNL d   1       1.097   4.590  -1.420  0.00  0.00    -0.003 A 
ATOM      4  C5  UNL d   1       0.734   3.259  -1.249  0.00  0.00     0.000 A 
ATOM      5  C6  UNL d   1      -0.426   2.772  -1.850  0.00  0.00     0.000 A 
ATOM      6  C7  UNL d   1      -1.241   3.609  -2.631  0.00  0.00    -0.073 A 
ATOM      7  C8  UNL d   1      -2.484   3.032  -3.251  0.00  0.00     0.078 C 
ENDROOT
BRANCH   1   8
ATOM      8  C1  UNL d   1      -1.738   5.941  -3.566  0.00  0.00     0.053 C 
ATOM      9  C   UNL d   1      -1.639   5.716  -5.067  0.00  0.00     0.018 C 
ENDBRANCH   1   8
TORSDOF 1
ENDMDL
