MODEL 1
REMARK minimizedAffinity 14.9218063
REMARK minimizedRMSD -1
REMARK  1 active torsions:
REMARK  status: ('A' for Active; 'I' for Inactive)
REMARK    1  A    between atoms: C1_2  and  C2_3 
ROOT
ATOM      1  C2  UNL d   1      -2.721   3.877  -3.592  0.00  0.00    -0.076 A 
ATOM      2  C3  UNL d   1      -2.614   3.255  -4.848  0.00  0.00     0.004 A 
ATOM      3  C4  UNL d   1      -2.318   3.995  -5.992  0.00  0.00    -0.003 A 
ATOM      4  C5  UNL d   1      -2.125   5.368  -5.898  0.00  0.00     0.000 A 
ATOM      5  C6  UNL d   1      -2.211   5.999  -4.658  0.00  0.00     0.000 A 
ATOM      6  C7  UNL d   1      -2.492   5.266  -3.492  0.00  0.00    -0.073 A 
ATOM      7  C8  UNL d   1      -2.579   5.999  -2.182  0.00  0.00     0.078 C 
ENDROOT
BRANCH   1   8
ATOM      8  C1  UNL d   1      -3.071   3.028  -2.391  0.00  0.00     0.053 C 
ATOM      9  C   UNL d   1      -4.398   3.424  -1.763  0.00  0.00     0.018 C 
ENDBRANCH   1   8
TORSDOF 1
ENDMDL
