MODEL 1
REMARK minimizedAffinity 10.6695166
REMARK minimizedRMSD -1
REMARK  1 active torsions:
REMARK  status: ('A' for Active; 'I' for Inactive)
REMARK    1  A    between atoms: C1_2  and  C2_3 
ROOT
ATOM      1  C2  UNL d   1       2.359  -0.293   1.169  0.00  0.00    -0.076 A 
ATOM      2  C3  UNL d   1       1.338  -0.463   2.119  0.00  0.00     0.004 A 
ATOM      3  C4  UNL d   1       0.826  -1.728   2.404  0.00  0.00    -0.003 A 
ATOM      4  C5  UNL d   1       1.328  -2.843   1.743  0.00  0.00     0.000 A 
ATOM      5  C6  UNL d   1       2.354  -2.695   0.809  0.00  0.00     0.000 A 
ATOM      6  C7  UNL d   1       2.892  -1.429   0.523  0.00  0.00    -0.073 A 
ATOM      7  C8  UNL d   1       3.993  -1.327  -0.497  0.00  0.00     0.078 C 
ENDROOT
BRANCH   1   8
ATOM      8  C1  UNL d   1       2.856   1.106   0.882  0.00  0.00     0.053 C 
ATOM      9  C   UNL d   1       1.771   2.004   0.308  0.00  0.00     0.018 C 
ENDBRANCH   1   8
TORSDOF 1
ENDMDL
