MODEL 1
REMARK minimizedAffinity 12.2837162
REMARK minimizedRMSD -1
REMARK  1 active torsions:
REMARK  status: ('A' for Active; 'I' for Inactive)
REMARK    1  A    between atoms: C1_2  and  C2_3 
ROOT
ATOM      1  C2  UNL d   1       0.004  -0.958   2.992  0.00  0.00    -0.076 A 
ATOM      2  C3  UNL d   1       1.197  -0.298   2.650  0.00  0.00     0.004 A 
ATOM      3  C4  UNL d   1       2.042  -0.808   1.666  0.00  0.00    -0.003 A 
ATOM      4  C5  UNL d   1       1.708  -1.986   1.008  0.00  0.00     0.000 A 
ATOM      5  C6  UNL d   1       0.520  -2.645   1.322  0.00  0.00     0.000 A 
ATOM      6  C7  UNL d   1      -0.352  -2.135   2.300  0.00  0.00    -0.073 A 
ATOM      7  C8  UNL d   1      -1.618  -2.890   2.603  0.00  0.00     0.078 C 
ENDROOT
BRANCH   1   8
ATOM      8  C1  UNL d   1      -0.860  -0.372   4.086  0.00  0.00     0.053 C 
ATOM      9  C   UNL d   1      -0.135  -0.290   5.420  0.00  0.00     0.018 C 
ENDBRANCH   1   8
TORSDOF 1
ENDMDL
