MODEL 1
REMARK minimizedAffinity 5.83084774
REMARK minimizedRMSD -1
REMARK  1 active torsions:
REMARK  status: ('A' for Active; 'I' for Inactive)
REMARK    1  A    between atoms: C1_2  and  C2_3 
ROOT
ATOM      1  C2  UNL d   1       0.074  -2.112   3.113  0.00  0.00    -0.076 A 
ATOM      2  C3  UNL d   1       0.416  -0.966   3.851  0.00  0.00     0.004 A 
ATOM      3  C4  UNL d   1      -0.372  -0.536   4.917  0.00  0.00    -0.003 A 
ATOM      4  C5  UNL d   1      -1.516  -1.247   5.263  0.00  0.00     0.000 A 
ATOM      5  C6  UNL d   1      -1.862  -2.396   4.553  0.00  0.00     0.000 A 
ATOM      6  C7  UNL d   1      -1.068  -2.852   3.486  0.00  0.00    -0.073 A 
ATOM      7  C8  UNL d   1      -1.491  -4.095   2.752  0.00  0.00     0.078 C 
ENDROOT
BRANCH   1   8
ATOM      8  C1  UNL d   1       0.953  -2.515   1.950  0.00  0.00     0.053 C 
ATOM      9  C   UNL d   1       1.817  -1.368   1.449  0.00  0.00     0.018 C 
ENDBRANCH   1   8
TORSDOF 1
ENDMDL
