MODEL 1
REMARK minimizedAffinity 9.91458893
REMARK minimizedRMSD -1
REMARK  1 active torsions:
REMARK  status: ('A' for Active; 'I' for Inactive)
REMARK    1  A    between atoms: C1_2  and  C2_3 
ROOT
ATOM      1  C2  UNL d   1      -2.648   3.669  -2.392  0.00  0.00    -0.076 A 
ATOM      2  C3  UNL d   1      -3.588   2.916  -1.667  0.00  0.00     0.004 A 
ATOM      3  C4  UNL d   1      -4.572   3.539  -0.902  0.00  0.00    -0.003 A 
ATOM      4  C5  UNL d   1      -4.633   4.928  -0.850  0.00  0.00     0.000 A 
ATOM      5  C6  UNL d   1      -3.720   5.691  -1.577  0.00  0.00     0.000 A 
ATOM      6  C7  UNL d   1      -2.732   5.078  -2.366  0.00  0.00    -0.073 A 
ATOM      7  C8  UNL d   1      -1.769   5.950  -3.124  0.00  0.00     0.078 C 
ENDROOT
BRANCH   1   8
ATOM      8  C1  UNL d   1      -1.587   2.938  -3.182  0.00  0.00     0.053 C 
ATOM      9  C   UNL d   1      -0.553   2.269  -2.289  0.00  0.00     0.018 C 
ENDBRANCH   1   8
TORSDOF 1
ENDMDL
