MODEL 1
REMARK minimizedAffinity 12.852973
REMARK minimizedRMSD -1
REMARK  1 active torsions:
REMARK  status: ('A' for Active; 'I' for Inactive)
REMARK    1  A    between atoms: C1_2  and  C2_3 
ROOT
ATOM      1  C2  UNL d   1       0.120  -2.099   2.786  0.00  0.00    -0.076 A 
ATOM      2  C3  UNL d   1      -0.889  -2.960   2.320  0.00  0.00     0.004 A 
ATOM      3  C4  UNL d   1      -2.131  -3.015   2.949  0.00  0.00    -0.003 A 
ATOM      4  C5  UNL d   1      -2.386  -2.210   4.053  0.00  0.00     0.000 A 
ATOM      5  C6  UNL d   1      -1.403  -1.337   4.518  0.00  0.00     0.000 A 
ATOM      6  C7  UNL d   1      -0.150  -1.257   3.886  0.00  0.00    -0.073 A 
ATOM      7  C8  UNL d   1       0.875  -0.302   4.433  0.00  0.00     0.078 C 
ENDROOT
BRANCH   1   8
ATOM      8  C1  UNL d   1       1.457  -2.101   2.080  0.00  0.00     0.053 C 
ATOM      9  C   UNL d   1       1.669  -0.859   1.228  0.00  0.00     0.018 C 
ENDBRANCH   1   8
TORSDOF 1
ENDMDL
