MODEL 1
REMARK minimizedAffinity 14.5897846
REMARK minimizedRMSD -1
REMARK  1 active torsions:
REMARK  status: ('A' for Active; 'I' for Inactive)
REMARK    1  A    between atoms: C1_2  and  C2_3 
ROOT
ATOM      1  C2  UNL d   1      -0.101  -1.771   2.983  0.00  0.00    -0.076 A 
ATOM      2  C3  UNL d   1       0.312  -0.719   3.820  0.00  0.00     0.004 A 
ATOM      3  C4  UNL d   1      -0.537  -0.207   4.800  0.00  0.00    -0.003 A 
ATOM      4  C5  UNL d   1      -1.811  -0.739   4.960  0.00  0.00     0.000 A 
ATOM      5  C6  UNL d   1      -2.230  -1.795   4.151  0.00  0.00     0.000 A 
ATOM      6  C7  UNL d   1      -1.381  -2.333   3.169  0.00  0.00    -0.073 A 
ATOM      7  C8  UNL d   1      -1.888  -3.467   2.320  0.00  0.00     0.078 C 
ENDROOT
BRANCH   1   8
ATOM      8  C1  UNL d   1       0.853  -2.266   1.920  0.00  0.00     0.053 C 
ATOM      9  C   UNL d   1       1.692  -1.148   1.322  0.00  0.00     0.018 C 
ENDBRANCH   1   8
TORSDOF 1
ENDMDL
