MODEL 1
REMARK minimizedAffinity 15.1977882
REMARK minimizedRMSD -1
REMARK  1 active torsions:
REMARK  status: ('A' for Active; 'I' for Inactive)
REMARK    1  A    between atoms: C1_2  and  C2_3 
ROOT
ATOM      1  C2  UNL d   1      -2.253   3.737  -2.682  0.00  0.00    -0.076 A 
ATOM      2  C3  UNL d   1      -3.321   2.999  -2.142  0.00  0.00     0.004 A 
ATOM      3  C4  UNL d   1      -4.360   3.633  -1.463  0.00  0.00    -0.003 A 
ATOM      4  C5  UNL d   1      -4.348   5.016  -1.312  0.00  0.00     0.000 A 
ATOM      5  C6  UNL d   1      -3.305   5.765  -1.857  0.00  0.00     0.000 A 
ATOM      6  C7  UNL d   1      -2.258   5.143  -2.558  0.00  0.00    -0.073 A 
ATOM      7  C8  UNL d   1      -1.156   5.999  -3.119  0.00  0.00     0.078 C 
ENDROOT
BRANCH   1   8
ATOM      8  C1  UNL d   1      -1.140   2.992  -3.385  0.00  0.00     0.053 C 
ATOM      9  C   UNL d   1       0.002   2.631  -2.448  0.00  0.00     0.018 C 
ENDBRANCH   1   8
TORSDOF 1
ENDMDL
