MODEL 1
REMARK minimizedAffinity 1.59757817
REMARK minimizedRMSD -1
REMARK  3 active torsions:
REMARK  status: ('A' for Active; 'I' for Inactive)
REMARK    1  A    between atoms: C3'_2  and  C2'_3 
REMARK    2  A    between atoms: C2'_3  and  C1'_4 
REMARK    3  A    between atoms: C1'_4  and  C1_5 
ROOT
ATOM      1  C1  N4B d   1      -1.824  -0.572  -0.617  0.00  0.00    -0.075 A 
ATOM      2  C2  N4B d   1      -2.848   0.359  -0.337  0.00  0.00     0.002 A 
ATOM      3  C3  N4B d   1      -3.592   0.237   0.811  0.00  0.00     0.002 A 
ATOM      4  C4  N4B d   1      -3.344  -0.815   1.680  0.00  0.00    -0.004 A 
ATOM      5  C5  N4B d   1      -2.336  -1.695   1.415  0.00  0.00     0.002 A 
ATOM      6  C6  N4B d   1      -1.578  -1.582   0.267  0.00  0.00     0.002 A 
ENDROOT
BRANCH   1   7
ATOM      7  C1' N4B d   1      -1.042  -0.530  -1.901  0.00  0.00     0.057 C 
BRANCH   7   8
ATOM      8  C2' N4B d   1      -1.927  -1.019  -3.044  0.00  0.00     0.009 C 
BRANCH   8   9
ATOM      9  C3' N4B d   1      -1.937  -2.534  -3.146  0.00  0.00     0.004 C 
ATOM     10  C4' N4B d   1      -2.459  -3.024  -4.464  0.00  0.00     0.003 C 
ENDBRANCH   8   9
ENDBRANCH   7   8
ENDBRANCH   1   7
TORSDOF 3
ENDMDL
