MODEL 1
REMARK minimizedAffinity -0.524476528
REMARK minimizedRMSD -1
REMARK  3 active torsions:
REMARK  status: ('A' for Active; 'I' for Inactive)
REMARK    1  A    between atoms: C3'_2  and  C2'_3 
REMARK    2  A    between atoms: C2'_3  and  C1'_4 
REMARK    3  A    between atoms: C1'_4  and  C1_5 
ROOT
ATOM      1  C1  N4B d   1      -3.726   1.615   2.879  0.00  0.00    -0.075 A 
ATOM      2  C2  N4B d   1      -4.495   1.286   1.741  0.00  0.00     0.002 A 
ATOM      3  C3  N4B d   1      -4.491   0.000   1.257  0.00  0.00     0.002 A 
ATOM      4  C4  N4B d   1      -3.714  -0.964   1.881  0.00  0.00    -0.004 A 
ATOM      5  C5  N4B d   1      -2.994  -0.644   2.994  0.00  0.00     0.002 A 
ATOM      6  C6  N4B d   1      -2.992   0.642   3.494  0.00  0.00     0.002 A 
ENDROOT
BRANCH   1   7
ATOM      7  C1' N4B d   1      -3.632   3.025   3.393  0.00  0.00     0.057 C 
BRANCH   7   8
ATOM      8  C2' N4B d   1      -4.691   3.881   2.705  0.00  0.00     0.009 C 
BRANCH   8   9
ATOM      9  C3' N4B d   1      -5.906   4.101   3.590  0.00  0.00     0.004 C 
ATOM     10  C4' N4B d   1      -6.000   5.505   4.109  0.00  0.00     0.003 C 
ENDBRANCH   8   9
ENDBRANCH   7   8
ENDBRANCH   1   7
TORSDOF 3
ENDMDL
