MODEL 1
REMARK minimizedAffinity 11.0122585
REMARK minimizedRMSD -1
REMARK  3 active torsions:
REMARK  status: ('A' for Active; 'I' for Inactive)
REMARK    1  A    between atoms: C3'_2  and  C2'_3 
REMARK    2  A    between atoms: C2'_3  and  C1'_4 
REMARK    3  A    between atoms: C1'_4  and  C1_5 
ROOT
ATOM      1  C1  N4B d   1       1.239  -0.777  -1.919  0.00  0.00    -0.075 A 
ATOM      2  C2  N4B d   1       0.087  -0.589  -2.716  0.00  0.00     0.002 A 
ATOM      3  C3  N4B d   1      -1.160  -0.663  -2.146  0.00  0.00     0.002 A 
ATOM      4  C4  N4B d   1      -1.282  -0.941  -0.793  0.00  0.00    -0.004 A 
ATOM      5  C5  N4B d   1      -0.164  -1.096  -0.026  0.00  0.00     0.002 A 
ATOM      6  C6  N4B d   1       1.096  -1.020  -0.584  0.00  0.00     0.002 A 
ENDROOT
BRANCH   1   7
ATOM      7  C1' N4B d   1       2.621  -0.791  -2.513  0.00  0.00     0.057 C 
BRANCH   7   8
ATOM      8  C2' N4B d   1       2.651   0.124  -3.734  0.00  0.00     0.009 C 
BRANCH   8   9
ATOM      9  C3' N4B d   1       2.292  -0.620  -5.009  0.00  0.00     0.004 C 
ATOM     10  C4' N4B d   1       1.565   0.241  -5.999  0.00  0.00     0.003 C 
ENDBRANCH   8   9
ENDBRANCH   7   8
ENDBRANCH   1   7
TORSDOF 3
ENDMDL
