MODEL 1
REMARK minimizedAffinity -0.997435272
REMARK minimizedRMSD -1
REMARK  3 active torsions:
REMARK  status: ('A' for Active; 'I' for Inactive)
REMARK    1  A    between atoms: C3'_2  and  C2'_3 
REMARK    2  A    between atoms: C2'_3  and  C1'_4 
REMARK    3  A    between atoms: C1'_4  and  C1_5 
ROOT
ATOM      1  C1  N4B d   1      -5.843   4.218   4.319  0.00  0.00    -0.075 A 
ATOM      2  C2  N4B d   1      -5.991   5.524   3.804  0.00  0.00     0.002 A 
ATOM      3  C3  N4B d   1      -5.761   5.767   2.472  0.00  0.00     0.002 A 
ATOM      4  C4  N4B d   1      -5.366   4.728   1.644  0.00  0.00    -0.004 A 
ATOM      5  C5  N4B d   1      -5.249   3.464   2.144  0.00  0.00     0.002 A 
ATOM      6  C6  N4B d   1      -5.481   3.204   3.480  0.00  0.00     0.002 A 
ENDROOT
BRANCH   1   7
ATOM      7  C1' N4B d   1      -6.000   3.920   5.785  0.00  0.00     0.057 C 
BRANCH   7   8
ATOM      8  C2' N4B d   1      -5.977   2.409   5.994  0.00  0.00     0.009 C 
BRANCH   8   9
ATOM      9  C3' N4B d   1      -4.562   1.857   5.999  0.00  0.00     0.004 C 
ATOM     10  C4' N4B d   1      -3.519   2.933   5.972  0.00  0.00     0.003 C 
ENDBRANCH   8   9
ENDBRANCH   7   8
ENDBRANCH   1   7
TORSDOF 3
ENDMDL
