MODEL 1
REMARK minimizedAffinity 6.45009899
REMARK minimizedRMSD -1
REMARK  3 active torsions:
REMARK  status: ('A' for Active; 'I' for Inactive)
REMARK    1  A    between atoms: C3'_2  and  C2'_3 
REMARK    2  A    between atoms: C2'_3  and  C1'_4 
REMARK    3  A    between atoms: C1'_4  and  C1_5 
ROOT
ATOM      1  C1  N4B d   1       0.905   0.403  -4.892  0.00  0.00    -0.075 A 
ATOM      2  C2  N4B d   1       2.164  -0.088  -5.304  0.00  0.00     0.002 A 
ATOM      3  C3  N4B d   1       3.030  -0.617  -4.379  0.00  0.00     0.002 A 
ATOM      4  C4  N4B d   1       2.669  -0.649  -3.041  0.00  0.00    -0.004 A 
ATOM      5  C5  N4B d   1       1.441  -0.196  -2.655  0.00  0.00     0.002 A 
ATOM      6  C6  N4B d   1       0.559   0.335  -3.574  0.00  0.00     0.002 A 
ENDROOT
BRANCH   1   7
ATOM      7  C1' N4B d   1      -0.041   1.069  -5.854  0.00  0.00     0.057 C 
BRANCH   7   8
ATOM      8  C2' N4B d   1      -1.196   1.688  -5.073  0.00  0.00     0.009 C 
BRANCH   8   9
ATOM      9  C3' N4B d   1      -2.224   2.328  -5.990  0.00  0.00     0.004 C 
ATOM     10  C4' N4B d   1      -3.495   2.684  -5.278  0.00  0.00     0.003 C 
ENDBRANCH   8   9
ENDBRANCH   7   8
ENDBRANCH   1   7
TORSDOF 3
ENDMDL
