MODEL 1
REMARK minimizedAffinity -2.24814773
REMARK minimizedRMSD -1
REMARK  3 active torsions:
REMARK  status: ('A' for Active; 'I' for Inactive)
REMARK    1  A    between atoms: C3'_2  and  C2'_3 
REMARK    2  A    between atoms: C2'_3  and  C1'_4 
REMARK    3  A    between atoms: C1'_4  and  C1_5 
ROOT
ATOM      1  C1  N4B d   1      -5.207   4.592   4.277  0.00  0.00    -0.075 A 
ATOM      2  C2  N4B d   1      -4.822   5.832   3.721  0.00  0.00     0.002 A 
ATOM      3  C3  N4B d   1      -4.812   5.999   2.358  0.00  0.00     0.002 A 
ATOM      4  C4  N4B d   1      -5.162   4.940   1.534  0.00  0.00    -0.004 A 
ATOM      5  C5  N4B d   1      -5.557   3.754   2.080  0.00  0.00     0.002 A 
ATOM      6  C6  N4B d   1      -5.576   3.573   3.448  0.00  0.00     0.002 A 
ENDROOT
BRANCH   1   7
ATOM      7  C1' N4B d   1      -5.152   4.335   5.758  0.00  0.00     0.057 C 
BRANCH   7   8
ATOM      8  C2' N4B d   1      -4.854   2.858   5.999  0.00  0.00     0.009 C 
BRANCH   8   9
ATOM      9  C3' N4B d   1      -3.363   2.568   5.980  0.00  0.00     0.004 C 
ATOM     10  C4' N4B d   1      -2.529   3.815   5.999  0.00  0.00     0.003 C 
ENDBRANCH   8   9
ENDBRANCH   7   8
ENDBRANCH   1   7
TORSDOF 3
ENDMDL
