MODEL 1
REMARK minimizedAffinity 2.7211988
REMARK minimizedRMSD -1
REMARK  3 active torsions:
REMARK  status: ('A' for Active; 'I' for Inactive)
REMARK    1  A    between atoms: C3'_2  and  C2'_3 
REMARK    2  A    between atoms: C2'_3  and  C1'_4 
REMARK    3  A    between atoms: C1'_4  and  C1_5 
ROOT
ATOM      1  C1  N4B d   1      -5.710   4.233   3.893  0.00  0.00    -0.075 A 
ATOM      2  C2  N4B d   1      -5.223   3.371   2.886  0.00  0.00     0.002 A 
ATOM      3  C3  N4B d   1      -5.051   3.838   1.606  0.00  0.00     0.002 A 
ATOM      4  C4  N4B d   1      -5.376   5.152   1.306  0.00  0.00    -0.004 A 
ATOM      5  C5  N4B d   1      -5.822   5.985   2.290  0.00  0.00     0.002 A 
ATOM      6  C6  N4B d   1      -5.996   5.530   3.582  0.00  0.00     0.002 A 
ENDROOT
BRANCH   1   7
ATOM      7  C1' N4B d   1      -5.996   3.744   5.287  0.00  0.00     0.057 C 
BRANCH   7   8
ATOM      8  C2' N4B d   1      -5.962   2.219   5.300  0.00  0.00     0.009 C 
BRANCH   8   9
ATOM      9  C3' N4B d   1      -4.724   1.684   6.000  0.00  0.00     0.004 C 
ATOM     10  C4' N4B d   1      -3.449   2.163   5.372  0.00  0.00     0.003 C 
ENDBRANCH   8   9
ENDBRANCH   7   8
ENDBRANCH   1   7
TORSDOF 3
ENDMDL
