MODEL 1
REMARK minimizedAffinity -0.937281847
REMARK minimizedRMSD -1
REMARK  3 active torsions:
REMARK  status: ('A' for Active; 'I' for Inactive)
REMARK    1  A    between atoms: C3'_2  and  C2'_3 
REMARK    2  A    between atoms: C2'_3  and  C1'_4 
REMARK    3  A    between atoms: C1'_4  and  C1_5 
ROOT
ATOM      1  C1  N4B d   1      -4.758   4.569   5.274  0.00  0.00    -0.075 A 
ATOM      2  C2  N4B d   1      -5.836   3.657   5.300  0.00  0.00     0.002 A 
ATOM      3  C3  N4B d   1      -5.622   2.352   5.671  0.00  0.00     0.002 A 
ATOM      4  C4  N4B d   1      -4.342   1.933   6.000  0.00  0.00    -0.004 A 
ATOM      5  C5  N4B d   1      -3.311   2.827   5.997  0.00  0.00     0.002 A 
ATOM      6  C6  N4B d   1      -3.512   4.142   5.631  0.00  0.00     0.002 A 
ENDROOT
BRANCH   1   7
ATOM      7  C1' N4B d   1      -4.927   5.984   4.793  0.00  0.00     0.057 C 
BRANCH   7   8
ATOM      8  C2' N4B d   1      -5.675   5.975   3.463  0.00  0.00     0.009 C 
BRANCH   8   9
ATOM      9  C3' N4B d   1      -4.731   5.827   2.282  0.00  0.00     0.004 C 
ATOM     10  C4' N4B d   1      -4.573   4.402   1.841  0.00  0.00     0.003 C 
ENDBRANCH   8   9
ENDBRANCH   7   8
ENDBRANCH   1   7
TORSDOF 3
ENDMDL
