MODEL 1
REMARK minimizedAffinity -3.0142374
REMARK minimizedRMSD -1
REMARK  3 active torsions:
REMARK  status: ('A' for Active; 'I' for Inactive)
REMARK    1  A    between atoms: C3'_2  and  C2'_3 
REMARK    2  A    between atoms: C2'_3  and  C1'_4 
REMARK    3  A    between atoms: C1'_4  and  C1_5 
ROOT
ATOM      1  C1  N4B d   1      -5.608   4.774   3.891  0.00  0.00    -0.075 A 
ATOM      2  C2  N4B d   1      -5.052   5.934   3.309  0.00  0.00     0.002 A 
ATOM      3  C3  N4B d   1      -4.710   5.939   1.979  0.00  0.00     0.002 A 
ATOM      4  C4  N4B d   1      -4.895   4.794   1.219  0.00  0.00    -0.004 A 
ATOM      5  C5  N4B d   1      -5.456   3.685   1.783  0.00  0.00     0.002 A 
ATOM      6  C6  N4B d   1      -5.809   3.668   3.117  0.00  0.00     0.002 A 
ENDROOT
BRANCH   1   7
ATOM      7  C1' N4B d   1      -5.918   4.694   5.361  0.00  0.00     0.057 C 
BRANCH   7   8
ATOM      8  C2' N4B d   1      -5.591   3.291   5.866  0.00  0.00     0.009 C 
BRANCH   8   9
ATOM      9  C3' N4B d   1      -4.094   3.070   6.000  0.00  0.00     0.004 C 
ATOM     10  C4' N4B d   1      -3.720   1.618   6.000  0.00  0.00     0.003 C 
ENDBRANCH   8   9
ENDBRANCH   7   8
ENDBRANCH   1   7
TORSDOF 3
ENDMDL
