MODEL 1
REMARK minimizedAffinity -2.62777495
REMARK minimizedRMSD -1
REMARK  3 active torsions:
REMARK  status: ('A' for Active; 'I' for Inactive)
REMARK    1  A    between atoms: C3'_2  and  C2'_3 
REMARK    2  A    between atoms: C2'_3  and  C1'_4 
REMARK    3  A    between atoms: C1'_4  and  C1_5 
ROOT
ATOM      1  C1  N4B d   1      -5.486   5.144   3.213  0.00  0.00    -0.075 A 
ATOM      2  C2  N4B d   1      -6.000   4.124   2.381  0.00  0.00     0.002 A 
ATOM      3  C3  N4B d   1      -5.560   4.008   1.086  0.00  0.00     0.002 A 
ATOM      4  C4  N4B d   1      -4.626   4.908   0.595  0.00  0.00    -0.004 A 
ATOM      5  C5  N4B d   1      -4.116   5.874   1.412  0.00  0.00     0.002 A 
ATOM      6  C6  N4B d   1      -4.546   6.000   2.718  0.00  0.00     0.002 A 
ENDROOT
BRANCH   1   7
ATOM      7  C1' N4B d   1      -5.999   5.363   4.609  0.00  0.00     0.057 C 
BRANCH   7   8
ATOM      8  C2' N4B d   1      -5.917   4.052   5.385  0.00  0.00     0.009 C 
BRANCH   8   9
ATOM      9  C3' N4B d   1      -4.536   3.426   5.298  0.00  0.00     0.004 C 
ATOM     10  C4' N4B d   1      -4.453   2.102   5.998  0.00  0.00     0.003 C 
ENDBRANCH   8   9
ENDBRANCH   7   8
ENDBRANCH   1   7
TORSDOF 3
ENDMDL
