MODEL 1
REMARK minimizedAffinity -0.320651352
REMARK minimizedRMSD -1
REMARK  3 active torsions:
REMARK  status: ('A' for Active; 'I' for Inactive)
REMARK    1  A    between atoms: C3'_2  and  C2'_3 
REMARK    2  A    between atoms: C2'_3  and  C1'_4 
REMARK    3  A    between atoms: C1'_4  and  C1_5 
ROOT
ATOM      1  C1  N4B d   1      -5.267   3.209   3.566  0.00  0.00    -0.075 A 
ATOM      2  C2  N4B d   1      -3.858   3.144   3.623  0.00  0.00     0.002 A 
ATOM      3  C3  N4B d   1      -3.225   3.003   4.834  0.00  0.00     0.002 A 
ATOM      4  C4  N4B d   1      -3.977   2.944   5.997  0.00  0.00    -0.004 A 
ATOM      5  C5  N4B d   1      -5.339   2.981   5.932  0.00  0.00     0.002 A 
ATOM      6  C6  N4B d   1      -5.988   3.119   4.722  0.00  0.00     0.002 A 
ENDROOT
BRANCH   1   7
ATOM      7  C1' N4B d   1      -6.000   3.449   2.275  0.00  0.00     0.057 C 
BRANCH   7   8
ATOM      8  C2' N4B d   1      -5.989   4.943   1.963  0.00  0.00     0.009 C 
BRANCH   8   9
ATOM      9  C3' N4B d   1      -4.990   5.289   0.872  0.00  0.00     0.004 C 
ATOM     10  C4' N4B d   1      -5.647   5.595  -0.441  0.00  0.00     0.003 C 
ENDBRANCH   8   9
ENDBRANCH   7   8
ENDBRANCH   1   7
TORSDOF 3
ENDMDL
