MODEL 1
REMARK minimizedAffinity -3.51674342
REMARK minimizedRMSD -1
REMARK  3 active torsions:
REMARK  status: ('A' for Active; 'I' for Inactive)
REMARK    1  A    between atoms: C3'_2  and  C2'_3 
REMARK    2  A    between atoms: C2'_3  and  C1'_4 
REMARK    3  A    between atoms: C1'_4  and  C1_5 
ROOT
ATOM      1  C1  N4B d   1      -5.412   3.475   3.979  0.00  0.00    -0.075 A 
ATOM      2  C2  N4B d   1      -4.957   3.653   2.654  0.00  0.00     0.002 A 
ATOM      3  C3  N4B d   1      -4.916   4.912   2.106  0.00  0.00     0.002 A 
ATOM      4  C4  N4B d   1      -5.341   6.000   2.853  0.00  0.00    -0.004 A 
ATOM      5  C5  N4B d   1      -5.755   5.822   4.141  0.00  0.00     0.002 A 
ATOM      6  C6  N4B d   1      -5.798   4.563   4.706  0.00  0.00     0.002 A 
ENDROOT
BRANCH   1   7
ATOM      7  C1' N4B d   1      -5.556   2.108   4.591  0.00  0.00     0.057 C 
BRANCH   7   8
ATOM      8  C2' N4B d   1      -4.967   2.126   5.999  0.00  0.00     0.009 C 
BRANCH   8   9
ATOM      9  C3' N4B d   1      -3.477   1.831   5.995  0.00  0.00     0.004 C 
ATOM     10  C4' N4B d   1      -2.638   3.075   5.999  0.00  0.00     0.003 C 
ENDBRANCH   8   9
ENDBRANCH   7   8
ENDBRANCH   1   7
TORSDOF 3
ENDMDL
