MODEL 1
REMARK minimizedAffinity -3.40825844
REMARK minimizedRMSD -1
REMARK  3 active torsions:
REMARK  status: ('A' for Active; 'I' for Inactive)
REMARK    1  A    between atoms: C3'_2  and  C2'_3 
REMARK    2  A    between atoms: C2'_3  and  C1'_4 
REMARK    3  A    between atoms: C1'_4  and  C1_5 
ROOT
ATOM      1  C1  N4B d   1      -5.329   4.588   4.192  0.00  0.00    -0.075 A 
ATOM      2  C2  N4B d   1      -5.986   3.735   3.278  0.00  0.00     0.002 A 
ATOM      3  C3  N4B d   1      -5.993   4.038   1.939  0.00  0.00     0.002 A 
ATOM      4  C4  N4B d   1      -5.368   5.194   1.495  0.00  0.00    -0.004 A 
ATOM      5  C5  N4B d   1      -4.714   5.999   2.381  0.00  0.00     0.002 A 
ATOM      6  C6  N4B d   1      -4.696   5.704   3.729  0.00  0.00     0.002 A 
ENDROOT
BRANCH   1   7
ATOM      7  C1' N4B d   1      -5.369   4.343   5.676  0.00  0.00     0.057 C 
BRANCH   7   8
ATOM      8  C2' N4B d   1      -5.835   2.914   5.936  0.00  0.00     0.009 C 
BRANCH   8   9
ATOM      9  C3' N4B d   1      -4.674   1.935   5.978  0.00  0.00     0.004 C 
ATOM     10  C4' N4B d   1      -3.339   2.619   5.999  0.00  0.00     0.003 C 
ENDBRANCH   8   9
ENDBRANCH   7   8
ENDBRANCH   1   7
TORSDOF 3
ENDMDL
