MODEL 1
REMARK minimizedAffinity -4.26441813
REMARK minimizedRMSD -1
REMARK  3 active torsions:
REMARK  status: ('A' for Active; 'I' for Inactive)
REMARK    1  A    between atoms: C3'_2  and  C2'_3 
REMARK    2  A    between atoms: C2'_3  and  C1'_4 
REMARK    3  A    between atoms: C1'_4  and  C1_5 
ROOT
ATOM      1  C1  N4B d   1      -5.232   4.724   4.062  0.00  0.00    -0.075 A 
ATOM      2  C2  N4B d   1      -5.807   4.704   5.352  0.00  0.00     0.002 A 
ATOM      3  C3  N4B d   1      -6.000   3.509   6.000  0.00  0.00     0.002 A 
ATOM      4  C4  N4B d   1      -5.644   2.324   5.373  0.00  0.00    -0.004 A 
ATOM      5  C5  N4B d   1      -5.066   2.353   4.137  0.00  0.00     0.002 A 
ATOM      6  C6  N4B d   1      -4.863   3.548   3.476  0.00  0.00     0.002 A 
ENDROOT
BRANCH   1   7
ATOM      7  C1' N4B d   1      -5.081   5.999   3.279  0.00  0.00     0.057 C 
BRANCH   7   8
ATOM      8  C2' N4B d   1      -5.817   5.861   1.950  0.00  0.00     0.009 C 
BRANCH   8   9
ATOM      9  C3' N4B d   1      -4.873   5.969   0.764  0.00  0.00     0.004 C 
ATOM     10  C4' N4B d   1      -5.260   5.066  -0.370  0.00  0.00     0.003 C 
ENDBRANCH   8   9
ENDBRANCH   7   8
ENDBRANCH   1   7
TORSDOF 3
ENDMDL
