MODEL 1
REMARK minimizedAffinity -1.95049441
REMARK minimizedRMSD -1
REMARK  3 active torsions:
REMARK  status: ('A' for Active; 'I' for Inactive)
REMARK    1  A    between atoms: C3'_2  and  C2'_3 
REMARK    2  A    between atoms: C2'_3  and  C1'_4 
REMARK    3  A    between atoms: C1'_4  and  C1_5 
ROOT
ATOM      1  C1  N4B d   1      -5.730   4.552   1.699  0.00  0.00    -0.075 A 
ATOM      2  C2  N4B d   1      -5.377   3.209   1.437  0.00  0.00     0.002 A 
ATOM      3  C3  N4B d   1      -5.254   2.772   0.141  0.00  0.00     0.002 A 
ATOM      4  C4  N4B d   1      -5.496   3.650  -0.905  0.00  0.00    -0.004 A 
ATOM      5  C5  N4B d   1      -5.811   4.952  -0.643  0.00  0.00     0.002 A 
ATOM      6  C6  N4B d   1      -5.934   5.406   0.655  0.00  0.00     0.002 A 
ENDROOT
BRANCH   1   7
ATOM      7  C1' N4B d   1      -5.960   5.054   3.098  0.00  0.00     0.057 C 
BRANCH   7   8
ATOM      8  C2' N4B d   1      -5.971   3.869   4.060  0.00  0.00     0.009 C 
BRANCH   8   9
ATOM      9  C3' N4B d   1      -6.000   4.316   5.512  0.00  0.00     0.004 C 
ATOM     10  C4' N4B d   1      -6.000   5.808   5.660  0.00  0.00     0.003 C 
ENDBRANCH   8   9
ENDBRANCH   7   8
ENDBRANCH   1   7
TORSDOF 3
ENDMDL
