MODEL 1
REMARK minimizedAffinity -2.47015357
REMARK minimizedRMSD -1
REMARK  1 active torsions:
REMARK  status: ('A' for Active; 'I' for Inactive)
REMARK    1  A    between atoms: C3_4  and  O_7 
ROOT
ATOM      1  C   UNL d   1      -0.833  -3.290   2.958  0.00  0.00    -0.033 A 
ATOM      2  C1  UNL d   1      -0.180  -2.264   2.272  0.00  0.00     0.039 A 
ATOM      3  C2  UNL d   1       0.969  -2.541   1.528  0.00  0.00    -0.080 A 
ATOM      4  C3  UNL d   1       1.452  -3.846   1.477  0.00  0.00     0.150 A 
ATOM      5  C4  UNL d   1       0.803  -4.873   2.155  0.00  0.00    -0.007 A 
ATOM      6  C5  UNL d   1      -0.343  -4.595   2.898  0.00  0.00     0.039 A 
ENDROOT
BRANCH   4   7
ATOM      7  O   UNL d   1       2.572  -4.164   0.768  0.00  0.00    -0.526 OA
ATOM      8  H5  UNL d   1       2.929  -3.350   0.376  0.00  0.00     0.418 HD
ENDBRANCH   4   7
TORSDOF 1
ENDMDL
