MODEL 1
REMARK minimizedAffinity 1.19075704
REMARK minimizedRMSD -1
REMARK  1 active torsions:
REMARK  status: ('A' for Active; 'I' for Inactive)
REMARK    1  A    between atoms: C3_4  and  O_7 
ROOT
ATOM      1  C   UNL d   1       0.329   0.374   1.883  0.00  0.00    -0.033 A 
ATOM      2  C1  UNL d   1      -0.432  -0.753   1.562  0.00  0.00     0.039 A 
ATOM      3  C2  UNL d   1       0.103  -1.748   0.742  0.00  0.00    -0.080 A 
ATOM      4  C3  UNL d   1       1.398  -1.605   0.250  0.00  0.00     0.150 A 
ATOM      5  C4  UNL d   1       2.162  -0.487   0.568  0.00  0.00    -0.007 A 
ATOM      6  C5  UNL d   1       1.626   0.506   1.387  0.00  0.00     0.039 A 
ENDROOT
BRANCH   4   7
ATOM      7  O   UNL d   1       1.961  -2.547  -0.558  0.00  0.00    -0.526 OA
ATOM      8  H5  UNL d   1       1.307  -3.248  -0.716  0.00  0.00     0.418 HD
ENDBRANCH   4   7
TORSDOF 1
ENDMDL
