MODEL 1
REMARK minimizedAffinity -0.048349034
REMARK minimizedRMSD -1
REMARK  1 active torsions:
REMARK  status: ('A' for Active; 'I' for Inactive)
REMARK    1  A    between atoms: C3_4  and  O_7 
ROOT
ATOM      1  C   UNL d   1      -0.039  -0.400   1.925  0.00  0.00    -0.033 A 
ATOM      2  C1  UNL d   1      -0.562  -1.621   1.494  0.00  0.00     0.039 A 
ATOM      3  C2  UNL d   1       0.256  -2.537   0.831  0.00  0.00    -0.080 A 
ATOM      4  C3  UNL d   1       1.593  -2.222   0.606  0.00  0.00     0.150 A 
ATOM      5  C4  UNL d   1       2.122  -1.009   1.035  0.00  0.00    -0.007 A 
ATOM      6  C5  UNL d   1       1.303  -0.094   1.696  0.00  0.00     0.039 A 
ENDROOT
BRANCH   4   7
ATOM      7  O   UNL d   1       2.429  -3.083  -0.041  0.00  0.00    -0.526 OA
ATOM      8  H5  UNL d   1       1.920  -3.867  -0.305  0.00  0.00     0.418 HD
ENDBRANCH   4   7
TORSDOF 1
ENDMDL
