MODEL 1
REMARK minimizedAffinity -0.908632636
REMARK minimizedRMSD -1
REMARK  1 active torsions:
REMARK  status: ('A' for Active; 'I' for Inactive)
REMARK    1  A    between atoms: C3_4  and  O_7 
ROOT
ATOM      1  C   UNL d   1      -4.005   3.143  -2.204  0.00  0.00    -0.033 A 
ATOM      2  C1  UNL d   1      -2.983   4.093  -2.178  0.00  0.00     0.039 A 
ATOM      3  C2  UNL d   1      -2.192   4.302  -3.310  0.00  0.00    -0.080 A 
ATOM      4  C3  UNL d   1      -2.435   3.556  -4.460  0.00  0.00     0.150 A 
ATOM      5  C4  UNL d   1      -3.454   2.610  -4.494  0.00  0.00    -0.007 A 
ATOM      6  C5  UNL d   1      -4.241   2.402  -3.362  0.00  0.00     0.039 A 
ENDROOT
BRANCH   4   7
ATOM      7  O   UNL d   1      -1.687   3.721  -5.588  0.00  0.00    -0.526 OA
ATOM      8  H5  UNL d   1      -1.002   4.387  -5.408  0.00  0.00     0.418 HD
ENDBRANCH   4   7
TORSDOF 1
ENDMDL
