MODEL 1
REMARK minimizedAffinity 2.79971528
REMARK minimizedRMSD -1
REMARK  1 active torsions:
REMARK  status: ('A' for Active; 'I' for Inactive)
REMARK    1  A    between atoms: C3_4  and  O_7 
ROOT
ATOM      1  C   UNL d   1       0.689  -1.322   1.000  0.00  0.00    -0.033 A 
ATOM      2  C1  UNL d   1       0.639  -2.085   2.168  0.00  0.00     0.039 A 
ATOM      3  C2  UNL d   1       1.327  -3.298   2.241  0.00  0.00    -0.080 A 
ATOM      4  C3  UNL d   1       2.061  -3.735   1.141  0.00  0.00     0.150 A 
ATOM      5  C4  UNL d   1       2.118  -2.978  -0.024  0.00  0.00    -0.007 A 
ATOM      6  C5  UNL d   1       1.429  -1.768  -0.096  0.00  0.00     0.039 A 
ENDROOT
BRANCH   4   7
ATOM      7  O   UNL d   1       2.744  -4.914   1.164  0.00  0.00    -0.526 OA
ATOM      8  H5  UNL d   1       2.590  -5.343   2.022  0.00  0.00     0.418 HD
ENDBRANCH   4   7
TORSDOF 1
ENDMDL
