MODEL 1
REMARK minimizedAffinity 0.149233207
REMARK minimizedRMSD -1
REMARK  1 active torsions:
REMARK  status: ('A' for Active; 'I' for Inactive)
REMARK    1  A    between atoms: C3_4  and  O_7 
ROOT
ATOM      1  C   UNL d   1       0.476  -0.631   0.984  0.00  0.00    -0.033 A 
ATOM      2  C1  UNL d   1      -0.021  -1.586   1.873  0.00  0.00     0.039 A 
ATOM      3  C2  UNL d   1       0.400  -2.914   1.782  0.00  0.00    -0.080 A 
ATOM      4  C3  UNL d   1       1.319  -3.273   0.799  0.00  0.00     0.150 A 
ATOM      5  C4  UNL d   1       1.822  -2.326  -0.087  0.00  0.00    -0.007 A 
ATOM      6  C5  UNL d   1       1.399  -1.001   0.005  0.00  0.00     0.039 A 
ENDROOT
BRANCH   4   7
ATOM      7  O   UNL d   1       1.756  -4.558   0.668  0.00  0.00    -0.526 OA
ATOM      8  H5  UNL d   1       1.302  -5.107   1.330  0.00  0.00     0.418 HD
ENDBRANCH   4   7
TORSDOF 1
ENDMDL
