MODEL 1
REMARK minimizedAffinity -1.97898197
REMARK minimizedRMSD -1
REMARK  1 active torsions:
REMARK  status: ('A' for Active; 'I' for Inactive)
REMARK    1  A    between atoms: C3_4  and  O_7 
ROOT
ATOM      1  C   UNL d   1      -3.310  -2.583  -5.052  0.00  0.00    -0.033 A 
ATOM      2  C1  UNL d   1      -2.888  -1.899  -3.910  0.00  0.00     0.039 A 
ATOM      3  C2  UNL d   1      -3.270  -0.571  -3.708  0.00  0.00    -0.080 A 
ATOM      4  C3  UNL d   1      -4.074   0.060  -4.653  0.00  0.00     0.150 A 
ATOM      5  C4  UNL d   1      -4.502  -0.617  -5.791  0.00  0.00    -0.007 A 
ATOM      6  C5  UNL d   1      -4.118  -1.942  -5.991  0.00  0.00     0.039 A 
ENDROOT
BRANCH   4   7
ATOM      7  O   UNL d   1      -4.468   1.356  -4.502  0.00  0.00    -0.526 OA
ATOM      8  H5  UNL d   1      -4.074   1.704  -3.685  0.00  0.00     0.418 HD
ENDBRANCH   4   7
TORSDOF 1
ENDMDL
