MODEL 1
REMARK minimizedAffinity 2.56330466
REMARK minimizedRMSD -1
REMARK  1 active torsions:
REMARK  status: ('A' for Active; 'I' for Inactive)
REMARK    1  A    between atoms: C3_4  and  O_7 
ROOT
ATOM      1  C   UNL d   1       4.585  -6.000   1.110  0.00  0.00    -0.033 A 
ATOM      2  C1  UNL d   1       3.242  -6.000   1.495  0.00  0.00     0.039 A 
ATOM      3  C2  UNL d   1       2.427  -4.908   1.191  0.00  0.00    -0.080 A 
ATOM      4  C3  UNL d   1       2.965  -3.824   0.501  0.00  0.00     0.150 A 
ATOM      5  C4  UNL d   1       4.300  -3.819   0.112  0.00  0.00    -0.007 A 
ATOM      6  C5  UNL d   1       5.113  -4.910   0.417  0.00  0.00     0.039 A 
ENDROOT
BRANCH   4   7
ATOM      7  O   UNL d   1       2.210  -2.734   0.186  0.00  0.00    -0.526 OA
ATOM      8  H5  UNL d   1       1.316  -2.865   0.544  0.00  0.00     0.418 HD
ENDBRANCH   4   7
TORSDOF 1
ENDMDL
