MODEL 1
REMARK minimizedAffinity -3.16776347
REMARK minimizedRMSD -1
REMARK  1 active torsions:
REMARK  status: ('A' for Active; 'I' for Inactive)
REMARK    1  A    between atoms: C3_4  and  O_7 
ROOT
ATOM      1  C   UNL d   1      -0.025  -1.072   1.543  0.00  0.00    -0.033 A 
ATOM      2  C1  UNL d   1       0.095  -2.181   2.384  0.00  0.00     0.039 A 
ATOM      3  C2  UNL d   1       0.873  -3.273   1.995  0.00  0.00    -0.080 A 
ATOM      4  C3  UNL d   1       1.526  -3.244   0.766  0.00  0.00     0.150 A 
ATOM      5  C4  UNL d   1       1.414  -2.142  -0.075  0.00  0.00    -0.007 A 
ATOM      6  C5  UNL d   1       0.636  -1.052   0.315  0.00  0.00     0.039 A 
ENDROOT
BRANCH   4   7
ATOM      7  O   UNL d   1       2.293  -4.288   0.342  0.00  0.00    -0.526 OA
ATOM      8  H5  UNL d   1       2.254  -4.991   1.012  0.00  0.00     0.418 HD
ENDBRANCH   4   7
TORSDOF 1
ENDMDL
