MODEL 1
REMARK minimizedAffinity 1.48585689
REMARK minimizedRMSD -1
REMARK  1 active torsions:
REMARK  status: ('A' for Active; 'I' for Inactive)
REMARK    1  A    between atoms: C3_4  and  O_7 
ROOT
ATOM      1  C   UNL d   1       1.628   3.810   2.266  0.00  0.00    -0.033 A 
ATOM      2  C1  UNL d   1       1.929   5.144   2.546  0.00  0.00     0.039 A 
ATOM      3  C2  UNL d   1       3.180   5.665   2.207  0.00  0.00    -0.080 A 
ATOM      4  C3  UNL d   1       4.118   4.842   1.589  0.00  0.00     0.150 A 
ATOM      5  C4  UNL d   1       3.823   3.513   1.304  0.00  0.00    -0.007 A 
ATOM      6  C5  UNL d   1       2.574   2.995   1.643  0.00  0.00     0.039 A 
ENDROOT
BRANCH   4   7
ATOM      7  O   UNL d   1       5.353   5.304   1.245  0.00  0.00    -0.526 OA
ATOM      8  H5  UNL d   1       5.426   6.231   1.528  0.00  0.00     0.418 HD
ENDBRANCH   4   7
TORSDOF 1
ENDMDL
