MODEL 1
REMARK minimizedAffinity 0.485087126
REMARK minimizedRMSD -1
REMARK  1 active torsions:
REMARK  status: ('A' for Active; 'I' for Inactive)
REMARK    1  A    between atoms: C3_4  and  O_7 
ROOT
ATOM      1  C   UNL d   1       0.486  -0.713   1.104  0.00  0.00    -0.033 A 
ATOM      2  C1  UNL d   1       1.376  -0.956   0.057  0.00  0.00     0.039 A 
ATOM      3  C2  UNL d   1       1.783  -2.261  -0.228  0.00  0.00    -0.080 A 
ATOM      4  C3  UNL d   1       1.292  -3.313   0.540  0.00  0.00     0.150 A 
ATOM      5  C4  UNL d   1       0.402  -3.079   1.583  0.00  0.00    -0.007 A 
ATOM      6  C5  UNL d   1      -0.003  -1.775   1.867  0.00  0.00     0.039 A 
ENDROOT
BRANCH   4   7
ATOM      7  O   UNL d   1       1.664  -4.603   0.303  0.00  0.00    -0.526 OA
ATOM      8  H5  UNL d   1       2.304  -4.609  -0.428  0.00  0.00     0.418 HD
ENDBRANCH   4   7
TORSDOF 1
ENDMDL
