MODEL 1
REMARK minimizedAffinity 5.00372171
REMARK minimizedRMSD -1
REMARK  1 active torsions:
REMARK  status: ('A' for Active; 'I' for Inactive)
REMARK    1  A    between atoms: N_2  and  C1_3 
ROOT
ATOM      1  C1  UNL d   1       1.418  -0.256  -0.484  0.00  0.00     0.143 A 
ATOM      2  C2  UNL d   1       1.133  -0.471  -1.837  0.00  0.00    -0.057 A 
ATOM      3  C3  UNL d   1       1.441   0.492  -2.806  0.00  0.00     0.033 A 
ATOM      4  C4  UNL d   1       2.014   1.704  -2.433  0.00  0.00    -0.042 A 
ATOM      5  C5  UNL d   1       2.283   1.949  -1.091  0.00  0.00     0.033 A 
ATOM      6  C6  UNL d   1       1.979   0.981  -0.130  0.00  0.00    -0.057 A 
ENDROOT
BRANCH   1   7
ATOM      7  N   UNL d   1       1.046  -1.133   0.537  0.00  0.00    -0.732 N 
ATOM      8  C   UNL d   1      -0.346  -1.304   0.892  0.00  0.00     0.284 C 
ATOM      9  H3  UNL d   1       1.580  -1.999   0.519  0.00  0.00     0.395 HD
ENDBRANCH   1   7
TORSDOF 1
ENDMDL
