MODEL 1
REMARK minimizedAffinity 5.48292208
REMARK minimizedRMSD -1
REMARK  1 active torsions:
REMARK  status: ('A' for Active; 'I' for Inactive)
REMARK    1  A    between atoms: N_2  and  C1_3 
ROOT
ATOM      1  C1  UNL d   1       1.248  -0.877   0.605  0.00  0.00     0.143 A 
ATOM      2  C2  UNL d   1       0.306  -0.636   1.611  0.00  0.00    -0.057 A 
ATOM      3  C3  UNL d   1       0.494  -1.120   2.912  0.00  0.00     0.033 A 
ATOM      4  C4  UNL d   1       1.617  -1.879   3.223  0.00  0.00    -0.042 A 
ATOM      5  C5  UNL d   1       2.554  -2.152   2.232  0.00  0.00     0.033 A 
ATOM      6  C6  UNL d   1       2.364  -1.661   0.937  0.00  0.00    -0.057 A 
ENDROOT
BRANCH   1   7
ATOM      7  N   UNL d   1       1.070  -0.507  -0.731  0.00  0.00    -0.732 N 
ATOM      8  C   UNL d   1       1.452   0.812  -1.188  0.00  0.00     0.284 C 
ATOM      9  H3  UNL d   1       1.310  -1.257  -1.376  0.00  0.00     0.395 HD
ENDBRANCH   1   7
TORSDOF 1
ENDMDL
