MODEL 1
REMARK minimizedAffinity 0.0283103045
REMARK minimizedRMSD -1
REMARK  1 active torsions:
REMARK  status: ('A' for Active; 'I' for Inactive)
REMARK    1  A    between atoms: N_2  and  C1_3 
ROOT
ATOM      1  C1  UNL d   1       0.725  -1.007   2.202  0.00  0.00     0.143 A 
ATOM      2  C2  UNL d   1       0.717  -0.779   0.822  0.00  0.00    -0.057 A 
ATOM      3  C3  UNL d   1       1.691  -1.340  -0.013  0.00  0.00     0.033 A 
ATOM      4  C4  UNL d   1       2.712  -2.117   0.524  0.00  0.00    -0.042 A 
ATOM      5  C5  UNL d   1       2.755  -2.336   1.897  0.00  0.00     0.033 A 
ATOM      6  C6  UNL d   1       1.775  -1.779   2.724  0.00  0.00    -0.057 A 
ENDROOT
BRANCH   1   7
ATOM      7  N   UNL d   1      -0.158  -0.397   3.097  0.00  0.00    -0.732 N 
ATOM      8  C   UNL d   1      -1.440   0.098   2.644  0.00  0.00     0.284 C 
ATOM      9  H3  UNL d   1      -0.189  -0.873   3.996  0.00  0.00     0.395 HD
ENDBRANCH   1   7
TORSDOF 1
ENDMDL
