MODEL 1
REMARK minimizedAffinity 8.70695019
REMARK minimizedRMSD -1
REMARK  1 active torsions:
REMARK  status: ('A' for Active; 'I' for Inactive)
REMARK    1  A    between atoms: N_2  and  C1_3 
ROOT
ATOM      1  C1  UNL d   1       1.150  -1.842   1.857  0.00  0.00     0.143 A 
ATOM      2  C2  UNL d   1       1.190  -0.939   0.789  0.00  0.00    -0.057 A 
ATOM      3  C3  UNL d   1       2.104  -1.095  -0.260  0.00  0.00     0.033 A 
ATOM      4  C4  UNL d   1       3.017  -2.144  -0.244  0.00  0.00    -0.042 A 
ATOM      5  C5  UNL d   1       3.013  -3.039   0.820  0.00  0.00     0.033 A 
ATOM      6  C6  UNL d   1       2.093  -2.882   1.861  0.00  0.00    -0.057 A 
ENDROOT
BRANCH   1   7
ATOM      7  N   UNL d   1       0.331  -1.685   2.978  0.00  0.00    -0.732 N 
ATOM      8  C   UNL d   1      -0.738  -0.710   2.980  0.00  0.00     0.284 C 
ATOM      9  H3  UNL d   1       0.083  -2.574   3.406  0.00  0.00     0.395 HD
ENDBRANCH   1   7
TORSDOF 1
ENDMDL
