MODEL 1
REMARK minimizedAffinity 2.59171271
REMARK minimizedRMSD -1
REMARK  1 active torsions:
REMARK  status: ('A' for Active; 'I' for Inactive)
REMARK    1  A    between atoms: N_2  and  C1_3 
ROOT
ATOM      1  C1  UNL d   1       1.132  -1.363   2.535  0.00  0.00     0.143 A 
ATOM      2  C2  UNL d   1       1.001  -1.081   1.170  0.00  0.00    -0.057 A 
ATOM      3  C3  UNL d   1       1.813  -1.709   0.218  0.00  0.00     0.033 A 
ATOM      4  C4  UNL d   1       2.793  -2.612   0.618  0.00  0.00    -0.042 A 
ATOM      5  C5  UNL d   1       2.958  -2.888   1.970  0.00  0.00     0.033 A 
ATOM      6  C6  UNL d   1       2.140  -2.263   2.916  0.00  0.00    -0.057 A 
ENDROOT
BRANCH   1   7
ATOM      7  N   UNL d   1       0.422  -0.698   3.538  0.00  0.00    -0.732 N 
ATOM      8  C   UNL d   1      -0.825  -0.028   3.238  0.00  0.00     0.284 C 
ATOM      9  H3  UNL d   1       0.417  -1.212   4.416  0.00  0.00     0.395 HD
ENDBRANCH   1   7
TORSDOF 1
ENDMDL
