MODEL 1
REMARK minimizedAffinity 3.18804979
REMARK minimizedRMSD -1
REMARK  1 active torsions:
REMARK  status: ('A' for Active; 'I' for Inactive)
REMARK    1  A    between atoms: N_2  and  C1_3 
ROOT
ATOM      1  C1  UNL d   1       1.048  -1.566   2.274  0.00  0.00     0.143 A 
ATOM      2  C2  UNL d   1       2.236  -2.142   2.737  0.00  0.00    -0.057 A 
ATOM      3  C3  UNL d   1       3.340  -2.308   1.892  0.00  0.00     0.033 A 
ATOM      4  C4  UNL d   1       3.265  -1.927   0.557  0.00  0.00    -0.042 A 
ATOM      5  C5  UNL d   1       2.086  -1.375   0.068  0.00  0.00     0.033 A 
ATOM      6  C6  UNL d   1       0.989  -1.205   0.918  0.00  0.00    -0.057 A 
ENDROOT
BRANCH   1   7
ATOM      7  N   UNL d   1      -0.117  -1.464   3.038  0.00  0.00    -0.732 N 
ATOM      8  C   UNL d   1      -0.636  -0.169   3.421  0.00  0.00     0.284 C 
ATOM      9  H3  UNL d   1      -0.831  -2.129   2.748  0.00  0.00     0.395 HD
ENDBRANCH   1   7
TORSDOF 1
ENDMDL
