MODEL 1
REMARK minimizedAffinity 5.20014
REMARK minimizedRMSD -1
REMARK  1 active torsions:
REMARK  status: ('A' for Active; 'I' for Inactive)
REMARK    1  A    between atoms: N_2  and  C1_3 
ROOT
ATOM      1  C1  UNL d   1       0.575  -1.348   2.855  0.00  0.00     0.143 A 
ATOM      2  C2  UNL d   1      -0.344  -0.308   3.028  0.00  0.00    -0.057 A 
ATOM      3  C3  UNL d   1      -1.723  -0.533   2.929  0.00  0.00     0.033 A 
ATOM      4  C4  UNL d   1      -2.206  -1.802   2.626  0.00  0.00    -0.042 A 
ATOM      5  C5  UNL d   1      -1.310  -2.845   2.426  0.00  0.00     0.033 A 
ATOM      6  C6  UNL d   1       0.065  -2.615   2.532  0.00  0.00    -0.057 A 
ENDROOT
BRANCH   1   7
ATOM      7  N   UNL d   1       1.960  -1.168   2.843  0.00  0.00    -0.732 N 
ATOM      8  C   UNL d   1       2.783  -1.841   1.860  0.00  0.00     0.284 C 
ATOM      9  H3  UNL d   1       2.228  -0.202   3.017  0.00  0.00     0.395 HD
ENDBRANCH   1   7
TORSDOF 1
ENDMDL
