MODEL 1
REMARK minimizedAffinity -2.34417319
REMARK minimizedRMSD -1
REMARK  1 active torsions:
REMARK  status: ('A' for Active; 'I' for Inactive)
REMARK    1  A    between atoms: N_2  and  C1_3 
ROOT
ATOM      1  C1  UNL d   1       2.641  -0.118   2.429  0.00  0.00     0.143 A 
ATOM      2  C2  UNL d   1       2.341  -1.413   2.866  0.00  0.00    -0.057 A 
ATOM      3  C3  UNL d   1       2.538  -2.523   2.036  0.00  0.00     0.033 A 
ATOM      4  C4  UNL d   1       3.011  -2.355   0.739  0.00  0.00    -0.042 A 
ATOM      5  C5  UNL d   1       3.292  -1.075   0.275  0.00  0.00     0.033 A 
ATOM      6  C6  UNL d   1       3.100   0.029   1.110  0.00  0.00    -0.057 A 
ENDROOT
BRANCH   1   7
ATOM      7  N   UNL d   1       2.375   1.035   3.171  0.00  0.00    -0.732 N 
ATOM      8  C   UNL d   1       2.596   2.346   2.601  0.00  0.00     0.284 C 
ATOM      9  H3  UNL d   1       1.519   0.957   3.716  0.00  0.00     0.395 HD
ENDBRANCH   1   7
TORSDOF 1
ENDMDL
