MODEL 1
REMARK minimizedAffinity -0.0800859183
REMARK minimizedRMSD -1
REMARK  1 active torsions:
REMARK  status: ('A' for Active; 'I' for Inactive)
REMARK    1  A    between atoms: C1_2  and  C2_3 
ROOT
ATOM      1  C2  UNL d   1      -1.609   0.463   0.933  0.00  0.00    -0.081 A 
ATOM      2  C3  UNL d   1      -0.280   0.291   0.527  0.00  0.00     0.006 A 
ATOM      3  C4  UNL d   1       0.674  -0.203   1.420  0.00  0.00     0.002 A 
ATOM      4  C5  UNL d   1       0.314  -0.541   2.729  0.00  0.00    -0.080 A 
ATOM      5  C6  UNL d   1       1.323  -1.101   3.687  0.00  0.00     0.076 C 
ATOM      6  C7  UNL d   1      -1.010  -0.353   3.139  0.00  0.00     0.002 A 
ATOM      7  C8  UNL d   1      -1.964   0.142   2.248  0.00  0.00     0.006 A 
ENDROOT
BRANCH   1   8
ATOM      8  C1  UNL d   1      -2.654   0.935  -0.046  0.00  0.00     0.054 C 
ATOM      9  C   UNL d   1      -3.554  -0.210  -0.489  0.00  0.00     0.018 C 
ENDBRANCH   1   8
TORSDOF 1
ENDMDL
