MODEL 1
REMARK minimizedAffinity 3.16561127
REMARK minimizedRMSD -1
REMARK  1 active torsions:
REMARK  status: ('A' for Active; 'I' for Inactive)
REMARK    1  A    between atoms: C1_2  and  C2_3 
ROOT
ATOM      1  C2  UNL d   1       1.516  -1.704   4.471  0.00  0.00    -0.081 A 
ATOM      2  C3  UNL d   1       1.686  -1.044   3.248  0.00  0.00     0.006 A 
ATOM      3  C4  UNL d   1       0.579  -0.588   2.529  0.00  0.00     0.002 A 
ATOM      4  C5  UNL d   1      -0.716  -0.779   3.023  0.00  0.00    -0.080 A 
ATOM      5  C6  UNL d   1      -1.911  -0.268   2.276  0.00  0.00     0.076 C 
ATOM      6  C7  UNL d   1      -0.887  -1.454   4.237  0.00  0.00     0.002 A 
ATOM      7  C8  UNL d   1       0.220  -1.910   4.956  0.00  0.00     0.006 A 
ENDROOT
BRANCH   1   8
ATOM      8  C1  UNL d   1       2.711  -2.139   5.281  0.00  0.00     0.054 C 
ATOM      9  C   UNL d   1       3.427  -0.945   5.896  0.00  0.00     0.018 C 
ENDBRANCH   1   8
TORSDOF 1
ENDMDL
