MODEL 1
REMARK minimizedAffinity 8.16260719
REMARK minimizedRMSD -1
REMARK  1 active torsions:
REMARK  status: ('A' for Active; 'I' for Inactive)
REMARK    1  A    between atoms: C1_2  and  C2_3 
ROOT
ATOM      1  C2  UNL d   1      -0.553  -0.764   3.724  0.00  0.00    -0.081 A 
ATOM      2  C3  UNL d   1       0.444  -0.741   2.742  0.00  0.00     0.006 A 
ATOM      3  C4  UNL d   1       0.149  -0.322   1.443  0.00  0.00     0.002 A 
ATOM      4  C5  UNL d   1      -1.146   0.088   1.106  0.00  0.00    -0.080 A 
ATOM      5  C6  UNL d   1      -1.469   0.569  -0.277  0.00  0.00     0.076 C 
ATOM      6  C7  UNL d   1      -2.147   0.048   2.083  0.00  0.00     0.002 A 
ATOM      7  C8  UNL d   1      -1.852  -0.371   3.382  0.00  0.00     0.006 A 
ENDROOT
BRANCH   1   8
ATOM      8  C1  UNL d   1      -0.223  -1.154   5.143  0.00  0.00     0.054 C 
ATOM      9  C   UNL d   1       0.069   0.070   5.999  0.00  0.00     0.018 C 
ENDBRANCH   1   8
TORSDOF 1
ENDMDL
