MODEL 1
REMARK minimizedAffinity 6.33277845
REMARK minimizedRMSD -1
REMARK  1 active torsions:
REMARK  status: ('A' for Active; 'I' for Inactive)
REMARK    1  A    between atoms: C1_2  and  C2_3 
ROOT
ATOM      1  C2  UNL d   1       1.961   1.669  -0.562  0.00  0.00    -0.081 A 
ATOM      2  C3  UNL d   1       1.145   0.893   0.269  0.00  0.00     0.006 A 
ATOM      3  C4  UNL d   1       0.209   0.012  -0.279  0.00  0.00     0.002 A 
ATOM      4  C5  UNL d   1       0.079  -0.111  -1.667  0.00  0.00    -0.080 A 
ATOM      5  C6  UNL d   1      -0.901  -1.075  -2.268  0.00  0.00     0.076 C 
ATOM      6  C7  UNL d   1       0.882   0.677  -2.497  0.00  0.00     0.002 A 
ATOM      7  C8  UNL d   1       1.818   1.558  -1.950  0.00  0.00     0.006 A 
ENDROOT
BRANCH   1   8
ATOM      8  C1  UNL d   1       3.016   2.572   0.025  0.00  0.00     0.054 C 
ATOM      9  C   UNL d   1       3.097   3.892  -0.727  0.00  0.00     0.018 C 
ENDBRANCH   1   8
TORSDOF 1
ENDMDL
