MODEL 1
REMARK minimizedAffinity 8.70212936
REMARK minimizedRMSD -1
REMARK  1 active torsions:
REMARK  status: ('A' for Active; 'I' for Inactive)
REMARK    1  A    between atoms: C1_2  and  C2_3 
ROOT
ATOM      1  C2  UNL d   1      -0.497  -0.483   2.227  0.00  0.00    -0.081 A 
ATOM      2  C3  UNL d   1      -0.305  -0.354   0.846  0.00  0.00     0.006 A 
ATOM      3  C4  UNL d   1      -1.361   0.031   0.017  0.00  0.00     0.002 A 
ATOM      4  C5  UNL d   1      -2.624   0.302   0.556  0.00  0.00    -0.080 A 
ATOM      5  C6  UNL d   1      -3.758   0.746  -0.319  0.00  0.00     0.076 C 
ATOM      6  C7  UNL d   1      -2.820   0.157   1.934  0.00  0.00     0.002 A 
ATOM      7  C8  UNL d   1      -1.764  -0.229   2.763  0.00  0.00     0.006 A 
ENDROOT
BRANCH   1   8
ATOM      8  C1  UNL d   1       0.657  -0.836   3.131  0.00  0.00     0.054 C 
ATOM      9  C   UNL d   1       0.174  -1.196   4.529  0.00  0.00     0.018 C 
ENDBRANCH   1   8
TORSDOF 1
ENDMDL
