MODEL 1
REMARK minimizedAffinity 6.1395812
REMARK minimizedRMSD -1
REMARK  1 active torsions:
REMARK  status: ('A' for Active; 'I' for Inactive)
REMARK    1  A    between atoms: C1_2  and  C2_3 
ROOT
ATOM      1  C2  UNL d   1       0.495   0.053   0.120  0.00  0.00    -0.081 A 
ATOM      2  C3  UNL d   1      -0.725   0.345  -0.502  0.00  0.00     0.006 A 
ATOM      3  C4  UNL d   1      -1.928   0.190   0.190  0.00  0.00     0.002 A 
ATOM      4  C5  UNL d   1      -1.932  -0.253   1.517  0.00  0.00    -0.080 A 
ATOM      5  C6  UNL d   1      -3.215  -0.395   2.281  0.00  0.00     0.076 C 
ATOM      6  C7  UNL d   1      -0.715  -0.561   2.133  0.00  0.00     0.002 A 
ATOM      7  C8  UNL d   1       0.489  -0.407   1.442  0.00  0.00     0.006 A 
ENDROOT
BRANCH   1   8
ATOM      8  C1  UNL d   1       1.798   0.281  -0.602  0.00  0.00     0.054 C 
ATOM      9  C   UNL d   1       2.583   1.426   0.021  0.00  0.00     0.018 C 
ENDBRANCH   1   8
TORSDOF 1
ENDMDL
