MODEL 1
REMARK minimizedAffinity 9.1256485
REMARK minimizedRMSD -1
REMARK  1 active torsions:
REMARK  status: ('A' for Active; 'I' for Inactive)
REMARK    1  A    between atoms: C1_2  and  C2_3 
ROOT
ATOM      1  C2  UNL d   1      -1.590   0.311   1.132  0.00  0.00    -0.081 A 
ATOM      2  C3  UNL d   1      -0.291  -0.007   0.717  0.00  0.00     0.006 A 
ATOM      3  C4  UNL d   1       0.670  -0.413   1.646  0.00  0.00     0.002 A 
ATOM      4  C5  UNL d   1       0.346  -0.515   3.004  0.00  0.00    -0.080 A 
ATOM      5  C6  UNL d   1       1.360  -0.978   4.007  0.00  0.00     0.076 C 
ATOM      6  C7  UNL d   1      -0.946  -0.180   3.421  0.00  0.00     0.002 A 
ATOM      7  C8  UNL d   1      -1.907   0.226   2.492  0.00  0.00     0.006 A 
ENDROOT
BRANCH   1   8
ATOM      8  C1  UNL d   1      -2.646   0.686   0.124  0.00  0.00     0.054 C 
ATOM      9  C   UNL d   1      -3.034  -0.505  -0.741  0.00  0.00     0.018 C 
ENDBRANCH   1   8
TORSDOF 1
ENDMDL
