MODEL 1
REMARK minimizedAffinity 2.2101593
REMARK minimizedRMSD -1
REMARK  1 active torsions:
REMARK  status: ('A' for Active; 'I' for Inactive)
REMARK    1  A    between atoms: C1_2  and  C2_3 
ROOT
ATOM      1  C2  UNL d   1      -2.001   0.376   1.298  0.00  0.00    -0.081 A 
ATOM      2  C3  UNL d   1      -0.633   0.228   1.561  0.00  0.00     0.006 A 
ATOM      3  C4  UNL d   1      -0.186  -0.037   2.857  0.00  0.00     0.002 A 
ATOM      4  C5  UNL d   1      -1.099  -0.166   3.910  0.00  0.00    -0.080 A 
ATOM      5  C6  UNL d   1      -0.634  -0.481   5.301  0.00  0.00     0.076 C 
ATOM      6  C7  UNL d   1      -2.463  -0.002   3.650  0.00  0.00     0.002 A 
ATOM      7  C8  UNL d   1      -2.911   0.264   2.354  0.00  0.00     0.006 A 
ENDROOT
BRANCH   1   8
ATOM      8  C1  UNL d   1      -2.491   0.598  -0.111  0.00  0.00     0.054 C 
ATOM      9  C   UNL d   1      -2.557  -0.711  -0.886  0.00  0.00     0.018 C 
ENDBRANCH   1   8
TORSDOF 1
ENDMDL
