MODEL 1
REMARK minimizedAffinity -3.64223647
REMARK minimizedRMSD -1
REMARK  0 active torsions:
REMARK  status: ('A' for Active; 'I' for Inactive)
ROOT
ATOM      1  C   UNL d   1       0.476   0.440  -1.113  0.00  0.00     0.172 C 
ATOM      2  N   UNL d   1       0.325   0.253   0.311  0.00  0.00    -0.070 N 
ATOM      3  C1  UNL d   1      -0.822  -0.142   0.946  0.00  0.00    -0.004 A 
ATOM      4  C2  UNL d   1      -0.556  -0.202   2.297  0.00  0.00    -0.047 A 
ATOM      5  C3  UNL d   1       0.797   0.171   2.480  0.00  0.00    -0.047 A 
ATOM      6  C4  UNL d   1       1.318   0.448   1.234  0.00  0.00    -0.004 A 
ENDROOT
TORSDOF 0
ENDMDL
