MODEL 1
REMARK minimizedAffinity -3.3235929
REMARK minimizedRMSD -1
REMARK  0 active torsions:
REMARK  status: ('A' for Active; 'I' for Inactive)
ROOT
ATOM      1  C   UNL d   1       0.238   0.332  -0.906  0.00  0.00     0.172 C 
ATOM      2  N   UNL d   1       0.054   0.316   0.526  0.00  0.00    -0.070 N 
ATOM      3  C1  UNL d   1       1.013   0.001   1.451  0.00  0.00    -0.004 A 
ATOM      4  C2  UNL d   1       0.443   0.104   2.702  0.00  0.00    -0.047 A 
ATOM      5  C3  UNL d   1      -0.905   0.494   2.522  0.00  0.00    -0.047 A 
ATOM      6  C4  UNL d   1      -1.120   0.618   1.166  0.00  0.00    -0.004 A 
ENDROOT
TORSDOF 0
ENDMDL
