MODEL 1
REMARK minimizedAffinity -4.01330566
REMARK minimizedRMSD -1
REMARK  0 active torsions:
REMARK  status: ('A' for Active; 'I' for Inactive)
ROOT
ATOM      1  C   UNL d   1      -0.126  -0.057  -0.347  0.00  0.00     0.172 C 
ATOM      2  N   UNL d   1      -0.637  -0.267   0.987  0.00  0.00    -0.070 N 
ATOM      3  C1  UNL d   1      -1.946  -0.147   1.368  0.00  0.00    -0.004 A 
ATOM      4  C2  UNL d   1      -2.021  -0.428   2.715  0.00  0.00    -0.047 A 
ATOM      5  C3  UNL d   1      -0.711  -0.727   3.159  0.00  0.00    -0.047 A 
ATOM      6  C4  UNL d   1       0.126  -0.619   2.069  0.00  0.00    -0.004 A 
ENDROOT
TORSDOF 0
ENDMDL
