MODEL 1
REMARK minimizedAffinity -3.33751082
REMARK minimizedRMSD -1
REMARK  0 active torsions:
REMARK  status: ('A' for Active; 'I' for Inactive)
ROOT
ATOM      1  C   UNL d   1      -0.140   0.383  -1.302  0.00  0.00     0.172 C 
ATOM      2  N   UNL d   1      -0.069   0.264   0.135  0.00  0.00    -0.070 N 
ATOM      3  C1  UNL d   1       0.947   0.733   0.925  0.00  0.00    -0.004 A 
ATOM      4  C2  UNL d   1       0.642   0.423   2.233  0.00  0.00    -0.047 A 
ATOM      5  C3  UNL d   1      -0.600  -0.257   2.228  0.00  0.00    -0.047 A 
ATOM      6  C4  UNL d   1      -1.017  -0.341   0.917  0.00  0.00    -0.004 A 
ENDROOT
TORSDOF 0
ENDMDL
