MODEL 1
REMARK minimizedAffinity -2.63944292
REMARK minimizedRMSD -1
REMARK  0 active torsions:
REMARK  status: ('A' for Active; 'I' for Inactive)
ROOT
ATOM      1  C   UNL d   1       2.530   0.615   1.038  0.00  0.00     0.172 C 
ATOM      2  N   UNL d   1       1.270   0.264   0.427  0.00  0.00    -0.070 N 
ATOM      3  C1  UNL d   1       1.024   0.207  -0.919  0.00  0.00    -0.004 A 
ATOM      4  C2  UNL d   1      -0.292  -0.165  -1.092  0.00  0.00    -0.047 A 
ATOM      5  C3  UNL d   1      -0.856  -0.336   0.195  0.00  0.00    -0.047 A 
ATOM      6  C4  UNL d   1       0.133  -0.064   1.117  0.00  0.00    -0.004 A 
ENDROOT
TORSDOF 0
ENDMDL
