MODEL 1
REMARK minimizedAffinity -3.39034796
REMARK minimizedRMSD -1
REMARK  0 active torsions:
REMARK  status: ('A' for Active; 'I' for Inactive)
ROOT
ATOM      1  C   UNL d   1      -0.681  -0.009  -0.721  0.00  0.00     0.172 C 
ATOM      2  N   UNL d   1      -1.225   0.055   0.615  0.00  0.00    -0.070 N 
ATOM      3  C1  UNL d   1      -2.530   0.318   0.934  0.00  0.00    -0.004 A 
ATOM      4  C2  UNL d   1      -2.643   0.290   2.307  0.00  0.00    -0.047 A 
ATOM      5  C3  UNL d   1      -1.360   0.001   2.832  0.00  0.00    -0.047 A 
ATOM      6  C4  UNL d   1      -0.502  -0.140   1.762  0.00  0.00    -0.004 A 
ENDROOT
TORSDOF 0
ENDMDL
