MODEL 1
REMARK minimizedAffinity -3.69717979
REMARK minimizedRMSD -1
REMARK  0 active torsions:
REMARK  status: ('A' for Active; 'I' for Inactive)
ROOT
ATOM      1  C   UNL d   1       0.280   0.301  -0.798  0.00  0.00     0.172 C 
ATOM      2  N   UNL d   1       1.059  -0.251  -1.880  0.00  0.00    -0.070 N 
ATOM      3  C1  UNL d   1       0.554  -0.825  -3.017  0.00  0.00    -0.004 A 
ATOM      4  C2  UNL d   1       1.617  -1.224  -3.797  0.00  0.00    -0.047 A 
ATOM      5  C3  UNL d   1       2.803  -0.881  -3.105  0.00  0.00    -0.047 A 
ATOM      6  C4  UNL d   1       2.428  -0.280  -1.922  0.00  0.00    -0.004 A 
ENDROOT
TORSDOF 0
ENDMDL
