MODEL 1
REMARK minimizedAffinity -2.36250401
REMARK minimizedRMSD -1
REMARK  0 active torsions:
REMARK  status: ('A' for Active; 'I' for Inactive)
ROOT
ATOM      1  C   UNL d   1       0.216   0.237  -0.858  0.00  0.00     0.172 C 
ATOM      2  N   UNL d   1       0.614  -0.335  -2.123  0.00  0.00    -0.070 N 
ATOM      3  C1  UNL d   1       1.850  -0.212  -2.701  0.00  0.00    -0.004 A 
ATOM      4  C2  UNL d   1       1.826  -0.898  -3.896  0.00  0.00    -0.047 A 
ATOM      5  C3  UNL d   1       0.532  -1.450  -4.043  0.00  0.00    -0.047 A 
ATOM      6  C4  UNL d   1      -0.198  -1.086  -2.931  0.00  0.00    -0.004 A 
ENDROOT
TORSDOF 0
ENDMDL
