MODEL 1
REMARK minimizedAffinity -3.56825018
REMARK minimizedRMSD -1
REMARK  0 active torsions:
REMARK  status: ('A' for Active; 'I' for Inactive)
ROOT
ATOM      1  C   UNL d   1       0.225   0.455  -0.568  0.00  0.00     0.172 C 
ATOM      2  N   UNL d   1       0.345   0.568   0.866  0.00  0.00    -0.070 N 
ATOM      3  C1  UNL d   1       1.325   1.253   1.534  0.00  0.00    -0.004 A 
ATOM      4  C2  UNL d   1       1.087   1.120   2.885  0.00  0.00    -0.047 A 
ATOM      5  C3  UNL d   1      -0.076   0.328   3.034  0.00  0.00    -0.047 A 
ATOM      6  C4  UNL d   1      -0.515   0.000   1.769  0.00  0.00    -0.004 A 
ENDROOT
TORSDOF 0
ENDMDL
