MODEL 1
REMARK minimizedAffinity -4.05373049
REMARK minimizedRMSD -1
REMARK  0 active torsions:
REMARK  status: ('A' for Active; 'I' for Inactive)
ROOT
ATOM      1  C   UNL d   1       0.241   0.357  -0.746  0.00  0.00     0.172 C 
ATOM      2  N   UNL d   1      -0.136   0.021   0.606  0.00  0.00    -0.070 N 
ATOM      3  C1  UNL d   1      -1.410  -0.230   1.041  0.00  0.00    -0.004 A 
ATOM      4  C2  UNL d   1      -1.349  -0.512   2.389  0.00  0.00    -0.047 A 
ATOM      5  C3  UNL d   1       0.009  -0.426   2.778  0.00  0.00    -0.047 A 
ATOM      6  C4  UNL d   1       0.738  -0.095   1.655  0.00  0.00    -0.004 A 
ENDROOT
TORSDOF 0
ENDMDL
