MODEL 1
REMARK minimizedAffinity -3.6289115
REMARK minimizedRMSD -1
REMARK  0 active torsions:
REMARK  status: ('A' for Active; 'I' for Inactive)
ROOT
ATOM      1  C   UNL d   1       0.018  -0.300  -0.730  0.00  0.00     0.172 C 
ATOM      2  N   UNL d   1      -0.266  -0.449   0.678  0.00  0.00    -0.070 N 
ATOM      3  C1  UNL d   1       0.263   0.315   1.684  0.00  0.00    -0.004 A 
ATOM      4  C2  UNL d   1      -0.256  -0.141   2.876  0.00  0.00    -0.047 A 
ATOM      5  C3  UNL d   1      -1.126  -1.216   2.577  0.00  0.00    -0.047 A 
ATOM      6  C4  UNL d   1      -1.113  -1.386   1.209  0.00  0.00    -0.004 A 
ENDROOT
TORSDOF 0
ENDMDL
