MODEL 1
REMARK minimizedAffinity -3.98696733
REMARK minimizedRMSD -1
REMARK  0 active torsions:
REMARK  status: ('A' for Active; 'I' for Inactive)
ROOT
ATOM      1  C   UNL d   1       1.506   0.743   0.434  0.00  0.00     0.172 C 
ATOM      2  N   UNL d   1       0.488   0.305   1.360  0.00  0.00    -0.070 N 
ATOM      3  C1  UNL d   1       0.637   0.199   2.718  0.00  0.00    -0.004 A 
ATOM      4  C2  UNL d   1      -0.557  -0.250   3.239  0.00  0.00    -0.047 A 
ATOM      5  C3  UNL d   1      -1.454  -0.421   2.158  0.00  0.00    -0.047 A 
ATOM      6  C4  UNL d   1      -0.781  -0.071   1.006  0.00  0.00    -0.004 A 
ENDROOT
TORSDOF 0
ENDMDL
