MODEL 1
REMARK minimizedAffinity -3.2695322
REMARK minimizedRMSD -1
REMARK  0 active torsions:
REMARK  status: ('A' for Active; 'I' for Inactive)
ROOT
ATOM      1  C   UNL d   1       0.952   0.140   0.885  0.00  0.00     0.172 C 
ATOM      2  N   UNL d   1      -0.357  -0.001   1.476  0.00  0.00    -0.070 N 
ATOM      3  C1  UNL d   1      -0.628  -0.030   2.818  0.00  0.00    -0.004 A 
ATOM      4  C2  UNL d   1      -1.990  -0.176   2.971  0.00  0.00    -0.047 A 
ATOM      5  C3  UNL d   1      -2.557  -0.236   1.675  0.00  0.00    -0.047 A 
ATOM      6  C4  UNL d   1      -1.524  -0.125   0.769  0.00  0.00    -0.004 A 
ENDROOT
TORSDOF 0
ENDMDL
