MODEL 1
REMARK minimizedAffinity -0.426479489
REMARK minimizedRMSD -1
REMARK  0 active torsions:
REMARK  status: ('A' for Active; 'I' for Inactive)
ROOT
ATOM      1  C   UNL d   1       0.835   0.444   0.913  0.00  0.00     0.172 C 
ATOM      2  N   UNL d   1      -0.343   0.500   1.746  0.00  0.00    -0.070 N 
ATOM      3  C1  UNL d   1      -1.636   0.546   1.297  0.00  0.00    -0.004 A 
ATOM      4  C2  UNL d   1      -2.464   0.591   2.397  0.00  0.00    -0.047 A 
ATOM      5  C3  UNL d   1      -1.640   0.571   3.548  0.00  0.00    -0.047 A 
ATOM      6  C4  UNL d   1      -0.332   0.515   3.115  0.00  0.00    -0.004 A 
ENDROOT
TORSDOF 0
ENDMDL
