MODEL 1
REMARK minimizedAffinity -3.64035273
REMARK minimizedRMSD -1
REMARK  0 active torsions:
REMARK  status: ('A' for Active; 'I' for Inactive)
ROOT
ATOM      1  C   UNL d   1       0.313   0.351  -0.622  0.00  0.00     0.172 C 
ATOM      2  N   UNL d   1       0.441   0.267   0.814  0.00  0.00    -0.070 N 
ATOM      3  C1  UNL d   1       1.420   0.863   1.564  0.00  0.00    -0.004 A 
ATOM      4  C2  UNL d   1       1.193   0.544   2.885  0.00  0.00    -0.047 A 
ATOM      5  C3  UNL d   1       0.038  -0.272   2.931  0.00  0.00    -0.047 A 
ATOM      6  C4  UNL d   1      -0.407  -0.428   1.635  0.00  0.00    -0.004 A 
ENDROOT
TORSDOF 0
ENDMDL
