MODEL 1
REMARK minimizedAffinity 5.88429499
REMARK minimizedRMSD -1
REMARK  1 active torsions:
REMARK  status: ('A' for Active; 'I' for Inactive)
REMARK    1  A    between atoms: N_2  and  C1_3 
ROOT
ATOM      1  C1  UNL d   1      -1.554  -2.846  -3.401  0.00  0.00     0.143 A 
ATOM      2  C2  UNL d   1      -1.123  -2.155  -4.539  0.00  0.00    -0.057 A 
ATOM      3  C3  UNL d   1      -1.471  -2.586  -5.825  0.00  0.00     0.033 A 
ATOM      4  C4  UNL d   1      -2.234  -3.736  -5.997  0.00  0.00    -0.042 A 
ATOM      5  C5  UNL d   1      -2.653  -4.452  -4.881  0.00  0.00     0.033 A 
ATOM      6  C6  UNL d   1      -2.307  -4.013  -3.600  0.00  0.00    -0.057 A 
ENDROOT
BRANCH   1   7
ATOM      7  N   UNL d   1      -1.159  -2.524  -2.100  0.00  0.00    -0.732 N 
ATOM      8  C   UNL d   1      -0.262  -3.391  -1.367  0.00  0.00     0.284 C 
ATOM      9  H3  UNL d   1      -0.963  -1.532  -1.988  0.00  0.00     0.395 HD
ENDBRANCH   1   7
TORSDOF 1
ENDMDL
