MODEL 1
REMARK minimizedAffinity 6.50811625
REMARK minimizedRMSD -1
REMARK  1 active torsions:
REMARK  status: ('A' for Active; 'I' for Inactive)
REMARK    1  A    between atoms: N_2  and  C1_3 
ROOT
ATOM      1  C1  UNL d   1      -1.676  -2.591  -3.573  0.00  0.00     0.143 A 
ATOM      2  C2  UNL d   1      -2.523  -3.704  -3.602  0.00  0.00    -0.057 A 
ATOM      3  C3  UNL d   1      -2.799  -4.375  -4.799  0.00  0.00     0.033 A 
ATOM      4  C4  UNL d   1      -2.253  -3.926  -5.997  0.00  0.00    -0.042 A 
ATOM      5  C5  UNL d   1      -1.428  -2.807  -5.996  0.00  0.00     0.033 A 
ATOM      6  C6  UNL d   1      -1.151  -2.145  -4.796  0.00  0.00    -0.057 A 
ENDROOT
BRANCH   1   7
ATOM      7  N   UNL d   1      -1.441  -1.822  -2.431  0.00  0.00    -0.732 N 
ATOM      8  C   UNL d   1      -0.965  -2.439  -1.211  0.00  0.00     0.284 C 
ATOM      9  H3  UNL d   1      -0.998  -0.932  -2.646  0.00  0.00     0.395 HD
ENDBRANCH   1   7
TORSDOF 1
ENDMDL
