MODEL 1
REMARK minimizedAffinity 7.11688805
REMARK minimizedRMSD -1
REMARK  1 active torsions:
REMARK  status: ('A' for Active; 'I' for Inactive)
REMARK    1  A    between atoms: N_2  and  C1_3 
ROOT
ATOM      1  C1  UNL d   1       4.194   1.678  -5.341  0.00  0.00     0.143 A 
ATOM      2  C2  UNL d   1       5.066   0.803  -5.998  0.00  0.00    -0.057 A 
ATOM      3  C3  UNL d   1       5.951  -0.012  -5.283  0.00  0.00     0.033 A 
ATOM      4  C4  UNL d   1       6.000   0.054  -3.894  0.00  0.00    -0.042 A 
ATOM      5  C5  UNL d   1       5.160   0.934  -3.222  0.00  0.00     0.033 A 
ATOM      6  C6  UNL d   1       4.273   1.741  -3.941  0.00  0.00    -0.057 A 
ENDROOT
BRANCH   1   7
ATOM      7  N   UNL d   1       3.361   2.585  -6.000  0.00  0.00    -0.732 N 
ATOM      8  C   UNL d   1       1.925   2.405  -5.995  0.00  0.00     0.284 C 
ATOM      9  H3  UNL d   1       3.659   3.550  -5.872  0.00  0.00     0.395 HD
ENDBRANCH   1   7
TORSDOF 1
ENDMDL
