MODEL 1
REMARK minimizedAffinity -3.03659725
REMARK minimizedRMSD -1
REMARK  1 active torsions:
REMARK  status: ('A' for Active; 'I' for Inactive)
REMARK    1  A    between atoms: N_2  and  C1_3 
ROOT
ATOM      1  C1  UNL d   1       3.739   4.986  -5.346  0.00  0.00     0.143 A 
ATOM      2  C2  UNL d   1       4.110   3.641  -5.450  0.00  0.00    -0.057 A 
ATOM      3  C3  UNL d   1       3.176   2.654  -5.788  0.00  0.00     0.033 A 
ATOM      4  C4  UNL d   1       1.844   2.992  -6.000  0.00  0.00    -0.042 A 
ATOM      5  C5  UNL d   1       1.447   4.319  -5.878  0.00  0.00     0.033 A 
ATOM      6  C6  UNL d   1       2.386   5.301  -5.547  0.00  0.00    -0.057 A 
ENDROOT
BRANCH   1   7
ATOM      7  N   UNL d   1       4.599   6.000  -4.918  0.00  0.00    -0.732 N 
ATOM      8  C   UNL d   1       5.999   5.982  -5.285  0.00  0.00     0.284 C 
ATOM      9  H3  UNL d   1       4.168   6.920  -4.966  0.00  0.00     0.395 HD
ENDBRANCH   1   7
TORSDOF 1
ENDMDL
