MODEL 1
REMARK minimizedAffinity 7.30520201
REMARK minimizedRMSD -1
REMARK  1 active torsions:
REMARK  status: ('A' for Active; 'I' for Inactive)
REMARK    1  A    between atoms: N_2  and  C1_3 
ROOT
ATOM      1  C1  UNL d   1      -1.881  -2.617  -3.312  0.00  0.00     0.143 A 
ATOM      2  C2  UNL d   1      -2.767  -3.649  -3.637  0.00  0.00    -0.057 A 
ATOM      3  C3  UNL d   1      -2.965  -4.045  -4.966  0.00  0.00     0.033 A 
ATOM      4  C4  UNL d   1      -2.299  -3.394  -5.998  0.00  0.00    -0.042 A 
ATOM      5  C5  UNL d   1      -1.432  -2.348  -5.701  0.00  0.00     0.033 A 
ATOM      6  C6  UNL d   1      -1.234  -1.961  -4.372  0.00  0.00    -0.057 A 
ENDROOT
BRANCH   1   7
ATOM      7  N   UNL d   1      -1.716  -2.111  -2.020  0.00  0.00    -0.732 N 
ATOM      8  C   UNL d   1      -0.753  -2.702  -1.116  0.00  0.00     0.284 C 
ATOM      9  H3  UNL d   1      -1.741  -1.094  -1.995  0.00  0.00     0.395 HD
ENDBRANCH   1   7
TORSDOF 1
ENDMDL
