MODEL 1
REMARK minimizedAffinity -0.321802318
REMARK minimizedRMSD -1
REMARK  1 active torsions:
REMARK  status: ('A' for Active; 'I' for Inactive)
REMARK    1  A    between atoms: N_2  and  C1_3 
ROOT
ATOM      1  C1  UNL d   1       4.815   2.147  -3.602  0.00  0.00     0.143 A 
ATOM      2  C2  UNL d   1       4.227   2.526  -4.814  0.00  0.00    -0.057 A 
ATOM      3  C3  UNL d   1       4.495   1.832  -6.000  0.00  0.00     0.033 A 
ATOM      4  C4  UNL d   1       5.383   0.761  -6.000  0.00  0.00    -0.042 A 
ATOM      5  C5  UNL d   1       5.998   0.382  -4.812  0.00  0.00     0.033 A 
ATOM      6  C6  UNL d   1       5.721   1.075  -3.630  0.00  0.00    -0.057 A 
ENDROOT
BRANCH   1   7
ATOM      7  N   UNL d   1       4.664   2.858  -2.409  0.00  0.00    -0.732 N 
ATOM      8  C   UNL d   1       3.557   3.772  -2.230  0.00  0.00     0.284 C 
ATOM      9  H3  UNL d   1       4.871   2.290  -1.590  0.00  0.00     0.395 HD
ENDBRANCH   1   7
TORSDOF 1
ENDMDL
