MODEL 1
REMARK minimizedAffinity 2.25739098
REMARK minimizedRMSD -1
REMARK  1 active torsions:
REMARK  status: ('A' for Active; 'I' for Inactive)
REMARK    1  A    between atoms: N_2  and  C1_3 
ROOT
ATOM      1  C1  UNL d   1       3.208   3.556  -5.849  0.00  0.00     0.143 A 
ATOM      2  C2  UNL d   1       3.877   4.782  -5.769  0.00  0.00    -0.057 A 
ATOM      3  C3  UNL d   1       3.173   5.992  -5.721  0.00  0.00     0.033 A 
ATOM      4  C4  UNL d   1       1.783   5.998  -5.781  0.00  0.00    -0.042 A 
ATOM      5  C5  UNL d   1       1.098   4.793  -5.886  0.00  0.00     0.033 A 
ATOM      6  C6  UNL d   1       1.807   3.588  -5.927  0.00  0.00    -0.057 A 
ENDROOT
BRANCH   1   7
ATOM      7  N   UNL d   1       3.853   2.327  -6.000  0.00  0.00    -0.732 N 
ATOM      8  C   UNL d   1       3.099   1.091  -5.979  0.00  0.00     0.284 C 
ATOM      9  H3  UNL d   1       4.584   2.355  -6.707  0.00  0.00     0.395 HD
ENDBRANCH   1   7
TORSDOF 1
ENDMDL
