MODEL 1
REMARK minimizedAffinity -2.98078537
REMARK minimizedRMSD -1
REMARK  1 active torsions:
REMARK  status: ('A' for Active; 'I' for Inactive)
REMARK    1  A    between atoms: N_2  and  C1_3 
ROOT
ATOM      1  C1  UNL d   1       4.249   1.865   1.065  0.00  0.00     0.143 A 
ATOM      2  C2  UNL d   1       5.576   1.757   1.495  0.00  0.00    -0.057 A 
ATOM      3  C3  UNL d   1       5.998   0.684   2.289  0.00  0.00     0.033 A 
ATOM      4  C4  UNL d   1       5.090  -0.289   2.693  0.00  0.00    -0.042 A 
ATOM      5  C5  UNL d   1       3.760  -0.189   2.298  0.00  0.00     0.033 A 
ATOM      6  C6  UNL d   1       3.347   0.882   1.500  0.00  0.00    -0.057 A 
ENDROOT
BRANCH   1   7
ATOM      7  N   UNL d   1       3.747   2.959   0.357  0.00  0.00    -0.732 N 
ATOM      8  C   UNL d   1       2.481   3.557   0.725  0.00  0.00     0.284 C 
ATOM      9  H3  UNL d   1       4.471   3.633   0.119  0.00  0.00     0.395 HD
ENDBRANCH   1   7
TORSDOF 1
ENDMDL
