MODEL 1
REMARK minimizedAffinity -2.47038674
REMARK minimizedRMSD -1
REMARK  1 active torsions:
REMARK  status: ('A' for Active; 'I' for Inactive)
REMARK    1  A    between atoms: N_2  and  C1_3 
ROOT
ATOM      1  C1  UNL d   1       4.099   4.717  -4.978  0.00  0.00     0.143 A 
ATOM      2  C2  UNL d   1       2.930   5.319  -4.498  0.00  0.00    -0.057 A 
ATOM      3  C3  UNL d   1       1.672   4.751  -4.734  0.00  0.00     0.033 A 
ATOM      4  C4  UNL d   1       1.558   3.583  -5.480  0.00  0.00    -0.042 A 
ATOM      5  C5  UNL d   1       2.704   2.981  -5.987  0.00  0.00     0.033 A 
ATOM      6  C6  UNL d   1       3.958   3.549  -5.743  0.00  0.00    -0.057 A 
ENDROOT
BRANCH   1   7
ATOM      7  N   UNL d   1       5.370   5.285  -4.861  0.00  0.00    -0.732 N 
ATOM      8  C   UNL d   1       5.999   5.923  -5.998  0.00  0.00     0.284 C 
ATOM      9  H3  UNL d   1       5.493   5.785  -3.984  0.00  0.00     0.395 HD
ENDBRANCH   1   7
TORSDOF 1
ENDMDL
