MODEL 1
REMARK minimizedAffinity 0.595092297
REMARK minimizedRMSD -1
REMARK  1 active torsions:
REMARK  status: ('A' for Active; 'I' for Inactive)
REMARK    1  A    between atoms: N_2  and  C1_3 
ROOT
ATOM      1  C1  UNL d   1       5.415   1.451  -4.728  0.00  0.00     0.143 A 
ATOM      2  C2  UNL d   1       5.391   2.147  -5.941  0.00  0.00    -0.057 A 
ATOM      3  C3  UNL d   1       5.691   3.513  -5.999  0.00  0.00     0.033 A 
ATOM      4  C4  UNL d   1       5.994   4.216  -4.838  0.00  0.00    -0.042 A 
ATOM      5  C5  UNL d   1       6.000   3.549  -3.617  0.00  0.00     0.033 A 
ATOM      6  C6  UNL d   1       5.705   2.183  -3.566  0.00  0.00    -0.057 A 
ENDROOT
BRANCH   1   7
ATOM      7  N   UNL d   1       5.030   0.115  -4.590  0.00  0.00    -0.732 N 
ATOM      8  C   UNL d   1       5.999  -0.951  -4.737  0.00  0.00     0.284 C 
ATOM      9  H3  UNL d   1       4.374  -0.024  -3.825  0.00  0.00     0.395 HD
ENDBRANCH   1   7
TORSDOF 1
ENDMDL
