MODEL 1
REMARK minimizedAffinity -1.45813322
REMARK minimizedRMSD -1
REMARK  1 active torsions:
REMARK  status: ('A' for Active; 'I' for Inactive)
REMARK    1  A    between atoms: N_2  and  C1_3 
ROOT
ATOM      1  C1  UNL d   1       3.774   4.338  -5.993  0.00  0.00     0.143 A 
ATOM      2  C2  UNL d   1       3.030   3.159  -5.870  0.00  0.00    -0.057 A 
ATOM      3  C3  UNL d   1       1.632   3.187  -5.804  0.00  0.00     0.033 A 
ATOM      4  C4  UNL d   1       0.952   4.400  -5.830  0.00  0.00    -0.042 A 
ATOM      5  C5  UNL d   1       1.672   5.585  -5.927  0.00  0.00     0.033 A 
ATOM      6  C6  UNL d   1       3.068   5.551  -5.999  0.00  0.00    -0.057 A 
ENDROOT
BRANCH   1   7
ATOM      7  N   UNL d   1       5.170   4.383  -5.964  0.00  0.00    -0.732 N 
ATOM      8  C   UNL d   1       5.867   5.651  -6.000  0.00  0.00     0.284 C 
ATOM      9  H3  UNL d   1       5.567   3.708  -5.315  0.00  0.00     0.395 HD
ENDBRANCH   1   7
TORSDOF 1
ENDMDL
