MODEL 1
REMARK minimizedAffinity -2.5749824
REMARK minimizedRMSD -1
REMARK  1 active torsions:
REMARK  status: ('A' for Active; 'I' for Inactive)
REMARK    1  A    between atoms: N_2  and  C1_3 
ROOT
ATOM      1  C1  UNL d   1       3.501   2.584  -5.664  0.00  0.00     0.143 A 
ATOM      2  C2  UNL d   1       4.401   3.356  -4.921  0.00  0.00    -0.057 A 
ATOM      3  C3  UNL d   1       5.644   2.846  -4.527  0.00  0.00     0.033 A 
ATOM      4  C4  UNL d   1       5.999   1.540  -4.846  0.00  0.00    -0.042 A 
ATOM      5  C5  UNL d   1       5.110   0.745  -5.563  0.00  0.00     0.033 A 
ATOM      6  C6  UNL d   1       3.873   1.263  -5.958  0.00  0.00    -0.057 A 
ENDROOT
BRANCH   1   7
ATOM      7  N   UNL d   1       2.211   3.000  -6.000  0.00  0.00    -0.732 N 
ATOM      8  C   UNL d   1       1.436   3.810  -5.085  0.00  0.00     0.284 C 
ATOM      9  H3  UNL d   1       2.136   3.286  -6.974  0.00  0.00     0.395 HD
ENDBRANCH   1   7
TORSDOF 1
ENDMDL
