MODEL 1
REMARK minimizedAffinity 11.0955257
REMARK minimizedRMSD -1
REMARK  0 active torsions:
REMARK  status: ('A' for Active; 'I' for Inactive)
ROOT
ATOM      1  C   UNL d   1      -3.615  -5.155  -0.006  0.00  0.00     0.172 C 
ATOM      2  N   UNL d   1      -3.713  -4.220   1.090  0.00  0.00    -0.070 N 
ATOM      3  C1  UNL d   1      -2.788  -4.059   2.087  0.00  0.00    -0.004 A 
ATOM      4  C2  UNL d   1      -3.249  -3.074   2.934  0.00  0.00    -0.047 A 
ATOM      5  C3  UNL d   1      -4.493  -2.628   2.429  0.00  0.00    -0.047 A 
ATOM      6  C4  UNL d   1      -4.757  -3.355   1.287  0.00  0.00    -0.004 A 
ENDROOT
TORSDOF 0
ENDMDL
