MODEL 1
REMARK minimizedAffinity 3.58568811
REMARK minimizedRMSD -1
REMARK  0 active torsions:
REMARK  status: ('A' for Active; 'I' for Inactive)
ROOT
ATOM      1  C   UNL d   1       1.038  -5.680   3.088  0.00  0.00     0.172 C 
ATOM      2  N   UNL d   1       0.261  -4.466   3.001  0.00  0.00    -0.070 N 
ATOM      3  C1  UNL d   1       0.313  -3.558   1.977  0.00  0.00    -0.004 A 
ATOM      4  C2  UNL d   1      -0.576  -2.545   2.267  0.00  0.00    -0.047 A 
ATOM      5  C3  UNL d   1      -1.181  -2.855   3.508  0.00  0.00    -0.047 A 
ATOM      6  C4  UNL d   1      -0.645  -4.050   3.940  0.00  0.00    -0.004 A 
ENDROOT
TORSDOF 0
ENDMDL
