MODEL 1
REMARK minimizedAffinity 2.23190188
REMARK minimizedRMSD -1
REMARK  0 active torsions:
REMARK  status: ('A' for Active; 'I' for Inactive)
ROOT
ATOM      1  C   UNL d   1      -2.295  -3.203   4.103  0.00  0.00     0.172 C 
ATOM      2  N   UNL d   1      -1.205  -2.256   4.084  0.00  0.00    -0.070 N 
ATOM      3  C1  UNL d   1      -0.999  -1.259   4.999  0.00  0.00    -0.004 A 
ATOM      4  C2  UNL d   1       0.142  -0.578   4.632  0.00  0.00    -0.047 A 
ATOM      5  C3  UNL d   1       0.637  -1.186   3.454  0.00  0.00    -0.047 A 
ATOM      6  C4  UNL d   1      -0.216  -2.222   3.137  0.00  0.00    -0.004 A 
ENDROOT
TORSDOF 0
ENDMDL
