MODEL 1
REMARK minimizedAffinity 4.2702713
REMARK minimizedRMSD -1
REMARK  0 active torsions:
REMARK  status: ('A' for Active; 'I' for Inactive)
ROOT
ATOM      1  C   UNL d   1      -0.291  -0.752   5.116  0.00  0.00     0.172 C 
ATOM      2  N   UNL d   1       0.075  -1.194   3.790  0.00  0.00    -0.070 N 
ATOM      3  C1  UNL d   1      -0.304  -2.375   3.210  0.00  0.00    -0.004 A 
ATOM      4  C2  UNL d   1       0.248  -2.422   1.948  0.00  0.00    -0.047 A 
ATOM      5  C3  UNL d   1       0.985  -1.227   1.764  0.00  0.00    -0.047 A 
ATOM      6  C4  UNL d   1       0.861  -0.486   2.920  0.00  0.00    -0.004 A 
ENDROOT
TORSDOF 0
ENDMDL
