MODEL 1
REMARK minimizedAffinity 0.0148960305
REMARK minimizedRMSD -1
REMARK  0 active torsions:
REMARK  status: ('A' for Active; 'I' for Inactive)
ROOT
ATOM      1  C   UNL d   1      -0.374  -0.741   5.303  0.00  0.00     0.172 C 
ATOM      2  N   UNL d   1      -0.013  -1.150   3.966  0.00  0.00    -0.070 N 
ATOM      3  C1  UNL d   1      -0.186  -2.403   3.441  0.00  0.00    -0.004 A 
ATOM      4  C2  UNL d   1       0.283  -2.385   2.145  0.00  0.00    -0.047 A 
ATOM      5  C3  UNL d   1       0.755  -1.077   1.883  0.00  0.00    -0.047 A 
ATOM      6  C4  UNL d   1       0.560  -0.333   3.028  0.00  0.00    -0.004 A 
ENDROOT
TORSDOF 0
ENDMDL
