MODEL 1
REMARK minimizedAffinity 7.69663334
REMARK minimizedRMSD -1
REMARK  0 active torsions:
REMARK  status: ('A' for Active; 'I' for Inactive)
ROOT
ATOM      1  C   UNL d   1      -2.230  -2.877   3.360  0.00  0.00     0.172 C 
ATOM      2  N   UNL d   1      -1.120  -2.024   3.004  0.00  0.00    -0.070 N 
ATOM      3  C1  UNL d   1      -0.207  -2.273   2.015  0.00  0.00    -0.004 A 
ATOM      4  C2  UNL d   1       0.687  -1.225   1.992  0.00  0.00    -0.047 A 
ATOM      5  C3  UNL d   1       0.298  -0.314   3.003  0.00  0.00    -0.047 A 
ATOM      6  C4  UNL d   1      -0.823  -0.834   3.614  0.00  0.00    -0.004 A 
ENDROOT
TORSDOF 0
ENDMDL
