MODEL 1
REMARK minimizedAffinity 2.53600264
REMARK minimizedRMSD -1
REMARK  0 active torsions:
REMARK  status: ('A' for Active; 'I' for Inactive)
ROOT
ATOM      1  C   UNL d   1      -3.024   2.064  -1.896  0.00  0.00     0.172 C 
ATOM      2  N   UNL d   1      -1.653   2.505  -1.796  0.00  0.00    -0.070 N 
ATOM      3  C1  UNL d   1      -0.804   2.243  -0.754  0.00  0.00    -0.004 A 
ATOM      4  C2  UNL d   1       0.408   2.835  -1.037  0.00  0.00    -0.047 A 
ATOM      5  C3  UNL d   1       0.282   3.476  -2.292  0.00  0.00    -0.047 A 
ATOM      6  C4  UNL d   1      -1.003   3.256  -2.739  0.00  0.00    -0.004 A 
ENDROOT
TORSDOF 0
ENDMDL
