MODEL 1
REMARK minimizedAffinity 7.63461637
REMARK minimizedRMSD -1
REMARK  0 active torsions:
REMARK  status: ('A' for Active; 'I' for Inactive)
ROOT
ATOM      1  C   UNL d   1      -0.628  -0.385   4.856  0.00  0.00     0.172 C 
ATOM      2  N   UNL d   1       0.665  -0.116   4.272  0.00  0.00    -0.070 N 
ATOM      3  C1  UNL d   1       1.767   0.338   4.946  0.00  0.00    -0.004 A 
ATOM      4  C2  UNL d   1       2.795   0.466   4.038  0.00  0.00    -0.047 A 
ATOM      5  C3  UNL d   1       2.294   0.076   2.773  0.00  0.00    -0.047 A 
ATOM      6  C4  UNL d   1       0.973  -0.279   2.947  0.00  0.00    -0.004 A 
ENDROOT
TORSDOF 0
ENDMDL
