MODEL 1
REMARK minimizedAffinity 7.96485376
REMARK minimizedRMSD -1
REMARK  0 active torsions:
REMARK  status: ('A' for Active; 'I' for Inactive)
ROOT
ATOM      1  C   UNL d   1      -2.521   2.455  -3.759  0.00  0.00     0.172 C 
ATOM      2  N   UNL d   1      -2.248   3.861  -3.942  0.00  0.00    -0.070 N 
ATOM      3  C1  UNL d   1      -2.093   4.495  -5.146  0.00  0.00    -0.004 A 
ATOM      4  C2  UNL d   1      -1.846   5.827  -4.893  0.00  0.00    -0.047 A 
ATOM      5  C3  UNL d   1      -1.852   6.000  -3.489  0.00  0.00    -0.047 A 
ATOM      6  C4  UNL d   1      -2.103   4.767  -2.924  0.00  0.00    -0.004 A 
ENDROOT
TORSDOF 0
ENDMDL
