MODEL 1
REMARK minimizedAffinity 1.34974921
REMARK minimizedRMSD -1
REMARK  0 active torsions:
REMARK  status: ('A' for Active; 'I' for Inactive)
ROOT
ATOM      1  C   UNL d   1      -3.798  -4.102   3.440  0.00  0.00     0.172 C 
ATOM      2  N   UNL d   1      -4.146  -4.628   2.141  0.00  0.00    -0.070 N 
ATOM      3  C1  UNL d   1      -4.618  -5.889   1.890  0.00  0.00    -0.004 A 
ATOM      4  C2  UNL d   1      -4.829  -5.999   0.533  0.00  0.00    -0.047 A 
ATOM      5  C3  UNL d   1      -4.471  -4.761  -0.053  0.00  0.00    -0.047 A 
ATOM      6  C4  UNL d   1      -4.052  -3.931   0.965  0.00  0.00    -0.004 A 
ENDROOT
TORSDOF 0
ENDMDL
