MODEL 1
REMARK minimizedAffinity 12.092104
REMARK minimizedRMSD -1
REMARK  0 active torsions:
REMARK  status: ('A' for Active; 'I' for Inactive)
ROOT
ATOM      1  C   UNL d   1       6.000   2.311  -3.483  0.00  0.00     0.172 C 
ATOM      2  N   UNL d   1       5.391   1.051  -3.127  0.00  0.00    -0.070 N 
ATOM      3  C1  UNL d   1       6.000  -0.174  -3.185  0.00  0.00    -0.004 A 
ATOM      4  C2  UNL d   1       5.088  -1.119  -2.765  0.00  0.00    -0.047 A 
ATOM      5  C3  UNL d   1       3.890  -0.438  -2.444  0.00  0.00    -0.047 A 
ATOM      6  C4  UNL d   1       4.105   0.904  -2.678  0.00  0.00    -0.004 A 
ENDROOT
TORSDOF 0
ENDMDL
