MODEL 1
REMARK minimizedAffinity 7.84231997
REMARK minimizedRMSD -1
REMARK  0 active torsions:
REMARK  status: ('A' for Active; 'I' for Inactive)
ROOT
ATOM      1  C   UNL d   1       1.488  -5.019   2.104  0.00  0.00     0.172 C 
ATOM      2  N   UNL d   1       0.796  -3.777   1.852  0.00  0.00    -0.070 N 
ATOM      3  C1  UNL d   1      -0.548  -3.642   1.632  0.00  0.00    -0.004 A 
ATOM      4  C2  UNL d   1      -0.812  -2.304   1.435  0.00  0.00    -0.047 A 
ATOM      5  C3  UNL d   1       0.417  -1.610   1.539  0.00  0.00    -0.047 A 
ATOM      6  C4  UNL d   1       1.396  -2.546   1.798  0.00  0.00    -0.004 A 
ENDROOT
TORSDOF 0
ENDMDL
