MODEL 1
REMARK minimizedAffinity 10.1129446
REMARK minimizedRMSD -1
REMARK  0 active torsions:
REMARK  status: ('A' for Active; 'I' for Inactive)
ROOT
ATOM      1  C   UNL d   1      -4.629   1.557  -2.600  0.00  0.00     0.172 C 
ATOM      2  N   UNL d   1      -3.776   2.722  -2.613  0.00  0.00    -0.070 N 
ATOM      3  C1  UNL d   1      -2.611   2.851  -3.322  0.00  0.00    -0.004 A 
ATOM      4  C2  UNL d   1      -2.099   4.105  -3.068  0.00  0.00    -0.047 A 
ATOM      5  C3  UNL d   1      -2.985   4.752  -2.174  0.00  0.00    -0.047 A 
ATOM      6  C4  UNL d   1      -4.014   3.873  -1.909  0.00  0.00    -0.004 A 
ENDROOT
TORSDOF 0
ENDMDL
