MODEL 1
REMARK minimizedAffinity 1.32027733
REMARK minimizedRMSD -1
REMARK  0 active torsions:
REMARK  status: ('A' for Active; 'I' for Inactive)
ROOT
ATOM      1  C   UNL d   1      -4.449  -3.189   2.250  0.00  0.00     0.172 C 
ATOM      2  N   UNL d   1      -4.120  -4.129   1.204  0.00  0.00    -0.070 N 
ATOM      3  C1  UNL d   1      -3.313  -3.875   0.128  0.00  0.00    -0.004 A 
ATOM      4  C2  UNL d   1      -3.250  -5.022  -0.633  0.00  0.00    -0.047 A 
ATOM      5  C3  UNL d   1      -4.048  -5.999   0.008  0.00  0.00    -0.047 A 
ATOM      6  C4  UNL d   1      -4.575  -5.420   1.143  0.00  0.00    -0.004 A 
ENDROOT
TORSDOF 0
ENDMDL
