MODEL 1
REMARK minimizedAffinity -0.832868338
REMARK minimizedRMSD -1
REMARK  0 active torsions:
REMARK  status: ('A' for Active; 'I' for Inactive)
ROOT
ATOM      1  C   UNL d   1       0.472  -5.985  -5.183  0.00  0.00     0.172 C 
ATOM      2  N   UNL d   1       1.622  -5.150  -5.440  0.00  0.00    -0.070 N 
ATOM      3  C1  UNL d   1       2.844  -5.586  -5.878  0.00  0.00    -0.004 A 
ATOM      4  C2  UNL d   1       3.666  -4.486  -6.000  0.00  0.00    -0.047 A 
ATOM      5  C3  UNL d   1       2.912  -3.350  -5.621  0.00  0.00    -0.047 A 
ATOM      6  C4  UNL d   1       1.650  -3.789  -5.280  0.00  0.00    -0.004 A 
ENDROOT
TORSDOF 0
ENDMDL
