MODEL 1
REMARK minimizedAffinity 8.46170807
REMARK minimizedRMSD -1
REMARK  0 active torsions:
REMARK  status: ('A' for Active; 'I' for Inactive)
ROOT
ATOM      1  C   UNL d   1      -2.159   2.535  -2.762  0.00  0.00     0.172 C 
ATOM      2  N   UNL d   1      -2.527   3.000  -4.078  0.00  0.00    -0.070 N 
ATOM      3  C1  UNL d   1      -1.870   3.961  -4.799  0.00  0.00    -0.004 A 
ATOM      4  C2  UNL d   1      -2.531   4.116  -5.998  0.00  0.00    -0.047 A 
ATOM      5  C3  UNL d   1      -3.624   3.218  -5.998  0.00  0.00    -0.047 A 
ATOM      6  C4  UNL d   1      -3.598   2.540  -4.798  0.00  0.00    -0.004 A 
ENDROOT
TORSDOF 0
ENDMDL
