MODEL 1
REMARK minimizedAffinity 8.82258892
REMARK minimizedRMSD -1
REMARK  0 active torsions:
REMARK  status: ('A' for Active; 'I' for Inactive)
ROOT
ATOM      1  C   UNL d   1      -1.212   3.009  -2.983  0.00  0.00     0.172 C 
ATOM      2  N   UNL d   1      -1.480   4.028  -3.970  0.00  0.00    -0.070 N 
ATOM      3  C1  UNL d   1      -1.618   5.367  -3.718  0.00  0.00    -0.004 A 
ATOM      4  C2  UNL d   1      -1.865   5.999  -4.917  0.00  0.00    -0.047 A 
ATOM      5  C3  UNL d   1      -1.876   5.006  -5.925  0.00  0.00    -0.047 A 
ATOM      6  C4  UNL d   1      -1.635   3.795  -5.311  0.00  0.00    -0.004 A 
ENDROOT
TORSDOF 0
ENDMDL
