MODEL 1
REMARK minimizedAffinity 8.76284409
REMARK minimizedRMSD -1
REMARK  0 active torsions:
REMARK  status: ('A' for Active; 'I' for Inactive)
ROOT
ATOM      1  C   UNL d   1      -4.553   4.087  -0.995  0.00  0.00     0.172 C 
ATOM      2  N   UNL d   1      -3.427   4.218  -1.889  0.00  0.00    -0.070 N 
ATOM      3  C1  UNL d   1      -2.844   5.396  -2.271  0.00  0.00    -0.004 A 
ATOM      4  C2  UNL d   1      -1.804   5.096  -3.125  0.00  0.00    -0.047 A 
ATOM      5  C3  UNL d   1      -1.762   3.688  -3.261  0.00  0.00    -0.047 A 
ATOM      6  C4  UNL d   1      -2.777   3.169  -2.486  0.00  0.00    -0.004 A 
ENDROOT
TORSDOF 0
ENDMDL
