MODEL 1
REMARK minimizedAffinity 4.56408834
REMARK minimizedRMSD -1
REMARK  2 active torsions:
REMARK  status: ('A' for Active; 'I' for Inactive)
REMARK    1  A    between atoms: C2'_3  and  C1'_4 
REMARK    2  A    between atoms: C1'_4  and  C1_5 
ROOT
ATOM      1  C1  I4B d   1       0.345   3.058   0.860  0.00  0.00    -0.075 A 
ATOM      2  C2  I4B d   1       0.914   2.215   1.781  0.00  0.00     0.003 A 
ATOM      3  C3  I4B d   1       1.671   2.740   2.856  0.00  0.00     0.002 A 
ATOM      4  C4  I4B d   1       1.875   4.102   2.942  0.00  0.00    -0.004 A 
ATOM      5  C5  I4B d   1       1.278   4.957   2.020  0.00  0.00     0.002 A 
ATOM      6  C6  I4B d   1       0.498   4.433   0.979  0.00  0.00     0.003 A 
ENDROOT
BRANCH   1   7
ATOM      7  C1' I4B d   1      -0.420   2.468  -0.282  0.00  0.00     0.060 C 
BRANCH   7   8
ATOM      8  C2' I4B d   1      -0.814   1.055   0.101  0.00  0.00    -0.013 C 
ATOM      9  C4' I4B d   1      -2.310   0.890   0.112  0.00  0.00     0.013 C 
ATOM     10  C3' I4B d   1      -0.172   0.115  -0.876  0.00  0.00     0.013 C 
ENDBRANCH   7   8
ENDBRANCH   1   7
TORSDOF 2
ENDMDL
