MODEL 1
REMARK minimizedAffinity 0.237153023
REMARK minimizedRMSD -1
REMARK  2 active torsions:
REMARK  status: ('A' for Active; 'I' for Inactive)
REMARK    1  A    between atoms: C2'_3  and  C1'_4 
REMARK    2  A    between atoms: C1'_4  and  C1_5 
ROOT
ATOM      1  C1  I4B d   1      -0.576   0.093   0.353  0.00  0.00    -0.075 A 
ATOM      2  C2  I4B d   1      -1.650   0.935   0.201  0.00  0.00     0.003 A 
ATOM      3  C3  I4B d   1      -1.935   1.911   1.186  0.00  0.00     0.002 A 
ATOM      4  C4  I4B d   1      -1.156   1.977   2.323  0.00  0.00    -0.004 A 
ATOM      5  C5  I4B d   1      -0.054   1.139   2.465  0.00  0.00     0.002 A 
ATOM      6  C6  I4B d   1       0.245   0.199   1.468  0.00  0.00     0.003 A 
ENDROOT
BRANCH   1   7
ATOM      7  C1' I4B d   1      -0.323  -0.948  -0.690  0.00  0.00     0.060 C 
BRANCH   7   8
ATOM      8  C2' I4B d   1      -1.354  -2.045  -0.514  0.00  0.00    -0.013 C 
ATOM      9  C4' I4B d   1      -2.152  -2.250  -1.775  0.00  0.00     0.013 C 
ATOM     10  C3' I4B d   1      -0.632  -3.299  -0.120  0.00  0.00     0.013 C 
ENDBRANCH   7   8
ENDBRANCH   1   7
TORSDOF 2
ENDMDL
