MODEL 1
REMARK minimizedAffinity -3.03199244
REMARK minimizedRMSD -1
REMARK  2 active torsions:
REMARK  status: ('A' for Active; 'I' for Inactive)
REMARK    1  A    between atoms: C2'_3  and  C1'_4 
REMARK    2  A    between atoms: C1'_4  and  C1_5 
ROOT
ATOM      1  C1  I4B d   1      -1.091   0.424   1.286  0.00  0.00    -0.075 A 
ATOM      2  C2  I4B d   1      -0.028   0.314   2.147  0.00  0.00     0.003 A 
ATOM      3  C3  I4B d   1       0.390   1.431   2.910  0.00  0.00     0.002 A 
ATOM      4  C4  I4B d   1      -0.246   2.644   2.743  0.00  0.00    -0.004 A 
ATOM      5  C5  I4B d   1      -1.338   2.748   1.886  0.00  0.00     0.002 A 
ATOM      6  C6  I4B d   1      -1.771   1.628   1.162  0.00  0.00     0.003 A 
ENDROOT
BRANCH   1   7
ATOM      7  C1' I4B d   1      -1.485  -0.767   0.471  0.00  0.00     0.060 C 
BRANCH   7   8
ATOM      8  C2' I4B d   1      -0.571  -0.830  -0.736  0.00  0.00    -0.013 C 
ATOM      9  C4' I4B d   1      -0.477   0.509  -1.419  0.00  0.00     0.013 C 
ATOM     10  C3' I4B d   1       0.776  -1.298  -0.273  0.00  0.00     0.013 C 
ENDBRANCH   7   8
ENDBRANCH   1   7
TORSDOF 2
ENDMDL
