MODEL 1
REMARK minimizedAffinity -3.70911813
REMARK minimizedRMSD -1
REMARK  2 active torsions:
REMARK  status: ('A' for Active; 'I' for Inactive)
REMARK    1  A    between atoms: C2'_3  and  C1'_4 
REMARK    2  A    between atoms: C1'_4  and  C1_5 
ROOT
ATOM      1  C1  I4B d   1       0.044  -0.304  -0.563  0.00  0.00    -0.075 A 
ATOM      2  C2  I4B d   1      -0.460   0.840  -1.132  0.00  0.00     0.003 A 
ATOM      3  C3  I4B d   1      -1.032   1.848  -0.318  0.00  0.00     0.002 A 
ATOM      4  C4  I4B d   1      -1.124   1.650   1.045  0.00  0.00    -0.004 A 
ATOM      5  C5  I4B d   1      -0.592   0.501   1.621  0.00  0.00     0.002 A 
ATOM      6  C6  I4B d   1       0.007  -0.477   0.814  0.00  0.00     0.003 A 
ENDROOT
BRANCH   1   7
ATOM      7  C1' I4B d   1       0.612  -1.362  -1.455  0.00  0.00     0.060 C 
BRANCH   7   8
ATOM      8  C2' I4B d   1      -0.087  -2.667  -1.133  0.00  0.00    -0.013 C 
ATOM      9  C4' I4B d   1      -1.006  -3.084  -2.251  0.00  0.00     0.013 C 
ATOM     10  C3' I4B d   1       0.965  -3.706  -0.881  0.00  0.00     0.013 C 
ENDBRANCH   7   8
ENDBRANCH   1   7
TORSDOF 2
ENDMDL
