MODEL 1
REMARK minimizedAffinity 0.316347212
REMARK minimizedRMSD -1
REMARK  2 active torsions:
REMARK  status: ('A' for Active; 'I' for Inactive)
REMARK    1  A    between atoms: C2'_3  and  C1'_4 
REMARK    2  A    between atoms: C1'_4  and  C1_5 
ROOT
ATOM      1  C1  I4B d   1       0.003   0.770   0.764  0.00  0.00    -0.075 A 
ATOM      2  C2  I4B d   1       0.626  -0.443   0.920  0.00  0.00     0.003 A 
ATOM      3  C3  I4B d   1       0.992  -1.208  -0.214  0.00  0.00     0.002 A 
ATOM      4  C4  I4B d   1       0.671  -0.749  -1.475  0.00  0.00    -0.004 A 
ATOM      5  C5  I4B d   1       0.060   0.491  -1.633  0.00  0.00     0.002 A 
ATOM      6  C6  I4B d   1      -0.266   1.262  -0.507  0.00  0.00     0.003 A 
ENDROOT
BRANCH   1   7
ATOM      7  C1' I4B d   1      -0.399   1.536   1.984  0.00  0.00     0.060 C 
BRANCH   7   8
ATOM      8  C2' I4B d   1      -0.194   3.010   1.698  0.00  0.00    -0.013 C 
ATOM      9  C4' I4B d   1      -1.398   3.817   2.108  0.00  0.00     0.013 C 
ATOM     10  C3' I4B d   1       1.034   3.458   2.433  0.00  0.00     0.013 C 
ENDBRANCH   7   8
ENDBRANCH   1   7
TORSDOF 2
ENDMDL
