MODEL 1
REMARK minimizedAffinity -4.66142988
REMARK minimizedRMSD -1
REMARK  2 active torsions:
REMARK  status: ('A' for Active; 'I' for Inactive)
REMARK    1  A    between atoms: C2'_3  and  C1'_4 
REMARK    2  A    between atoms: C1'_4  and  C1_5 
ROOT
ATOM      1  C1  I4B d   1       0.175  -0.331  -0.264  0.00  0.00    -0.075 A 
ATOM      2  C2  I4B d   1      -0.903   0.382  -0.724  0.00  0.00     0.003 A 
ATOM      3  C3  I4B d   1      -1.423   1.458   0.036  0.00  0.00     0.002 A 
ATOM      4  C4  I4B d   1      -0.869   1.751   1.266  0.00  0.00    -0.004 A 
ATOM      5  C5  I4B d   1       0.239   1.042   1.720  0.00  0.00     0.002 A 
ATOM      6  C6  I4B d   1       0.772   0.002   0.945  0.00  0.00     0.003 A 
ENDROOT
BRANCH   1   7
ATOM      7  C1' I4B d   1       0.678  -1.482  -1.077  0.00  0.00     0.060 C 
BRANCH   7   8
ATOM      8  C2' I4B d   1      -0.522  -2.278  -1.550  0.00  0.00    -0.013 C 
ATOM      9  C4' I4B d   1      -0.385  -2.659  -3.001  0.00  0.00     0.013 C 
ATOM     10  C3' I4B d   1      -0.643  -3.494  -0.680  0.00  0.00     0.013 C 
ENDBRANCH   7   8
ENDBRANCH   1   7
TORSDOF 2
ENDMDL
