MODEL 1
REMARK minimizedAffinity -5.23048735
REMARK minimizedRMSD -1
REMARK  0 active torsions:
REMARK  status: ('A' for Active; 'I' for Inactive)
ROOT
ATOM      1  C1  BNZ d   1      -0.252  -3.277  -0.084  0.00  0.00     0.000 A 
ATOM      2  C2  BNZ d   1      -0.327  -2.461   1.013  0.00  0.00     0.000 A 
ATOM      3  C3  BNZ d   1      -0.178  -1.108   0.889  0.00  0.00     0.000 A 
ATOM      4  C4  BNZ d   1       0.086  -0.577  -0.322  0.00  0.00     0.000 A 
ATOM      5  C5  BNZ d   1       0.174  -1.388  -1.436  0.00  0.00     0.000 A 
ATOM      6  C6  BNZ d   1      -0.016  -2.746  -1.315  0.00  0.00     0.000 A 
ENDROOT
TORSDOF 0
ENDMDL
