MODEL 1
REMARK minimizedAffinity -5.00050831
REMARK minimizedRMSD -1
REMARK  0 active torsions:
REMARK  status: ('A' for Active; 'I' for Inactive)
ROOT
ATOM      1  C1  BNZ d   1      -0.062  -3.773  -0.693  0.00  0.00     0.000 A 
ATOM      2  C2  BNZ d   1      -0.004  -3.154   0.527  0.00  0.00     0.000 A 
ATOM      3  C3  BNZ d   1       0.165  -1.801   0.618  0.00  0.00     0.000 A 
ATOM      4  C4  BNZ d   1       0.317  -1.075  -0.509  0.00  0.00     0.000 A 
ATOM      5  C5  BNZ d   1       0.271  -1.686  -1.746  0.00  0.00     0.000 A 
ATOM      6  C6  BNZ d   1       0.061  -3.043  -1.835  0.00  0.00     0.000 A 
ENDROOT
TORSDOF 0
ENDMDL
