MODEL 1
REMARK minimizedAffinity -3.91476154
REMARK minimizedRMSD -1
REMARK  0 active torsions:
REMARK  status: ('A' for Active; 'I' for Inactive)
ROOT
ATOM      1  C1  BNZ d   1       0.672  -2.462  -0.463  0.00  0.00     0.000 A 
ATOM      2  C2  BNZ d   1       0.671  -1.100  -0.319  0.00  0.00     0.000 A 
ATOM      3  C3  BNZ d   1      -0.284  -0.477   0.434  0.00  0.00     0.000 A 
ATOM      4  C4  BNZ d   1      -1.259  -1.211   1.009  0.00  0.00     0.000 A 
ATOM      5  C5  BNZ d   1      -1.277  -2.584   0.865  0.00  0.00     0.000 A 
ATOM      6  C6  BNZ d   1      -0.291  -3.211   0.138  0.00  0.00     0.000 A 
ENDROOT
TORSDOF 0
ENDMDL
