MODEL 1
REMARK minimizedAffinity -3.84542561
REMARK minimizedRMSD -1
REMARK  0 active torsions:
REMARK  status: ('A' for Active; 'I' for Inactive)
ROOT
ATOM      1  C1  BNZ d   1      -0.266  -1.348   1.172  0.00  0.00     0.000 A 
ATOM      2  C2  BNZ d   1      -0.120  -0.024   1.487  0.00  0.00     0.000 A 
ATOM      3  C3  BNZ d   1       0.206   0.893   0.527  0.00  0.00     0.000 A 
ATOM      4  C4  BNZ d   1       0.426   0.479  -0.737  0.00  0.00     0.000 A 
ATOM      5  C5  BNZ d   1       0.293  -0.855  -1.069  0.00  0.00     0.000 A 
ATOM      6  C6  BNZ d   1      -0.075  -1.769  -0.109  0.00  0.00     0.000 A 
ENDROOT
TORSDOF 0
ENDMDL
