MODEL 1
REMARK minimizedAffinity -4.80199337
REMARK minimizedRMSD -1
REMARK  0 active torsions:
REMARK  status: ('A' for Active; 'I' for Inactive)
ROOT
ATOM      1  C1  BNZ d   1      -0.712  -0.610   1.389  0.00  0.00     0.000 A 
ATOM      2  C2  BNZ d   1      -0.022   0.197   0.524  0.00  0.00     0.000 A 
ATOM      3  C3  BNZ d   1       0.715  -0.339  -0.495  0.00  0.00     0.000 A 
ATOM      4  C4  BNZ d   1       0.795  -1.679  -0.623  0.00  0.00     0.000 A 
ATOM      5  C5  BNZ d   1       0.112  -2.506   0.248  0.00  0.00     0.000 A 
ATOM      6  C6  BNZ d   1      -0.660  -1.962   1.248  0.00  0.00     0.000 A 
ENDROOT
TORSDOF 0
ENDMDL
