MODEL 1
REMARK minimizedAffinity 0.202935964
REMARK minimizedRMSD -1
REMARK  0 active torsions:
REMARK  status: ('A' for Active; 'I' for Inactive)
ROOT
ATOM      1  C1  BNZ d   1      -1.027  -1.854   0.016  0.00  0.00     0.000 A 
ATOM      2  C2  BNZ d   1      -0.542  -0.834  -0.757  0.00  0.00     0.000 A 
ATOM      3  C3  BNZ d   1      -0.060   0.310  -0.185  0.00  0.00     0.000 A 
ATOM      4  C4  BNZ d   1      -0.101   0.448   1.156  0.00  0.00     0.000 A 
ATOM      5  C5  BNZ d   1      -0.595  -0.568   1.949  0.00  0.00     0.000 A 
ATOM      6  C6  BNZ d   1      -1.043  -1.734   1.372  0.00  0.00     0.000 A 
ENDROOT
TORSDOF 0
ENDMDL
