MODEL 1
REMARK minimizedAffinity -2.70864725
REMARK minimizedRMSD -1
REMARK  0 active torsions:
REMARK  status: ('A' for Active; 'I' for Inactive)
ROOT
ATOM      1  C1  BNZ d   1      -1.058  -2.027   1.165  0.00  0.00     0.000 A 
ATOM      2  C2  BNZ d   1      -1.272  -0.675   1.210  0.00  0.00     0.000 A 
ATOM      3  C3  BNZ d   1      -0.331   0.198   0.742  0.00  0.00     0.000 A 
ATOM      4  C4  BNZ d   1       0.838  -0.278   0.266  0.00  0.00     0.000 A 
ATOM      5  C5  BNZ d   1       1.072  -1.638   0.223  0.00  0.00     0.000 A 
ATOM      6  C6  BNZ d   1       0.107  -2.516   0.659  0.00  0.00     0.000 A 
ENDROOT
TORSDOF 0
ENDMDL
