MODEL 1
REMARK minimizedAffinity -5.49687338
REMARK minimizedRMSD -1
REMARK  0 active torsions:
REMARK  status: ('A' for Active; 'I' for Inactive)
ROOT
ATOM      1  C1  BNZ d   1      -0.349  -2.441   0.920  0.00  0.00     0.000 A 
ATOM      2  C2  BNZ d   1      -0.363  -3.286  -0.157  0.00  0.00     0.000 A 
ATOM      3  C3  BNZ d   1      -0.121  -2.817  -1.418  0.00  0.00     0.000 A 
ATOM      4  C4  BNZ d   1       0.095  -1.499  -1.605  0.00  0.00     0.000 A 
ATOM      5  C5  BNZ d   1       0.103  -0.632  -0.530  0.00  0.00     0.000 A 
ATOM      6  C6  BNZ d   1      -0.102  -1.114   0.742  0.00  0.00     0.000 A 
ENDROOT
TORSDOF 0
ENDMDL
