MODEL 1
REMARK minimizedAffinity -4.18686342
REMARK minimizedRMSD -1
REMARK  0 active torsions:
REMARK  status: ('A' for Active; 'I' for Inactive)
ROOT
ATOM      1  C1  BNZ d   1       0.211  -0.919   2.183  0.00  0.00     0.000 A 
ATOM      2  C2  BNZ d   1       0.672   0.045   1.327  0.00  0.00     0.000 A 
ATOM      3  C3  BNZ d   1       0.010   0.322   0.163  0.00  0.00     0.000 A 
ATOM      4  C4  BNZ d   1      -1.087  -0.392  -0.161  0.00  0.00     0.000 A 
ATOM      5  C5  BNZ d   1      -1.559  -1.373   0.687  0.00  0.00     0.000 A 
ATOM      6  C6  BNZ d   1      -0.913  -1.623   1.876  0.00  0.00     0.000 A 
ENDROOT
TORSDOF 0
ENDMDL
