MODEL 1
REMARK minimizedAffinity -2.5111692
REMARK minimizedRMSD -1
REMARK  0 active torsions:
REMARK  status: ('A' for Active; 'I' for Inactive)
ROOT
ATOM      1  C1  BNZ d   1       0.832  -2.151   0.178  0.00  0.00     0.000 A 
ATOM      2  C2  BNZ d   1       0.737  -0.787   0.098  0.00  0.00     0.000 A 
ATOM      3  C3  BNZ d   1      -0.399  -0.140   0.496  0.00  0.00     0.000 A 
ATOM      4  C4  BNZ d   1      -1.453  -0.859   0.935  0.00  0.00     0.000 A 
ATOM      5  C5  BNZ d   1      -1.376  -2.235   1.013  0.00  0.00     0.000 A 
ATOM      6  C6  BNZ d   1      -0.217  -2.880   0.648  0.00  0.00     0.000 A 
ENDROOT
TORSDOF 0
ENDMDL
