MODEL 1
REMARK minimizedAffinity -3.52820325
REMARK minimizedRMSD -1
REMARK  0 active torsions:
REMARK  status: ('A' for Active; 'I' for Inactive)
ROOT
ATOM      1  C1  BNZ d   1      -0.158   0.703   0.497  0.00  0.00     0.000 A 
ATOM      2  C2  BNZ d   1      -0.467  -0.316   1.357  0.00  0.00     0.000 A 
ATOM      3  C3  BNZ d   1      -0.299  -1.621   0.987  0.00  0.00     0.000 A 
ATOM      4  C4  BNZ d   1       0.139  -1.906  -0.256  0.00  0.00     0.000 A 
ATOM      5  C5  BNZ d   1       0.447  -0.890  -1.139  0.00  0.00     0.000 A 
ATOM      6  C6  BNZ d   1       0.313   0.423  -0.749  0.00  0.00     0.000 A 
ENDROOT
TORSDOF 0
ENDMDL
