MODEL 1
REMARK minimizedAffinity -3.96416283
REMARK minimizedRMSD -1
REMARK  0 active torsions:
REMARK  status: ('A' for Active; 'I' for Inactive)
ROOT
ATOM      1  C1  BNZ d   1      -0.350  -0.257   0.366  0.00  0.00     0.000 A 
ATOM      2  C2  BNZ d   1      -0.098  -0.948  -0.789  0.00  0.00     0.000 A 
ATOM      3  C3  BNZ d   1      -0.021  -2.313  -0.786  0.00  0.00     0.000 A 
ATOM      4  C4  BNZ d   1      -0.157  -2.982   0.378  0.00  0.00     0.000 A 
ATOM      5  C5  BNZ d   1      -0.402  -2.299   1.552  0.00  0.00     0.000 A 
ATOM      6  C6  BNZ d   1      -0.517  -0.928   1.539  0.00  0.00     0.000 A 
ENDROOT
TORSDOF 0
ENDMDL
