MODEL 1
REMARK minimizedAffinity 3.7858758
REMARK minimizedRMSD -1
REMARK  0 active torsions:
REMARK  status: ('A' for Active; 'I' for Inactive)
ROOT
ATOM      1  N1  IND d   1      -2.611  -5.999  -3.997  0.00  0.00    -0.196 N 
ATOM      2  C2  IND d   1      -2.538  -5.995  -2.632  0.00  0.00     0.054 A 
ATOM      3  C3  IND d   1      -1.248  -6.000  -2.229  0.00  0.00    -0.031 A 
ATOM      4  C4  IND d   1       0.905  -5.913  -3.639  0.00  0.00     0.051 A 
ATOM      5  C5  IND d   1       1.348  -5.941  -4.931  0.00  0.00    -0.031 A 
ATOM      6  C6  IND d   1       0.477  -5.989  -6.000  0.00  0.00     0.015 A 
ATOM      7  C7  IND d   1      -0.877  -5.998  -5.815  0.00  0.00    -0.016 A 
ATOM      8  C8  IND d   1      -1.331  -5.976  -4.504  0.00  0.00    -0.047 A 
ATOM      9  C9  IND d   1      -0.450  -5.971  -3.414  0.00  0.00    -0.096 A 
ATOM     10  HN1 IND d   1      -3.335  -6.014  -4.460  0.00  0.00     0.298 HD
ENDROOT
TORSDOF 0
ENDMDL
