MODEL 1
REMARK minimizedAffinity 7.91419125
REMARK minimizedRMSD -1
REMARK  0 active torsions:
REMARK  status: ('A' for Active; 'I' for Inactive)
ROOT
ATOM      1  N1  IND d   1      -6.000  -5.696   2.037  0.00  0.00    -0.196 N 
ATOM      2  C2  IND d   1      -5.436  -5.342   3.231  0.00  0.00     0.054 A 
ATOM      3  C3  IND d   1      -4.145  -4.982   3.053  0.00  0.00    -0.031 A 
ATOM      4  C4  IND d   1      -2.782  -4.801   0.877  0.00  0.00     0.051 A 
ATOM      5  C5  IND d   1      -2.855  -5.054  -0.464  0.00  0.00    -0.031 A 
ATOM      6  C6  IND d   1      -4.005  -5.541  -1.053  0.00  0.00     0.015 A 
ATOM      7  C7  IND d   1      -5.132  -5.784  -0.320  0.00  0.00    -0.016 A 
ATOM      8  C8  IND d   1      -5.059  -5.535   1.043  0.00  0.00    -0.047 A 
ATOM      9  C9  IND d   1      -3.882  -5.081   1.653  0.00  0.00    -0.096 A 
ATOM     10  HN1 IND d   1      -6.806  -5.973   1.925  0.00  0.00     0.298 HD
ENDROOT
TORSDOF 0
ENDMDL
