MODEL 1
REMARK minimizedAffinity 3.04233694
REMARK minimizedRMSD -1
REMARK  0 active torsions:
REMARK  status: ('A' for Active; 'I' for Inactive)
ROOT
ATOM      1  N1  IND d   1       1.442  -5.924  -3.748  0.00  0.00    -0.196 N 
ATOM      2  C2  IND d   1       1.684  -5.941  -5.093  0.00  0.00     0.054 A 
ATOM      3  C3  IND d   1       0.521  -6.000  -5.780  0.00  0.00    -0.031 A 
ATOM      4  C4  IND d   1      -1.899  -5.972  -4.903  0.00  0.00     0.051 A 
ATOM      5  C5  IND d   1      -2.626  -5.999  -3.745  0.00  0.00    -0.031 A 
ATOM      6  C6  IND d   1      -2.022  -6.000  -2.505  0.00  0.00     0.015 A 
ATOM      7  C7  IND d   1      -0.662  -5.962  -2.375  0.00  0.00    -0.016 A 
ATOM      8  C8  IND d   1       0.079  -5.941  -3.548  0.00  0.00    -0.047 A 
ATOM      9  C9  IND d   1      -0.527  -5.984  -4.810  0.00  0.00    -0.096 A 
ATOM     10  HN1 IND d   1       2.040  -5.905  -3.131  0.00  0.00     0.298 HD
ENDROOT
TORSDOF 0
ENDMDL
