MODEL 1
REMARK minimizedAffinity 5.72871208
REMARK minimizedRMSD -1
REMARK  0 active torsions:
REMARK  status: ('A' for Active; 'I' for Inactive)
ROOT
ATOM      1  N1  IND d   1       0.728   0.144   0.494  0.00  0.00    -0.196 N 
ATOM      2  C2  IND d   1       2.069   0.119   0.761  0.00  0.00     0.054 A 
ATOM      3  C3  IND d   1       2.490  -1.154   0.933  0.00  0.00    -0.031 A 
ATOM      4  C4  IND d   1       1.174  -3.355   0.718  0.00  0.00     0.051 A 
ATOM      5  C5  IND d   1      -0.089  -3.841   0.524  0.00  0.00    -0.031 A 
ATOM      6  C6  IND d   1      -1.165  -3.006   0.302  0.00  0.00     0.015 A 
ATOM      7  C7  IND d   1      -1.016  -1.649   0.256  0.00  0.00    -0.016 A 
ATOM      8  C8  IND d   1       0.264  -1.152   0.460  0.00  0.00    -0.047 A 
ATOM      9  C9  IND d   1       1.352  -1.992   0.727  0.00  0.00    -0.096 A 
ATOM     10  HN1 IND d   1       0.255   0.851   0.369  0.00  0.00     0.298 HD
ENDROOT
TORSDOF 0
ENDMDL
