MODEL 1
REMARK minimizedAffinity 3.29269028
REMARK minimizedRMSD -1
REMARK  0 active torsions:
REMARK  status: ('A' for Active; 'I' for Inactive)
ROOT
ATOM      1  N1  IND d   1       4.559   5.130   0.662  0.00  0.00    -0.196 N 
ATOM      2  C2  IND d   1       5.216   4.268  -0.171  0.00  0.00     0.054 A 
ATOM      3  C3  IND d   1       4.347   3.393  -0.724  0.00  0.00    -0.031 A 
ATOM      4  C4  IND d   1       1.787   3.256  -0.480  0.00  0.00     0.051 A 
ATOM      5  C5  IND d   1       0.739   3.808   0.202  0.00  0.00    -0.031 A 
ATOM      6  C6  IND d   1       0.914   4.851   1.088  0.00  0.00     0.015 A 
ATOM      7  C7  IND d   1       2.148   5.391   1.317  0.00  0.00    -0.016 A 
ATOM      8  C8  IND d   1       3.215   4.829   0.632  0.00  0.00    -0.047 A 
ATOM      9  C9  IND d   1       3.050   3.743  -0.236  0.00  0.00    -0.096 A 
ATOM     10  HN1 IND d   1       4.924   5.754   1.127  0.00  0.00     0.298 HD
ENDROOT
TORSDOF 0
ENDMDL
