MODEL 1
REMARK minimizedAffinity -2.46074796
REMARK minimizedRMSD -1
REMARK  0 active torsions:
REMARK  status: ('A' for Active; 'I' for Inactive)
ROOT
ATOM      1  N1  IND d   1       1.605  -5.834  -4.259  0.00  0.00    -0.196 N 
ATOM      2  C2  IND d   1       1.518  -5.685  -5.615  0.00  0.00     0.054 A 
ATOM      3  C3  IND d   1       0.223  -5.629  -6.000  0.00  0.00    -0.031 A 
ATOM      4  C4  IND d   1      -1.913  -5.660  -4.563  0.00  0.00     0.051 A 
ATOM      5  C5  IND d   1      -2.343  -5.818  -3.275  0.00  0.00    -0.031 A 
ATOM      6  C6  IND d   1      -1.460  -5.990  -2.228  0.00  0.00     0.015 A 
ATOM      7  C7  IND d   1      -0.109  -6.000  -2.429  0.00  0.00    -0.016 A 
ATOM      8  C8  IND d   1       0.331  -5.846  -3.737  0.00  0.00    -0.047 A 
ATOM      9  C9  IND d   1      -0.561  -5.714  -4.809  0.00  0.00    -0.096 A 
ATOM     10  HN1 IND d   1       2.334  -5.908  -3.809  0.00  0.00     0.298 HD
ENDROOT
TORSDOF 0
ENDMDL
