MODEL 1
REMARK minimizedAffinity 8.36177254
REMARK minimizedRMSD -1
REMARK  0 active torsions:
REMARK  status: ('A' for Active; 'I' for Inactive)
ROOT
ATOM      1  N1  IND d   1       0.195   0.708   0.720  0.00  0.00    -0.196 N 
ATOM      2  C2  IND d   1      -1.105   0.421   0.406  0.00  0.00     0.054 A 
ATOM      3  C3  IND d   1      -1.279  -0.915   0.301  0.00  0.00    -0.031 A 
ATOM      4  C4  IND d   1       0.404  -2.821   0.702  0.00  0.00     0.051 A 
ATOM      5  C5  IND d   1       1.723  -3.054   0.973  0.00  0.00    -0.031 A 
ATOM      6  C6  IND d   1       2.618  -2.024   1.180  0.00  0.00     0.015 A 
ATOM      7  C7  IND d   1       2.222  -0.717   1.135  0.00  0.00    -0.016 A 
ATOM      8  C8  IND d   1       0.885  -0.477   0.854  0.00  0.00    -0.047 A 
ATOM      9  C9  IND d   1      -0.019  -1.517   0.601  0.00  0.00    -0.096 A 
ATOM     10  HN1 IND d   1       0.525   1.496   0.818  0.00  0.00     0.298 HD
ENDROOT
TORSDOF 0
ENDMDL
