MODEL 1
REMARK minimizedAffinity -3.0990119
REMARK minimizedRMSD -1
REMARK  0 active torsions:
REMARK  status: ('A' for Active; 'I' for Inactive)
ROOT
ATOM      1  N1  IND d   1       0.668  -5.983  -3.772  0.00  0.00    -0.196 N 
ATOM      2  C2  IND d   1       1.350  -5.975  -4.956  0.00  0.00     0.054 A 
ATOM      3  C3  IND d   1       0.486  -5.988  -5.996  0.00  0.00    -0.031 A 
ATOM      4  C4  IND d   1      -2.088  -5.920  -5.985  0.00  0.00     0.051 A 
ATOM      5  C5  IND d   1      -3.163  -5.955  -5.142  0.00  0.00    -0.031 A 
ATOM      6  C6  IND d   1      -3.013  -5.999  -3.771  0.00  0.00     0.015 A 
ATOM      7  C7  IND d   1      -1.776  -5.999  -3.189  0.00  0.00    -0.016 A 
ATOM      8  C8  IND d   1      -0.682  -5.970  -4.043  0.00  0.00    -0.047 A 
ATOM      9  C9  IND d   1      -0.828  -5.968  -5.436  0.00  0.00    -0.096 A 
ATOM     10  HN1 IND d   1       1.023  -5.994  -2.989  0.00  0.00     0.298 HD
ENDROOT
TORSDOF 0
ENDMDL
