MODEL 1
REMARK minimizedAffinity 7.7291379
REMARK minimizedRMSD -1
REMARK  0 active torsions:
REMARK  status: ('A' for Active; 'I' for Inactive)
ROOT
ATOM      1  N1  IND d   1      -2.625  -5.990  -5.107  0.00  0.00    -0.196 N 
ATOM      2  C2  IND d   1      -3.243  -5.986  -3.888  0.00  0.00     0.054 A 
ATOM      3  C3  IND d   1      -2.326  -5.999  -2.895  0.00  0.00    -0.031 A 
ATOM      4  C4  IND d   1       0.243  -5.926  -3.041  0.00  0.00     0.051 A 
ATOM      5  C5  IND d   1       1.273  -5.957  -3.940  0.00  0.00    -0.031 A 
ATOM      6  C6  IND d   1       1.051  -5.999  -5.301  0.00  0.00     0.015 A 
ATOM      7  C7  IND d   1      -0.215  -6.000  -5.817  0.00  0.00    -0.016 A 
ATOM      8  C8  IND d   1      -1.262  -5.975  -4.907  0.00  0.00    -0.047 A 
ATOM      9  C9  IND d   1      -1.043  -5.975  -3.523  0.00  0.00    -0.096 A 
ATOM     10  HN1 IND d   1      -3.021  -6.000  -5.870  0.00  0.00     0.298 HD
ENDROOT
TORSDOF 0
ENDMDL
