MODEL 1
REMARK minimizedAffinity 2.39459634
REMARK minimizedRMSD -1
REMARK  0 active torsions:
REMARK  status: ('A' for Active; 'I' for Inactive)
ROOT
ATOM      1  N1  IND d   1       1.043   0.719   0.162  0.00  0.00    -0.196 N 
ATOM      2  C2  IND d   1       1.252   0.883  -1.179  0.00  0.00     0.054 A 
ATOM      3  C3  IND d   1       1.226  -0.313  -1.809  0.00  0.00    -0.031 A 
ATOM      4  C4  IND d   1       0.754  -2.655  -0.852  0.00  0.00     0.051 A 
ATOM      5  C5  IND d   1       0.542  -3.315   0.326  0.00  0.00    -0.031 A 
ATOM      6  C6  IND d   1       0.482  -2.650   1.534  0.00  0.00     0.015 A 
ATOM      7  C7  IND d   1       0.621  -1.293   1.607  0.00  0.00    -0.016 A 
ATOM      8  C8  IND d   1       0.844  -0.620   0.414  0.00  0.00    -0.047 A 
ATOM      9  C9  IND d   1       0.948  -1.295  -0.810  0.00  0.00    -0.096 A 
ATOM     10  HN1 IND d   1       1.036   1.347   0.749  0.00  0.00     0.298 HD
ENDROOT
TORSDOF 0
ENDMDL
