MODEL 1
REMARK minimizedAffinity 3.52318192
REMARK minimizedRMSD -1
REMARK  0 active torsions:
REMARK  status: ('A' for Active; 'I' for Inactive)
ROOT
ATOM      1  N1  IND d   1      -0.546  -5.987  -5.961  0.00  0.00    -0.196 N 
ATOM      2  C2  IND d   1       0.821  -5.957  -5.977  0.00  0.00     0.054 A 
ATOM      3  C3  IND d   1       1.305  -5.917  -4.716  0.00  0.00    -0.031 A 
ATOM      4  C4  IND d   1       0.041  -5.997  -2.475  0.00  0.00     0.051 A 
ATOM      5  C5  IND d   1      -1.221  -5.991  -1.949  0.00  0.00    -0.031 A 
ATOM      6  C6  IND d   1      -2.345  -5.986  -2.750  0.00  0.00     0.015 A 
ATOM      7  C7  IND d   1      -2.248  -5.998  -4.112  0.00  0.00    -0.016 A 
ATOM      8  C8  IND d   1      -0.969  -5.997  -4.650  0.00  0.00    -0.047 A 
ATOM      9  C9  IND d   1       0.175  -5.959  -3.842  0.00  0.00    -0.096 A 
ATOM     10  HN1 IND d   1      -1.056  -5.998  -6.653  0.00  0.00     0.298 HD
ENDROOT
TORSDOF 0
ENDMDL
