MODEL 1
REMARK minimizedAffinity -0.595237017
REMARK minimizedRMSD -1
REMARK  0 active torsions:
REMARK  status: ('A' for Active; 'I' for Inactive)
ROOT
ATOM      1  N1  IND d   1       1.285   0.642   0.393  0.00  0.00    -0.196 N 
ATOM      2  C2  IND d   1       2.564   0.194   0.214  0.00  0.00     0.054 A 
ATOM      3  C3  IND d   1       2.620  -1.147   0.380  0.00  0.00    -0.031 A 
ATOM      4  C4  IND d   1       0.718  -2.817   0.847  0.00  0.00     0.051 A 
ATOM      5  C5  IND d   1      -0.619  -2.878   1.126  0.00  0.00    -0.031 A 
ATOM      6  C6  IND d   1      -1.405  -1.745   1.173  0.00  0.00     0.015 A 
ATOM      7  C7  IND d   1      -0.885  -0.505   0.931  0.00  0.00    -0.016 A 
ATOM      8  C8  IND d   1       0.474  -0.440   0.654  0.00  0.00    -0.047 A 
ATOM      9  C9  IND d   1       1.285  -1.581   0.647  0.00  0.00    -0.096 A 
ATOM     10  HN1 IND d   1       1.031   1.462   0.349  0.00  0.00     0.298 HD
ENDROOT
TORSDOF 0
ENDMDL
