MODEL 1
REMARK minimizedAffinity 4.21853733
REMARK minimizedRMSD -1
REMARK  0 active torsions:
REMARK  status: ('A' for Active; 'I' for Inactive)
ROOT
ATOM      1  N1  IND d   1      -0.787  -5.818  -5.944  0.00  0.00    -0.196 N 
ATOM      2  C2  IND d   1      -2.153  -5.883  -5.943  0.00  0.00     0.054 A 
ATOM      3  C3  IND d   1      -2.617  -5.999  -4.678  0.00  0.00    -0.031 A 
ATOM      4  C4  IND d   1      -1.322  -5.999  -2.454  0.00  0.00     0.051 A 
ATOM      5  C5  IND d   1      -0.053  -5.998  -1.946  0.00  0.00    -0.031 A 
ATOM      6  C6  IND d   1       1.059  -5.933  -2.761  0.00  0.00     0.015 A 
ATOM      7  C7  IND d   1       0.942  -5.854  -4.120  0.00  0.00    -0.016 A 
ATOM      8  C8  IND d   1      -0.345  -5.862  -4.640  0.00  0.00    -0.047 A 
ATOM      9  C9  IND d   1      -1.476  -5.971  -3.820  0.00  0.00    -0.096 A 
ATOM     10  HN1 IND d   1      -0.288  -5.759  -6.641  0.00  0.00     0.298 HD
ENDROOT
TORSDOF 0
ENDMDL
