MODEL 1
REMARK minimizedAffinity 0.814013183
REMARK minimizedRMSD -1
REMARK  0 active torsions:
REMARK  status: ('A' for Active; 'I' for Inactive)
ROOT
ATOM      1  N1  IND d   1       0.312   0.934   1.106  0.00  0.00    -0.196 N 
ATOM      2  C2  IND d   1       1.514   0.967   0.457  0.00  0.00     0.054 A 
ATOM      3  C3  IND d   1       1.851  -0.270   0.027  0.00  0.00    -0.031 A 
ATOM      4  C4  IND d   1       0.531  -2.474   0.189  0.00  0.00     0.051 A 
ATOM      5  C5  IND d   1      -0.605  -3.012   0.727  0.00  0.00    -0.031 A 
ATOM      6  C6  IND d   1      -1.512  -2.247   1.431  0.00  0.00     0.015 A 
ATOM      7  C7  IND d   1      -1.323  -0.906   1.613  0.00  0.00    -0.016 A 
ATOM      8  C8  IND d   1      -0.168  -0.358   1.075  0.00  0.00    -0.047 A 
ATOM      9  C9  IND d   1       0.778  -1.137   0.397  0.00  0.00    -0.096 A 
ATOM     10  HN1 IND d   1      -0.079   1.606   1.473  0.00  0.00     0.298 HD
ENDROOT
TORSDOF 0
ENDMDL
