MODEL 1
REMARK minimizedAffinity -4.45560694
REMARK minimizedRMSD -1
REMARK  0 active torsions:
REMARK  status: ('A' for Active; 'I' for Inactive)
ROOT
ATOM      1  N1  IND d   1      -2.575  -5.864  -4.876  0.00  0.00    -0.196 N 
ATOM      2  C2  IND d   1      -3.170  -6.000  -3.653  0.00  0.00     0.054 A 
ATOM      3  C3  IND d   1      -2.237  -5.999  -2.674  0.00  0.00    -0.031 A 
ATOM      4  C4  IND d   1       0.312  -5.685  -2.844  0.00  0.00     0.051 A 
ATOM      5  C5  IND d   1       1.324  -5.562  -3.754  0.00  0.00    -0.031 A 
ATOM      6  C6  IND d   1       1.083  -5.530  -5.113  0.00  0.00     0.015 A 
ATOM      7  C7  IND d   1      -0.186  -5.609  -5.613  0.00  0.00    -0.016 A 
ATOM      8  C8  IND d   1      -1.215  -5.741  -4.691  0.00  0.00    -0.047 A 
ATOM      9  C9  IND d   1      -0.973  -5.817  -3.314  0.00  0.00    -0.096 A 
ATOM     10  HN1 IND d   1      -2.982  -5.857  -5.634  0.00  0.00     0.298 HD
ENDROOT
TORSDOF 0
ENDMDL
