MODEL 1
REMARK minimizedAffinity 2.53531885
REMARK minimizedRMSD -1
REMARK  0 active torsions:
REMARK  status: ('A' for Active; 'I' for Inactive)
ROOT
ATOM      1  N1  IND d   1       0.749  -5.855  -4.524  0.00  0.00    -0.196 N 
ATOM      2  C2  IND d   1       0.418  -5.890  -5.850  0.00  0.00     0.054 A 
ATOM      3  C3  IND d   1      -0.923  -5.978  -5.997  0.00  0.00    -0.031 A 
ATOM      4  C4  IND d   1      -2.770  -5.978  -4.203  0.00  0.00     0.051 A 
ATOM      5  C5  IND d   1      -2.956  -5.999  -2.850  0.00  0.00    -0.031 A 
ATOM      6  C6  IND d   1      -1.896  -5.970  -1.967  0.00  0.00     0.015 A 
ATOM      7  C7  IND d   1      -0.604  -5.907  -2.407  0.00  0.00    -0.016 A 
ATOM      8  C8  IND d   1      -0.410  -5.893  -3.781  0.00  0.00    -0.047 A 
ATOM      9  C9  IND d   1      -1.481  -5.965  -4.682  0.00  0.00    -0.096 A 
ATOM     10  HN1 IND d   1       1.548  -5.817  -4.207  0.00  0.00     0.298 HD
ENDROOT
TORSDOF 0
ENDMDL
