MODEL 1
REMARK minimizedAffinity 8.25246525
REMARK minimizedRMSD -1
REMARK  0 active torsions:
REMARK  status: ('A' for Active; 'I' for Inactive)
ROOT
ATOM      1  N1  IND d   1       1.577   0.432   0.362  0.00  0.00    -0.196 N 
ATOM      2  C2  IND d   1       2.943   0.367   0.386  0.00  0.00     0.054 A 
ATOM      3  C3  IND d   1       3.350  -0.908   0.577  0.00  0.00    -0.031 A 
ATOM      4  C4  IND d   1       1.951  -3.060   0.775  0.00  0.00     0.051 A 
ATOM      5  C5  IND d   1       0.660  -3.502   0.848  0.00  0.00    -0.031 A 
ATOM      6  C6  IND d   1      -0.413  -2.639   0.759  0.00  0.00     0.015 A 
ATOM      7  C7  IND d   1      -0.234  -1.296   0.580  0.00  0.00    -0.016 A 
ATOM      8  C8  IND d   1       1.076  -0.843   0.512  0.00  0.00    -0.047 A 
ATOM      9  C9  IND d   1       2.169  -1.708   0.645  0.00  0.00    -0.096 A 
ATOM     10  HN1 IND d   1       1.110   1.148   0.268  0.00  0.00     0.298 HD
ENDROOT
TORSDOF 0
ENDMDL
