MODEL 1
REMARK minimizedAffinity 3.86863852
REMARK minimizedRMSD -1
REMARK  0 active torsions:
REMARK  status: ('A' for Active; 'I' for Inactive)
ROOT
ATOM      1  N1  IND d   1      -0.646  -5.968  -5.995  0.00  0.00    -0.196 N 
ATOM      2  C2  IND d   1       0.720  -5.930  -6.000  0.00  0.00     0.054 A 
ATOM      3  C3  IND d   1       1.195  -5.895  -4.734  0.00  0.00    -0.031 A 
ATOM      4  C4  IND d   1      -0.087  -5.996  -2.504  0.00  0.00     0.051 A 
ATOM      5  C5  IND d   1      -1.353  -6.000  -1.988  0.00  0.00    -0.031 A 
ATOM      6  C6  IND d   1      -2.470  -5.996  -2.798  0.00  0.00     0.015 A 
ATOM      7  C7  IND d   1      -2.363  -6.000  -4.160  0.00  0.00    -0.016 A 
ATOM      8  C8  IND d   1      -1.079  -5.988  -4.687  0.00  0.00    -0.047 A 
ATOM      9  C9  IND d   1       0.058  -5.949  -3.870  0.00  0.00    -0.096 A 
ATOM     10  HN1 IND d   1      -1.150  -5.977  -6.691  0.00  0.00     0.298 HD
ENDROOT
TORSDOF 0
ENDMDL
