MODEL 1
REMARK minimizedAffinity 3.16195822
REMARK minimizedRMSD -1
REMARK  2 active torsions:
REMARK  status: ('A' for Active; 'I' for Inactive)
REMARK    1  A    between atoms: C1_2  and  C2_3 
REMARK    2  A    between atoms: C2_3  and  C3_4 
ROOT
ATOM      1  C3  UNL d   1      -0.073   1.255   1.130  0.00  0.00    -0.075 A 
ATOM      2  C4  UNL d   1       0.446  -0.000   1.478  0.00  0.00     0.002 A 
ATOM      3  C5  UNL d   1       0.423  -1.055   0.566  0.00  0.00     0.002 A 
ATOM      4  C6  UNL d   1      -0.129  -0.872  -0.701  0.00  0.00    -0.004 A 
ATOM      5  C7  UNL d   1      -0.663   0.365  -1.052  0.00  0.00     0.002 A 
ATOM      6  C8  UNL d   1      -0.636   1.424  -0.142  0.00  0.00     0.002 A 
ENDROOT
BRANCH   1   7
ATOM      7  C2  UNL d   1      -0.024   2.408   2.103  0.00  0.00     0.056 C 
BRANCH   7   8
ATOM      8  C1  UNL d   1       1.330   3.123   2.155  0.00  0.00     0.007 C 
ATOM      9  C   UNL d   1       1.480   4.202   1.090  0.00  0.00     0.009 C 
ENDBRANCH   7   8
ENDBRANCH   1   7
TORSDOF 2
ENDMDL
