MODEL 1
REMARK minimizedAffinity -2.26709509
REMARK minimizedRMSD -1
REMARK  2 active torsions:
REMARK  status: ('A' for Active; 'I' for Inactive)
REMARK    1  A    between atoms: C1_2  and  C2_3 
REMARK    2  A    between atoms: C2_3  and  C3_4 
ROOT
ATOM      1  C3  UNL d   1       0.434   1.294   0.101  0.00  0.00    -0.075 A 
ATOM      2  C4  UNL d   1       0.169   1.114   1.466  0.00  0.00     0.002 A 
ATOM      3  C5  UNL d   1       0.652  -0.008   2.140  0.00  0.00     0.002 A 
ATOM      4  C6  UNL d   1       1.394  -0.968   1.456  0.00  0.00    -0.004 A 
ATOM      5  C7  UNL d   1       1.649  -0.808   0.096  0.00  0.00     0.002 A 
ATOM      6  C8  UNL d   1       1.171   0.316  -0.579  0.00  0.00     0.002 A 
ENDROOT
BRANCH   1   7
ATOM      7  C2  UNL d   1      -0.061   2.521  -0.627  0.00  0.00     0.056 C 
BRANCH   7   8
ATOM      8  C1  UNL d   1       0.128   3.827   0.153  0.00  0.00     0.007 C 
ATOM      9  C   UNL d   1       0.931   4.871  -0.611  0.00  0.00     0.009 C 
ENDBRANCH   7   8
ENDBRANCH   1   7
TORSDOF 2
ENDMDL
