MODEL 1
REMARK minimizedAffinity -0.744982481
REMARK minimizedRMSD -1
REMARK  2 active torsions:
REMARK  status: ('A' for Active; 'I' for Inactive)
REMARK    1  A    between atoms: C1_2  and  C2_3 
REMARK    2  A    between atoms: C2_3  and  C3_4 
ROOT
ATOM      1  C3  UNL d   1      -3.234   1.958  -0.707  0.00  0.00    -0.075 A 
ATOM      2  C4  UNL d   1      -2.760   2.998  -1.519  0.00  0.00     0.002 A 
ATOM      3  C5  UNL d   1      -3.645   3.768  -2.274  0.00  0.00     0.002 A 
ATOM      4  C6  UNL d   1      -5.012   3.502  -2.235  0.00  0.00    -0.004 A 
ATOM      5  C7  UNL d   1      -5.493   2.460  -1.445  0.00  0.00     0.002 A 
ATOM      6  C8  UNL d   1      -4.610   1.691  -0.685  0.00  0.00     0.002 A 
ENDROOT
BRANCH   1   7
ATOM      7  C2  UNL d   1      -2.284   1.141   0.135  0.00  0.00     0.056 C 
BRANCH   7   8
ATOM      8  C1  UNL d   1      -0.805   1.457  -0.108  0.00  0.00     0.007 C 
ATOM      9  C   UNL d   1       0.131   0.357   0.375  0.00  0.00     0.009 C 
ENDBRANCH   7   8
ENDBRANCH   1   7
TORSDOF 2
ENDMDL
