MODEL 1
REMARK minimizedAffinity -3.10582924
REMARK minimizedRMSD -1
REMARK  2 active torsions:
REMARK  status: ('A' for Active; 'I' for Inactive)
REMARK    1  A    between atoms: C1_2  and  C2_3 
REMARK    2  A    between atoms: C2_3  and  C3_4 
ROOT
ATOM      1  C3  UNL d   1       0.211   3.016   0.941  0.00  0.00    -0.075 A 
ATOM      2  C4  UNL d   1       0.110   2.480   2.233  0.00  0.00     0.002 A 
ATOM      3  C5  UNL d   1       0.255   1.109   2.444  0.00  0.00     0.002 A 
ATOM      4  C6  UNL d   1       0.494   0.257   1.368  0.00  0.00    -0.004 A 
ATOM      5  C7  UNL d   1       0.580   0.776   0.078  0.00  0.00     0.002 A 
ATOM      6  C8  UNL d   1       0.439   2.149  -0.136  0.00  0.00     0.002 A 
ENDROOT
BRANCH   1   7
ATOM      7  C2  UNL d   1       0.084   4.503   0.709  0.00  0.00     0.056 C 
BRANCH   7   8
ATOM      8  C1  UNL d   1       1.031   5.051  -0.364  0.00  0.00     0.007 C 
ATOM      9  C   UNL d   1       0.348   6.000  -1.340  0.00  0.00     0.009 C 
ENDBRANCH   7   8
ENDBRANCH   1   7
TORSDOF 2
ENDMDL
