MODEL 1
REMARK minimizedAffinity 0.285021544
REMARK minimizedRMSD -1
REMARK  2 active torsions:
REMARK  status: ('A' for Active; 'I' for Inactive)
REMARK    1  A    between atoms: C1_2  and  C2_3 
REMARK    2  A    between atoms: C2_3  and  C3_4 
ROOT
ATOM      1  C3  UNL d   1       0.982  -0.453   0.580  0.00  0.00    -0.075 A 
ATOM      2  C4  UNL d   1       1.010  -0.250   1.968  0.00  0.00     0.002 A 
ATOM      3  C5  UNL d   1       0.778   1.017   2.503  0.00  0.00     0.002 A 
ATOM      4  C6  UNL d   1       0.525   2.097   1.661  0.00  0.00    -0.004 A 
ATOM      5  C7  UNL d   1       0.511   1.911   0.280  0.00  0.00     0.002 A 
ATOM      6  C8  UNL d   1       0.739   0.643  -0.258  0.00  0.00     0.002 A 
ENDROOT
BRANCH   1   7
ATOM      7  C2  UNL d   1       1.204  -1.827  -0.004  0.00  0.00     0.056 C 
BRANCH   7   8
ATOM      8  C1  UNL d   1       0.013  -2.777   0.165  0.00  0.00     0.007 C 
ATOM      9  C   UNL d   1      -0.120  -3.781  -0.971  0.00  0.00     0.009 C 
ENDBRANCH   7   8
ENDBRANCH   1   7
TORSDOF 2
ENDMDL
