MODEL 1
REMARK minimizedAffinity 7.16851854
REMARK minimizedRMSD -1
REMARK  0 active torsions:
REMARK  status: ('A' for Active; 'I' for Inactive)
ROOT
ATOM      1  C   UNL d   1       1.834   1.322  -0.228  0.00  0.00    -0.002 A 
ATOM      2  C1  UNL d   1       1.878   2.708  -0.175  0.00  0.00     0.010 A 
ATOM      3  C2  UNL d   1       0.995   3.416   0.643  0.00  0.00     0.041 A 
ATOM      4  C3  UNL d   1       0.059   2.700   1.415  0.00  0.00    -0.075 A 
ATOM      5  S   UNL d   1      -1.120   3.355   2.489  0.00  0.00     0.015 SA
ATOM      6  C4  UNL d   1      -1.710   1.811   2.903  0.00  0.00     0.022 A 
ATOM      7  C5  UNL d   1      -1.035   0.808   2.247  0.00  0.00     0.026 A 
ATOM      8  C6  UNL d   1      -0.005   1.304   1.379  0.00  0.00    -0.082 A 
ATOM      9  C7  UNL d   1       0.904   0.616   0.539  0.00  0.00     0.045 A 
ENDROOT
TORSDOF 0
ENDMDL
