MODEL 1
REMARK minimizedAffinity 7.75901175
REMARK minimizedRMSD -1
REMARK  0 active torsions:
REMARK  status: ('A' for Active; 'I' for Inactive)
ROOT
ATOM      1  C   UNL d   1       2.323  -1.920  -0.257  0.00  0.00    -0.002 A 
ATOM      2  C1  UNL d   1       1.078  -1.953  -0.868  0.00  0.00     0.010 A 
ATOM      3  C2  UNL d   1       0.292  -0.801  -0.943  0.00  0.00     0.041 A 
ATOM      4  C3  UNL d   1       0.786   0.397  -0.390  0.00  0.00    -0.075 A 
ATOM      5  S   UNL d   1      -0.000   1.932  -0.366  0.00  0.00     0.015 SA
ATOM      6  C4  UNL d   1       1.300   2.668   0.455  0.00  0.00     0.022 A 
ATOM      7  C5  UNL d   1       2.316   1.779   0.713  0.00  0.00     0.026 A 
ATOM      8  C6  UNL d   1       2.037   0.456   0.229  0.00  0.00    -0.082 A 
ATOM      9  C7  UNL d   1       2.809  -0.729   0.290  0.00  0.00     0.045 A 
ENDROOT
TORSDOF 0
ENDMDL
