MODEL 1
REMARK minimizedAffinity 8.56841469
REMARK minimizedRMSD -1
REMARK  0 active torsions:
REMARK  status: ('A' for Active; 'I' for Inactive)
ROOT
ATOM      1  C   UNL d   1       3.467  -1.930   0.972  0.00  0.00    -0.002 A 
ATOM      2  C1  UNL d   1       2.699  -2.361  -0.100  0.00  0.00     0.010 A 
ATOM      3  C2  UNL d   1       1.788  -1.499  -0.714  0.00  0.00     0.041 A 
ATOM      4  C3  UNL d   1       1.662  -0.183  -0.229  0.00  0.00    -0.075 A 
ATOM      5  S   UNL d   1       0.613   1.049  -0.824  0.00  0.00     0.015 SA
ATOM      6  C4  UNL d   1       1.161   2.178   0.330  0.00  0.00     0.022 A 
ATOM      7  C5  UNL d   1       2.121   1.645   1.157  0.00  0.00     0.026 A 
ATOM      8  C6  UNL d   1       2.426   0.276   0.848  0.00  0.00    -0.082 A 
ATOM      9  C7  UNL d   1       3.340  -0.623   1.450  0.00  0.00     0.045 A 
ENDROOT
TORSDOF 0
ENDMDL
