MODEL 1
REMARK minimizedAffinity 4.3541317
REMARK minimizedRMSD -1
REMARK  0 active torsions:
REMARK  status: ('A' for Active; 'I' for Inactive)
ROOT
ATOM      1  C   UNL d   1       3.024  -0.496  -1.211  0.00  0.00    -0.002 A 
ATOM      2  C1  UNL d   1       2.798   0.795  -0.754  0.00  0.00     0.010 A 
ATOM      3  C2  UNL d   1       1.554   1.157  -0.236  0.00  0.00     0.041 A 
ATOM      4  C3  UNL d   1       0.530   0.191  -0.182  0.00  0.00    -0.075 A 
ATOM      5  S   UNL d   1      -1.074   0.407   0.413  0.00  0.00     0.015 SA
ATOM      6  C4  UNL d   1      -1.497  -1.209   0.075  0.00  0.00     0.022 A 
ATOM      7  C5  UNL d   1      -0.452  -1.911  -0.478  0.00  0.00     0.026 A 
ATOM      8  C6  UNL d   1       0.733  -1.116  -0.635  0.00  0.00    -0.082 A 
ATOM      9  C7  UNL d   1       2.006  -1.452  -1.156  0.00  0.00     0.045 A 
ENDROOT
TORSDOF 0
ENDMDL
