MODEL 1
REMARK minimizedAffinity 3.16238499
REMARK minimizedRMSD -1
REMARK  0 active torsions:
REMARK  status: ('A' for Active; 'I' for Inactive)
ROOT
ATOM      1  C   UNL d   1      -0.754  -1.801  -1.383  0.00  0.00    -0.002 A 
ATOM      2  C1  UNL d   1      -0.909  -0.422  -1.415  0.00  0.00     0.010 A 
ATOM      3  C2  UNL d   1       0.169   0.421  -1.140  0.00  0.00     0.041 A 
ATOM      4  C3  UNL d   1       1.419  -0.151  -0.831  0.00  0.00    -0.075 A 
ATOM      5  S   UNL d   1       2.881   0.685  -0.461  0.00  0.00     0.015 SA
ATOM      6  C4  UNL d   1       3.747  -0.768  -0.252  0.00  0.00     0.022 A 
ATOM      7  C5  UNL d   1       2.955  -1.874  -0.456  0.00  0.00     0.026 A 
ATOM      8  C6  UNL d   1       1.601  -1.536  -0.793  0.00  0.00    -0.082 A 
ATOM      9  C7  UNL d   1       0.488  -2.364  -1.076  0.00  0.00     0.045 A 
ENDROOT
TORSDOF 0
ENDMDL
