MODEL 1
REMARK minimizedAffinity 4.76076174
REMARK minimizedRMSD -1
REMARK  0 active torsions:
REMARK  status: ('A' for Active; 'I' for Inactive)
ROOT
ATOM      1  C2' OXE d   1       2.541  -0.927  -0.650  0.00  0.00     0.078 C 
ATOM      2  C1' OXE d   1       0.165  -0.876  -2.145  0.00  0.00     0.078 C 
ATOM      3  C1  OXE d   1       0.475  -2.125  -1.358  0.00  0.00    -0.078 A 
ATOM      4  C2  OXE d   1       1.662  -2.159  -0.667  0.00  0.00    -0.078 A 
ATOM      5  C3  OXE d   1       1.971  -3.265   0.119  0.00  0.00     0.003 A 
ATOM      6  C4  OXE d   1       1.157  -4.404   0.090  0.00  0.00    -0.002 A 
ATOM      7  C5  OXE d   1      -0.037  -4.406  -0.639  0.00  0.00    -0.002 A 
ATOM      8  C6  OXE d   1      -0.413  -3.261  -1.333  0.00  0.00     0.003 A 
ENDROOT
TORSDOF 0
ENDMDL
