MODEL 1
REMARK minimizedAffinity 4.71698523
REMARK minimizedRMSD -1
REMARK  0 active torsions:
REMARK  status: ('A' for Active; 'I' for Inactive)
ROOT
ATOM      1  C2' OXE d   1       0.269  -3.622   1.318  0.00  0.00     0.078 C 
ATOM      2  C1' OXE d   1      -1.195  -3.571  -1.076  0.00  0.00     0.078 C 
ATOM      3  C1  OXE d   1       0.109  -2.814  -1.033  0.00  0.00    -0.078 A 
ATOM      4  C2  OXE d   1       0.795  -2.805   0.157  0.00  0.00    -0.078 A 
ATOM      5  C3  OXE d   1       2.030  -2.168   0.236  0.00  0.00     0.003 A 
ATOM      6  C4  OXE d   1       2.505  -1.407  -0.839  0.00  0.00    -0.002 A 
ATOM      7  C5  OXE d   1       1.801  -1.369  -2.047  0.00  0.00    -0.002 A 
ATOM      8  C6  OXE d   1       0.626  -2.100  -2.174  0.00  0.00     0.003 A 
ENDROOT
TORSDOF 0
ENDMDL
