MODEL 1
REMARK minimizedAffinity 4.03469133
REMARK minimizedRMSD -1
REMARK  0 active torsions:
REMARK  status: ('A' for Active; 'I' for Inactive)
ROOT
ATOM      1  C2' OXE d   1       1.430   2.390   0.342  0.00  0.00     0.078 C 
ATOM      2  C1' OXE d   1       0.740   0.816   2.561  0.00  0.00     0.078 C 
ATOM      3  C1  OXE d   1       2.008   1.628   2.642  0.00  0.00    -0.078 A 
ATOM      4  C2  OXE d   1       2.363   2.359   1.533  0.00  0.00    -0.078 A 
ATOM      5  C3  OXE d   1       3.495   3.168   1.574  0.00  0.00     0.003 A 
ATOM      6  C4  OXE d   1       4.357   3.125   2.676  0.00  0.00    -0.002 A 
ATOM      7  C5  OXE d   1       4.036   2.357   3.800  0.00  0.00    -0.002 A 
ATOM      8  C6  OXE d   1       2.846   1.637   3.816  0.00  0.00     0.003 A 
ENDROOT
TORSDOF 0
ENDMDL
