MODEL 1
REMARK minimizedAffinity 6.24727678
REMARK minimizedRMSD -1
REMARK  0 active torsions:
REMARK  status: ('A' for Active; 'I' for Inactive)
ROOT
ATOM      1  C2' OXE d   1      -1.276  -2.999  -0.799  0.00  0.00     0.078 C 
ATOM      2  C1' OXE d   1      -0.919  -0.378  -1.739  0.00  0.00     0.078 C 
ATOM      3  C1  OXE d   1       0.286  -1.097  -1.184  0.00  0.00    -0.078 A 
ATOM      4  C2  OXE d   1       0.092  -2.362  -0.684  0.00  0.00    -0.078 A 
ATOM      5  C3  OXE d   1       1.180  -3.090  -0.210  0.00  0.00     0.003 A 
ATOM      6  C4  OXE d   1       2.440  -2.489  -0.097  0.00  0.00    -0.002 A 
ATOM      7  C5  OXE d   1       2.650  -1.188  -0.565  0.00  0.00    -0.002 A 
ATOM      8  C6  OXE d   1       1.596  -0.494  -1.148  0.00  0.00     0.003 A 
ENDROOT
TORSDOF 0
ENDMDL
