MODEL 1
REMARK minimizedAffinity 3.64717793
REMARK minimizedRMSD -1
REMARK  0 active torsions:
REMARK  status: ('A' for Active; 'I' for Inactive)
ROOT
ATOM      1  C2' OXE d   1      -2.483   2.084   2.296  0.00  0.00     0.078 C 
ATOM      2  C1' OXE d   1      -0.367   0.976   3.771  0.00  0.00     0.078 C 
ATOM      3  C1  OXE d   1      -0.095   1.375   2.342  0.00  0.00    -0.078 A 
ATOM      4  C2  OXE d   1      -1.149   1.873   1.613  0.00  0.00    -0.078 A 
ATOM      5  C3  OXE d   1      -0.939   2.308   0.307  0.00  0.00     0.003 A 
ATOM      6  C4  OXE d   1       0.295   2.100  -0.320  0.00  0.00    -0.002 A 
ATOM      7  C5  OXE d   1       1.370   1.558   0.392  0.00  0.00    -0.002 A 
ATOM      8  C6  OXE d   1       1.204   1.230   1.733  0.00  0.00     0.003 A 
ENDROOT
TORSDOF 0
ENDMDL
