MODEL 1
REMARK minimizedAffinity 6.50651741
REMARK minimizedRMSD -1
REMARK  0 active torsions:
REMARK  status: ('A' for Active; 'I' for Inactive)
ROOT
ATOM      1  C2' OXE d   1       0.168   1.735  -0.178  0.00  0.00     0.078 C 
ATOM      2  C1' OXE d   1       2.918   1.922   0.356  0.00  0.00     0.078 C 
ATOM      3  C1  OXE d   1       2.348   0.555   0.073  0.00  0.00    -0.078 A 
ATOM      4  C2  OXE d   1       0.993   0.466  -0.142  0.00  0.00    -0.078 A 
ATOM      5  C3  OXE d   1       0.425  -0.763  -0.461  0.00  0.00     0.003 A 
ATOM      6  C4  OXE d   1       1.193  -1.933  -0.416  0.00  0.00    -0.002 A 
ATOM      7  C5  OXE d   1       2.567  -1.870  -0.160  0.00  0.00    -0.002 A 
ATOM      8  C6  OXE d   1       3.166  -0.632   0.043  0.00  0.00     0.003 A 
ENDROOT
TORSDOF 0
ENDMDL
