MODEL 1
REMARK minimizedAffinity 5.08829689
REMARK minimizedRMSD -1
REMARK  0 active torsions:
REMARK  status: ('A' for Active; 'I' for Inactive)
ROOT
ATOM      1  C2' OXE d   1       0.379   1.112  -1.387  0.00  0.00     0.078 C 
ATOM      2  C1' OXE d   1       2.401  -0.282  -0.028  0.00  0.00     0.078 C 
ATOM      3  C1  OXE d   1       1.339   0.400   0.798  0.00  0.00    -0.078 A 
ATOM      4  C2  OXE d   1       0.380   1.119   0.126  0.00  0.00    -0.078 A 
ATOM      5  C3  OXE d   1      -0.653   1.723   0.837  0.00  0.00     0.003 A 
ATOM      6  C4  OXE d   1      -0.639   1.733   2.237  0.00  0.00    -0.002 A 
ATOM      7  C5  OXE d   1       0.351   1.040   2.942  0.00  0.00    -0.002 A 
ATOM      8  C6  OXE d   1       1.321   0.334   2.239  0.00  0.00     0.003 A 
ENDROOT
TORSDOF 0
ENDMDL
