MODEL 1
REMARK minimizedAffinity 3.9768517
REMARK minimizedRMSD -1
REMARK  0 active torsions:
REMARK  status: ('A' for Active; 'I' for Inactive)
ROOT
ATOM      1  C2' OXE d   1       5.999   1.914   0.734  0.00  0.00     0.078 C 
ATOM      2  C1' OXE d   1       6.000   2.459  -2.020  0.00  0.00     0.078 C 
ATOM      3  C1  OXE d   1       5.040   1.414  -1.510  0.00  0.00    -0.078 A 
ATOM      4  C2  OXE d   1       5.079   1.120  -0.168  0.00  0.00    -0.078 A 
ATOM      5  C3  OXE d   1       4.177   0.203   0.363  0.00  0.00     0.003 A 
ATOM      6  C4  OXE d   1       3.336  -0.534  -0.479  0.00  0.00    -0.002 A 
ATOM      7  C5  OXE d   1       3.308  -0.279  -1.854  0.00  0.00    -0.002 A 
ATOM      8  C6  OXE d   1       4.122   0.720  -2.379  0.00  0.00     0.003 A 
ENDROOT
TORSDOF 0
ENDMDL
