MODEL 1
REMARK minimizedAffinity 7.40866232
REMARK minimizedRMSD -1
REMARK  0 active torsions:
REMARK  status: ('A' for Active; 'I' for Inactive)
ROOT
ATOM      1  O1  BZF d   1       2.213  -0.559   3.943  0.00  0.00    -0.204 OA
ATOM      2  C2  BZF d   1       1.499  -1.033   5.026  0.00  0.00     0.174 A 
ATOM      3  C3  BZF d   1       0.385  -0.300   5.223  0.00  0.00    -0.012 A 
ATOM      4  C3A BZF d   1       0.356   0.638   4.143  0.00  0.00    -0.107 A 
ATOM      5  C4  BZF d   1      -0.515   1.625   3.780  0.00  0.00     0.055 A 
ATOM      6  C5  BZF d   1      -0.215   2.410   2.711  0.00  0.00    -0.016 A 
ATOM      7  C6  BZF d   1       0.947   2.239   1.988  0.00  0.00     0.022 A 
ATOM      8  C7  BZF d   1       1.838   1.270   2.307  0.00  0.00     0.029 A 
ATOM      9  C7A BZF d   1       1.523   0.454   3.366  0.00  0.00     0.058 A 
ENDROOT
TORSDOF 0
ENDMDL
