MODEL 1
REMARK minimizedAffinity 8.03942871
REMARK minimizedRMSD -1
REMARK  0 active torsions:
REMARK  status: ('A' for Active; 'I' for Inactive)
ROOT
ATOM      1  O1  BZF d   1      -1.414   1.664   0.595  0.00  0.00    -0.204 OA
ATOM      2  C2  BZF d   1      -1.678   0.596  -0.240  0.00  0.00     0.174 A 
ATOM      3  C3  BZF d   1      -0.806  -0.410  -0.020  0.00  0.00    -0.012 A 
ATOM      4  C3A BZF d   1      -0.001   0.024   1.081  0.00  0.00    -0.107 A 
ATOM      5  C4  BZF d   1       1.029  -0.546   1.773  0.00  0.00     0.055 A 
ATOM      6  C5  BZF d   1       1.647   0.171   2.747  0.00  0.00    -0.016 A 
ATOM      7  C6  BZF d   1       1.265   1.461   3.052  0.00  0.00     0.022 A 
ATOM      8  C7  BZF d   1       0.245   2.067   2.397  0.00  0.00     0.029 A 
ATOM      9  C7A BZF d   1      -0.404   1.333   1.435  0.00  0.00     0.058 A 
ENDROOT
TORSDOF 0
ENDMDL
