MODEL 1
REMARK minimizedAffinity 0.618513942
REMARK minimizedRMSD -1
REMARK  0 active torsions:
REMARK  status: ('A' for Active; 'I' for Inactive)
ROOT
ATOM      1  O1  BZF d   1      -0.381  -1.393  -0.297  0.00  0.00    -0.204 OA
ATOM      2  C2  BZF d   1      -1.470  -1.845   0.423  0.00  0.00     0.174 A 
ATOM      3  C3  BZF d   1      -1.229  -1.773   1.748  0.00  0.00    -0.012 A 
ATOM      4  C3A BZF d   1       0.057  -1.157   1.865  0.00  0.00    -0.107 A 
ATOM      5  C4  BZF d   1       0.834  -0.801   2.929  0.00  0.00     0.055 A 
ATOM      6  C5  BZF d   1       2.070  -0.285   2.701  0.00  0.00    -0.016 A 
ATOM      7  C6  BZF d   1       2.562  -0.117   1.423  0.00  0.00     0.022 A 
ATOM      8  C7  BZF d   1       1.826  -0.451   0.336  0.00  0.00     0.029 A 
ATOM      9  C7A BZF d   1       0.563  -0.941   0.562  0.00  0.00     0.058 A 
ENDROOT
TORSDOF 0
ENDMDL
