MODEL 1
REMARK minimizedAffinity 1.72467983
REMARK minimizedRMSD -1
REMARK  0 active torsions:
REMARK  status: ('A' for Active; 'I' for Inactive)
ROOT
ATOM      1  O1  BZF d   1      -5.949   5.896  -4.092  0.00  0.00    -0.204 OA
ATOM      2  C2  BZF d   1      -5.920   5.951  -5.472  0.00  0.00     0.174 A 
ATOM      3  C3  BZF d   1      -5.868   4.711  -6.000  0.00  0.00    -0.012 A 
ATOM      4  C3A BZF d   1      -5.958   3.822  -4.882  0.00  0.00    -0.107 A 
ATOM      5  C4  BZF d   1      -5.974   2.462  -4.763  0.00  0.00     0.055 A 
ATOM      6  C5  BZF d   1      -5.996   1.908  -3.523  0.00  0.00    -0.016 A 
ATOM      7  C6  BZF d   1      -5.996   2.682  -2.381  0.00  0.00     0.022 A 
ATOM      8  C7  BZF d   1      -5.985   4.036  -2.448  0.00  0.00     0.029 A 
ATOM      9  C7A BZF d   1      -5.997   4.599  -3.701  0.00  0.00     0.058 A 
ENDROOT
TORSDOF 0
ENDMDL
