MODEL 1
REMARK minimizedAffinity 0.490833908
REMARK minimizedRMSD -1
REMARK  0 active torsions:
REMARK  status: ('A' for Active; 'I' for Inactive)
ROOT
ATOM      1  O1  BZF d   1      -0.742  -0.771  -2.443  0.00  0.00    -0.204 OA
ATOM      2  C2  BZF d   1      -0.842   0.364  -1.660  0.00  0.00     0.174 A 
ATOM      3  C3  BZF d   1      -1.190   0.044  -0.397  0.00  0.00    -0.012 A 
ATOM      4  C3A BZF d   1      -1.225  -1.386  -0.367  0.00  0.00    -0.107 A 
ATOM      5  C4  BZF d   1      -1.492  -2.298   0.614  0.00  0.00     0.055 A 
ATOM      6  C5  BZF d   1      -1.513  -3.620   0.299  0.00  0.00    -0.016 A 
ATOM      7  C6  BZF d   1      -1.278  -4.064  -0.985  0.00  0.00     0.022 A 
ATOM      8  C7  BZF d   1      -1.003  -3.197  -1.991  0.00  0.00     0.029 A 
ATOM      9  C7A BZF d   1      -0.949  -1.863  -1.669  0.00  0.00     0.058 A 
ENDROOT
TORSDOF 0
ENDMDL
