MODEL 1
REMARK minimizedAffinity 6.31354284
REMARK minimizedRMSD -1
REMARK  0 active torsions:
REMARK  status: ('A' for Active; 'I' for Inactive)
ROOT
ATOM      1  O1  BZF d   1      -2.342   0.828  -1.094  0.00  0.00    -0.204 OA
ATOM      2  C2  BZF d   1      -3.157   1.247  -0.061  0.00  0.00     0.174 A 
ATOM      3  C3  BZF d   1      -2.506   1.185   1.119  0.00  0.00    -0.012 A 
ATOM      4  C3A BZF d   1      -1.172   0.784   0.791  0.00  0.00    -0.107 A 
ATOM      5  C4  BZF d   1      -0.048   0.563   1.535  0.00  0.00     0.055 A 
ATOM      6  C5  BZF d   1       1.074   0.109   0.917  0.00  0.00    -0.016 A 
ATOM      7  C6  BZF d   1       1.106  -0.140  -0.439  0.00  0.00     0.022 A 
ATOM      8  C7  BZF d   1       0.018   0.068  -1.219  0.00  0.00     0.029 A 
ATOM      9  C7A BZF d   1      -1.108   0.559  -0.604  0.00  0.00     0.058 A 
ENDROOT
TORSDOF 0
ENDMDL
