MODEL 1
REMARK minimizedAffinity 3.05418134
REMARK minimizedRMSD -1
REMARK  0 active torsions:
REMARK  status: ('A' for Active; 'I' for Inactive)
ROOT
ATOM      1  O1  BZF d   1      -2.596  -1.312  -0.573  0.00  0.00    -0.204 OA
ATOM      2  C2  BZF d   1      -2.625  -2.550   0.041  0.00  0.00     0.174 A 
ATOM      3  C3  BZF d   1      -1.465  -2.790   0.687  0.00  0.00    -0.012 A 
ATOM      4  C3A BZF d   1      -0.698  -1.591   0.540  0.00  0.00    -0.107 A 
ATOM      5  C4  BZF d   1       0.539  -1.209   0.976  0.00  0.00     0.055 A 
ATOM      6  C5  BZF d   1       1.027   0.002   0.599  0.00  0.00    -0.016 A 
ATOM      7  C6  BZF d   1       0.309   0.852  -0.217  0.00  0.00     0.022 A 
ATOM      8  C7  BZF d   1      -0.923   0.519  -0.671  0.00  0.00     0.029 A 
ATOM      9  C7A BZF d   1      -1.433  -0.690  -0.264  0.00  0.00     0.058 A 
ENDROOT
TORSDOF 0
ENDMDL
