MODEL 1
REMARK minimizedAffinity 6.75496149
REMARK minimizedRMSD -1
REMARK  0 active torsions:
REMARK  status: ('A' for Active; 'I' for Inactive)
ROOT
ATOM      1  O1  BZF d   1      -6.000   5.969  -4.720  0.00  0.00    -0.204 OA
ATOM      2  C2  BZF d   1      -5.289   5.965  -5.905  0.00  0.00     0.174 A 
ATOM      3  C3  BZF d   1      -3.963   5.919  -5.667  0.00  0.00    -0.012 A 
ATOM      4  C3A BZF d   1      -3.839   5.798  -4.246  0.00  0.00    -0.107 A 
ATOM      5  C4  BZF d   1      -2.771   5.692  -3.402  0.00  0.00     0.055 A 
ATOM      6  C5  BZF d   1      -2.989   5.665  -2.061  0.00  0.00    -0.016 A 
ATOM      7  C6  BZF d   1      -4.260   5.747  -1.530  0.00  0.00     0.022 A 
ATOM      8  C7  BZF d   1      -5.351   5.849  -2.328  0.00  0.00     0.029 A 
ATOM      9  C7A BZF d   1      -5.136   5.843  -3.684  0.00  0.00     0.058 A 
ENDROOT
TORSDOF 0
ENDMDL
