MODEL 1
REMARK minimizedAffinity 10.6187191
REMARK minimizedRMSD -1
REMARK  0 active torsions:
REMARK  status: ('A' for Active; 'I' for Inactive)
ROOT
ATOM      1  O1  BZF d   1      -0.380  -2.966  -0.710  0.00  0.00    -0.204 OA
ATOM      2  C2  BZF d   1      -0.554  -4.306  -0.994  0.00  0.00     0.174 A 
ATOM      3  C3  BZF d   1      -1.659  -4.498  -1.742  0.00  0.00    -0.012 A 
ATOM      4  C3A BZF d   1      -2.160  -3.185  -2.016  0.00  0.00    -0.107 A 
ATOM      5  C4  BZF d   1      -3.228  -2.717  -2.727  0.00  0.00     0.055 A 
ATOM      6  C5  BZF d   1      -3.480  -1.382  -2.738  0.00  0.00    -0.016 A 
ATOM      7  C6  BZF d   1      -2.689  -0.488  -2.046  0.00  0.00     0.022 A 
ATOM      8  C7  BZF d   1      -1.615  -0.905  -1.331  0.00  0.00     0.029 A 
ATOM      9  C7A BZF d   1      -1.339  -2.250  -1.345  0.00  0.00     0.058 A 
ENDROOT
TORSDOF 0
ENDMDL
