MODEL 1
REMARK minimizedAffinity 4.49277687
REMARK minimizedRMSD -1
REMARK  0 active torsions:
REMARK  status: ('A' for Active; 'I' for Inactive)
ROOT
ATOM      1  O1  BZF d   1      -1.816  -0.628  -0.451  0.00  0.00    -0.204 OA
ATOM      2  C2  BZF d   1      -2.422   0.611  -0.366  0.00  0.00     0.174 A 
ATOM      3  C3  BZF d   1      -1.648   1.476   0.320  0.00  0.00    -0.012 A 
ATOM      4  C3A BZF d   1      -0.444   0.757   0.608  0.00  0.00    -0.107 A 
ATOM      5  C4  BZF d   1       0.714   1.086   1.253  0.00  0.00     0.055 A 
ATOM      6  C5  BZF d   1       1.665   0.131   1.428  0.00  0.00    -0.016 A 
ATOM      7  C6  BZF d   1       1.490  -1.160   0.977  0.00  0.00     0.022 A 
ATOM      8  C7  BZF d   1       0.360  -1.532   0.327  0.00  0.00     0.029 A 
ATOM      9  C7A BZF d   1      -0.589  -0.562   0.119  0.00  0.00     0.058 A 
ENDROOT
TORSDOF 0
ENDMDL
