MODEL 1
REMARK minimizedAffinity 5.78156137
REMARK minimizedRMSD -1
REMARK  0 active torsions:
REMARK  status: ('A' for Active; 'I' for Inactive)
ROOT
ATOM      1  O1  BZF d   1      -0.404   1.245  -0.494  0.00  0.00    -0.204 OA
ATOM      2  C2  BZF d   1       0.679   0.392  -0.408  0.00  0.00     0.174 A 
ATOM      3  C3  BZF d   1       0.297  -0.824   0.033  0.00  0.00    -0.012 A 
ATOM      4  C3A BZF d   1      -1.128  -0.752   0.148  0.00  0.00    -0.107 A 
ATOM      5  C4  BZF d   1      -2.086  -1.649   0.523  0.00  0.00     0.055 A 
ATOM      6  C5  BZF d   1      -3.380  -1.241   0.598  0.00  0.00    -0.016 A 
ATOM      7  C6  BZF d   1      -3.750   0.056   0.310  0.00  0.00     0.022 A 
ATOM      8  C7  BZF d   1      -2.836   0.981  -0.072  0.00  0.00     0.029 A 
ATOM      9  C7A BZF d   1      -1.532   0.563  -0.181  0.00  0.00     0.058 A 
ENDROOT
TORSDOF 0
ENDMDL
