MODEL 1
REMARK minimizedAffinity 4.04907274
REMARK minimizedRMSD -1
REMARK  0 active torsions:
REMARK  status: ('A' for Active; 'I' for Inactive)
ROOT
ATOM      1  C1  BNZ d   1       6.000  -1.641   1.234  0.00  0.00     0.000 A 
ATOM      2  C2  BNZ d   1       5.998  -2.246   0.005  0.00  0.00     0.000 A 
ATOM      3  C3  BNZ d   1       4.823  -2.541  -0.627  0.00  0.00     0.000 A 
ATOM      4  C4  BNZ d   1       3.653  -2.270  -0.013  0.00  0.00     0.000 A 
ATOM      5  C5  BNZ d   1       3.638  -1.670   1.230  0.00  0.00     0.000 A 
ATOM      6  C6  BNZ d   1       4.823  -1.338   1.846  0.00  0.00     0.000 A 
ENDROOT
TORSDOF 0
ENDMDL
