MODEL 1
REMARK minimizedAffinity 3.81080389
REMARK minimizedRMSD -1
REMARK  0 active torsions:
REMARK  status: ('A' for Active; 'I' for Inactive)
ROOT
ATOM      1  C1  BNZ d   1       4.500  -4.774  -1.665  0.00  0.00     0.000 A 
ATOM      2  C2  BNZ d   1       5.267  -4.264  -0.651  0.00  0.00     0.000 A 
ATOM      3  C3  BNZ d   1       5.999  -3.125  -0.832  0.00  0.00     0.000 A 
ATOM      4  C4  BNZ d   1       5.996  -2.519  -2.038  0.00  0.00     0.000 A 
ATOM      5  C5  BNZ d   1       5.236  -3.026  -3.072  0.00  0.00     0.000 A 
ATOM      6  C6  BNZ d   1       4.469  -4.152  -2.874  0.00  0.00     0.000 A 
ENDROOT
TORSDOF 0
ENDMDL
