MODEL 1
REMARK minimizedAffinity 1.22014749
REMARK minimizedRMSD -1
REMARK  0 active torsions:
REMARK  status: ('A' for Active; 'I' for Inactive)
ROOT
ATOM      1  C1  BNZ d   1      -0.769   4.103   0.611  0.00  0.00     0.000 A 
ATOM      2  C2  BNZ d   1      -1.583   3.555   1.566  0.00  0.00     0.000 A 
ATOM      3  C3  BNZ d   1      -1.182   2.465   2.286  0.00  0.00     0.000 A 
ATOM      4  C4  BNZ d   1       0.014   1.900   2.023  0.00  0.00     0.000 A 
ATOM      5  C5  BNZ d   1       0.842   2.435   1.056  0.00  0.00     0.000 A 
ATOM      6  C6  BNZ d   1       0.452   3.557   0.361  0.00  0.00     0.000 A 
ENDROOT
TORSDOF 0
ENDMDL
