MODEL 1
REMARK minimizedAffinity 2.55150986
REMARK minimizedRMSD -1
REMARK  0 active torsions:
REMARK  status: ('A' for Active; 'I' for Inactive)
ROOT
ATOM      1  C1  BNZ d   1      -0.651   2.014   2.661  0.00  0.00     0.000 A 
ATOM      2  C2  BNZ d   1      -0.080   0.998   3.380  0.00  0.00     0.000 A 
ATOM      3  C3  BNZ d   1       1.009   0.326   2.899  0.00  0.00     0.000 A 
ATOM      4  C4  BNZ d   1       1.500   0.643   1.684  0.00  0.00     0.000 A 
ATOM      5  C5  BNZ d   1       0.930   1.659   0.943  0.00  0.00     0.000 A 
ATOM      6  C6  BNZ d   1      -0.142   2.360   1.447  0.00  0.00     0.000 A 
ENDROOT
TORSDOF 0
ENDMDL
