MODEL 1
REMARK minimizedAffinity 5.31201077
REMARK minimizedRMSD -1
REMARK  0 active torsions:
REMARK  status: ('A' for Active; 'I' for Inactive)
ROOT
ATOM      1  C1  BNZ d   1       5.288  -3.241  -2.574  0.00  0.00     0.000 A 
ATOM      2  C2  BNZ d   1       4.358  -3.977  -3.257  0.00  0.00     0.000 A 
ATOM      3  C3  BNZ d   1       3.793  -5.088  -2.694  0.00  0.00     0.000 A 
ATOM      4  C4  BNZ d   1       4.188  -5.482  -1.467  0.00  0.00     0.000 A 
ATOM      5  C5  BNZ d   1       5.132  -4.755  -0.769  0.00  0.00     0.000 A 
ATOM      6  C6  BNZ d   1       5.670  -3.616  -1.323  0.00  0.00     0.000 A 
ENDROOT
TORSDOF 0
ENDMDL
