MODEL 1
REMARK minimizedAffinity 6.17330599
REMARK minimizedRMSD -1
REMARK  0 active torsions:
REMARK  status: ('A' for Active; 'I' for Inactive)
ROOT
ATOM      1  C1  BNZ d   1      -1.184  -0.792  -1.489  0.00  0.00     0.000 A 
ATOM      2  C2  BNZ d   1      -2.004  -0.031  -0.699  0.00  0.00     0.000 A 
ATOM      3  C3  BNZ d   1      -2.814   0.924  -1.246  0.00  0.00     0.000 A 
ATOM      4  C4  BNZ d   1      -2.774   1.144  -2.576  0.00  0.00     0.000 A 
ATOM      5  C5  BNZ d   1      -1.946   0.392  -3.385  0.00  0.00     0.000 A 
ATOM      6  C6  BNZ d   1      -1.161  -0.595  -2.835  0.00  0.00     0.000 A 
ENDROOT
TORSDOF 0
ENDMDL
