MODEL 1
REMARK minimizedAffinity 7.94648695
REMARK minimizedRMSD -1
REMARK  0 active torsions:
REMARK  status: ('A' for Active; 'I' for Inactive)
ROOT
ATOM      1  C1  BNZ d   1       0.748   1.967   1.688  0.00  0.00     0.000 A 
ATOM      2  C2  BNZ d   1       1.537   1.136   2.437  0.00  0.00     0.000 A 
ATOM      3  C3  BNZ d   1       0.995   0.347   3.413  0.00  0.00     0.000 A 
ATOM      4  C4  BNZ d   1      -0.328   0.419   3.664  0.00  0.00     0.000 A 
ATOM      5  C5  BNZ d   1      -1.136   1.258   2.923  0.00  0.00     0.000 A 
ATOM      6  C6  BNZ d   1      -0.593   2.022   1.916  0.00  0.00     0.000 A 
ENDROOT
TORSDOF 0
ENDMDL
