MODEL 1
REMARK minimizedAffinity 1.70786965
REMARK minimizedRMSD -1
REMARK  0 active torsions:
REMARK  status: ('A' for Active; 'I' for Inactive)
ROOT
ATOM      1  C1  BNZ d   1      -1.632  -0.062  -1.412  0.00  0.00     0.000 A 
ATOM      2  C2  BNZ d   1      -1.997   1.045  -0.693  0.00  0.00     0.000 A 
ATOM      3  C3  BNZ d   1      -1.055   1.920  -0.228  0.00  0.00     0.000 A 
ATOM      4  C4  BNZ d   1       0.251   1.666  -0.447  0.00  0.00     0.000 A 
ATOM      5  C5  BNZ d   1       0.636   0.549  -1.162  0.00  0.00     0.000 A 
ATOM      6  C6  BNZ d   1      -0.317  -0.309  -1.662  0.00  0.00     0.000 A 
ENDROOT
TORSDOF 0
ENDMDL
