MODEL 1
REMARK minimizedAffinity 6.80618763
REMARK minimizedRMSD -1
REMARK  0 active torsions:
REMARK  status: ('A' for Active; 'I' for Inactive)
ROOT
ATOM      1  C1  BNZ d   1       1.493   2.265   1.803  0.00  0.00     0.000 A 
ATOM      2  C2  BNZ d   1       0.319   2.243   1.099  0.00  0.00     0.000 A 
ATOM      3  C3  BNZ d   1      -0.058   3.310   0.333  0.00  0.00     0.000 A 
ATOM      4  C4  BNZ d   1       0.718   4.413   0.304  0.00  0.00     0.000 A 
ATOM      5  C5  BNZ d   1       1.900   4.454   1.017  0.00  0.00     0.000 A 
ATOM      6  C6  BNZ d   1       2.296   3.363   1.756  0.00  0.00     0.000 A 
ENDROOT
TORSDOF 0
ENDMDL
