MODEL 1
REMARK minimizedAffinity 0.0807371363
REMARK minimizedRMSD -1
REMARK  0 active torsions:
REMARK  status: ('A' for Active; 'I' for Inactive)
ROOT
ATOM      1  C1  BNZ d   1       0.409   0.428   4.213  0.00  0.00     0.000 A 
ATOM      2  C2  BNZ d   1       0.159  -0.391   5.282  0.00  0.00     0.000 A 
ATOM      3  C3  BNZ d   1       0.980  -1.448   5.561  0.00  0.00     0.000 A 
ATOM      4  C4  BNZ d   1       2.024  -1.709   4.749  0.00  0.00     0.000 A 
ATOM      5  C5  BNZ d   1       2.284  -0.898   3.662  0.00  0.00     0.000 A 
ATOM      6  C6  BNZ d   1       1.479   0.188   3.407  0.00  0.00     0.000 A 
ENDROOT
TORSDOF 0
ENDMDL
