MODEL 1
REMARK minimizedAffinity 1.60852873
REMARK minimizedRMSD -1
REMARK  0 active torsions:
REMARK  status: ('A' for Active; 'I' for Inactive)
ROOT
ATOM      1  C1  BNZ d   1       2.818  -6.000  -1.905  0.00  0.00     0.000 A 
ATOM      2  C2  BNZ d   1       4.175  -5.817  -1.876  0.00  0.00     0.000 A 
ATOM      3  C3  BNZ d   1       4.828  -5.250  -2.934  0.00  0.00     0.000 A 
ATOM      4  C4  BNZ d   1       4.130  -4.903  -4.035  0.00  0.00     0.000 A 
ATOM      5  C5  BNZ d   1       2.763  -5.090  -4.083  0.00  0.00     0.000 A 
ATOM      6  C6  BNZ d   1       2.104  -5.625  -3.001  0.00  0.00     0.000 A 
ENDROOT
TORSDOF 0
ENDMDL
