MODEL 1
REMARK minimizedAffinity 6.90215635
REMARK minimizedRMSD -1
REMARK  0 active torsions:
REMARK  status: ('A' for Active; 'I' for Inactive)
ROOT
ATOM      1  C   UNL d   1       2.315  -2.113  -2.221  0.00  0.00     0.078 C 
ATOM      2  C1  UNL d   1       2.607  -0.804  -1.550  0.00  0.00    -0.077 A 
ATOM      3  C2  UNL d   1       2.045  -0.490  -0.307  0.00  0.00    -0.001 A 
ATOM      4  C3  UNL d   1       2.318   0.737   0.302  0.00  0.00     0.003 A 
ATOM      5  C4  UNL d   1       3.152   1.659  -0.327  0.00  0.00    -0.005 A 
ATOM      6  C5  UNL d   1       3.714   1.356  -1.565  0.00  0.00     0.003 A 
ATOM      7  C6  UNL d   1       3.442   0.131  -2.175  0.00  0.00    -0.001 A 
ENDROOT
TORSDOF 0
ENDMDL
