MODEL 1
REMARK minimizedAffinity 6.14824152
REMARK minimizedRMSD -1
REMARK  0 active torsions:
REMARK  status: ('A' for Active; 'I' for Inactive)
ROOT
ATOM      1  C   UNL d   1      -4.861   3.426   2.339  0.00  0.00     0.078 C 
ATOM      2  C1  UNL d   1      -4.878   4.314   3.547  0.00  0.00    -0.077 A 
ATOM      3  C2  UNL d   1      -5.992   4.356   4.395  0.00  0.00    -0.001 A 
ATOM      4  C3  UNL d   1      -5.998   5.194   5.511  0.00  0.00     0.003 A 
ATOM      5  C4  UNL d   1      -4.893   5.997   5.789  0.00  0.00    -0.005 A 
ATOM      6  C5  UNL d   1      -3.782   5.964   4.950  0.00  0.00     0.003 A 
ATOM      7  C6  UNL d   1      -3.774   5.126   3.833  0.00  0.00    -0.001 A 
ENDROOT
TORSDOF 0
ENDMDL
