MODEL 1
REMARK minimizedAffinity 1.00218439
REMARK minimizedRMSD -1
REMARK  0 active torsions:
REMARK  status: ('A' for Active; 'I' for Inactive)
ROOT
ATOM      1  C   UNL d   1      -5.127   3.318   2.422  0.00  0.00     0.078 C 
ATOM      2  C1  UNL d   1      -5.120   4.142   3.675  0.00  0.00    -0.077 A 
ATOM      3  C2  UNL d   1      -6.000   3.862   4.727  0.00  0.00    -0.001 A 
ATOM      4  C3  UNL d   1      -5.988   4.643   5.884  0.00  0.00     0.003 A 
ATOM      5  C4  UNL d   1      -5.100   5.711   5.998  0.00  0.00    -0.005 A 
ATOM      6  C5  UNL d   1      -4.222   5.999   4.955  0.00  0.00     0.003 A 
ATOM      7  C6  UNL d   1      -4.232   5.218   3.798  0.00  0.00    -0.001 A 
ENDROOT
TORSDOF 0
ENDMDL
