MODEL 1
REMARK minimizedAffinity 9.59500313
REMARK minimizedRMSD -1
REMARK  0 active torsions:
REMARK  status: ('A' for Active; 'I' for Inactive)
ROOT
ATOM      1  C   UNL d   1       1.949   0.910  -1.021  0.00  0.00     0.078 C 
ATOM      2  C1  UNL d   1       2.835   0.152  -0.078  0.00  0.00    -0.077 A 
ATOM      3  C2  UNL d   1       4.116   0.618   0.240  0.00  0.00    -0.001 A 
ATOM      4  C3  UNL d   1       4.934  -0.103   1.112  0.00  0.00     0.003 A 
ATOM      5  C4  UNL d   1       4.479  -1.294   1.673  0.00  0.00    -0.005 A 
ATOM      6  C5  UNL d   1       3.206  -1.767   1.361  0.00  0.00     0.003 A 
ATOM      7  C6  UNL d   1       2.387  -1.048   0.489  0.00  0.00    -0.001 A 
ENDROOT
TORSDOF 0
ENDMDL
