MODEL 1
REMARK minimizedAffinity 14.2078562
REMARK minimizedRMSD -1
REMARK  0 active torsions:
REMARK  status: ('A' for Active; 'I' for Inactive)
ROOT
ATOM      1  C   UNL d   1       5.182   3.081   3.395  0.00  0.00     0.078 C 
ATOM      2  C1  UNL d   1       3.910   3.874   3.365  0.00  0.00    -0.077 A 
ATOM      3  C2  UNL d   1       3.933   5.274   3.368  0.00  0.00    -0.001 A 
ATOM      4  C3  UNL d   1       2.741   6.000   3.350  0.00  0.00     0.003 A 
ATOM      5  C4  UNL d   1       1.517   5.334   3.330  0.00  0.00    -0.005 A 
ATOM      6  C5  UNL d   1       1.484   3.941   3.329  0.00  0.00     0.003 A 
ATOM      7  C6  UNL d   1       2.675   3.214   3.347  0.00  0.00    -0.001 A 
ENDROOT
TORSDOF 0
ENDMDL
