MODEL 1
REMARK minimizedAffinity 5.11791182
REMARK minimizedRMSD -1
REMARK  0 active torsions:
REMARK  status: ('A' for Active; 'I' for Inactive)
ROOT
ATOM      1  C   UNL d   1      -5.526   3.574   2.570  0.00  0.00     0.078 C 
ATOM      2  C1  UNL d   1      -5.163   4.411   3.760  0.00  0.00    -0.077 A 
ATOM      3  C2  UNL d   1      -5.997   4.466   4.884  0.00  0.00    -0.001 A 
ATOM      4  C3  UNL d   1      -5.652   5.257   5.981  0.00  0.00     0.003 A 
ATOM      5  C4  UNL d   1      -4.473   5.999   5.965  0.00  0.00    -0.005 A 
ATOM      6  C5  UNL d   1      -3.638   5.953   4.850  0.00  0.00     0.003 A 
ATOM      7  C6  UNL d   1      -3.982   5.163   3.752  0.00  0.00    -0.001 A 
ENDROOT
TORSDOF 0
ENDMDL
