MODEL 1
REMARK minimizedAffinity 5.30360603
REMARK minimizedRMSD -1
REMARK  0 active torsions:
REMARK  status: ('A' for Active; 'I' for Inactive)
ROOT
ATOM      1  C   UNL d   1      -5.991   5.551   5.884  0.00  0.00     0.078 C 
ATOM      2  C1  UNL d   1      -5.590   5.062   4.524  0.00  0.00    -0.077 A 
ATOM      3  C2  UNL d   1      -4.877   5.885   3.644  0.00  0.00    -0.001 A 
ATOM      4  C3  UNL d   1      -4.518   5.420   2.377  0.00  0.00     0.003 A 
ATOM      5  C4  UNL d   1      -4.870   4.132   1.979  0.00  0.00    -0.005 A 
ATOM      6  C5  UNL d   1      -5.581   3.307   2.848  0.00  0.00     0.003 A 
ATOM      7  C6  UNL d   1      -5.941   3.770   4.115  0.00  0.00    -0.001 A 
ENDROOT
TORSDOF 0
ENDMDL
