MODEL 1
REMARK minimizedAffinity 4.41117716
REMARK minimizedRMSD -1
REMARK  1 active torsions:
REMARK  status: ('A' for Active; 'I' for Inactive)
REMARK    1  A    between atoms: C1_2  and  C2_3 
ROOT
ATOM      1  C2  UNL d   1      -1.894  -0.582   2.501  0.00  0.00    -0.073 A 
ATOM      2  C3  UNL d   1      -2.688   0.471   2.970  0.00  0.00    -0.002 A 
ATOM      3  C4  UNL d   1      -3.662   1.039   2.148  0.00  0.00     0.004 A 
ATOM      4  C5  UNL d   1      -3.857   0.556   0.854  0.00  0.00    -0.004 A 
ATOM      5  C6  UNL d   1      -3.081  -0.503   0.372  0.00  0.00    -0.075 A 
ATOM      6  C7  UNL d   1      -3.277  -1.032  -1.019  0.00  0.00     0.076 C 
ATOM      7  C8  UNL d   1      -2.103  -1.066   1.202  0.00  0.00     0.001 A 
ENDROOT
BRANCH   1   8
ATOM      8  C1  UNL d   1      -0.845  -1.203   3.388  0.00  0.00     0.053 C 
ATOM      9  C   UNL d   1       0.121  -2.075   2.602  0.00  0.00     0.018 C 
ENDBRANCH   1   8
TORSDOF 1
ENDMDL
