MODEL 1
REMARK minimizedAffinity 3.66591883
REMARK minimizedRMSD -1
REMARK  1 active torsions:
REMARK  status: ('A' for Active; 'I' for Inactive)
REMARK    1  A    between atoms: C1_2  and  C2_3 
ROOT
ATOM      1  C2  UNL d   1       1.289  -2.292   1.709  0.00  0.00    -0.073 A 
ATOM      2  C3  UNL d   1       1.245  -3.664   1.442  0.00  0.00    -0.002 A 
ATOM      3  C4  UNL d   1       2.237  -4.264   0.666  0.00  0.00     0.004 A 
ATOM      4  C5  UNL d   1       3.287  -3.501   0.156  0.00  0.00    -0.004 A 
ATOM      5  C6  UNL d   1       3.356  -2.129   0.422  0.00  0.00    -0.075 A 
ATOM      6  C7  UNL d   1       4.477  -1.293  -0.121  0.00  0.00     0.076 C 
ATOM      7  C8  UNL d   1       2.354  -1.534   1.200  0.00  0.00     0.001 A 
ENDROOT
BRANCH   1   8
ATOM      8  C1  UNL d   1       0.223  -1.641   2.552  0.00  0.00     0.053 C 
ATOM      9  C   UNL d   1      -1.075  -2.433   2.541  0.00  0.00     0.018 C 
ENDBRANCH   1   8
TORSDOF 1
ENDMDL
