MODEL 1
REMARK minimizedAffinity 7.09224796
REMARK minimizedRMSD -1
REMARK  1 active torsions:
REMARK  status: ('A' for Active; 'I' for Inactive)
REMARK    1  A    between atoms: C1_2  and  C2_3 
ROOT
ATOM      1  C2  UNL d   1       0.206   3.545  -4.065  0.00  0.00    -0.073 A 
ATOM      2  C3  UNL d   1       0.250   2.524  -3.110  0.00  0.00    -0.002 A 
ATOM      3  C4  UNL d   1      -0.919   2.100  -2.477  0.00  0.00     0.004 A 
ATOM      4  C5  UNL d   1      -2.143   2.686  -2.797  0.00  0.00    -0.004 A 
ATOM      5  C6  UNL d   1      -2.209   3.700  -3.758  0.00  0.00    -0.075 A 
ATOM      6  C7  UNL d   1      -3.518   4.343  -4.112  0.00  0.00     0.076 C 
ATOM      7  C8  UNL d   1      -1.031   4.122  -4.387  0.00  0.00     0.001 A 
ENDROOT
BRANCH   1   8
ATOM      8  C1  UNL d   1       1.465   4.002  -4.756  0.00  0.00     0.053 C 
ATOM      9  C   UNL d   1       1.359   5.438  -5.243  0.00  0.00     0.018 C 
ENDBRANCH   1   8
TORSDOF 1
ENDMDL
