MODEL 1
REMARK minimizedAffinity 6.25538063
REMARK minimizedRMSD -1
REMARK  1 active torsions:
REMARK  status: ('A' for Active; 'I' for Inactive)
REMARK    1  A    between atoms: C1_2  and  C2_3 
ROOT
ATOM      1  C2  UNL d   1       0.162  -1.737   2.357  0.00  0.00    -0.073 A 
ATOM      2  C3  UNL d   1       0.144  -1.022   1.154  0.00  0.00    -0.002 A 
ATOM      3  C4  UNL d   1       0.973  -1.400   0.097  0.00  0.00     0.004 A 
ATOM      4  C5  UNL d   1       1.823  -2.498   0.229  0.00  0.00    -0.004 A 
ATOM      5  C6  UNL d   1       1.847  -3.232   1.420  0.00  0.00    -0.075 A 
ATOM      6  C7  UNL d   1       2.758  -4.414   1.579  0.00  0.00     0.076 C 
ATOM      7  C8  UNL d   1       1.014  -2.845   2.478  0.00  0.00     0.001 A 
ENDROOT
BRANCH   1   8
ATOM      8  C1  UNL d   1      -0.736  -1.337   3.499  0.00  0.00     0.053 C 
ATOM      9  C   UNL d   1      -1.599  -0.134   3.151  0.00  0.00     0.018 C 
ENDBRANCH   1   8
TORSDOF 1
ENDMDL
