MODEL 1
REMARK minimizedAffinity 6.31226778
REMARK minimizedRMSD -1
REMARK  1 active torsions:
REMARK  status: ('A' for Active; 'I' for Inactive)
REMARK    1  A    between atoms: C1_2  and  C2_3 
ROOT
ATOM      1  C2  UNL d   1       2.425  -3.035   1.811  0.00  0.00    -0.073 A 
ATOM      2  C3  UNL d   1       2.444  -2.518   0.511  0.00  0.00    -0.002 A 
ATOM      3  C4  UNL d   1       1.429  -1.663   0.077  0.00  0.00     0.004 A 
ATOM      4  C5  UNL d   1       0.392  -1.311   0.940  0.00  0.00    -0.004 A 
ATOM      5  C6  UNL d   1       0.362  -1.808   2.247  0.00  0.00    -0.075 A 
ATOM      6  C7  UNL d   1      -0.749  -1.441   3.187  0.00  0.00     0.076 C 
ATOM      7  C8  UNL d   1       1.382  -2.668   2.674  0.00  0.00     0.001 A 
ENDROOT
BRANCH   1   8
ATOM      8  C1  UNL d   1       3.521  -3.954   2.285  0.00  0.00     0.053 C 
ATOM      9  C   UNL d   1       3.659  -5.182   1.399  0.00  0.00     0.018 C 
ENDBRANCH   1   8
TORSDOF 1
ENDMDL
