MODEL 1
REMARK minimizedAffinity 0.245103508
REMARK minimizedRMSD -1
REMARK  1 active torsions:
REMARK  status: ('A' for Active; 'I' for Inactive)
REMARK    1  A    between atoms: C1_2  and  C2_3 
ROOT
ATOM      1  C2  UNL d   1      -0.842  -0.842   3.501  0.00  0.00    -0.073 A 
ATOM      2  C3  UNL d   1       0.292  -0.200   4.013  0.00  0.00    -0.002 A 
ATOM      3  C4  UNL d   1       1.566  -0.703   3.748  0.00  0.00     0.004 A 
ATOM      4  C5  UNL d   1       1.721  -1.846   2.964  0.00  0.00    -0.004 A 
ATOM      5  C6  UNL d   1       0.601  -2.494   2.433  0.00  0.00    -0.075 A 
ATOM      6  C7  UNL d   1       0.750  -3.726   1.590  0.00  0.00     0.076 C 
ATOM      7  C8  UNL d   1      -0.676  -1.985   2.706  0.00  0.00     0.001 A 
ENDROOT
BRANCH   1   8
ATOM      8  C1  UNL d   1      -2.220  -0.299   3.779  0.00  0.00     0.053 C 
ATOM      9  C   UNL d   1      -2.681   0.665   2.698  0.00  0.00     0.018 C 
ENDBRANCH   1   8
TORSDOF 1
ENDMDL
