MODEL 1
REMARK minimizedAffinity 11.9870682
REMARK minimizedRMSD -1
REMARK  1 active torsions:
REMARK  status: ('A' for Active; 'I' for Inactive)
REMARK    1  A    between atoms: C1_2  and  C2_3 
ROOT
ATOM      1  C2  UNL d   1       3.770  -1.734   0.789  0.00  0.00    -0.073 A 
ATOM      2  C3  UNL d   1       2.749  -0.817   0.512  0.00  0.00    -0.002 A 
ATOM      3  C4  UNL d   1       1.411  -1.191   0.643  0.00  0.00     0.004 A 
ATOM      4  C5  UNL d   1       1.080  -2.481   1.058  0.00  0.00    -0.004 A 
ATOM      5  C6  UNL d   1       2.086  -3.407   1.351  0.00  0.00    -0.075 A 
ATOM      6  C7  UNL d   1       1.746  -4.800   1.796  0.00  0.00     0.076 C 
ATOM      7  C8  UNL d   1       3.427  -3.025   1.214  0.00  0.00     0.001 A 
ENDROOT
BRANCH   1   8
ATOM      8  C1  UNL d   1       5.216  -1.333   0.655  0.00  0.00     0.053 C 
ATOM      9  C   UNL d   1       5.369   0.065   0.076  0.00  0.00     0.018 C 
ENDBRANCH   1   8
TORSDOF 1
ENDMDL
