MODEL 1
REMARK minimizedAffinity -4.33365393
REMARK minimizedRMSD -1
REMARK  1 active torsions:
REMARK  status: ('A' for Active; 'I' for Inactive)
REMARK    1  A    between atoms: C3_4  and  O_7 
ROOT
ATOM      1  C   UNL d   1      -0.314  -0.028   0.008  0.00  0.00    -0.033 A 
ATOM      2  C1  UNL d   1       0.689   0.936   0.135  0.00  0.00     0.039 A 
ATOM      3  C2  UNL d   1       1.980   0.667  -0.325  0.00  0.00    -0.080 A 
ATOM      4  C3  UNL d   1       2.254  -0.566  -0.909  0.00  0.00     0.150 A 
ATOM      5  C4  UNL d   1       1.259  -1.529  -1.043  0.00  0.00    -0.007 A 
ATOM      6  C5  UNL d   1      -0.029  -1.259  -0.582  0.00  0.00     0.039 A 
ENDROOT
BRANCH   4   7
ATOM      7  O   UNL d   1       3.500  -0.876  -1.368  0.00  0.00    -0.526 OA
ATOM      8  H5  UNL d   1       4.091  -0.127  -1.183  0.00  0.00     0.418 HD
ENDBRANCH   4   7
TORSDOF 1
ENDMDL
