MODEL 1
REMARK minimizedAffinity -4.9082036
REMARK minimizedRMSD -1
REMARK  1 active torsions:
REMARK  status: ('A' for Active; 'I' for Inactive)
REMARK    1  A    between atoms: C3_4  and  O_7 
ROOT
ATOM      1  C   UNL d   1      -0.450  -0.253  -0.006  0.00  0.00    -0.033 A 
ATOM      2  C1  UNL d   1       0.453   0.811   0.022  0.00  0.00     0.039 A 
ATOM      3  C2  UNL d   1       1.769   0.623  -0.405  0.00  0.00    -0.080 A 
ATOM      4  C3  UNL d   1       2.168  -0.632  -0.858  0.00  0.00     0.150 A 
ATOM      5  C4  UNL d   1       1.272  -1.695  -0.891  0.00  0.00    -0.007 A 
ATOM      6  C5  UNL d   1      -0.041  -1.506  -0.463  0.00  0.00     0.039 A 
ENDROOT
BRANCH   4   7
ATOM      7  O   UNL d   1       3.443  -0.865  -1.280  0.00  0.00    -0.526 OA
ATOM      8  H5  UNL d   1       3.957  -0.047  -1.173  0.00  0.00     0.418 HD
ENDBRANCH   4   7
TORSDOF 1
ENDMDL
