MODEL 1
REMARK minimizedAffinity -3.74595547
REMARK minimizedRMSD -1
REMARK  1 active torsions:
REMARK  status: ('A' for Active; 'I' for Inactive)
REMARK    1  A    between atoms: C3_4  and  O_7 
ROOT
ATOM      1  C   UNL d   1       2.436   0.558  -0.072  0.00  0.00    -0.033 A 
ATOM      2  C1  UNL d   1       1.317   0.681   0.754  0.00  0.00     0.039 A 
ATOM      3  C2  UNL d   1       0.197  -0.124   0.540  0.00  0.00    -0.080 A 
ATOM      4  C3  UNL d   1       0.208  -1.048  -0.501  0.00  0.00     0.150 A 
ATOM      5  C4  UNL d   1       1.321  -1.179  -1.326  0.00  0.00    -0.007 A 
ATOM      6  C5  UNL d   1       2.439  -0.374  -1.110  0.00  0.00     0.039 A 
ENDROOT
BRANCH   4   7
ATOM      7  O   UNL d   1      -0.864  -1.852  -0.753  0.00  0.00    -0.526 OA
ATOM      8  H5  UNL d   1      -1.569  -1.630  -0.122  0.00  0.00     0.418 HD
ENDBRANCH   4   7
TORSDOF 1
ENDMDL
