MODEL 1
REMARK minimizedAffinity -4.53633165
REMARK minimizedRMSD -1
REMARK  1 active torsions:
REMARK  status: ('A' for Active; 'I' for Inactive)
REMARK    1  A    between atoms: C3_4  and  O_7 
ROOT
ATOM      1  C   UNL d   1      -0.760  -0.343   0.315  0.00  0.00    -0.033 A 
ATOM      2  C1  UNL d   1      -0.057   0.843   0.096  0.00  0.00     0.039 A 
ATOM      3  C2  UNL d   1       1.235   0.804  -0.430  0.00  0.00    -0.080 A 
ATOM      4  C3  UNL d   1       1.812  -0.426  -0.733  0.00  0.00     0.150 A 
ATOM      5  C4  UNL d   1       1.116  -1.612  -0.522  0.00  0.00    -0.007 A 
ATOM      6  C5  UNL d   1      -0.174  -1.571   0.004  0.00  0.00     0.039 A 
ENDROOT
BRANCH   4   7
ATOM      7  O   UNL d   1       3.073  -0.515  -1.244  0.00  0.00    -0.526 OA
ATOM      8  H5  UNL d   1       3.443   0.381  -1.310  0.00  0.00     0.418 HD
ENDBRANCH   4   7
TORSDOF 1
ENDMDL
