MODEL 1
REMARK minimizedAffinity -4.61179924
REMARK minimizedRMSD -1
REMARK  1 active torsions:
REMARK  status: ('A' for Active; 'I' for Inactive)
REMARK    1  A    between atoms: C3_4  and  O_7 
ROOT
ATOM      1  C   UNL d   1      -1.035  -0.399  -0.082  0.00  0.00    -0.033 A 
ATOM      2  C1  UNL d   1      -0.294   0.744  -0.391  0.00  0.00     0.039 A 
ATOM      3  C2  UNL d   1       1.039   0.628  -0.787  0.00  0.00    -0.080 A 
ATOM      4  C3  UNL d   1       1.620  -0.634  -0.872  0.00  0.00     0.150 A 
ATOM      5  C4  UNL d   1       0.887  -1.777  -0.569  0.00  0.00    -0.007 A 
ATOM      6  C5  UNL d   1      -0.445  -1.660  -0.173  0.00  0.00     0.039 A 
ENDROOT
BRANCH   4   7
ATOM      7  O   UNL d   1       2.919  -0.797  -1.249  0.00  0.00    -0.526 OA
ATOM      8  H5  UNL d   1       3.309   0.080  -1.399  0.00  0.00     0.418 HD
ENDBRANCH   4   7
TORSDOF 1
ENDMDL
