MODEL 1
REMARK minimizedAffinity -4.80673552
REMARK minimizedRMSD -1
REMARK  1 active torsions:
REMARK  status: ('A' for Active; 'I' for Inactive)
REMARK    1  A    between atoms: C3_4  and  O_7 
ROOT
ATOM      1  C   UNL d   1      -0.417  -0.605  -0.222  0.00  0.00    -0.033 A 
ATOM      2  C1  UNL d   1       0.115  -1.719  -0.874  0.00  0.00     0.039 A 
ATOM      3  C2  UNL d   1       1.476  -1.765  -1.182  0.00  0.00    -0.080 A 
ATOM      4  C3  UNL d   1       2.293  -0.693  -0.833  0.00  0.00     0.150 A 
ATOM      5  C4  UNL d   1       1.770   0.418  -0.180  0.00  0.00    -0.007 A 
ATOM      6  C5  UNL d   1       0.411   0.463   0.126  0.00  0.00     0.039 A 
ENDROOT
BRANCH   4   7
ATOM      7  O   UNL d   1       3.626  -0.691  -1.118  0.00  0.00    -0.526 OA
ATOM      8  H5  UNL d   1       3.840  -1.510  -1.595  0.00  0.00     0.418 HD
ENDBRANCH   4   7
TORSDOF 1
ENDMDL
