MODEL 1
REMARK minimizedAffinity -4.02237844
REMARK minimizedRMSD -1
REMARK  1 active torsions:
REMARK  status: ('A' for Active; 'I' for Inactive)
REMARK    1  A    between atoms: C3_4  and  O_7 
ROOT
ATOM      1  C   UNL d   1      -0.522   0.628   0.036  0.00  0.00    -0.033 A 
ATOM      2  C1  UNL d   1      -0.181  -0.666   0.434  0.00  0.00     0.039 A 
ATOM      3  C2  UNL d   1       1.072  -1.190   0.110  0.00  0.00    -0.080 A 
ATOM      4  C3  UNL d   1       1.973  -0.410  -0.611  0.00  0.00     0.150 A 
ATOM      5  C4  UNL d   1       1.641   0.881  -1.007  0.00  0.00    -0.007 A 
ATOM      6  C5  UNL d   1       0.389   1.402  -0.683  0.00  0.00     0.039 A 
ENDROOT
BRANCH   4   7
ATOM      7  O   UNL d   1       3.206  -0.880  -0.954  0.00  0.00    -0.526 OA
ATOM      8  H5  UNL d   1       3.286  -1.796  -0.639  0.00  0.00     0.418 HD
ENDBRANCH   4   7
TORSDOF 1
ENDMDL
