MODEL 1
REMARK minimizedAffinity -3.73530245
REMARK minimizedRMSD -1
REMARK  1 active torsions:
REMARK  status: ('A' for Active; 'I' for Inactive)
REMARK    1  A    between atoms: C3_4  and  O_7 
ROOT
ATOM      1  C   UNL d   1      -5.261   5.426   4.937  0.00  0.00    -0.033 A 
ATOM      2  C1  UNL d   1      -4.559   4.854   6.000  0.00  0.00     0.039 A 
ATOM      3  C2  UNL d   1      -3.424   4.079   5.752  0.00  0.00    -0.080 A 
ATOM      4  C3  UNL d   1      -3.003   3.884   4.439  0.00  0.00     0.150 A 
ATOM      5  C4  UNL d   1      -3.696   4.455   3.376  0.00  0.00    -0.007 A 
ATOM      6  C5  UNL d   1      -4.829   5.228   3.626  0.00  0.00     0.039 A 
ENDROOT
BRANCH   4   7
ATOM      7  O   UNL d   1      -1.905   3.131   4.147  0.00  0.00    -0.526 OA
ATOM      8  H5  UNL d   1      -1.544   2.778   4.978  0.00  0.00     0.418 HD
ENDBRANCH   4   7
TORSDOF 1
ENDMDL
