MODEL 1
REMARK minimizedAffinity -4.30898094
REMARK minimizedRMSD -1
REMARK  1 active torsions:
REMARK  status: ('A' for Active; 'I' for Inactive)
REMARK    1  A    between atoms: C3_4  and  O_7 
ROOT
ATOM      1  C   UNL d   1      -0.718   0.262  -0.262  0.00  0.00    -0.033 A 
ATOM      2  C1  UNL d   1      -0.464  -1.108  -0.170  0.00  0.00     0.039 A 
ATOM      3  C2  UNL d   1       0.788  -1.613  -0.526  0.00  0.00    -0.080 A 
ATOM      4  C3  UNL d   1       1.777  -0.739  -0.970  0.00  0.00     0.150 A 
ATOM      5  C4  UNL d   1       1.532   0.628  -1.060  0.00  0.00    -0.007 A 
ATOM      6  C5  UNL d   1       0.280   1.130  -0.706  0.00  0.00     0.039 A 
ENDROOT
BRANCH   4   7
ATOM      7  O   UNL d   1       3.012  -1.185  -1.333  0.00  0.00    -0.526 OA
ATOM      8  H5  UNL d   1       3.028  -2.153  -1.246  0.00  0.00     0.418 HD
ENDBRANCH   4   7
TORSDOF 1
ENDMDL
