MODEL 1
REMARK minimizedAffinity -4.72773552
REMARK minimizedRMSD -1
REMARK  1 active torsions:
REMARK  status: ('A' for Active; 'I' for Inactive)
REMARK    1  A    between atoms: C3_4  and  O_7 
ROOT
ATOM      1  C   UNL d   1       2.267  -0.341  -1.429  0.00  0.00    -0.033 A 
ATOM      2  C1  UNL d   1       2.006   0.840  -0.732  0.00  0.00     0.039 A 
ATOM      3  C2  UNL d   1       0.929   0.906   0.154  0.00  0.00    -0.080 A 
ATOM      4  C3  UNL d   1       0.122  -0.214   0.334  0.00  0.00     0.150 A 
ATOM      5  C4  UNL d   1       0.379  -1.395  -0.354  0.00  0.00    -0.007 A 
ATOM      6  C5  UNL d   1       1.455  -1.460  -1.238  0.00  0.00     0.039 A 
ENDROOT
BRANCH   4   7
ATOM      7  O   UNL d   1      -0.943  -0.196   1.185  0.00  0.00    -0.526 OA
ATOM      8  H5  UNL d   1      -1.016   0.694   1.568  0.00  0.00     0.418 HD
ENDBRANCH   4   7
TORSDOF 1
ENDMDL
