MODEL 1
REMARK minimizedAffinity -4.09413624
REMARK minimizedRMSD -1
REMARK  1 active torsions:
REMARK  status: ('A' for Active; 'I' for Inactive)
REMARK    1  A    between atoms: C3_4  and  O_7 
ROOT
ATOM      1  C   UNL d   1       0.208  -0.469  -0.103  0.00  0.00    -0.033 A 
ATOM      2  C1  UNL d   1       1.112   0.427  -0.676  0.00  0.00     0.039 A 
ATOM      3  C2  UNL d   1       0.645   1.539  -1.380  0.00  0.00    -0.080 A 
ATOM      4  C3  UNL d   1      -0.727   1.743  -1.501  0.00  0.00     0.150 A 
ATOM      5  C4  UNL d   1      -1.633   0.856  -0.930  0.00  0.00    -0.007 A 
ATOM      6  C5  UNL d   1      -1.165  -0.254  -0.228  0.00  0.00     0.039 A 
ENDROOT
BRANCH   4   7
ATOM      7  O   UNL d   1      -1.231   2.811  -2.183  0.00  0.00    -0.526 OA
ATOM      8  H5  UNL d   1      -0.489   3.321  -2.547  0.00  0.00     0.418 HD
ENDBRANCH   4   7
TORSDOF 1
ENDMDL
