MODEL 1
REMARK minimizedAffinity -4.58793688
REMARK minimizedRMSD -1
REMARK  1 active torsions:
REMARK  status: ('A' for Active; 'I' for Inactive)
REMARK    1  A    between atoms: C3_4  and  O_7 
ROOT
ATOM      1  C   UNL d   1      -0.559   0.048  -0.267  0.00  0.00    -0.033 A 
ATOM      2  C1  UNL d   1       0.348   1.100  -0.409  0.00  0.00     0.039 A 
ATOM      3  C2  UNL d   1       1.688   0.835  -0.697  0.00  0.00    -0.080 A 
ATOM      4  C3  UNL d   1       2.108  -0.484  -0.842  0.00  0.00     0.150 A 
ATOM      5  C4  UNL d   1       1.209  -1.537  -0.706  0.00  0.00    -0.007 A 
ATOM      6  C5  UNL d   1      -0.129  -1.271  -0.417  0.00  0.00     0.039 A 
ENDROOT
BRANCH   4   7
ATOM      7  O   UNL d   1       3.406  -0.792  -1.120  0.00  0.00    -0.526 OA
ATOM      8  H5  UNL d   1       3.917   0.034  -1.157  0.00  0.00     0.418 HD
ENDBRANCH   4   7
TORSDOF 1
ENDMDL
