MODEL 1
REMARK minimizedAffinity -2.22363853
REMARK minimizedRMSD -1
REMARK  1 active torsions:
REMARK  status: ('A' for Active; 'I' for Inactive)
REMARK    1  A    between atoms: C3_4  and  O_7 
ROOT
ATOM      1  C   UNL d   1      -1.949   1.018   4.164  0.00  0.00    -0.033 A 
ATOM      2  C1  UNL d   1      -1.468   2.011   3.308  0.00  0.00     0.039 A 
ATOM      3  C2  UNL d   1      -1.308   1.744   1.947  0.00  0.00    -0.080 A 
ATOM      4  C3  UNL d   1      -1.632   0.482   1.455  0.00  0.00     0.150 A 
ATOM      5  C4  UNL d   1      -2.115  -0.510   2.302  0.00  0.00    -0.007 A 
ATOM      6  C5  UNL d   1      -2.274  -0.242   3.661  0.00  0.00     0.039 A 
ENDROOT
BRANCH   4   7
ATOM      7  O   UNL d   1      -1.487   0.173   0.135  0.00  0.00    -0.526 OA
ATOM      8  H5  UNL d   1      -1.117   0.946  -0.323  0.00  0.00     0.418 HD
ENDBRANCH   4   7
TORSDOF 1
ENDMDL
