MODEL 1
REMARK minimizedAffinity -1.11331356
REMARK minimizedRMSD -1
REMARK  1 active torsions:
REMARK  status: ('A' for Active; 'I' for Inactive)
REMARK    1  A    between atoms: C3_4  and  O_7 
ROOT
ATOM      1  C   UNL d   1      -1.864   0.889   0.057  0.00  0.00    -0.033 A 
ATOM      2  C1  UNL d   1      -1.280  -0.061   0.897  0.00  0.00     0.039 A 
ATOM      3  C2  UNL d   1       0.057  -0.424   0.720  0.00  0.00    -0.080 A 
ATOM      4  C3  UNL d   1       0.797   0.170  -0.298  0.00  0.00     0.150 A 
ATOM      5  C4  UNL d   1       0.223   1.120  -1.136  0.00  0.00    -0.007 A 
ATOM      6  C5  UNL d   1      -1.112   1.481  -0.959  0.00  0.00     0.039 A 
ENDROOT
BRANCH   4   7
ATOM      7  O   UNL d   1       2.103  -0.156  -0.512  0.00  0.00    -0.526 OA
ATOM      8  H5  UNL d   1       2.357  -0.846   0.124  0.00  0.00     0.418 HD
ENDBRANCH   4   7
TORSDOF 1
ENDMDL
