MODEL 1
REMARK minimizedAffinity -4.40342474
REMARK minimizedRMSD -1
REMARK  1 active torsions:
REMARK  status: ('A' for Active; 'I' for Inactive)
REMARK    1  A    between atoms: C3_4  and  O_7 
ROOT
ATOM      1  C   UNL d   1       2.447  -1.007  -1.194  0.00  0.00    -0.033 A 
ATOM      2  C1  UNL d   1       1.538  -1.923  -0.661  0.00  0.00     0.039 A 
ATOM      3  C2  UNL d   1       0.349  -1.473  -0.083  0.00  0.00    -0.080 A 
ATOM      4  C3  UNL d   1       0.082  -0.108  -0.045  0.00  0.00     0.150 A 
ATOM      5  C4  UNL d   1       0.981   0.810  -0.577  0.00  0.00    -0.007 A 
ATOM      6  C5  UNL d   1       2.168   0.360  -1.153  0.00  0.00     0.039 A 
ENDROOT
BRANCH   4   7
ATOM      7  O   UNL d   1      -1.063   0.379   0.513  0.00  0.00    -0.526 OA
ATOM      8  H5  UNL d   1      -1.575  -0.368   0.865  0.00  0.00     0.418 HD
ENDBRANCH   4   7
TORSDOF 1
ENDMDL
