MODEL 1
REMARK minimizedAffinity -2.5569768
REMARK minimizedRMSD -1
REMARK  0 active torsions:
REMARK  status: ('A' for Active; 'I' for Inactive)
ROOT
ATOM      1  C1  BNZ d   1      -0.255  -0.100   1.777  0.00  0.00     0.000 A 
ATOM      2  C2  BNZ d   1       0.720  -0.175   2.735  0.00  0.00     0.000 A 
ATOM      3  C3  BNZ d   1       0.953  -1.342   3.407  0.00  0.00     0.000 A 
ATOM      4  C4  BNZ d   1       0.185  -2.420   3.149  0.00  0.00     0.000 A 
ATOM      5  C5  BNZ d   1      -0.808  -2.358   2.192  0.00  0.00     0.000 A 
ATOM      6  C6  BNZ d   1      -1.014  -1.193   1.490  0.00  0.00     0.000 A 
ENDROOT
TORSDOF 0
ENDMDL
