MODEL 1
REMARK minimizedAffinity -2.76647782
REMARK minimizedRMSD -1
REMARK  0 active torsions:
REMARK  status: ('A' for Active; 'I' for Inactive)
ROOT
ATOM      1  C1  BNZ d   1      -0.439   1.507  -0.053  0.00  0.00     0.000 A 
ATOM      2  C2  BNZ d   1      -0.710   2.237  -1.180  0.00  0.00     0.000 A 
ATOM      3  C3  BNZ d   1      -0.725   1.644  -2.411  0.00  0.00     0.000 A 
ATOM      4  C4  BNZ d   1      -0.430   0.333  -2.519  0.00  0.00     0.000 A 
ATOM      5  C5  BNZ d   1      -0.146  -0.415  -1.394  0.00  0.00     0.000 A 
ATOM      6  C6  BNZ d   1      -0.170   0.177  -0.152  0.00  0.00     0.000 A 
ENDROOT
TORSDOF 0
ENDMDL
