MODEL 1
REMARK minimizedAffinity -4.62136889
REMARK minimizedRMSD -1
REMARK  0 active torsions:
REMARK  status: ('A' for Active; 'I' for Inactive)
ROOT
ATOM      1  C1  BNZ d   1       1.415  -0.219   1.653  0.00  0.00     0.000 A 
ATOM      2  C2  BNZ d   1       0.770   0.272   0.549  0.00  0.00     0.000 A 
ATOM      3  C3  BNZ d   1      -0.581   0.117   0.402  0.00  0.00     0.000 A 
ATOM      4  C4  BNZ d   1      -1.276  -0.561   1.337  0.00  0.00     0.000 A 
ATOM      5  C5  BNZ d   1      -0.639  -1.071   2.450  0.00  0.00     0.000 A 
ATOM      6  C6  BNZ d   1       0.714  -0.880   2.615  0.00  0.00     0.000 A 
ENDROOT
TORSDOF 0
ENDMDL
