MODEL 1
REMARK minimizedAffinity -4.58988333
REMARK minimizedRMSD -1
REMARK  0 active torsions:
REMARK  status: ('A' for Active; 'I' for Inactive)
ROOT
ATOM      1  C1  BNZ d   1       1.709  -1.679   2.732  0.00  0.00     0.000 A 
ATOM      2  C2  BNZ d   1       2.338  -1.801   1.522  0.00  0.00     0.000 A 
ATOM      3  C3  BNZ d   1       1.903  -1.098   0.433  0.00  0.00     0.000 A 
ATOM      4  C4  BNZ d   1       0.817  -0.306   0.545  0.00  0.00     0.000 A 
ATOM      5  C5  BNZ d   1       0.167  -0.179   1.757  0.00  0.00     0.000 A 
ATOM      6  C6  BNZ d   1       0.631  -0.858   2.860  0.00  0.00     0.000 A 
ENDROOT
TORSDOF 0
ENDMDL
