MODEL 1
REMARK minimizedAffinity -4.36291218
REMARK minimizedRMSD -1
REMARK  0 active torsions:
REMARK  status: ('A' for Active; 'I' for Inactive)
ROOT
ATOM      1  C1  BNZ d   1       1.433   0.552   0.644  0.00  0.00     0.000 A 
ATOM      2  C2  BNZ d   1       2.014  -0.123   1.684  0.00  0.00     0.000 A 
ATOM      3  C3  BNZ d   1       1.279  -0.966   2.470  0.00  0.00     0.000 A 
ATOM      4  C4  BNZ d   1      -0.043  -1.102   2.241  0.00  0.00     0.000 A 
ATOM      5  C5  BNZ d   1      -0.646  -0.421   1.203  0.00  0.00     0.000 A 
ATOM      6  C6  BNZ d   1       0.105   0.397   0.389  0.00  0.00     0.000 A 
ENDROOT
TORSDOF 0
ENDMDL
