MODEL 1
REMARK minimizedAffinity -3.89759111
REMARK minimizedRMSD -1
REMARK  0 active torsions:
REMARK  status: ('A' for Active; 'I' for Inactive)
ROOT
ATOM      1  C1  BNZ d   1      -1.602   0.270  -0.807  0.00  0.00     0.000 A 
ATOM      2  C2  BNZ d   1      -1.974   0.367   0.507  0.00  0.00     0.000 A 
ATOM      3  C3  BNZ d   1      -1.075   0.127   1.508  0.00  0.00     0.000 A 
ATOM      4  C4  BNZ d   1       0.182  -0.248   1.195  0.00  0.00     0.000 A 
ATOM      5  C5  BNZ d   1       0.570  -0.359  -0.125  0.00  0.00     0.000 A 
ATOM      6  C6  BNZ d   1      -0.327  -0.079  -1.131  0.00  0.00     0.000 A 
ENDROOT
TORSDOF 0
ENDMDL
