MODEL 1
REMARK minimizedAffinity -4.5314002
REMARK minimizedRMSD -1
REMARK  0 active torsions:
REMARK  status: ('A' for Active; 'I' for Inactive)
ROOT
ATOM      1  C1  BNZ d   1       1.403  -1.256   2.389  0.00  0.00     0.000 A 
ATOM      2  C2  BNZ d   1       0.309  -0.437   2.471  0.00  0.00     0.000 A 
ATOM      3  C3  BNZ d   1      -0.344  -0.028   1.342  0.00  0.00     0.000 A 
ATOM      4  C4  BNZ d   1       0.120  -0.406   0.133  0.00  0.00     0.000 A 
ATOM      5  C5  BNZ d   1       1.228  -1.224   0.035  0.00  0.00     0.000 A 
ATOM      6  C6  BNZ d   1       1.860  -1.665   1.174  0.00  0.00     0.000 A 
ENDROOT
TORSDOF 0
ENDMDL
