MODEL 1
REMARK minimizedAffinity -3.24370074
REMARK minimizedRMSD -1
REMARK  0 active torsions:
REMARK  status: ('A' for Active; 'I' for Inactive)
ROOT
ATOM      1  C1  BNZ d   1      -1.067   3.420  -2.801  0.00  0.00     0.000 A 
ATOM      2  C2  BNZ d   1      -2.246   3.530  -2.115  0.00  0.00     0.000 A 
ATOM      3  C3  BNZ d   1      -2.533   2.687  -1.078  0.00  0.00     0.000 A 
ATOM      4  C4  BNZ d   1      -1.660   1.712  -0.755  0.00  0.00     0.000 A 
ATOM      5  C5  BNZ d   1      -0.470   1.582  -1.443  0.00  0.00     0.000 A 
ATOM      6  C6  BNZ d   1      -0.167   2.457  -2.462  0.00  0.00     0.000 A 
ENDROOT
TORSDOF 0
ENDMDL
