MODEL 1
REMARK minimizedAffinity 10.9514685
REMARK minimizedRMSD -1
REMARK  0 active torsions:
REMARK  status: ('A' for Active; 'I' for Inactive)
ROOT
ATOM      1  O1  BZF d   1      -1.467   1.755   2.647  0.00  0.00    -0.204 OA
ATOM      2  C2  BZF d   1      -2.466   2.279   1.849  0.00  0.00     0.174 A 
ATOM      3  C3  BZF d   1      -1.941   2.966   0.814  0.00  0.00    -0.012 A 
ATOM      4  C3A BZF d   1      -0.526   2.786   0.922  0.00  0.00    -0.107 A 
ATOM      5  C4  BZF d   1       0.535   3.213   0.176  0.00  0.00     0.055 A 
ATOM      6  C5  BZF d   1       1.796   2.925   0.594  0.00  0.00    -0.016 A 
ATOM      7  C6  BZF d   1       2.032   2.218   1.755  0.00  0.00     0.022 A 
ATOM      8  C7  BZF d   1       1.012   1.770   2.526  0.00  0.00     0.029 A 
ATOM      9  C7A BZF d   1      -0.264   2.030   2.089  0.00  0.00     0.058 A 
ENDROOT
TORSDOF 0
ENDMDL
