MODEL 1
REMARK minimizedAffinity 8.03462887
REMARK minimizedRMSD -1
REMARK  0 active torsions:
REMARK  status: ('A' for Active; 'I' for Inactive)
ROOT
ATOM      1  O1  BZF d   1       1.147   1.661   1.684  0.00  0.00    -0.204 OA
ATOM      2  C2  BZF d   1       1.305   2.121   0.392  0.00  0.00     0.174 A 
ATOM      3  C3  BZF d   1       0.206   2.788  -0.016  0.00  0.00    -0.012 A 
ATOM      4  C3A BZF d   1      -0.659   2.821   1.124  0.00  0.00    -0.107 A 
ATOM      5  C4  BZF d   1      -1.894   3.357   1.350  0.00  0.00     0.055 A 
ATOM      6  C5  BZF d   1      -2.495   3.150   2.551  0.00  0.00    -0.016 A 
ATOM      7  C6  BZF d   1      -1.892   2.408   3.545  0.00  0.00     0.022 A 
ATOM      8  C7  BZF d   1      -0.664   1.860   3.370  0.00  0.00     0.029 A 
ATOM      9  C7A BZF d   1      -0.041   2.096   2.168  0.00  0.00     0.058 A 
ENDROOT
TORSDOF 0
ENDMDL
