MODEL 1
REMARK minimizedAffinity 4.95369339
REMARK minimizedRMSD -1
REMARK  0 active torsions:
REMARK  status: ('A' for Active; 'I' for Inactive)
ROOT
ATOM      1  O1  BZF d   1       0.231   3.121  -0.698  0.00  0.00    -0.204 OA
ATOM      2  C2  BZF d   1      -0.807   3.768  -0.055  0.00  0.00     0.174 A 
ATOM      3  C3  BZF d   1      -0.726   3.593   1.279  0.00  0.00    -0.012 A 
ATOM      4  C3A BZF d   1       0.487   2.863   1.491  0.00  0.00    -0.107 A 
ATOM      5  C4  BZF d   1       1.122   2.402   2.608  0.00  0.00     0.055 A 
ATOM      6  C5  BZF d   1       2.253   1.662   2.466  0.00  0.00    -0.016 A 
ATOM      7  C6  BZF d   1       2.772   1.360   1.224  0.00  0.00     0.022 A 
ATOM      8  C7  BZF d   1       2.180   1.800   0.087  0.00  0.00     0.029 A 
ATOM      9  C7A BZF d   1       1.056   2.576   0.228  0.00  0.00     0.058 A 
ENDROOT
TORSDOF 0
ENDMDL
