MODEL 1
REMARK minimizedAffinity 5.45603752
REMARK minimizedRMSD -1
REMARK  0 active torsions:
REMARK  status: ('A' for Active; 'I' for Inactive)
ROOT
ATOM      1  O1  BZF d   1      -3.810   1.643   2.145  0.00  0.00    -0.204 OA
ATOM      2  C2  BZF d   1      -4.516   1.696   0.959  0.00  0.00     0.174 A 
ATOM      3  C3  BZF d   1      -3.731   2.135  -0.046  0.00  0.00    -0.012 A 
ATOM      4  C3A BZF d   1      -2.430   2.284   0.531  0.00  0.00    -0.107 A 
ATOM      5  C4  BZF d   1      -1.221   2.674   0.030  0.00  0.00     0.055 A 
ATOM      6  C5  BZF d   1      -0.161   2.782   0.874  0.00  0.00    -0.016 A 
ATOM      7  C6  BZF d   1      -0.276   2.513   2.222  0.00  0.00     0.022 A 
ATOM      8  C7  BZF d   1      -1.454   2.118   2.764  0.00  0.00     0.029 A 
ATOM      9  C7A BZF d   1      -2.519   1.976   1.908  0.00  0.00     0.058 A 
ENDROOT
TORSDOF 0
ENDMDL
