MODEL 1
REMARK minimizedAffinity 4.52962732
REMARK minimizedRMSD -1
REMARK  0 active torsions:
REMARK  status: ('A' for Active; 'I' for Inactive)
ROOT
ATOM      1  O1  BZF d   1       3.449  -0.498   0.318  0.00  0.00    -0.204 OA
ATOM      2  C2  BZF d   1       2.670  -0.951  -0.729  0.00  0.00     0.174 A 
ATOM      3  C3  BZF d   1       2.976  -0.301  -1.870  0.00  0.00    -0.012 A 
ATOM      4  C3A BZF d   1       4.075   0.552  -1.534  0.00  0.00    -0.107 A 
ATOM      5  C4  BZF d   1       4.831   1.436  -2.250  0.00  0.00     0.055 A 
ATOM      6  C5  BZF d   1       5.781   2.164  -1.607  0.00  0.00    -0.016 A 
ATOM      7  C6  BZF d   1       5.998   2.039  -0.250  0.00  0.00     0.022 A 
ATOM      8  C7  BZF d   1       5.276   1.172   0.501  0.00  0.00     0.029 A 
ATOM      9  C7A BZF d   1       4.338   0.410  -0.152  0.00  0.00     0.058 A 
ENDROOT
TORSDOF 0
ENDMDL
