MODEL 1
REMARK minimizedAffinity 6.15515471
REMARK minimizedRMSD -1
REMARK  0 active torsions:
REMARK  status: ('A' for Active; 'I' for Inactive)
ROOT
ATOM      1  C   UNL d   1      -1.431  -0.371   3.141  0.00  0.00     0.077 C 
ATOM      2  C1  UNL d   1      -0.737  -1.626   2.699  0.00  0.00    -0.074 A 
ATOM      3  C2  UNL d   1      -1.319  -2.880   2.909  0.00  0.00    -0.005 A 
ATOM      4  C3  UNL d   1      -0.666  -4.037   2.483  0.00  0.00     0.006 A 
ATOM      5  C4  UNL d   1       0.571  -3.952   1.844  0.00  0.00    -0.005 A 
ATOM      6  C5  UNL d   1       1.167  -2.706   1.625  0.00  0.00    -0.074 A 
ATOM      7  C6  UNL d   1       2.493  -2.596   0.931  0.00  0.00     0.077 C 
ATOM      8  C7  UNL d   1       0.503  -1.547   2.049  0.00  0.00    -0.001 A 
ENDROOT
TORSDOF 0
ENDMDL
