MODEL 1
REMARK minimizedAffinity 2.53197861
REMARK minimizedRMSD -1
REMARK  0 active torsions:
REMARK  status: ('A' for Active; 'I' for Inactive)
ROOT
ATOM      1  C   UNL d   1       4.846  -1.590   0.707  0.00  0.00     0.077 C 
ATOM      2  C1  UNL d   1       4.857  -3.018   0.249  0.00  0.00    -0.074 A 
ATOM      3  C2  UNL d   1       6.000  -3.578  -0.332  0.00  0.00    -0.005 A 
ATOM      4  C3  UNL d   1       5.999  -4.910  -0.745  0.00  0.00     0.006 A 
ATOM      5  C4  UNL d   1       4.857  -5.695  -0.581  0.00  0.00    -0.005 A 
ATOM      6  C5  UNL d   1       3.705  -5.153  -0.002  0.00  0.00    -0.074 A 
ATOM      7  C6  UNL d   1       2.473  -5.986   0.190  0.00  0.00     0.077 C 
ATOM      8  C7  UNL d   1       3.716  -3.816   0.417  0.00  0.00    -0.001 A 
ENDROOT
TORSDOF 0
ENDMDL
