MODEL 1
REMARK minimizedAffinity 4.34838629
REMARK minimizedRMSD -1
REMARK  0 active torsions:
REMARK  status: ('A' for Active; 'I' for Inactive)
ROOT
ATOM      1  C   UNL d   1       1.700   4.856  -6.000  0.00  0.00     0.077 C 
ATOM      2  C1  UNL d   1       3.199   4.818  -5.962  0.00  0.00    -0.074 A 
ATOM      3  C2  UNL d   1       3.948   5.999  -5.952  0.00  0.00    -0.005 A 
ATOM      4  C3  UNL d   1       5.341   5.949  -5.908  0.00  0.00     0.006 A 
ATOM      5  C4  UNL d   1       5.998   4.719  -5.872  0.00  0.00    -0.005 A 
ATOM      6  C5  UNL d   1       5.267   3.527  -5.881  0.00  0.00    -0.074 A 
ATOM      7  C6  UNL d   1       5.957   2.196  -5.833  0.00  0.00     0.077 C 
ATOM      8  C7  UNL d   1       3.867   3.586  -5.919  0.00  0.00    -0.001 A 
ENDROOT
TORSDOF 0
ENDMDL
