MODEL 1
REMARK minimizedAffinity 10.1693087
REMARK minimizedRMSD -1
REMARK  0 active torsions:
REMARK  status: ('A' for Active; 'I' for Inactive)
ROOT
ATOM      1  C   UNL d   1      -6.000  -0.016  -2.960  0.00  0.00     0.077 C 
ATOM      2  C1  UNL d   1      -4.602   0.050  -2.420  0.00  0.00    -0.074 A 
ATOM      3  C2  UNL d   1      -4.139  -0.900  -1.505  0.00  0.00    -0.005 A 
ATOM      4  C3  UNL d   1      -2.834  -0.831  -1.018  0.00  0.00     0.006 A 
ATOM      5  C4  UNL d   1      -1.980   0.188  -1.440  0.00  0.00    -0.005 A 
ATOM      6  C5  UNL d   1      -2.425   1.147  -2.355  0.00  0.00    -0.074 A 
ATOM      7  C6  UNL d   1      -1.517   2.244  -2.828  0.00  0.00     0.077 C 
ATOM      8  C7  UNL d   1      -3.735   1.067  -2.845  0.00  0.00    -0.001 A 
ENDROOT
TORSDOF 0
ENDMDL
