MODEL 1
REMARK minimizedAffinity 9.80841923
REMARK minimizedRMSD -1
REMARK  0 active torsions:
REMARK  status: ('A' for Active; 'I' for Inactive)
ROOT
ATOM      1  C   UNL d   1       4.298   5.996   4.828  0.00  0.00     0.077 C 
ATOM      2  C1  UNL d   1       3.005   5.442   4.307  0.00  0.00    -0.074 A 
ATOM      3  C2  UNL d   1       1.780   5.999   4.686  0.00  0.00    -0.005 A 
ATOM      4  C3  UNL d   1       0.586   5.479   4.186  0.00  0.00     0.006 A 
ATOM      5  C4  UNL d   1       0.606   4.398   3.303  0.00  0.00    -0.005 A 
ATOM      6  C5  UNL d   1       1.822   3.829   2.912  0.00  0.00    -0.074 A 
ATOM      7  C6  UNL d   1       1.862   2.673   1.957  0.00  0.00     0.077 C 
ATOM      8  C7  UNL d   1       3.017   4.362   3.414  0.00  0.00    -0.001 A 
ENDROOT
TORSDOF 0
ENDMDL
