MODEL 1
REMARK minimizedAffinity 1.87806642
REMARK minimizedRMSD -1
REMARK  0 active torsions:
REMARK  status: ('A' for Active; 'I' for Inactive)
ROOT
ATOM      1  C   UNL d   1       0.077  -1.934   2.261  0.00  0.00     0.077 C 
ATOM      2  C1  UNL d   1       1.338  -2.560   1.745  0.00  0.00    -0.074 A 
ATOM      3  C2  UNL d   1       2.502  -1.802   1.581  0.00  0.00    -0.005 A 
ATOM      4  C3  UNL d   1       3.670  -2.401   1.108  0.00  0.00     0.006 A 
ATOM      5  C4  UNL d   1       3.686  -3.761   0.797  0.00  0.00    -0.005 A 
ATOM      6  C5  UNL d   1       2.532  -4.535   0.956  0.00  0.00    -0.074 A 
ATOM      7  C6  UNL d   1       2.535  -6.000   0.634  0.00  0.00     0.077 C 
ATOM      8  C7  UNL d   1       1.364  -3.928   1.437  0.00  0.00    -0.001 A 
ENDROOT
TORSDOF 0
ENDMDL
