MODEL 1
REMARK minimizedAffinity 12.136344
REMARK minimizedRMSD -1
REMARK  0 active torsions:
REMARK  status: ('A' for Active; 'I' for Inactive)
ROOT
ATOM      1  C4' PXY d   1      -0.109  -1.524  -1.521  0.00  0.00     0.077 C 
ATOM      2  C1' PXY d   1      -0.760  -6.000  -5.121  0.00  0.00     0.077 C 
ATOM      3  C1  PXY d   1      -0.581  -4.821  -4.186  0.00  0.00    -0.082 A 
ATOM      4  C2  PXY d   1      -0.813  -4.971  -2.892  0.00  0.00     0.003 A 
ATOM      5  C3  PXY d   1      -0.687  -3.907  -2.036  0.00  0.00     0.003 A 
ATOM      6  C4  PXY d   1      -0.267  -2.690  -2.502  0.00  0.00    -0.082 A 
ATOM      7  C5  PXY d   1      -0.018  -2.531  -3.819  0.00  0.00     0.003 A 
ATOM      8  C6  PXY d   1      -0.191  -3.613  -4.677  0.00  0.00     0.003 A 
ENDROOT
TORSDOF 0
ENDMDL
