MODEL 1
REMARK minimizedAffinity -0.268359959
REMARK minimizedRMSD -1
REMARK  0 active torsions:
REMARK  status: ('A' for Active; 'I' for Inactive)
ROOT
ATOM      1  C4' PXY d   1       5.999   4.400  -5.338  0.00  0.00     0.077 C 
ATOM      2  C1' PXY d   1       2.439   4.751  -0.797  0.00  0.00     0.077 C 
ATOM      3  C1  PXY d   1       3.381   4.668  -1.982  0.00  0.00    -0.082 A 
ATOM      4  C2  PXY d   1       2.929   4.230  -3.147  0.00  0.00     0.003 A 
ATOM      5  C3  PXY d   1       3.775   4.118  -4.220  0.00  0.00     0.003 A 
ATOM      6  C4  PXY d   1       5.083   4.509  -4.116  0.00  0.00    -0.082 A 
ATOM      7  C5  PXY d   1       5.548   4.968  -2.935  0.00  0.00     0.003 A 
ATOM      8  C6  PXY d   1       4.684   5.034  -1.846  0.00  0.00     0.003 A 
ENDROOT
TORSDOF 0
ENDMDL
