MODEL 1
REMARK minimizedAffinity 6.39101934
REMARK minimizedRMSD -1
REMARK  0 active torsions:
REMARK  status: ('A' for Active; 'I' for Inactive)
ROOT
ATOM      1  C4' PXY d   1       2.624  -1.833   3.530  0.00  0.00     0.077 C 
ATOM      2  C1' PXY d   1      -2.599  -1.668   6.000  0.00  0.00     0.077 C 
ATOM      3  C1  PXY d   1      -1.226  -1.701   5.359  0.00  0.00    -0.082 A 
ATOM      4  C2  PXY d   1      -1.068  -2.279   4.179  0.00  0.00     0.003 A 
ATOM      5  C3  PXY d   1       0.173  -2.345   3.600  0.00  0.00     0.003 A 
ATOM      6  C4  PXY d   1       1.254  -1.768   4.210  0.00  0.00    -0.082 A 
ATOM      7  C5  PXY d   1       1.099  -1.167   5.409  0.00  0.00     0.003 A 
ATOM      8  C6  PXY d   1      -0.161  -1.146   5.999  0.00  0.00     0.003 A 
ENDROOT
TORSDOF 0
ENDMDL
