MODEL 1
REMARK minimizedAffinity 5.28308344
REMARK minimizedRMSD -1
REMARK  0 active torsions:
REMARK  status: ('A' for Active; 'I' for Inactive)
ROOT
ATOM      1  C4' PXY d   1       0.387  -1.879  -2.994  0.00  0.00     0.077 C 
ATOM      2  C1' PXY d   1      -1.713  -2.907   2.293  0.00  0.00     0.077 C 
ATOM      3  C1  PXY d   1      -1.169  -2.648   0.902  0.00  0.00    -0.082 A 
ATOM      4  C2  PXY d   1      -0.049  -1.958   0.755  0.00  0.00     0.003 A 
ATOM      5  C3  PXY d   1       0.440  -1.687  -0.497  0.00  0.00     0.003 A 
ATOM      6  C4  PXY d   1      -0.195  -2.173  -1.608  0.00  0.00    -0.082 A 
ATOM      7  C5  PXY d   1      -1.332  -2.887  -1.467  0.00  0.00     0.003 A 
ATOM      8  C6  PXY d   1      -1.834  -3.116  -0.189  0.00  0.00     0.003 A 
ENDROOT
TORSDOF 0
ENDMDL
