MODEL 1
REMARK minimizedAffinity 1.36517131
REMARK minimizedRMSD -1
REMARK  0 active torsions:
REMARK  status: ('A' for Active; 'I' for Inactive)
ROOT
ATOM      1  C4' PXY d   1      -1.137  -3.042   1.375  0.00  0.00     0.077 C 
ATOM      2  C1' PXY d   1       0.487  -2.058  -4.084  0.00  0.00     0.077 C 
ATOM      3  C1  PXY d   1       0.067  -2.306  -2.649  0.00  0.00    -0.082 A 
ATOM      4  C2  PXY d   1      -0.243  -3.532  -2.260  0.00  0.00     0.003 A 
ATOM      5  C3  PXY d   1      -0.655  -3.768  -0.974  0.00  0.00     0.003 A 
ATOM      6  C4  PXY d   1      -0.699  -2.748  -0.062  0.00  0.00    -0.082 A 
ATOM      7  C5  PXY d   1      -0.374  -1.496  -0.448  0.00  0.00     0.003 A 
ATOM      8  C6  PXY d   1       0.002  -1.270  -1.769  0.00  0.00     0.003 A 
ENDROOT
TORSDOF 0
ENDMDL
