MODEL 1
REMARK minimizedAffinity 3.81923938
REMARK minimizedRMSD -1
REMARK  0 active torsions:
REMARK  status: ('A' for Active; 'I' for Inactive)
ROOT
ATOM      1  C4' PXY d   1       4.782   5.999  -0.796  0.00  0.00     0.077 C 
ATOM      2  C1' PXY d   1       5.335   3.535  -5.995  0.00  0.00     0.077 C 
ATOM      3  C1  PXY d   1       5.184   4.192  -4.637  0.00  0.00    -0.082 A 
ATOM      4  C2  PXY d   1       5.993   3.844  -3.650  0.00  0.00     0.003 A 
ATOM      5  C3  PXY d   1       5.850   4.405  -2.406  0.00  0.00     0.003 A 
ATOM      6  C4  PXY d   1       4.904   5.369  -2.186  0.00  0.00    -0.082 A 
ATOM      7  C5  PXY d   1       4.082   5.737  -3.192  0.00  0.00     0.003 A 
ATOM      8  C6  PXY d   1       4.217   5.126  -4.435  0.00  0.00     0.003 A 
ENDROOT
TORSDOF 0
ENDMDL
