MODEL 1
REMARK minimizedAffinity 2.02182388
REMARK minimizedRMSD -1
REMARK  0 active torsions:
REMARK  status: ('A' for Active; 'I' for Inactive)
ROOT
ATOM      1  C4' PXY d   1      -1.591  -2.739   0.612  0.00  0.00     0.077 C 
ATOM      2  C1' PXY d   1       1.611  -1.967  -4.139  0.00  0.00     0.077 C 
ATOM      3  C1  PXY d   1       0.761  -2.172  -2.901  0.00  0.00    -0.082 A 
ATOM      4  C2  PXY d   1       1.112  -1.595  -1.763  0.00  0.00     0.003 A 
ATOM      5  C3  PXY d   1       0.373  -1.796  -0.626  0.00  0.00     0.003 A 
ATOM      6  C4  PXY d   1      -0.768  -2.552  -0.666  0.00  0.00    -0.082 A 
ATOM      7  C5  PXY d   1      -1.139  -3.136  -1.825  0.00  0.00     0.003 A 
ATOM      8  C6  PXY d   1      -0.352  -2.953  -2.959  0.00  0.00     0.003 A 
ENDROOT
TORSDOF 0
ENDMDL
