MODEL 1
REMARK minimizedAffinity 12.0493507
REMARK minimizedRMSD -1
REMARK  0 active torsions:
REMARK  status: ('A' for Active; 'I' for Inactive)
ROOT
ATOM      1  C4' PXY d   1       3.481   5.224  -5.707  0.00  0.00     0.077 C 
ATOM      2  C1' PXY d   1       5.801   5.998  -0.469  0.00  0.00     0.077 C 
ATOM      3  C1  PXY d   1       5.204   5.797  -1.848  0.00  0.00    -0.082 A 
ATOM      4  C2  PXY d   1       3.906   5.979  -2.032  0.00  0.00     0.003 A 
ATOM      5  C3  PXY d   1       3.345   5.770  -3.266  0.00  0.00     0.003 A 
ATOM      6  C4  PXY d   1       4.128   5.424  -4.334  0.00  0.00    -0.082 A 
ATOM      7  C5  PXY d   1       5.454   5.248  -4.157  0.00  0.00     0.003 A 
ATOM      8  C6  PXY d   1       5.999   5.424  -2.888  0.00  0.00     0.003 A 
ENDROOT
TORSDOF 0
ENDMDL
