MODEL 1
REMARK minimizedAffinity 5.47503853
REMARK minimizedRMSD -1
REMARK  0 active torsions:
REMARK  status: ('A' for Active; 'I' for Inactive)
ROOT
ATOM      1  C4' PXY d   1      -2.676  -2.742  -0.048  0.00  0.00     0.077 C 
ATOM      2  C1' PXY d   1       1.624  -2.101  -3.857  0.00  0.00     0.077 C 
ATOM      3  C1  PXY d   1       0.489  -2.274  -2.868  0.00  0.00    -0.082 A 
ATOM      4  C2  PXY d   1       0.448  -1.520  -1.781  0.00  0.00     0.003 A 
ATOM      5  C3  PXY d   1      -0.554  -1.685  -0.860  0.00  0.00     0.003 A 
ATOM      6  C4  PXY d   1      -1.554  -2.595  -1.079  0.00  0.00    -0.082 A 
ATOM      7  C5  PXY d   1      -1.524  -3.361  -2.190  0.00  0.00     0.003 A 
ATOM      8  C6  PXY d   1      -0.476  -3.206  -3.093  0.00  0.00     0.003 A 
ENDROOT
TORSDOF 0
ENDMDL
