MODEL 1
REMARK minimizedAffinity 3.83460522
REMARK minimizedRMSD -1
REMARK  0 active torsions:
REMARK  status: ('A' for Active; 'I' for Inactive)
ROOT
ATOM      1  C4' PXY d   1      -0.055  -2.920  -5.054  0.00  0.00     0.077 C 
ATOM      2  C1' PXY d   1      -0.762  -2.822   0.682  0.00  0.00     0.077 C 
ATOM      3  C1  PXY d   1      -0.575  -2.860  -0.822  0.00  0.00    -0.082 A 
ATOM      4  C2  PXY d   1      -0.195  -1.767  -1.462  0.00  0.00     0.003 A 
ATOM      5  C3  PXY d   1      -0.052  -1.775  -2.826  0.00  0.00     0.003 A 
ATOM      6  C4  PXY d   1      -0.248  -2.930  -3.535  0.00  0.00    -0.082 A 
ATOM      7  C5  PXY d   1      -0.625  -4.053  -2.888  0.00  0.00     0.003 A 
ATOM      8  C6  PXY d   1      -0.805  -4.012  -1.509  0.00  0.00     0.003 A 
ENDROOT
TORSDOF 0
ENDMDL
