MODEL 1
REMARK minimizedAffinity 0.529233754
REMARK minimizedRMSD -1
REMARK  0 active torsions:
REMARK  status: ('A' for Active; 'I' for Inactive)
ROOT
ATOM      1  C4' PXY d   1       2.358   4.998  -0.833  0.00  0.00     0.077 C 
ATOM      2  C1' PXY d   1       5.996   4.247  -5.262  0.00  0.00     0.077 C 
ATOM      3  C1  PXY d   1       5.052   4.445  -4.093  0.00  0.00    -0.082 A 
ATOM      4  C2  PXY d   1       3.810   3.997  -4.171  0.00  0.00     0.003 A 
ATOM      5  C3  PXY d   1       2.934   4.195  -3.136  0.00  0.00     0.003 A 
ATOM      6  C4  PXY d   1       3.349   4.812  -1.986  0.00  0.00    -0.082 A 
ATOM      7  C5  PXY d   1       4.618   5.263  -1.893  0.00  0.00     0.003 A 
ATOM      8  C6  PXY d   1       5.480   5.088  -2.972  0.00  0.00     0.003 A 
ENDROOT
TORSDOF 0
ENDMDL
