MODEL 1
REMARK minimizedAffinity 9.21565056
REMARK minimizedRMSD -1
REMARK  0 active torsions:
REMARK  status: ('A' for Active; 'I' for Inactive)
ROOT
ATOM      1  C4' PXY d   1      -2.528  -2.609  -3.449  0.00  0.00     0.077 C 
ATOM      2  C1' PXY d   1       3.187  -1.819  -3.092  0.00  0.00     0.077 C 
ATOM      3  C1  PXY d   1       1.689  -2.034  -3.176  0.00  0.00    -0.082 A 
ATOM      4  C2  PXY d   1       1.061  -1.825  -4.321  0.00  0.00     0.003 A 
ATOM      5  C3  PXY d   1      -0.299  -1.984  -4.406  0.00  0.00     0.003 A 
ATOM      6  C4  PXY d   1      -1.015  -2.413  -3.321  0.00  0.00    -0.082 A 
ATOM      7  C5  PXY d   1      -0.380  -2.639  -2.152  0.00  0.00     0.003 A 
ATOM      8  C6  PXY d   1       0.994  -2.432  -2.075  0.00  0.00     0.003 A 
ENDROOT
TORSDOF 0
ENDMDL
