MODEL 1
REMARK minimizedAffinity 4.43154907
REMARK minimizedRMSD -1
REMARK  0 active torsions:
REMARK  status: ('A' for Active; 'I' for Inactive)
ROOT
ATOM      1  C4' PXY d   1       1.848  -2.432  -3.401  0.00  0.00     0.077 C 
ATOM      2  C1' PXY d   1      -2.954  -1.895  -0.227  0.00  0.00     0.077 C 
ATOM      3  C1  PXY d   1      -1.702  -2.040  -1.070  0.00  0.00    -0.082 A 
ATOM      4  C2  PXY d   1      -0.536  -2.245  -0.479  0.00  0.00     0.003 A 
ATOM      5  C3  PXY d   1       0.611  -2.346  -1.224  0.00  0.00     0.003 A 
ATOM      6  C4  PXY d   1       0.556  -2.290  -2.591  0.00  0.00    -0.082 A 
ATOM      7  C5  PXY d   1      -0.631  -2.092  -3.202  0.00  0.00     0.003 A 
ATOM      8  C6  PXY d   1      -1.778  -1.951  -2.425  0.00  0.00     0.003 A 
ENDROOT
TORSDOF 0
ENDMDL
