MODEL 1
REMARK minimizedAffinity 0.368665904
REMARK minimizedRMSD -1
REMARK  0 active torsions:
REMARK  status: ('A' for Active; 'I' for Inactive)
ROOT
ATOM      1  C4' PXY d   1       0.786  -1.854  -3.546  0.00  0.00     0.077 C 
ATOM      2  C1' PXY d   1      -1.788  -2.686   1.562  0.00  0.00     0.077 C 
ATOM      3  C1  PXY d   1      -1.112  -2.455   0.225  0.00  0.00    -0.082 A 
ATOM      4  C2  PXY d   1      -1.298  -3.319  -0.760  0.00  0.00     0.003 A 
ATOM      5  C3  PXY d   1      -0.669  -3.142  -1.966  0.00  0.00     0.003 A 
ATOM      6  C4  PXY d   1       0.117  -2.042  -2.182  0.00  0.00    -0.082 A 
ATOM      7  C5  PXY d   1       0.303  -1.151  -1.186  0.00  0.00     0.003 A 
ATOM      8  C6  PXY d   1      -0.311  -1.370   0.044  0.00  0.00     0.003 A 
ENDROOT
TORSDOF 0
ENDMDL
