MODEL 1
REMARK minimizedAffinity 1.22484946
REMARK minimizedRMSD -1
REMARK  0 active torsions:
REMARK  status: ('A' for Active; 'I' for Inactive)
ROOT
ATOM      1  C4' PXY d   1       5.993   5.495  -0.041  0.00  0.00     0.077 C 
ATOM      2  C1' PXY d   1       5.848   3.955  -5.610  0.00  0.00     0.077 C 
ATOM      3  C1  PXY d   1       5.881   4.347  -4.146  0.00  0.00    -0.082 A 
ATOM      4  C2  PXY d   1       5.825   5.626  -3.810  0.00  0.00     0.003 A 
ATOM      5  C3  PXY d   1       5.886   6.000  -2.492  0.00  0.00     0.003 A 
ATOM      6  C4  PXY d   1       5.952   5.053  -1.506  0.00  0.00    -0.082 A 
ATOM      7  C5  PXY d   1       6.000   3.746  -1.840  0.00  0.00     0.003 A 
ATOM      8  C6  PXY d   1       5.978   3.389  -3.185  0.00  0.00     0.003 A 
ENDROOT
TORSDOF 0
ENDMDL
