MODEL 1
REMARK minimizedAffinity 7.76658678
REMARK minimizedRMSD -1
REMARK  0 active torsions:
REMARK  status: ('A' for Active; 'I' for Inactive)
ROOT
ATOM      1  C4' PXY d   1       0.102  -1.881  -5.319  0.00  0.00     0.077 C 
ATOM      2  C1' PXY d   1      -0.450  -3.035   0.318  0.00  0.00     0.077 C 
ATOM      3  C1  PXY d   1      -0.295  -2.725  -1.158  0.00  0.00    -0.082 A 
ATOM      4  C2  PXY d   1      -1.343  -2.820  -1.960  0.00  0.00     0.003 A 
ATOM      5  C3  PXY d   1      -1.213  -2.575  -3.302  0.00  0.00     0.003 A 
ATOM      6  C4  PXY d   1      -0.010  -2.175  -3.821  0.00  0.00    -0.082 A 
ATOM      7  C5  PXY d   1       1.061  -2.065  -3.007  0.00  0.00     0.003 A 
ATOM      8  C6  PXY d   1       0.918  -2.358  -1.654  0.00  0.00     0.003 A 
ENDROOT
TORSDOF 0
ENDMDL
