MODEL 1
REMARK minimizedAffinity 1.52664435
REMARK minimizedRMSD -1
REMARK  0 active torsions:
REMARK  status: ('A' for Active; 'I' for Inactive)
ROOT
ATOM      1  C4' PXY d   1       5.998   3.856  -5.868  0.00  0.00     0.077 C 
ATOM      2  C1' PXY d   1       4.035   5.986  -0.865  0.00  0.00     0.077 C 
ATOM      3  C1  PXY d   1       4.538   5.430  -2.183  0.00  0.00    -0.082 A 
ATOM      4  C2  PXY d   1       5.509   4.531  -2.186  0.00  0.00     0.003 A 
ATOM      5  C3  PXY d   1       5.998   4.042  -3.369  0.00  0.00     0.003 A 
ATOM      6  C4  PXY d   1       5.452   4.437  -4.561  0.00  0.00    -0.082 A 
ATOM      7  C5  PXY d   1       4.454   5.346  -4.566  0.00  0.00     0.003 A 
ATOM      8  C6  PXY d   1       3.999   5.861  -3.356  0.00  0.00     0.003 A 
ENDROOT
TORSDOF 0
ENDMDL
