MODEL 1
REMARK minimizedAffinity 0.170945168
REMARK minimizedRMSD -1
REMARK  0 active torsions:
REMARK  status: ('A' for Active; 'I' for Inactive)
ROOT
ATOM      1  C4' PXY d   1       5.996   0.949  -5.906  0.00  0.00     0.077 C 
ATOM      2  C1' PXY d   1       5.956   5.994  -3.085  0.00  0.00     0.077 C 
ATOM      3  C1  PXY d   1       5.972   4.666  -3.814  0.00  0.00    -0.082 A 
ATOM      4  C2  PXY d   1       5.973   4.646  -5.137  0.00  0.00     0.003 A 
ATOM      5  C3  PXY d   1       5.954   3.453  -5.813  0.00  0.00     0.003 A 
ATOM      6  C4  PXY d   1       5.989   2.268  -5.128  0.00  0.00    -0.082 A 
ATOM      7  C5  PXY d   1       6.000   2.280  -3.778  0.00  0.00     0.003 A 
ATOM      8  C6  PXY d   1       5.976   3.501  -3.111  0.00  0.00     0.003 A 
ENDROOT
TORSDOF 0
ENDMDL
