MODEL 1
REMARK minimizedAffinity -1.04493368
REMARK minimizedRMSD -1
REMARK  0 active torsions:
REMARK  status: ('A' for Active; 'I' for Inactive)
ROOT
ATOM      1  C4' PXY d   1       3.394   5.832  -1.629  0.00  0.00     0.077 C 
ATOM      2  C1' PXY d   1       5.945   3.038  -6.000  0.00  0.00     0.077 C 
ATOM      3  C1  PXY d   1       5.265   3.772  -4.861  0.00  0.00    -0.082 A 
ATOM      4  C2  PXY d   1       6.000   4.385  -3.947  0.00  0.00     0.003 A 
ATOM      5  C3  PXY d   1       5.402   5.027  -2.893  0.00  0.00     0.003 A 
ATOM      6  C4  PXY d   1       4.037   5.087  -2.802  0.00  0.00    -0.082 A 
ATOM      7  C5  PXY d   1       3.281   4.473  -3.737  0.00  0.00     0.003 A 
ATOM      8  C6  PXY d   1       3.908   3.792  -4.776  0.00  0.00     0.003 A 
ENDROOT
TORSDOF 0
ENDMDL
