MODEL 1
REMARK minimizedAffinity 1.98880923
REMARK minimizedRMSD -1
REMARK  0 active torsions:
REMARK  status: ('A' for Active; 'I' for Inactive)
ROOT
ATOM      1  C4' PXY d   1      -2.139  -2.356  -0.192  0.00  0.00     0.077 C 
ATOM      2  C1' PXY d   1       2.724  -2.200  -3.313  0.00  0.00     0.077 C 
ATOM      3  C1  PXY d   1       1.443  -2.232  -2.503  0.00  0.00    -0.082 A 
ATOM      4  C2  PXY d   1       1.478  -2.630  -1.241  0.00  0.00     0.003 A 
ATOM      5  C3  PXY d   1       0.324  -2.696  -0.503  0.00  0.00     0.003 A 
ATOM      6  C4  PXY d   1      -0.869  -2.299  -1.046  0.00  0.00    -0.082 A 
ATOM      7  C5  PXY d   1      -0.910  -1.881  -2.329  0.00  0.00     0.003 A 
ATOM      8  C6  PXY d   1       0.265  -1.861  -3.074  0.00  0.00     0.003 A 
ENDROOT
TORSDOF 0
ENDMDL
