MODEL 1
REMARK minimizedAffinity -2.96003771
REMARK minimizedRMSD -1
REMARK  0 active torsions:
REMARK  status: ('A' for Active; 'I' for Inactive)
ROOT
ATOM      1  C   UNL d   1       1.775  -4.214   0.268  0.00  0.00     0.172 C 
ATOM      2  N   UNL d   1       1.059  -2.985   0.019  0.00  0.00    -0.070 N 
ATOM      3  C1  UNL d   1       1.626  -1.786  -0.323  0.00  0.00    -0.004 A 
ATOM      4  C2  UNL d   1       0.610  -0.867  -0.473  0.00  0.00    -0.047 A 
ATOM      5  C3  UNL d   1      -0.609  -1.535  -0.210  0.00  0.00    -0.047 A 
ATOM      6  C4  UNL d   1      -0.302  -2.845   0.091  0.00  0.00    -0.004 A 
ENDROOT
TORSDOF 0
ENDMDL
