MODEL 1
REMARK minimizedAffinity -1.67260599
REMARK minimizedRMSD -1
REMARK  0 active torsions:
REMARK  status: ('A' for Active; 'I' for Inactive)
ROOT
ATOM      1  C   UNL d   1       0.746  -0.553  -1.150  0.00  0.00     0.172 C 
ATOM      2  N   UNL d   1       0.830  -1.827  -0.475  0.00  0.00    -0.070 N 
ATOM      3  C1  UNL d   1       1.937  -2.631  -0.424  0.00  0.00    -0.004 A 
ATOM      4  C2  UNL d   1       1.612  -3.750   0.312  0.00  0.00    -0.047 A 
ATOM      5  C3  UNL d   1       0.263  -3.614   0.717  0.00  0.00    -0.047 A 
ATOM      6  C4  UNL d   1      -0.197  -2.414   0.216  0.00  0.00    -0.004 A 
ENDROOT
TORSDOF 0
ENDMDL
