MODEL 1
REMARK minimizedAffinity -3.68088818
REMARK minimizedRMSD -1
REMARK  0 active torsions:
REMARK  status: ('A' for Active; 'I' for Inactive)
ROOT
ATOM      1  C   UNL d   1       2.903  -0.524  -2.184  0.00  0.00     0.172 C 
ATOM      2  N   UNL d   1       2.100  -1.293  -1.262  0.00  0.00    -0.070 N 
ATOM      3  C1  UNL d   1       2.492  -2.443  -0.630  0.00  0.00    -0.004 A 
ATOM      4  C2  UNL d   1       1.446  -2.866   0.161  0.00  0.00    -0.047 A 
ATOM      5  C3  UNL d   1       0.389  -1.939  -0.001  0.00  0.00    -0.047 A 
ATOM      6  C4  UNL d   1       0.821  -0.976  -0.888  0.00  0.00    -0.004 A 
ENDROOT
TORSDOF 0
ENDMDL
