MODEL 1
REMARK minimizedAffinity -2.7103436
REMARK minimizedRMSD -1
REMARK  0 active torsions:
REMARK  status: ('A' for Active; 'I' for Inactive)
ROOT
ATOM      1  C   UNL d   1       1.429  -0.804  -1.197  0.00  0.00     0.172 C 
ATOM      2  N   UNL d   1       1.211  -2.095  -0.590  0.00  0.00    -0.070 N 
ATOM      3  C1  UNL d   1       2.186  -2.999  -0.263  0.00  0.00    -0.004 A 
ATOM      4  C2  UNL d   1       1.572  -4.100   0.293  0.00  0.00    -0.047 A 
ATOM      5  C3  UNL d   1       0.179  -3.851   0.299  0.00  0.00    -0.047 A 
ATOM      6  C4  UNL d   1      -0.016  -2.602  -0.253  0.00  0.00    -0.004 A 
ENDROOT
TORSDOF 0
ENDMDL
