MODEL 1
REMARK minimizedAffinity -0.272218913
REMARK minimizedRMSD -1
REMARK  0 active torsions:
REMARK  status: ('A' for Active; 'I' for Inactive)
ROOT
ATOM      1  C   UNL d   1      -5.737  -0.341   2.743  0.00  0.00     0.172 C 
ATOM      2  N   UNL d   1      -4.518   0.062   3.403  0.00  0.00    -0.070 N 
ATOM      3  C1  UNL d   1      -3.416  -0.727   3.596  0.00  0.00    -0.004 A 
ATOM      4  C2  UNL d   1      -2.470   0.023   4.261  0.00  0.00    -0.047 A 
ATOM      5  C3  UNL d   1      -3.024   1.308   4.476  0.00  0.00    -0.047 A 
ATOM      6  C4  UNL d   1      -4.292   1.304   3.935  0.00  0.00    -0.004 A 
ENDROOT
TORSDOF 0
ENDMDL
