MODEL 1
REMARK minimizedAffinity 0.501908898
REMARK minimizedRMSD -1
REMARK  0 active torsions:
REMARK  status: ('A' for Active; 'I' for Inactive)
ROOT
ATOM      1  C   UNL d   1      -0.231  -1.267  -3.557  0.00  0.00     0.172 C 
ATOM      2  N   UNL d   1       0.502  -1.221  -2.313  0.00  0.00    -0.070 N 
ATOM      3  C1  UNL d   1       1.289  -2.224  -1.814  0.00  0.00    -0.004 A 
ATOM      4  C2  UNL d   1       1.810  -1.792  -0.613  0.00  0.00    -0.047 A 
ATOM      5  C3  UNL d   1       1.318  -0.486  -0.383  0.00  0.00    -0.047 A 
ATOM      6  C4  UNL d   1       0.510  -0.157  -1.451  0.00  0.00    -0.004 A 
ENDROOT
TORSDOF 0
ENDMDL
