MODEL 1
REMARK minimizedAffinity 1.90077972
REMARK minimizedRMSD -1
REMARK  0 active torsions:
REMARK  status: ('A' for Active; 'I' for Inactive)
ROOT
ATOM      1  C   UNL d   1       2.034  -3.556   0.178  0.00  0.00     0.172 C 
ATOM      2  N   UNL d   1       1.409  -2.346  -0.303  0.00  0.00    -0.070 N 
ATOM      3  C1  UNL d   1       0.168  -1.891   0.054  0.00  0.00    -0.004 A 
ATOM      4  C2  UNL d   1      -0.059  -0.710  -0.619  0.00  0.00    -0.047 A 
ATOM      5  C3  UNL d   1       1.085  -0.446  -1.409  0.00  0.00    -0.047 A 
ATOM      6  C4  UNL d   1       1.978  -1.475  -1.194  0.00  0.00    -0.004 A 
ENDROOT
TORSDOF 0
ENDMDL
