MODEL 1
REMARK minimizedAffinity 2.22592902
REMARK minimizedRMSD -1
REMARK  0 active torsions:
REMARK  status: ('A' for Active; 'I' for Inactive)
ROOT
ATOM      1  C   UNL d   1       1.124  -5.853   0.904  0.00  0.00     0.172 C 
ATOM      2  N   UNL d   1       1.629  -4.516   0.695  0.00  0.00    -0.070 N 
ATOM      3  C1  UNL d   1       1.301  -3.693  -0.348  0.00  0.00    -0.004 A 
ATOM      4  C2  UNL d   1       1.990  -2.510  -0.185  0.00  0.00    -0.047 A 
ATOM      5  C3  UNL d   1       2.760  -2.628   0.996  0.00  0.00    -0.047 A 
ATOM      6  C4  UNL d   1       2.518  -3.880   1.521  0.00  0.00    -0.004 A 
ENDROOT
TORSDOF 0
ENDMDL
