MODEL 1
REMARK minimizedAffinity -4.41317654
REMARK minimizedRMSD -1
REMARK  0 active torsions:
REMARK  status: ('A' for Active; 'I' for Inactive)
ROOT
ATOM      1  C   UNL d   1       1.435  -4.174   0.356  0.00  0.00     0.172 C 
ATOM      2  N   UNL d   1       1.023  -2.832   0.019  0.00  0.00    -0.070 N 
ATOM      3  C1  UNL d   1      -0.265  -2.367   0.028  0.00  0.00    -0.004 A 
ATOM      4  C2  UNL d   1      -0.238  -1.042  -0.352  0.00  0.00    -0.047 A 
ATOM      5  C3  UNL d   1       1.112  -0.700  -0.599  0.00  0.00    -0.047 A 
ATOM      6  C4  UNL d   1       1.871  -1.826  -0.361  0.00  0.00    -0.004 A 
ENDROOT
TORSDOF 0
ENDMDL
