MODEL 1
REMARK minimizedAffinity -3.12964749
REMARK minimizedRMSD -1
REMARK  0 active torsions:
REMARK  status: ('A' for Active; 'I' for Inactive)
ROOT
ATOM      1  C   UNL d   1      -6.000  -0.787   2.795  0.00  0.00     0.172 C 
ATOM      2  N   UNL d   1      -4.773  -0.354   3.421  0.00  0.00    -0.070 N 
ATOM      3  C1  UNL d   1      -4.668   0.607   4.392  0.00  0.00    -0.004 A 
ATOM      4  C2  UNL d   1      -3.336   0.727   4.724  0.00  0.00    -0.047 A 
ATOM      5  C3  UNL d   1      -2.615  -0.193   3.925  0.00  0.00    -0.047 A 
ATOM      6  C4  UNL d   1      -3.530  -0.848   3.128  0.00  0.00    -0.004 A 
ENDROOT
TORSDOF 0
ENDMDL
