MODEL 1
REMARK minimizedAffinity -2.76092815
REMARK minimizedRMSD -1
REMARK  0 active torsions:
REMARK  status: ('A' for Active; 'I' for Inactive)
ROOT
ATOM      1  C   UNL d   1       1.230  -5.052   1.115  0.00  0.00     0.172 C 
ATOM      2  N   UNL d   1       1.286  -3.744   0.504  0.00  0.00    -0.070 N 
ATOM      3  C1  UNL d   1       0.264  -2.834   0.470  0.00  0.00    -0.004 A 
ATOM      4  C2  UNL d   1       0.715  -1.717  -0.199  0.00  0.00    -0.047 A 
ATOM      5  C3  UNL d   1       2.055  -1.965  -0.581  0.00  0.00    -0.047 A 
ATOM      6  C4  UNL d   1       2.383  -3.227  -0.133  0.00  0.00    -0.004 A 
ENDROOT
TORSDOF 0
ENDMDL
