MODEL 1
REMARK minimizedAffinity 0.226531923
REMARK minimizedRMSD -1
REMARK  0 active torsions:
REMARK  status: ('A' for Active; 'I' for Inactive)
ROOT
ATOM      1  C   UNL d   1       2.258  -3.181  -0.253  0.00  0.00     0.172 C 
ATOM      2  N   UNL d   1       1.471  -2.018  -0.587  0.00  0.00    -0.070 N 
ATOM      3  C1  UNL d   1       0.106  -1.930  -0.517  0.00  0.00    -0.004 A 
ATOM      4  C2  UNL d   1      -0.257  -0.662  -0.916  0.00  0.00    -0.047 A 
ATOM      5  C3  UNL d   1       0.931   0.036  -1.238  0.00  0.00    -0.047 A 
ATOM      6  C4  UNL d   1       1.985  -0.826  -1.025  0.00  0.00    -0.004 A 
ENDROOT
TORSDOF 0
ENDMDL
