MODEL 1
REMARK minimizedAffinity -2.14029884
REMARK minimizedRMSD -1
REMARK  0 active torsions:
REMARK  status: ('A' for Active; 'I' for Inactive)
ROOT
ATOM      1  C   UNL d   1       1.155  -4.181   0.802  0.00  0.00     0.172 C 
ATOM      2  N   UNL d   1       0.801  -2.924   0.187  0.00  0.00    -0.070 N 
ATOM      3  C1  UNL d   1       1.600  -2.191  -0.649  0.00  0.00    -0.004 A 
ATOM      4  C2  UNL d   1       0.901  -1.062  -1.019  0.00  0.00    -0.047 A 
ATOM      5  C3  UNL d   1      -0.362  -1.119  -0.383  0.00  0.00    -0.047 A 
ATOM      6  C4  UNL d   1      -0.397  -2.281   0.358  0.00  0.00    -0.004 A 
ENDROOT
TORSDOF 0
ENDMDL
