MODEL 1
REMARK minimizedAffinity -3.44065213
REMARK minimizedRMSD -1
REMARK  0 active torsions:
REMARK  status: ('A' for Active; 'I' for Inactive)
ROOT
ATOM      1  C   UNL d   1       0.466  -4.104   0.337  0.00  0.00     0.172 C 
ATOM      2  N   UNL d   1       0.523  -2.710  -0.036  0.00  0.00    -0.070 N 
ATOM      3  C1  UNL d   1       1.636  -1.915   0.015  0.00  0.00    -0.004 A 
ATOM      4  C2  UNL d   1       1.278  -0.658  -0.421  0.00  0.00    -0.047 A 
ATOM      5  C3  UNL d   1      -0.099  -0.698  -0.745  0.00  0.00    -0.047 A 
ATOM      6  C4  UNL d   1      -0.541  -1.981  -0.497  0.00  0.00    -0.004 A 
ENDROOT
TORSDOF 0
ENDMDL
