MODEL 1
REMARK minimizedAffinity -1.55731523
REMARK minimizedRMSD -1
REMARK  0 active torsions:
REMARK  status: ('A' for Active; 'I' for Inactive)
ROOT
ATOM      1  C   UNL d   1      -3.776   2.141  -0.106  0.00  0.00     0.172 C 
ATOM      2  N   UNL d   1      -4.095   1.184   0.927  0.00  0.00    -0.070 N 
ATOM      3  C1  UNL d   1      -4.909   0.092   0.781  0.00  0.00    -0.004 A 
ATOM      4  C2  UNL d   1      -4.957  -0.564   1.991  0.00  0.00    -0.047 A 
ATOM      5  C3  UNL d   1      -4.145   0.158   2.898  0.00  0.00    -0.047 A 
ATOM      6  C4  UNL d   1      -3.624   1.236   2.213  0.00  0.00    -0.004 A 
ENDROOT
TORSDOF 0
ENDMDL
