MODEL 1
REMARK minimizedAffinity -3.16178775
REMARK minimizedRMSD -1
REMARK  0 active torsions:
REMARK  status: ('A' for Active; 'I' for Inactive)
ROOT
ATOM      1  C   UNL d   1       0.362  -4.120   1.315  0.00  0.00     0.172 C 
ATOM      2  N   UNL d   1       0.553  -2.940   0.505  0.00  0.00    -0.070 N 
ATOM      3  C1  UNL d   1       1.756  -2.475   0.044  0.00  0.00    -0.004 A 
ATOM      4  C2  UNL d   1       1.514  -1.332  -0.687  0.00  0.00    -0.047 A 
ATOM      5  C3  UNL d   1       0.118  -1.101  -0.663  0.00  0.00    -0.047 A 
ATOM      6  C4  UNL d   1      -0.452  -2.112   0.082  0.00  0.00    -0.004 A 
ENDROOT
TORSDOF 0
ENDMDL
