MODEL 1
REMARK minimizedAffinity -1.20728695
REMARK minimizedRMSD -1
REMARK  0 active torsions:
REMARK  status: ('A' for Active; 'I' for Inactive)
ROOT
ATOM      1  C   UNL d   1       1.331  -5.944   1.079  0.00  0.00     0.172 C 
ATOM      2  N   UNL d   1       1.752  -4.633   0.643  0.00  0.00    -0.070 N 
ATOM      3  C1  UNL d   1       1.387  -4.026  -0.529  0.00  0.00    -0.004 A 
ATOM      4  C2  UNL d   1       1.995  -2.790  -0.571  0.00  0.00    -0.047 A 
ATOM      5  C3  UNL d   1       2.752  -2.649   0.616  0.00  0.00    -0.047 A 
ATOM      6  C4  UNL d   1       2.583  -3.805   1.350  0.00  0.00    -0.004 A 
ENDROOT
TORSDOF 0
ENDMDL
