MODEL 1
REMARK minimizedAffinity -3.19379497
REMARK minimizedRMSD -1
REMARK  1 active torsions:
REMARK  status: ('A' for Active; 'I' for Inactive)
REMARK    1  A    between atoms: C3_4  and  O_7 
ROOT
ATOM      1  C   UNL d   1      -0.131   0.140  -0.126  0.00  0.00    -0.033 A 
ATOM      2  C1  UNL d   1       0.733   1.232  -0.022  0.00  0.00     0.039 A 
ATOM      3  C2  UNL d   1       2.077   1.033   0.301  0.00  0.00    -0.080 A 
ATOM      4  C3  UNL d   1       2.543  -0.261   0.515  0.00  0.00     0.150 A 
ATOM      5  C4  UNL d   1       1.689  -1.354   0.409  0.00  0.00    -0.007 A 
ATOM      6  C5  UNL d   1       0.347  -1.153   0.088  0.00  0.00     0.039 A 
ENDROOT
BRANCH   4   7
ATOM      7  O   UNL d   1       3.845  -0.505   0.837  0.00  0.00    -0.526 OA
ATOM      8  H5  UNL d   1       4.311   0.346   0.904  0.00  0.00     0.418 HD
ENDBRANCH   4   7
TORSDOF 1
ENDMDL
