MODEL 1
REMARK minimizedAffinity -3.13884687
REMARK minimizedRMSD -1
REMARK  1 active torsions:
REMARK  status: ('A' for Active; 'I' for Inactive)
REMARK    1  A    between atoms: C3_4  and  O_7 
ROOT
ATOM      1  C   UNL d   1       1.061   1.319   0.556  0.00  0.00    -0.033 A 
ATOM      2  C1  UNL d   1      -0.131   0.702   0.173  0.00  0.00     0.039 A 
ATOM      3  C2  UNL d   1      -0.488  -0.531   0.721  0.00  0.00    -0.080 A 
ATOM      4  C3  UNL d   1       0.354  -1.136   1.651  0.00  0.00     0.150 A 
ATOM      5  C4  UNL d   1       1.541  -0.524   2.040  0.00  0.00    -0.007 A 
ATOM      6  C5  UNL d   1       1.897   0.707   1.491  0.00  0.00     0.039 A 
ENDROOT
BRANCH   4   7
ATOM      7  O   UNL d   1       0.050  -2.341   2.210  0.00  0.00    -0.526 OA
ATOM      8  H5  UNL d   1      -0.785  -2.657   1.825  0.00  0.00     0.418 HD
ENDBRANCH   4   7
TORSDOF 1
ENDMDL
