MODEL 1
REMARK minimizedAffinity -2.4561615
REMARK minimizedRMSD -1
REMARK  1 active torsions:
REMARK  status: ('A' for Active; 'I' for Inactive)
REMARK    1  A    between atoms: C3_4  and  O_7 
ROOT
ATOM      1  C   UNL d   1       1.105   1.597   0.271  0.00  0.00    -0.033 A 
ATOM      2  C1  UNL d   1       2.138   1.148   1.095  0.00  0.00     0.039 A 
ATOM      3  C2  UNL d   1       2.066  -0.117   1.682  0.00  0.00    -0.080 A 
ATOM      4  C3  UNL d   1       0.957  -0.922   1.436  0.00  0.00     0.150 A 
ATOM      5  C4  UNL d   1      -0.074  -0.483   0.613  0.00  0.00    -0.007 A 
ATOM      6  C5  UNL d   1      -0.000   0.781   0.028  0.00  0.00     0.039 A 
ENDROOT
BRANCH   4   7
ATOM      7  O   UNL d   1       0.840  -2.162   1.991  0.00  0.00    -0.526 OA
ATOM      8  H5  UNL d   1       1.613  -2.319   2.558  0.00  0.00     0.418 HD
ENDBRANCH   4   7
TORSDOF 1
ENDMDL
