MODEL 1
REMARK minimizedAffinity -4.42464828
REMARK minimizedRMSD -1
REMARK  1 active torsions:
REMARK  status: ('A' for Active; 'I' for Inactive)
REMARK    1  A    between atoms: C3_4  and  O_7 
ROOT
ATOM      1  C   UNL d   1       2.219  -0.795   1.837  0.00  0.00    -0.033 A 
ATOM      2  C1  UNL d   1       1.141  -1.680   1.877  0.00  0.00     0.039 A 
ATOM      3  C2  UNL d   1       0.001  -1.431   1.110  0.00  0.00    -0.080 A 
ATOM      4  C3  UNL d   1      -0.047  -0.294   0.308  0.00  0.00     0.150 A 
ATOM      5  C4  UNL d   1       1.025   0.590   0.260  0.00  0.00    -0.007 A 
ATOM      6  C5  UNL d   1       2.162   0.340   1.027  0.00  0.00     0.039 A 
ENDROOT
BRANCH   4   7
ATOM      7  O   UNL d   1      -1.140  -0.006  -0.454  0.00  0.00    -0.526 OA
ATOM      8  H5  UNL d   1      -1.813  -0.690  -0.298  0.00  0.00     0.418 HD
ENDBRANCH   4   7
TORSDOF 1
ENDMDL
