MODEL 1
REMARK minimizedAffinity -4.44808912
REMARK minimizedRMSD -1
REMARK  1 active torsions:
REMARK  status: ('A' for Active; 'I' for Inactive)
REMARK    1  A    between atoms: C3_4  and  O_7 
ROOT
ATOM      1  C   UNL d   1       2.620   1.267   4.139  0.00  0.00    -0.033 A 
ATOM      2  C1  UNL d   1       2.146   2.136   3.155  0.00  0.00     0.039 A 
ATOM      3  C2  UNL d   1       1.945   1.677   1.852  0.00  0.00    -0.080 A 
ATOM      4  C3  UNL d   1       2.222   0.348   1.546  0.00  0.00     0.150 A 
ATOM      5  C4  UNL d   1       2.692  -0.526   2.522  0.00  0.00    -0.007 A 
ATOM      6  C5  UNL d   1       2.892  -0.065   3.822  0.00  0.00     0.039 A 
ENDROOT
BRANCH   4   7
ATOM      7  O   UNL d   1       2.047  -0.145   0.287  0.00  0.00    -0.526 OA
ATOM      8  H5  UNL d   1       1.746   0.578  -0.288  0.00  0.00     0.418 HD
ENDBRANCH   4   7
TORSDOF 1
ENDMDL
