MODEL 1
REMARK minimizedAffinity -3.13481998
REMARK minimizedRMSD -1
REMARK  1 active torsions:
REMARK  status: ('A' for Active; 'I' for Inactive)
REMARK    1  A    between atoms: C3_4  and  O_7 
ROOT
ATOM      1  C   UNL d   1       2.626   1.251   0.887  0.00  0.00    -0.033 A 
ATOM      2  C1  UNL d   1       2.023   0.036   1.218  0.00  0.00     0.039 A 
ATOM      3  C2  UNL d   1       0.672  -0.175   0.932  0.00  0.00    -0.080 A 
ATOM      4  C3  UNL d   1      -0.062   0.835   0.316  0.00  0.00     0.150 A 
ATOM      5  C4  UNL d   1       0.534   2.046  -0.019  0.00  0.00    -0.007 A 
ATOM      6  C5  UNL d   1       1.883   2.255   0.268  0.00  0.00     0.039 A 
ENDROOT
BRANCH   4   7
ATOM      7  O   UNL d   1      -1.383   0.677   0.022  0.00  0.00    -0.526 OA
ATOM      8  H5  UNL d   1      -1.666  -0.198   0.337  0.00  0.00     0.418 HD
ENDBRANCH   4   7
TORSDOF 1
ENDMDL
