MODEL 1
REMARK minimizedAffinity -0.393966526
REMARK minimizedRMSD -1
REMARK  1 active torsions:
REMARK  status: ('A' for Active; 'I' for Inactive)
REMARK    1  A    between atoms: C3_4  and  O_7 
ROOT
ATOM      1  C   UNL d   1      -1.570  -0.331  -0.669  0.00  0.00    -0.033 A 
ATOM      2  C1  UNL d   1      -1.391  -0.872   0.606  0.00  0.00     0.039 A 
ATOM      3  C2  UNL d   1      -0.198  -0.653   1.298  0.00  0.00    -0.080 A 
ATOM      4  C3  UNL d   1       0.806   0.108   0.705  0.00  0.00     0.150 A 
ATOM      5  C4  UNL d   1       0.633   0.654  -0.562  0.00  0.00    -0.007 A 
ATOM      6  C5  UNL d   1      -0.559   0.433  -1.252  0.00  0.00     0.039 A 
ENDROOT
BRANCH   4   7
ATOM      7  O   UNL d   1       1.989   0.345   1.340  0.00  0.00    -0.526 OA
ATOM      8  H5  UNL d   1       1.978  -0.117   2.194  0.00  0.00     0.418 HD
ENDBRANCH   4   7
TORSDOF 1
ENDMDL
