MODEL 1
REMARK minimizedAffinity -1.77842438
REMARK minimizedRMSD -1
REMARK  1 active torsions:
REMARK  status: ('A' for Active; 'I' for Inactive)
REMARK    1  A    between atoms: C3_4  and  O_7 
ROOT
ATOM      1  C   UNL d   1       2.151   1.912   2.053  0.00  0.00    -0.033 A 
ATOM      2  C1  UNL d   1       1.963   0.620   1.558  0.00  0.00     0.039 A 
ATOM      3  C2  UNL d   1       0.827   0.317   0.804  0.00  0.00    -0.080 A 
ATOM      4  C3  UNL d   1      -0.112   1.314   0.553  0.00  0.00     0.150 A 
ATOM      5  C4  UNL d   1       0.071   2.604   1.040  0.00  0.00    -0.007 A 
ATOM      6  C5  UNL d   1       1.205   2.904   1.793  0.00  0.00     0.039 A 
ENDROOT
BRANCH   4   7
ATOM      7  O   UNL d   1      -1.238   1.065  -0.173  0.00  0.00    -0.526 OA
ATOM      8  H5  UNL d   1      -1.244   0.125  -0.420  0.00  0.00     0.418 HD
ENDBRANCH   4   7
TORSDOF 1
ENDMDL
