MODEL 1
REMARK minimizedAffinity 15.5814476
REMARK minimizedRMSD -1
REMARK  2 active torsions:
REMARK  status: ('A' for Active; 'I' for Inactive)
REMARK    1  A    between atoms: C2'_3  and  C1'_4 
REMARK    2  A    between atoms: C1'_4  and  C1_5 
ROOT
ATOM      1  C1  I4B d   1       0.165   2.873   0.272  0.00  0.00    -0.075 A 
ATOM      2  C2  I4B d   1       0.833   3.959  -0.237  0.00  0.00     0.003 A 
ATOM      3  C3  I4B d   1       0.684   4.314  -1.599  0.00  0.00     0.002 A 
ATOM      4  C4  I4B d   1      -0.099   3.531  -2.423  0.00  0.00    -0.004 A 
ATOM      5  C5  I4B d   1      -0.794   2.444  -1.901  0.00  0.00     0.002 A 
ATOM      6  C6  I4B d   1      -0.671   2.120  -0.542  0.00  0.00     0.003 A 
ENDROOT
BRANCH   1   7
ATOM      7  C1' I4B d   1       0.372   2.507   1.707  0.00  0.00     0.060 C 
BRANCH   7   8
ATOM      8  C2' I4B d   1       1.848   2.651   2.018  0.00  0.00    -0.013 C 
ATOM      9  C4' I4B d   1       2.064   3.141   3.425  0.00  0.00     0.013 C 
ATOM     10  C3' I4B d   1       2.498   1.316   1.804  0.00  0.00     0.013 C 
ENDBRANCH   7   8
ENDBRANCH   1   7
TORSDOF 2
ENDMDL
