MODEL 1
REMARK minimizedAffinity 21.0939999
REMARK minimizedRMSD -1
REMARK  2 active torsions:
REMARK  status: ('A' for Active; 'I' for Inactive)
REMARK    1  A    between atoms: C2'_3  and  C1'_4 
REMARK    2  A    between atoms: C1'_4  and  C1_5 
ROOT
ATOM      1  C1  I4B d   1       0.428   2.744   0.023  0.00  0.00    -0.075 A 
ATOM      2  C2  I4B d   1       1.047   3.840  -0.525  0.00  0.00     0.003 A 
ATOM      3  C3  I4B d   1       0.907   4.122  -1.905  0.00  0.00     0.002 A 
ATOM      4  C4  I4B d   1       0.186   3.259  -2.706  0.00  0.00    -0.004 A 
ATOM      5  C5  I4B d   1      -0.459   2.161  -2.145  0.00  0.00     0.002 A 
ATOM      6  C6  I4B d   1      -0.348   1.908  -0.770  0.00  0.00     0.003 A 
ENDROOT
BRANCH   1   7
ATOM      7  C1' I4B d   1       0.624   2.457   1.478  0.00  0.00     0.060 C 
BRANCH   7   8
ATOM      8  C2' I4B d   1       2.106   2.556   1.777  0.00  0.00    -0.013 C 
ATOM      9  C4' I4B d   1       2.358   3.378   3.014  0.00  0.00     0.013 C 
ATOM     10  C3' I4B d   1       2.640   1.164   1.934  0.00  0.00     0.013 C 
ENDBRANCH   7   8
ENDBRANCH   1   7
TORSDOF 2
ENDMDL
