MODEL 1
REMARK minimizedAffinity 4.00076771
REMARK minimizedRMSD -1
REMARK  2 active torsions:
REMARK  status: ('A' for Active; 'I' for Inactive)
REMARK    1  A    between atoms: C2'_3  and  C1'_4 
REMARK    2  A    between atoms: C1'_4  and  C1_5 
ROOT
ATOM      1  C1  I4B d   1      -1.554   2.119  -1.206  0.00  0.00    -0.075 A 
ATOM      2  C2  I4B d   1      -2.194   1.034  -0.661  0.00  0.00     0.003 A 
ATOM      3  C3  I4B d   1      -3.285   0.436  -1.336  0.00  0.00     0.002 A 
ATOM      4  C4  I4B d   1      -3.733   0.983  -2.522  0.00  0.00    -0.004 A 
ATOM      5  C5  I4B d   1      -3.068   2.069  -3.085  0.00  0.00     0.002 A 
ATOM      6  C6  I4B d   1      -1.964   2.633  -2.429  0.00  0.00     0.003 A 
ENDROOT
BRANCH   1   7
ATOM      7  C1' I4B d   1      -0.426   2.746  -0.450  0.00  0.00     0.060 C 
BRANCH   7   8
ATOM      8  C2' I4B d   1      -0.842   2.856   1.003  0.00  0.00    -0.013 C 
ATOM      9  C4' I4B d   1       0.352   3.056   1.899  0.00  0.00     0.013 C 
ATOM     10  C3' I4B d   1      -1.806   3.998   1.123  0.00  0.00     0.013 C 
ENDBRANCH   7   8
ENDBRANCH   1   7
TORSDOF 2
ENDMDL
