MODEL 1
REMARK minimizedAffinity 4.49509335
REMARK minimizedRMSD -1
REMARK  2 active torsions:
REMARK  status: ('A' for Active; 'I' for Inactive)
REMARK    1  A    between atoms: C2'_3  and  C1'_4 
REMARK    2  A    between atoms: C1'_4  and  C1_5 
ROOT
ATOM      1  C1  I4B d   1       0.527   1.604   0.988  0.00  0.00    -0.075 A 
ATOM      2  C2  I4B d   1       1.108   2.523   1.825  0.00  0.00     0.003 A 
ATOM      3  C3  I4B d   1       1.508   3.787   1.328  0.00  0.00     0.002 A 
ATOM      4  C4  I4B d   1       1.355   4.069  -0.014  0.00  0.00    -0.004 A 
ATOM      5  C5  I4B d   1       0.745   3.144  -0.857  0.00  0.00     0.002 A 
ATOM      6  C6  I4B d   1       0.316   1.909  -0.350  0.00  0.00     0.003 A 
ENDROOT
BRANCH   1   7
ATOM      7  C1' I4B d   1       0.146   0.266   1.539  0.00  0.00     0.060 C 
BRANCH   7   8
ATOM      8  C2' I4B d   1       1.362  -0.316   2.232  0.00  0.00    -0.013 C 
ATOM      9  C4' I4B d   1       0.973  -1.063   3.480  0.00  0.00     0.013 C 
ATOM     10  C3' I4B d   1       2.062  -1.217   1.258  0.00  0.00     0.013 C 
ENDBRANCH   7   8
ENDBRANCH   1   7
TORSDOF 2
ENDMDL
