MODEL 1
REMARK minimizedAffinity 11.2864685
REMARK minimizedRMSD -1
REMARK  2 active torsions:
REMARK  status: ('A' for Active; 'I' for Inactive)
REMARK    1  A    between atoms: C2'_3  and  C1'_4 
REMARK    2  A    between atoms: C1'_4  and  C1_5 
ROOT
ATOM      1  C1  I4B d   1       0.974   3.577   1.572  0.00  0.00    -0.075 A 
ATOM      2  C2  I4B d   1      -0.162   4.102   1.010  0.00  0.00     0.003 A 
ATOM      3  C3  I4B d   1      -1.436   3.762   1.526  0.00  0.00     0.002 A 
ATOM      4  C4  I4B d   1      -1.529   2.861   2.567  0.00  0.00    -0.004 A 
ATOM      5  C5  I4B d   1      -0.374   2.347   3.152  0.00  0.00     0.002 A 
ATOM      6  C6  I4B d   1       0.886   2.717   2.659  0.00  0.00     0.003 A 
ENDROOT
BRANCH   1   7
ATOM      7  C1' I4B d   1       2.302   3.931   0.980  0.00  0.00     0.060 C 
BRANCH   7   8
ATOM      8  C2' I4B d   1       2.094   5.097   0.034  0.00  0.00    -0.013 C 
ATOM      9  C4' I4B d   1       3.300   5.999   0.009  0.00  0.00     0.013 C 
ATOM     10  C3' I4B d   1       1.805   4.541  -1.328  0.00  0.00     0.013 C 
ENDBRANCH   7   8
ENDBRANCH   1   7
TORSDOF 2
ENDMDL
