MODEL 1
REMARK minimizedAffinity 8.63351917
REMARK minimizedRMSD -1
REMARK  2 active torsions:
REMARK  status: ('A' for Active; 'I' for Inactive)
REMARK    1  A    between atoms: C2'_3  and  C1'_4 
REMARK    2  A    between atoms: C1'_4  and  C1_5 
ROOT
ATOM      1  C1  I4B d   1      -1.248  -4.068  -4.354  0.00  0.00    -0.075 A 
ATOM      2  C2  I4B d   1      -2.471  -3.446  -4.363  0.00  0.00     0.003 A 
ATOM      3  C3  I4B d   1      -3.556  -4.019  -5.070  0.00  0.00     0.002 A 
ATOM      4  C4  I4B d   1      -3.361  -5.179  -5.791  0.00  0.00    -0.004 A 
ATOM      5  C5  I4B d   1      -2.126  -5.820  -5.762  0.00  0.00     0.002 A 
ATOM      6  C6  I4B d   1      -1.066  -5.268  -5.029  0.00  0.00     0.003 A 
ENDROOT
BRANCH   1   7
ATOM      7  C1' I4B d   1      -0.115  -3.419  -3.624  0.00  0.00     0.060 C 
BRANCH   7   8
ATOM      8  C2' I4B d   1      -0.266  -3.736  -2.151  0.00  0.00    -0.013 C 
ATOM      9  C4' I4B d   1       0.690  -4.818  -1.725  0.00  0.00     0.013 C 
ATOM     10  C3' I4B d   1      -0.031  -2.472  -1.379  0.00  0.00     0.013 C 
ENDBRANCH   7   8
ENDBRANCH   1   7
TORSDOF 2
ENDMDL
