MODEL 1
REMARK minimizedAffinity 22.8060474
REMARK minimizedRMSD -1
REMARK  2 active torsions:
REMARK  status: ('A' for Active; 'I' for Inactive)
REMARK    1  A    between atoms: C2'_3  and  C1'_4 
REMARK    2  A    between atoms: C1'_4  and  C1_5 
ROOT
ATOM      1  C1  I4B d   1       1.125   0.899   3.534  0.00  0.00    -0.075 A 
ATOM      2  C2  I4B d   1       2.122  -0.002   3.255  0.00  0.00     0.003 A 
ATOM      3  C3  I4B d   1       2.195  -1.225   3.965  0.00  0.00     0.002 A 
ATOM      4  C4  I4B d   1       1.288  -1.482   4.973  0.00  0.00    -0.004 A 
ATOM      5  C5  I4B d   1       0.265  -0.577   5.238  0.00  0.00     0.002 A 
ATOM      6  C6  I4B d   1       0.174   0.616   4.506  0.00  0.00     0.003 A 
ENDROOT
BRANCH   1   7
ATOM      7  C1' I4B d   1       1.096   2.196   2.788  0.00  0.00     0.060 C 
BRANCH   7   8
ATOM      8  C2' I4B d   1       0.149   2.039   1.616  0.00  0.00    -0.013 C 
ATOM      9  C4' I4B d   1      -1.134   2.793   1.848  0.00  0.00     0.013 C 
ATOM     10  C3' I4B d   1       0.850   2.530   0.385  0.00  0.00     0.013 C 
ENDBRANCH   7   8
ENDBRANCH   1   7
TORSDOF 2
ENDMDL
