MODEL 1
REMARK minimizedAffinity 19.8116474
REMARK minimizedRMSD -1
REMARK  2 active torsions:
REMARK  status: ('A' for Active; 'I' for Inactive)
REMARK    1  A    between atoms: C2'_3  and  C1'_4 
REMARK    2  A    between atoms: C1'_4  and  C1_5 
ROOT
ATOM      1  C1  I4B d   1       3.248  -5.808  -2.097  0.00  0.00    -0.075 A 
ATOM      2  C2  I4B d   1       3.402  -5.828  -3.461  0.00  0.00     0.003 A 
ATOM      3  C3  I4B d   1       4.695  -5.756  -4.033  0.00  0.00     0.002 A 
ATOM      4  C4  I4B d   1       5.795  -5.615  -3.212  0.00  0.00    -0.004 A 
ATOM      5  C5  I4B d   1       5.639  -5.618  -1.829  0.00  0.00     0.002 A 
ATOM      6  C6  I4B d   1       4.358  -5.728  -1.267  0.00  0.00     0.003 A 
ENDROOT
BRANCH   1   7
ATOM      7  C1' I4B d   1       1.865  -5.853  -1.527  0.00  0.00     0.060 C 
BRANCH   7   8
ATOM      8  C2' I4B d   1       1.217  -4.505  -1.768  0.00  0.00    -0.013 C 
ATOM      9  C4' I4B d   1      -0.191  -4.661  -2.278  0.00  0.00     0.013 C 
ATOM     10  C3' I4B d   1       1.245  -3.741  -0.478  0.00  0.00     0.013 C 
ENDBRANCH   7   8
ENDBRANCH   1   7
TORSDOF 2
ENDMDL
