MODEL 1
REMARK minimizedAffinity 6.97367573
REMARK minimizedRMSD -1
REMARK  1 active torsions:
REMARK  status: ('A' for Active; 'I' for Inactive)
REMARK    1  A    between atoms: C1_2  and  C2_3 
ROOT
ATOM      1  C2  UNL d   1      -2.067   0.516  -0.680  0.00  0.00    -0.073 A 
ATOM      2  C3  UNL d   1      -2.520  -0.778  -0.964  0.00  0.00    -0.002 A 
ATOM      3  C4  UNL d   1      -2.923  -1.115  -2.256  0.00  0.00     0.004 A 
ATOM      4  C5  UNL d   1      -2.871  -0.168  -3.278  0.00  0.00    -0.004 A 
ATOM      5  C6  UNL d   1      -2.410   1.127  -3.017  0.00  0.00    -0.075 A 
ATOM      6  C7  UNL d   1      -2.349   2.158  -4.105  0.00  0.00     0.076 C 
ATOM      7  C8  UNL d   1      -2.009   1.459  -1.716  0.00  0.00     0.001 A 
ENDROOT
BRANCH   1   8
ATOM      8  C1  UNL d   1      -1.624   0.883   0.713  0.00  0.00     0.053 C 
ATOM      9  C   UNL d   1      -2.715   1.608   1.485  0.00  0.00     0.018 C 
ENDBRANCH   1   8
TORSDOF 1
ENDMDL
