MODEL 1
REMARK minimizedAffinity 5.12290573
REMARK minimizedRMSD -1
REMARK  1 active torsions:
REMARK  status: ('A' for Active; 'I' for Inactive)
REMARK    1  A    between atoms: C1_2  and  C2_3 
ROOT
ATOM      1  C2  UNL d   1       2.348   1.950  -1.968  0.00  0.00    -0.073 A 
ATOM      2  C3  UNL d   1       3.133   1.069  -2.720  0.00  0.00    -0.002 A 
ATOM      3  C4  UNL d   1       3.459   1.369  -4.043  0.00  0.00     0.004 A 
ATOM      4  C5  UNL d   1       3.011   2.555  -4.625  0.00  0.00    -0.004 A 
ATOM      5  C6  UNL d   1       2.236   3.454  -3.886  0.00  0.00    -0.075 A 
ATOM      6  C7  UNL d   1       1.744   4.733  -4.498  0.00  0.00     0.076 C 
ATOM      7  C8  UNL d   1       1.910   3.144  -2.559  0.00  0.00     0.001 A 
ENDROOT
BRANCH   1   8
ATOM      8  C1  UNL d   1       1.999   1.633  -0.537  0.00  0.00     0.053 C 
ATOM      9  C   UNL d   1       3.237   1.401   0.314  0.00  0.00     0.018 C 
ENDBRANCH   1   8
TORSDOF 1
ENDMDL
