MODEL 1
REMARK minimizedAffinity 4.35352564
REMARK minimizedRMSD -1
REMARK  1 active torsions:
REMARK  status: ('A' for Active; 'I' for Inactive)
REMARK    1  A    between atoms: C1_2  and  C2_3 
ROOT
ATOM      1  C2  UNL d   1      -1.765   0.824  -1.638  0.00  0.00    -0.073 A 
ATOM      2  C3  UNL d   1      -0.593   1.585  -1.704  0.00  0.00    -0.002 A 
ATOM      3  C4  UNL d   1      -0.089   1.999  -2.938  0.00  0.00     0.004 A 
ATOM      4  C5  UNL d   1      -0.756   1.662  -4.117  0.00  0.00    -0.004 A 
ATOM      5  C6  UNL d   1      -1.935   0.912  -4.070  0.00  0.00    -0.075 A 
ATOM      6  C7  UNL d   1      -2.663   0.540  -5.329  0.00  0.00     0.076 C 
ATOM      7  C8  UNL d   1      -2.433   0.499  -2.828  0.00  0.00     0.001 A 
ENDROOT
BRANCH   1   8
ATOM      8  C1  UNL d   1      -2.316   0.381  -0.307  0.00  0.00     0.053 C 
ATOM      9  C   UNL d   1      -1.656   1.108   0.853  0.00  0.00     0.018 C 
ENDBRANCH   1   8
TORSDOF 1
ENDMDL
