MODEL 1
REMARK minimizedAffinity 7.4559617
REMARK minimizedRMSD -1
REMARK  1 active torsions:
REMARK  status: ('A' for Active; 'I' for Inactive)
REMARK    1  A    between atoms: C1_2  and  C2_3 
ROOT
ATOM      1  C2  UNL d   1      -3.239   0.987   0.306  0.00  0.00    -0.073 A 
ATOM      2  C3  UNL d   1      -3.699  -0.283  -0.064  0.00  0.00    -0.002 A 
ATOM      3  C4  UNL d   1      -3.137  -0.946  -1.155  0.00  0.00     0.004 A 
ATOM      4  C5  UNL d   1      -2.106  -0.352  -1.882  0.00  0.00    -0.004 A 
ATOM      5  C6  UNL d   1      -1.624   0.910  -1.521  0.00  0.00    -0.075 A 
ATOM      6  C7  UNL d   1      -0.517   1.564  -2.295  0.00  0.00     0.076 C 
ATOM      7  C8  UNL d   1      -2.196   1.572  -0.426  0.00  0.00     0.001 A 
ENDROOT
BRANCH   1   8
ATOM      8  C1  UNL d   1      -3.839   1.704   1.487  0.00  0.00     0.053 C 
ATOM      9  C   UNL d   1      -5.322   1.406   1.642  0.00  0.00     0.018 C 
ENDBRANCH   1   8
TORSDOF 1
ENDMDL
