MODEL 1
REMARK minimizedAffinity 5.9295907
REMARK minimizedRMSD -1
REMARK  1 active torsions:
REMARK  status: ('A' for Active; 'I' for Inactive)
REMARK    1  A    between atoms: C1_2  and  C2_3 
ROOT
ATOM      1  C2  UNL d   1      -0.828  -0.039  -3.266  0.00  0.00    -0.073 A 
ATOM      2  C3  UNL d   1      -1.028   1.239  -2.732  0.00  0.00    -0.002 A 
ATOM      3  C4  UNL d   1       0.048   1.963  -2.215  0.00  0.00     0.004 A 
ATOM      4  C5  UNL d   1       1.333   1.420  -2.234  0.00  0.00    -0.004 A 
ATOM      5  C6  UNL d   1       1.554   0.150  -2.775  0.00  0.00    -0.075 A 
ATOM      6  C7  UNL d   1       2.930  -0.449  -2.801  0.00  0.00     0.076 C 
ATOM      7  C8  UNL d   1       0.469  -0.572  -3.289  0.00  0.00     0.001 A 
ENDROOT
BRANCH   1   8
ATOM      8  C1  UNL d   1      -1.985  -0.822  -3.831  0.00  0.00     0.053 C 
ATOM      9  C   UNL d   1      -1.844  -1.047  -5.328  0.00  0.00     0.018 C 
ENDBRANCH   1   8
TORSDOF 1
ENDMDL
