MODEL 1
REMARK minimizedAffinity 11.5567837
REMARK minimizedRMSD -1
REMARK  1 active torsions:
REMARK  status: ('A' for Active; 'I' for Inactive)
REMARK    1  A    between atoms: C1_2  and  C2_3 
ROOT
ATOM      1  C2  UNL d   1      -5.856   2.198   5.256  0.00  0.00    -0.073 A 
ATOM      2  C3  UNL d   1      -5.784   1.001   5.977  0.00  0.00    -0.002 A 
ATOM      3  C4  UNL d   1      -5.774  -0.224   5.309  0.00  0.00     0.004 A 
ATOM      4  C5  UNL d   1      -5.828  -0.266   3.916  0.00  0.00    -0.004 A 
ATOM      5  C6  UNL d   1      -5.888   0.920   3.177  0.00  0.00    -0.075 A 
ATOM      6  C7  UNL d   1      -5.949   0.893   1.678  0.00  0.00     0.076 C 
ATOM      7  C8  UNL d   1      -5.901   2.147   3.855  0.00  0.00     0.001 A 
ENDROOT
BRANCH   1   8
ATOM      8  C1  UNL d   1      -5.861   3.524   5.972  0.00  0.00     0.053 C 
ATOM      9  C   UNL d   1      -4.709   4.414   5.531  0.00  0.00     0.018 C 
ENDBRANCH   1   8
TORSDOF 1
ENDMDL
