MODEL 1
REMARK minimizedAffinity -1.07993066
REMARK minimizedRMSD -1
REMARK  1 active torsions:
REMARK  status: ('A' for Active; 'I' for Inactive)
REMARK    1  A    between atoms: C1_2  and  C2_3 
ROOT
ATOM      1  C2  UNL d   1       1.878   0.720  -2.688  0.00  0.00    -0.073 A 
ATOM      2  C3  UNL d   1       2.771   0.989  -3.731  0.00  0.00    -0.002 A 
ATOM      3  C4  UNL d   1       3.722   0.040  -4.107  0.00  0.00     0.004 A 
ATOM      4  C5  UNL d   1       3.786  -1.189  -3.450  0.00  0.00    -0.004 A 
ATOM      5  C6  UNL d   1       2.894  -1.481  -2.413  0.00  0.00    -0.075 A 
ATOM      6  C7  UNL d   1       2.951  -2.797  -1.694  0.00  0.00     0.076 C 
ATOM      7  C8  UNL d   1       1.944  -0.522  -2.039  0.00  0.00     0.001 A 
ENDROOT
BRANCH   1   8
ATOM      8  C1  UNL d   1       0.844   1.739  -2.282  0.00  0.00     0.053 C 
ATOM      9  C   UNL d   1      -0.567   1.288  -2.625  0.00  0.00     0.018 C 
ENDBRANCH   1   8
TORSDOF 1
ENDMDL
