MODEL 1
REMARK minimizedAffinity 1.83095038
REMARK minimizedRMSD -1
REMARK  1 active torsions:
REMARK  status: ('A' for Active; 'I' for Inactive)
REMARK    1  A    between atoms: C1_2  and  C2_3 
ROOT
ATOM      1  C2  UNL d   1       0.436   1.609  -0.750  0.00  0.00    -0.073 A 
ATOM      2  C3  UNL d   1      -0.317   1.538   0.428  0.00  0.00    -0.002 A 
ATOM      3  C4  UNL d   1      -1.650   1.126   0.388  0.00  0.00     0.004 A 
ATOM      4  C5  UNL d   1      -2.240   0.774  -0.825  0.00  0.00    -0.004 A 
ATOM      5  C6  UNL d   1      -1.501   0.827  -2.011  0.00  0.00    -0.075 A 
ATOM      6  C7  UNL d   1      -2.122   0.455  -3.325  0.00  0.00     0.076 C 
ATOM      7  C8  UNL d   1      -0.164   1.245  -1.964  0.00  0.00     0.001 A 
ENDROOT
BRANCH   1   8
ATOM      8  C1  UNL d   1       1.877   2.047  -0.711  0.00  0.00     0.053 C 
ATOM      9  C   UNL d   1       2.779   1.109  -1.498  0.00  0.00     0.018 C 
ENDBRANCH   1   8
TORSDOF 1
ENDMDL
