MODEL 1
REMARK minimizedAffinity 0.430448949
REMARK minimizedRMSD -1
REMARK  1 active torsions:
REMARK  status: ('A' for Active; 'I' for Inactive)
REMARK    1  A    between atoms: C1_2  and  C2_3 
ROOT
ATOM      1  C2  UNL d   1       1.336   1.394  -1.801  0.00  0.00    -0.073 A 
ATOM      2  C3  UNL d   1      -0.020   1.598  -2.083  0.00  0.00    -0.002 A 
ATOM      3  C4  UNL d   1      -0.683   0.770  -2.989  0.00  0.00     0.004 A 
ATOM      4  C5  UNL d   1      -0.001  -0.273  -3.616  0.00  0.00    -0.004 A 
ATOM      5  C6  UNL d   1       1.350  -0.500  -3.338  0.00  0.00    -0.075 A 
ATOM      6  C7  UNL d   1       2.099  -1.616  -4.005  0.00  0.00     0.076 C 
ATOM      7  C8  UNL d   1       2.010   0.338  -2.429  0.00  0.00     0.001 A 
ENDROOT
BRANCH   1   8
ATOM      8  C1  UNL d   1       2.055   2.282  -0.818  0.00  0.00     0.053 C 
ATOM      9  C   UNL d   1       3.122   1.527  -0.042  0.00  0.00     0.018 C 
ENDBRANCH   1   8
TORSDOF 1
ENDMDL
