MODEL 1
REMARK minimizedAffinity -0.784955859
REMARK minimizedRMSD -1
REMARK  1 active torsions:
REMARK  status: ('A' for Active; 'I' for Inactive)
REMARK    1  A    between atoms: C1_2  and  C2_3 
ROOT
ATOM      1  C2  UNL d   1      -4.040   0.261   4.054  0.00  0.00    -0.073 A 
ATOM      2  C3  UNL d   1      -4.812  -0.789   4.563  0.00  0.00    -0.002 A 
ATOM      3  C4  UNL d   1      -5.784  -0.543   5.534  0.00  0.00     0.004 A 
ATOM      4  C5  UNL d   1      -5.998   0.755   6.000  0.00  0.00    -0.004 A 
ATOM      5  C6  UNL d   1      -5.244   1.819   5.494  0.00  0.00    -0.075 A 
ATOM      6  C7  UNL d   1      -5.461   3.220   5.986  0.00  0.00     0.076 C 
ATOM      7  C8  UNL d   1      -4.269   1.563   4.521  0.00  0.00     0.001 A 
ENDROOT
BRANCH   1   8
ATOM      8  C1  UNL d   1      -2.994   0.000   3.001  0.00  0.00     0.053 C 
ATOM      9  C   UNL d   1      -3.293   0.740   1.706  0.00  0.00     0.018 C 
ENDBRANCH   1   8
TORSDOF 1
ENDMDL
