MODEL 1
REMARK minimizedAffinity 11.9201546
REMARK minimizedRMSD -1
REMARK  1 active torsions:
REMARK  status: ('A' for Active; 'I' for Inactive)
REMARK    1  A    between atoms: C1_2  and  C2_3 
ROOT
ATOM      1  C2  UNL d   1      -4.799   1.938   3.558  0.00  0.00    -0.073 A 
ATOM      2  C3  UNL d   1      -5.999   1.667   2.892  0.00  0.00    -0.002 A 
ATOM      3  C4  UNL d   1      -5.994   1.345   1.534  0.00  0.00     0.004 A 
ATOM      4  C5  UNL d   1      -4.791   1.285   0.831  0.00  0.00    -0.004 A 
ATOM      5  C6  UNL d   1      -3.580   1.541   1.482  0.00  0.00    -0.075 A 
ATOM      6  C7  UNL d   1      -2.278   1.482   0.740  0.00  0.00     0.076 C 
ATOM      7  C8  UNL d   1      -3.593   1.866   2.845  0.00  0.00     0.001 A 
ENDROOT
BRANCH   1   8
ATOM      8  C1  UNL d   1      -4.798   2.279   5.026  0.00  0.00     0.053 C 
ATOM      9  C   UNL d   1      -5.617   1.292   5.841  0.00  0.00     0.018 C 
ENDBRANCH   1   8
TORSDOF 1
ENDMDL
