MODEL 1
REMARK minimizedAffinity 7.683743
REMARK minimizedRMSD -1
REMARK  1 active torsions:
REMARK  status: ('A' for Active; 'I' for Inactive)
REMARK    1  A    between atoms: C1_2  and  C2_3 
ROOT
ATOM      1  C2  UNL d   1       2.895   1.900  -2.142  0.00  0.00    -0.073 A 
ATOM      2  C3  UNL d   1       3.966   1.254  -2.771  0.00  0.00    -0.002 A 
ATOM      3  C4  UNL d   1       4.343   1.613  -4.065  0.00  0.00     0.004 A 
ATOM      4  C5  UNL d   1       3.660   2.624  -4.741  0.00  0.00    -0.004 A 
ATOM      5  C6  UNL d   1       2.595   3.289  -4.126  0.00  0.00    -0.075 A 
ATOM      6  C7  UNL d   1       1.849   4.377  -4.840  0.00  0.00     0.076 C 
ATOM      7  C8  UNL d   1       2.220   2.921  -2.827  0.00  0.00     0.001 A 
ENDROOT
BRANCH   1   8
ATOM      8  C1  UNL d   1       2.487   1.521  -0.742  0.00  0.00     0.053 C 
ATOM      9  C   UNL d   1       3.674   1.072   0.095  0.00  0.00     0.018 C 
ENDBRANCH   1   8
TORSDOF 1
ENDMDL
