MODEL 1
REMARK minimizedAffinity -1.0759635
REMARK minimizedRMSD -1
REMARK  1 active torsions:
REMARK  status: ('A' for Active; 'I' for Inactive)
REMARK    1  A    between atoms: C1_2  and  C2_3 
ROOT
ATOM      1  C2  UNL d   1       1.132   0.191  -3.471  0.00  0.00    -0.073 A 
ATOM      2  C3  UNL d   1       1.442   1.453  -2.952  0.00  0.00    -0.002 A 
ATOM      3  C4  UNL d   1       0.438   2.403  -2.762  0.00  0.00     0.004 A 
ATOM      4  C5  UNL d   1      -0.885   2.100  -3.083  0.00  0.00    -0.004 A 
ATOM      5  C6  UNL d   1      -1.217   0.841  -3.592  0.00  0.00    -0.075 A 
ATOM      6  C7  UNL d   1      -2.635   0.500  -3.944  0.00  0.00     0.076 C 
ATOM      7  C8  UNL d   1      -0.203  -0.108  -3.782  0.00  0.00     0.001 A 
ENDROOT
BRANCH   1   8
ATOM      8  C1  UNL d   1       2.211  -0.841  -3.671  0.00  0.00     0.053 C 
ATOM      9  C   UNL d   1       3.453  -0.249  -4.317  0.00  0.00     0.018 C 
ENDBRANCH   1   8
TORSDOF 1
ENDMDL
