MODEL 1
REMARK minimizedAffinity -2.87599421
REMARK minimizedRMSD -1
REMARK  1 active torsions:
REMARK  status: ('A' for Active; 'I' for Inactive)
REMARK    1  A    between atoms: C1_2  and  C2_3 
ROOT
ATOM      1  C2  UNL d   1      -0.164   0.213  -3.566  0.00  0.00    -0.073 A 
ATOM      2  C3  UNL d   1       0.008   1.356  -2.778  0.00  0.00    -0.002 A 
ATOM      3  C4  UNL d   1       1.288   1.768  -2.403  0.00  0.00     0.004 A 
ATOM      4  C5  UNL d   1       2.407   1.045  -2.816  0.00  0.00    -0.004 A 
ATOM      5  C6  UNL d   1       2.256  -0.094  -3.614  0.00  0.00    -0.075 A 
ATOM      6  C7  UNL d   1       3.450  -0.883  -4.065  0.00  0.00     0.076 C 
ATOM      7  C8  UNL d   1       0.968  -0.502  -3.985  0.00  0.00     0.001 A 
ENDROOT
BRANCH   1   8
ATOM      8  C1  UNL d   1      -1.543  -0.232  -3.980  0.00  0.00     0.053 C 
ATOM      9  C   UNL d   1      -2.253   0.819  -4.819  0.00  0.00     0.018 C 
ENDBRANCH   1   8
TORSDOF 1
ENDMDL
