MODEL 1
REMARK minimizedAffinity 3.09848738
REMARK minimizedRMSD -1
REMARK  0 active torsions:
REMARK  status: ('A' for Active; 'I' for Inactive)
ROOT
ATOM      1  C1  DEN d   1       4.499   3.941  -4.511  0.00  0.00     0.130 A 
ATOM      2  C2  DEN d   1       3.167   4.246  -5.027  0.00  0.00    -0.031 A 
ATOM      3  C3  DEN d   1       2.652   3.039  -5.704  0.00  0.00     0.027 A 
ATOM      4  C4  DEN d   1       3.780   0.738  -5.998  0.00  0.00     0.027 A 
ATOM      5  C5  DEN d   1       4.918   0.004  -5.742  0.00  0.00    -0.003 A 
ATOM      6  C6  DEN d   1       6.000   0.537  -5.093  0.00  0.00     0.001 A 
ATOM      7  C7  DEN d   1       5.950   1.828  -4.637  0.00  0.00     0.017 A 
ATOM      8  C8  DEN d   1       4.809   2.577  -4.899  0.00  0.00    -0.094 A 
ATOM      9  C9  DEN d   1       3.721   2.016  -5.546  0.00  0.00    -0.072 A 
ENDROOT
TORSDOF 0
ENDMDL
