MODEL 1
REMARK minimizedAffinity 3.02159381
REMARK minimizedRMSD -1
REMARK  0 active torsions:
REMARK  status: ('A' for Active; 'I' for Inactive)
ROOT
ATOM      1  C1  DEN d   1       1.900   0.270  -4.293  0.00  0.00     0.130 A 
ATOM      2  C2  DEN d   1       1.837  -0.138  -2.893  0.00  0.00    -0.031 A 
ATOM      3  C3  DEN d   1       3.216  -0.179  -2.366  0.00  0.00     0.027 A 
ATOM      4  C4  DEN d   1       5.431   0.354  -3.575  0.00  0.00     0.027 A 
ATOM      5  C5  DEN d   1       5.992   0.733  -4.774  0.00  0.00    -0.003 A 
ATOM      6  C6  DEN d   1       5.238   0.950  -5.897  0.00  0.00     0.001 A 
ATOM      7  C7  DEN d   1       3.875   0.833  -5.832  0.00  0.00     0.017 A 
ATOM      8  C8  DEN d   1       3.302   0.444  -4.628  0.00  0.00    -0.094 A 
ATOM      9  C9  DEN d   1       4.081   0.241  -3.501  0.00  0.00    -0.072 A 
ENDROOT
TORSDOF 0
ENDMDL
