MODEL 1
REMARK minimizedAffinity 2.73957372
REMARK minimizedRMSD -1
REMARK  0 active torsions:
REMARK  status: ('A' for Active; 'I' for Inactive)
ROOT
ATOM      1  C1  DEN d   1       2.258  -2.478   0.013  0.00  0.00     0.130 A 
ATOM      2  C2  DEN d   1       1.761  -1.566  -1.014  0.00  0.00    -0.031 A 
ATOM      3  C3  DEN d   1       0.327  -1.851  -1.222  0.00  0.00     0.027 A 
ATOM      4  C4  DEN d   1      -1.166  -3.602  -0.056  0.00  0.00     0.027 A 
ATOM      5  C5  DEN d   1      -1.189  -4.614   0.878  0.00  0.00    -0.003 A 
ATOM      6  C6  DEN d   1      -0.066  -5.005   1.559  0.00  0.00     0.001 A 
ATOM      7  C7  DEN d   1       1.118  -4.349   1.349  0.00  0.00     0.017 A 
ATOM      8  C8  DEN d   1       1.151  -3.333   0.403  0.00  0.00    -0.094 A 
ATOM      9  C9  DEN d   1       0.003  -2.944  -0.266  0.00  0.00    -0.072 A 
ENDROOT
TORSDOF 0
ENDMDL
