MODEL 1
REMARK minimizedAffinity -0.424777985
REMARK minimizedRMSD -1
REMARK  0 active torsions:
REMARK  status: ('A' for Active; 'I' for Inactive)
ROOT
ATOM      1  C1  DEN d   1      -4.501   2.220   5.994  0.00  0.00     0.130 A 
ATOM      2  C2  DEN d   1      -3.526   1.399   5.283  0.00  0.00    -0.031 A 
ATOM      3  C3  DEN d   1      -2.681   2.296   4.468  0.00  0.00     0.027 A 
ATOM      4  C4  DEN d   1      -2.786   4.863   4.245  0.00  0.00     0.027 A 
ATOM      5  C5  DEN d   1      -3.454   5.999   4.647  0.00  0.00    -0.003 A 
ATOM      6  C6  DEN d   1      -4.531   5.952   5.493  0.00  0.00     0.001 A 
ATOM      7  C7  DEN d   1      -4.943   4.748   6.000  0.00  0.00     0.017 A 
ATOM      8  C8  DEN d   1      -4.279   3.598   5.593  0.00  0.00    -0.094 A 
ATOM      9  C9  DEN d   1      -3.186   3.668   4.747  0.00  0.00    -0.072 A 
ENDROOT
TORSDOF 0
ENDMDL
