MODEL 1
REMARK minimizedAffinity -3.01591682
REMARK minimizedRMSD -1
REMARK  0 active torsions:
REMARK  status: ('A' for Active; 'I' for Inactive)
ROOT
ATOM      1  C1  DEN d   1      -3.426   2.281   4.511  0.00  0.00     0.130 A 
ATOM      2  C2  DEN d   1      -4.272   1.370   5.277  0.00  0.00    -0.031 A 
ATOM      3  C3  DEN d   1      -5.277   2.177   5.998  0.00  0.00     0.027 A 
ATOM      4  C4  DEN d   1      -5.606   4.735   6.000  0.00  0.00     0.027 A 
ATOM      5  C5  DEN d   1      -5.125   5.929   5.511  0.00  0.00    -0.003 A 
ATOM      6  C6  DEN d   1      -4.032   5.993   4.688  0.00  0.00     0.001 A 
ATOM      7  C7  DEN d   1      -3.411   4.838   4.293  0.00  0.00     0.017 A 
ATOM      8  C8  DEN d   1      -3.886   3.631   4.788  0.00  0.00    -0.094 A 
ATOM      9  C9  DEN d   1      -5.000   3.586   5.609  0.00  0.00    -0.072 A 
ENDROOT
TORSDOF 0
ENDMDL
