MODEL 1
REMARK minimizedAffinity 6.15248013
REMARK minimizedRMSD -1
REMARK  0 active torsions:
REMARK  status: ('A' for Active; 'I' for Inactive)
ROOT
ATOM      1  C1  DEN d   1       0.996  -0.239  -0.697  0.00  0.00     0.130 A 
ATOM      2  C2  DEN d   1       1.144  -1.365   0.222  0.00  0.00    -0.031 A 
ATOM      3  C3  DEN d   1       1.306  -2.593  -0.582  0.00  0.00     0.027 A 
ATOM      4  C4  DEN d   1       1.347  -2.859  -3.148  0.00  0.00     0.027 A 
ATOM      5  C5  DEN d   1       1.248  -2.189  -4.347  0.00  0.00    -0.003 A 
ATOM      6  C6  DEN d   1       1.026  -0.839  -4.414  0.00  0.00     0.001 A 
ATOM      7  C7  DEN d   1       0.941  -0.108  -3.259  0.00  0.00     0.017 A 
ATOM      8  C8  DEN d   1       1.032  -0.777  -2.046  0.00  0.00    -0.094 A 
ATOM      9  C9  DEN d   1       1.269  -2.140  -1.999  0.00  0.00    -0.072 A 
ENDROOT
TORSDOF 0
ENDMDL
