MODEL 1
REMARK minimizedAffinity 3.97630978
REMARK minimizedRMSD -1
REMARK  0 active torsions:
REMARK  status: ('A' for Active; 'I' for Inactive)
ROOT
ATOM      1  C1  DEN d   1       0.714   1.111  -2.805  0.00  0.00     0.130 A 
ATOM      2  C2  DEN d   1       0.572   1.336  -1.369  0.00  0.00    -0.031 A 
ATOM      3  C3  DEN d   1       0.703   0.032  -0.688  0.00  0.00     0.027 A 
ATOM      4  C4  DEN d   1       1.113  -2.300  -1.712  0.00  0.00     0.027 A 
ATOM      5  C5  DEN d   1       1.288  -2.994  -2.889  0.00  0.00    -0.003 A 
ATOM      6  C6  DEN d   1       1.252  -2.379  -4.112  0.00  0.00     0.001 A 
ATOM      7  C7  DEN d   1       1.079  -1.022  -4.184  0.00  0.00     0.017 A 
ATOM      8  C8  DEN d   1       0.893  -0.316  -3.003  0.00  0.00    -0.094 A 
ATOM      9  C9  DEN d   1       0.946  -0.954  -1.775  0.00  0.00    -0.072 A 
ENDROOT
TORSDOF 0
ENDMDL
