MODEL 1
REMARK minimizedAffinity 4.6639061
REMARK minimizedRMSD -1
REMARK  0 active torsions:
REMARK  status: ('A' for Active; 'I' for Inactive)
ROOT
ATOM      1  C1  DEN d   1       1.719  -1.459  -4.757  0.00  0.00     0.130 A 
ATOM      2  C2  DEN d   1       1.937  -0.023  -4.901  0.00  0.00    -0.031 A 
ATOM      3  C3  DEN d   1       1.736   0.604  -3.579  0.00  0.00     0.027 A 
ATOM      4  C4  DEN d   1       1.115  -0.505  -1.335  0.00  0.00     0.027 A 
ATOM      5  C5  DEN d   1       0.816  -1.700  -0.718  0.00  0.00    -0.003 A 
ATOM      6  C6  DEN d   1       0.763  -2.883  -1.405  0.00  0.00     0.001 A 
ATOM      7  C7  DEN d   1       1.059  -2.905  -2.743  0.00  0.00     0.017 A 
ATOM      8  C8  DEN d   1       1.354  -1.704  -3.373  0.00  0.00    -0.094 A 
ATOM      9  C9  DEN d   1       1.414  -0.519  -2.658  0.00  0.00    -0.072 A 
ENDROOT
TORSDOF 0
ENDMDL
