MODEL 1
REMARK minimizedAffinity 4.21485949
REMARK minimizedRMSD -1
REMARK  0 active torsions:
REMARK  status: ('A' for Active; 'I' for Inactive)
ROOT
ATOM      1  C1  DEN d   1       0.743   0.395  -0.450  0.00  0.00     0.130 A 
ATOM      2  C2  DEN d   1       0.537   1.696  -1.080  0.00  0.00    -0.031 A 
ATOM      3  C3  DEN d   1       0.620   1.514  -2.543  0.00  0.00     0.027 A 
ATOM      4  C4  DEN d   1       1.038  -0.647  -3.887  0.00  0.00     0.027 A 
ATOM      5  C5  DEN d   1       1.282  -1.999  -3.791  0.00  0.00    -0.003 A 
ATOM      6  C6  DEN d   1       1.396  -2.637  -2.585  0.00  0.00     0.001 A 
ATOM      7  C7  DEN d   1       1.221  -1.930  -1.424  0.00  0.00     0.017 A 
ATOM      8  C8  DEN d   1       0.982  -0.565  -1.513  0.00  0.00    -0.094 A 
ATOM      9  C9  DEN d   1       0.859   0.059  -2.742  0.00  0.00    -0.072 A 
ENDROOT
TORSDOF 0
ENDMDL
