MODEL 1
REMARK minimizedAffinity -1.98935008
REMARK minimizedRMSD -1
REMARK  0 active torsions:
REMARK  status: ('A' for Active; 'I' for Inactive)
ROOT
ATOM      1  C1  DEN d   1       1.376   0.155  -4.220  0.00  0.00     0.130 A 
ATOM      2  C2  DEN d   1       1.467  -1.257  -4.582  0.00  0.00    -0.031 A 
ATOM      3  C3  DEN d   1       1.299  -2.056  -3.352  0.00  0.00     0.027 A 
ATOM      4  C4  DEN d   1       0.903  -1.249  -0.934  0.00  0.00     0.027 A 
ATOM      5  C5  DEN d   1       0.764  -0.140  -0.130  0.00  0.00    -0.003 A 
ATOM      6  C6  DEN d   1       0.851   1.135  -0.623  0.00  0.00     0.001 A 
ATOM      7  C7  DEN d   1       1.041   1.333  -1.965  0.00  0.00     0.017 A 
ATOM      8  C8  DEN d   1       1.190   0.219  -2.781  0.00  0.00    -0.094 A 
ATOM      9  C9  DEN d   1       1.086  -1.062  -2.266  0.00  0.00    -0.072 A 
ENDROOT
TORSDOF 0
ENDMDL
