MODEL 1
REMARK minimizedAffinity 5.1917696
REMARK minimizedRMSD -1
REMARK  0 active torsions:
REMARK  status: ('A' for Active; 'I' for Inactive)
ROOT
ATOM      1  C1  DEN d   1       3.024   1.131   1.150  0.00  0.00     0.130 A 
ATOM      2  C2  DEN d   1       2.971   2.589   1.216  0.00  0.00    -0.031 A 
ATOM      3  C3  DEN d   1       2.016   3.058   0.192  0.00  0.00     0.027 A 
ATOM      4  C4  DEN d   1       0.618   1.676  -1.477  0.00  0.00     0.027 A 
ATOM      5  C5  DEN d   1       0.334   0.403  -1.920  0.00  0.00    -0.003 A 
ATOM      6  C6  DEN d   1       0.947  -0.706  -1.398  0.00  0.00     0.001 A 
ATOM      7  C7  DEN d   1       1.842  -0.565  -0.371  0.00  0.00     0.017 A 
ATOM      8  C8  DEN d   1       2.139   0.716   0.076  0.00  0.00    -0.094 A 
ATOM      9  C9  DEN d   1       1.500   1.822  -0.457  0.00  0.00    -0.072 A 
ENDROOT
TORSDOF 0
ENDMDL
