MODEL 1
REMARK minimizedAffinity 3.87267447
REMARK minimizedRMSD -1
REMARK  0 active torsions:
REMARK  status: ('A' for Active; 'I' for Inactive)
ROOT
ATOM      1  C1  DEN d   1       0.746  -1.889  -1.557  0.00  0.00     0.130 A 
ATOM      2  C2  DEN d   1       1.227  -2.684  -2.684  0.00  0.00    -0.031 A 
ATOM      3  C3  DEN d   1       1.583  -1.757  -3.777  0.00  0.00     0.027 A 
ATOM      4  C4  DEN d   1       1.442   0.818  -3.832  0.00  0.00     0.027 A 
ATOM      5  C5  DEN d   1       1.084   1.938  -3.115  0.00  0.00    -0.003 A 
ATOM      6  C6  DEN d   1       0.561   1.860  -1.852  0.00  0.00     0.001 A 
ATOM      7  C7  DEN d   1       0.423   0.638  -1.249  0.00  0.00     0.017 A 
ATOM      8  C8  DEN d   1       0.775  -0.497  -1.968  0.00  0.00    -0.094 A 
ATOM      9  C9  DEN d   1       1.313  -0.396  -3.240  0.00  0.00    -0.072 A 
ENDROOT
TORSDOF 0
ENDMDL
