MODEL 1
REMARK minimizedAffinity 1.27062583
REMARK minimizedRMSD -1
REMARK  0 active torsions:
REMARK  status: ('A' for Active; 'I' for Inactive)
ROOT
ATOM      1  C1  DEN d   1       0.931  -2.007  -2.119  0.00  0.00     0.130 A 
ATOM      2  C2  DEN d   1       1.265  -2.214  -3.526  0.00  0.00    -0.031 A 
ATOM      3  C3  DEN d   1       1.485  -0.890  -4.142  0.00  0.00     0.027 A 
ATOM      4  C4  DEN d   1       1.347   1.447  -3.060  0.00  0.00     0.027 A 
ATOM      5  C5  DEN d   1       1.085   2.130  -1.893  0.00  0.00    -0.003 A 
ATOM      6  C6  DEN d   1       0.724   1.489  -0.737  0.00  0.00     0.001 A 
ATOM      7  C7  DEN d   1       0.658   0.121  -0.712  0.00  0.00     0.017 A 
ATOM      8  C8  DEN d   1       0.913  -0.574  -1.887  0.00  0.00    -0.094 A 
ATOM      9  C9  DEN d   1       1.289   0.091  -3.041  0.00  0.00    -0.072 A 
ENDROOT
TORSDOF 0
ENDMDL
