MODEL 1
REMARK minimizedAffinity 0.777034044
REMARK minimizedRMSD -1
REMARK  0 active torsions:
REMARK  status: ('A' for Active; 'I' for Inactive)
ROOT
ATOM      1  C1  DEN d   1       2.904  -0.763  -2.673  0.00  0.00     0.130 A 
ATOM      2  C2  DEN d   1       1.564  -0.557  -3.214  0.00  0.00    -0.031 A 
ATOM      3  C3  DEN d   1       1.700  -0.119  -4.617  0.00  0.00     0.027 A 
ATOM      4  C4  DEN d   1       3.845   0.253  -6.000  0.00  0.00     0.027 A 
ATOM      5  C5  DEN d   1       5.222   0.217  -5.968  0.00  0.00    -0.003 A 
ATOM      6  C6  DEN d   1       5.917  -0.113  -4.835  0.00  0.00     0.001 A 
ATOM      7  C7  DEN d   1       5.237  -0.463  -3.699  0.00  0.00     0.017 A 
ATOM      8  C8  DEN d   1       3.849  -0.422  -3.721  0.00  0.00    -0.094 A 
ATOM      9  C9  DEN d   1       3.164  -0.098  -4.880  0.00  0.00    -0.072 A 
ENDROOT
TORSDOF 0
ENDMDL
