MODEL 1
REMARK minimizedAffinity 4.51782084
REMARK minimizedRMSD -1
REMARK  0 active torsions:
REMARK  status: ('A' for Active; 'I' for Inactive)
ROOT
ATOM      1  C1  DEN d   1      -4.197   2.269   5.999  0.00  0.00     0.130 A 
ATOM      2  C2  DEN d   1      -3.379   1.460   5.100  0.00  0.00    -0.031 A 
ATOM      3  C3  DEN d   1      -2.847   2.347   4.046  0.00  0.00     0.027 A 
ATOM      4  C4  DEN d   1      -3.205   4.881   3.724  0.00  0.00     0.027 A 
ATOM      5  C5  DEN d   1      -3.832   5.999   4.228  0.00  0.00    -0.003 A 
ATOM      6  C6  DEN d   1      -4.645   5.946   5.329  0.00  0.00     0.001 A 
ATOM      7  C7  DEN d   1      -4.817   4.758   5.990  0.00  0.00     0.017 A 
ATOM      8  C8  DEN d   1      -4.194   3.625   5.483  0.00  0.00    -0.094 A 
ATOM      9  C9  DEN d   1      -3.366   3.702   4.376  0.00  0.00    -0.072 A 
ENDROOT
TORSDOF 0
ENDMDL
