MODEL 1
REMARK minimizedAffinity -2.40457082
REMARK minimizedRMSD -1
REMARK  1 active torsions:
REMARK  status: ('A' for Active; 'I' for Inactive)
REMARK    1  A    between atoms: C3_4  and  O_7 
ROOT
ATOM      1  C   UNL d   1       1.142   0.329  -4.981  0.00  0.00    -0.033 A 
ATOM      2  C1  UNL d   1       2.002   0.855  -4.015  0.00  0.00     0.039 A 
ATOM      3  C2  UNL d   1       1.745   0.646  -2.659  0.00  0.00    -0.080 A 
ATOM      4  C3  UNL d   1       0.626  -0.092  -2.282  0.00  0.00     0.150 A 
ATOM      5  C4  UNL d   1      -0.233  -0.623  -3.238  0.00  0.00    -0.007 A 
ATOM      6  C5  UNL d   1       0.025  -0.412  -4.592  0.00  0.00     0.039 A 
ENDROOT
BRANCH   4   7
ATOM      7  O   UNL d   1       0.332  -0.319  -0.971  0.00  0.00    -0.526 OA
ATOM      8  H5  UNL d   1       0.996   0.131  -0.423  0.00  0.00     0.418 HD
ENDBRANCH   4   7
TORSDOF 1
ENDMDL
