MODEL 1
REMARK minimizedAffinity -5.09859133
REMARK minimizedRMSD -1
REMARK  1 active torsions:
REMARK  status: ('A' for Active; 'I' for Inactive)
REMARK    1  A    between atoms: C3_4  and  O_7 
ROOT
ATOM      1  C   UNL d   1      -0.674   1.073   2.464  0.00  0.00    -0.033 A 
ATOM      2  C1  UNL d   1      -1.737   0.678   1.648  0.00  0.00     0.039 A 
ATOM      3  C2  UNL d   1      -1.486   0.098   0.404  0.00  0.00    -0.080 A 
ATOM      4  C3  UNL d   1      -0.170  -0.082  -0.013  0.00  0.00     0.150 A 
ATOM      5  C4  UNL d   1       0.893   0.306   0.796  0.00  0.00    -0.007 A 
ATOM      6  C5  UNL d   1       0.641   0.885   2.038  0.00  0.00     0.039 A 
ENDROOT
BRANCH   4   7
ATOM      7  O   UNL d   1       0.125  -0.639  -1.222  0.00  0.00    -0.526 OA
ATOM      8  H5  UNL d   1      -0.708  -0.831  -1.684  0.00  0.00     0.418 HD
ENDBRANCH   4   7
TORSDOF 1
ENDMDL
