MODEL 1
REMARK minimizedAffinity -5.07022238
REMARK minimizedRMSD -1
REMARK  1 active torsions:
REMARK  status: ('A' for Active; 'I' for Inactive)
REMARK    1  A    between atoms: C3_4  and  O_7 
ROOT
ATOM      1  C   UNL d   1      -0.335  -0.928   0.112  0.00  0.00    -0.033 A 
ATOM      2  C1  UNL d   1       0.739  -0.388   0.821  0.00  0.00     0.039 A 
ATOM      3  C2  UNL d   1       0.533   0.679   1.697  0.00  0.00    -0.080 A 
ATOM      4  C3  UNL d   1      -0.750   1.196   1.856  0.00  0.00     0.150 A 
ATOM      5  C4  UNL d   1      -1.825   0.660   1.155  0.00  0.00    -0.007 A 
ATOM      6  C5  UNL d   1      -1.618  -0.405   0.280  0.00  0.00     0.039 A 
ENDROOT
BRANCH   4   7
ATOM      7  O   UNL d   1      -0.999   2.240   2.696  0.00  0.00    -0.526 OA
ATOM      8  H5  UNL d   1      -0.158   2.526   3.090  0.00  0.00     0.418 HD
ENDBRANCH   4   7
TORSDOF 1
ENDMDL
