MODEL 1
REMARK minimizedAffinity -3.3991375
REMARK minimizedRMSD -1
REMARK  1 active torsions:
REMARK  status: ('A' for Active; 'I' for Inactive)
REMARK    1  A    between atoms: C3_4  and  O_7 
ROOT
ATOM      1  C   UNL d   1       1.950  -0.207  -2.596  0.00  0.00    -0.033 A 
ATOM      2  C1  UNL d   1       2.120   0.672  -3.668  0.00  0.00     0.039 A 
ATOM      3  C2  UNL d   1       1.060   0.922  -4.542  0.00  0.00    -0.080 A 
ATOM      4  C3  UNL d   1      -0.162   0.288  -4.334  0.00  0.00     0.150 A 
ATOM      5  C4  UNL d   1      -0.338  -0.586  -3.266  0.00  0.00    -0.007 A 
ATOM      6  C5  UNL d   1       0.721  -0.835  -2.395  0.00  0.00     0.039 A 
ENDROOT
BRANCH   4   7
ATOM      7  O   UNL d   1      -1.223   0.497  -5.164  0.00  0.00    -0.526 OA
ATOM      8  H5  UNL d   1      -0.946   1.101  -5.872  0.00  0.00     0.418 HD
ENDBRANCH   4   7
TORSDOF 1
ENDMDL
