MODEL 1
REMARK minimizedAffinity -3.07675505
REMARK minimizedRMSD -1
REMARK  1 active torsions:
REMARK  status: ('A' for Active; 'I' for Inactive)
REMARK    1  A    between atoms: C3_4  and  O_7 
ROOT
ATOM      1  C   UNL d   1       0.343  -0.248  -0.679  0.00  0.00    -0.033 A 
ATOM      2  C1  UNL d   1      -1.042  -0.420  -0.691  0.00  0.00     0.039 A 
ATOM      3  C2  UNL d   1      -1.802  -0.061   0.424  0.00  0.00    -0.080 A 
ATOM      4  C3  UNL d   1      -1.165   0.470   1.542  0.00  0.00     0.150 A 
ATOM      5  C4  UNL d   1       0.214   0.648   1.560  0.00  0.00    -0.007 A 
ATOM      6  C5  UNL d   1       0.971   0.288   0.446  0.00  0.00     0.039 A 
ENDROOT
BRANCH   4   7
ATOM      7  O   UNL d   1      -1.864   0.831   2.655  0.00  0.00    -0.526 OA
ATOM      8  H5  UNL d   1      -2.803   0.625   2.510  0.00  0.00     0.418 HD
ENDBRANCH   4   7
TORSDOF 1
ENDMDL
