MODEL 1
REMARK minimizedAffinity -2.89786673
REMARK minimizedRMSD -1
REMARK  1 active torsions:
REMARK  status: ('A' for Active; 'I' for Inactive)
REMARK    1  A    between atoms: C3_4  and  O_7 
ROOT
ATOM      1  C   UNL d   1      -0.644  -0.409  -0.117  0.00  0.00    -0.033 A 
ATOM      2  C1  UNL d   1      -1.954  -0.031   0.186  0.00  0.00     0.039 A 
ATOM      3  C2  UNL d   1      -2.201   0.850   1.241  0.00  0.00    -0.080 A 
ATOM      4  C3  UNL d   1      -1.132   1.346   1.982  0.00  0.00     0.150 A 
ATOM      5  C4  UNL d   1       0.175   0.976   1.683  0.00  0.00    -0.007 A 
ATOM      6  C5  UNL d   1       0.420   0.096   0.630  0.00  0.00     0.039 A 
ENDROOT
BRANCH   4   7
ATOM      7  O   UNL d   1      -1.325   2.204   3.023  0.00  0.00    -0.526 OA
ATOM      8  H5  UNL d   1      -2.280   2.347   3.132  0.00  0.00     0.418 HD
ENDBRANCH   4   7
TORSDOF 1
ENDMDL
