MODEL 1
REMARK minimizedAffinity -4.99455357
REMARK minimizedRMSD -1
REMARK  1 active torsions:
REMARK  status: ('A' for Active; 'I' for Inactive)
REMARK    1  A    between atoms: C3_4  and  O_7 
ROOT
ATOM      1  C   UNL d   1      -0.007  -0.433  -0.127  0.00  0.00    -0.033 A 
ATOM      2  C1  UNL d   1       1.066  -0.075   0.691  0.00  0.00     0.039 A 
ATOM      3  C2  UNL d   1       0.849   0.704   1.830  0.00  0.00    -0.080 A 
ATOM      4  C3  UNL d   1      -0.445   1.117   2.139  0.00  0.00     0.150 A 
ATOM      5  C4  UNL d   1      -1.519   0.760   1.330  0.00  0.00    -0.007 A 
ATOM      6  C5  UNL d   1      -1.300  -0.017   0.193  0.00  0.00     0.039 A 
ENDROOT
BRANCH   4   7
ATOM      7  O   UNL d   1      -0.705   1.882   3.236  0.00  0.00    -0.526 OA
ATOM      8  H5  UNL d   1       0.136   2.074   3.684  0.00  0.00     0.418 HD
ENDBRANCH   4   7
TORSDOF 1
ENDMDL
