MODEL 1
REMARK minimizedAffinity -5.36264181
REMARK minimizedRMSD -1
REMARK  1 active torsions:
REMARK  status: ('A' for Active; 'I' for Inactive)
REMARK    1  A    between atoms: C3_4  and  O_7 
ROOT
ATOM      1  C   UNL d   1      -0.728  -0.102  -0.239  0.00  0.00    -0.033 A 
ATOM      2  C1  UNL d   1       0.443   0.227   0.446  0.00  0.00     0.039 A 
ATOM      3  C2  UNL d   1       0.373   0.858   1.689  0.00  0.00    -0.080 A 
ATOM      4  C3  UNL d   1      -0.873   1.154   2.236  0.00  0.00     0.150 A 
ATOM      5  C4  UNL d   1      -2.044   0.826   1.560  0.00  0.00    -0.007 A 
ATOM      6  C5  UNL d   1      -1.972   0.196   0.319  0.00  0.00     0.039 A 
ENDROOT
BRANCH   4   7
ATOM      7  O   UNL d   1      -0.992   1.774   3.444  0.00  0.00    -0.526 OA
ATOM      8  H5  UNL d   1      -0.100   1.966   3.781  0.00  0.00     0.418 HD
ENDBRANCH   4   7
TORSDOF 1
ENDMDL
