MODEL 1
REMARK minimizedAffinity -3.08956885
REMARK minimizedRMSD -1
REMARK  1 active torsions:
REMARK  status: ('A' for Active; 'I' for Inactive)
REMARK    1  A    between atoms: C3_4  and  O_7 
ROOT
ATOM      1  C   UNL d   1       0.243  -0.338  -0.528  0.00  0.00    -0.033 A 
ATOM      2  C1  UNL d   1       1.167   0.176   0.384  0.00  0.00     0.039 A 
ATOM      3  C2  UNL d   1       0.726   0.912   1.486  0.00  0.00    -0.080 A 
ATOM      4  C3  UNL d   1      -0.638   1.126   1.663  0.00  0.00     0.150 A 
ATOM      5  C4  UNL d   1      -1.563   0.614   0.760  0.00  0.00    -0.007 A 
ATOM      6  C5  UNL d   1      -1.122  -0.121  -0.339  0.00  0.00     0.039 A 
ENDROOT
BRANCH   4   7
ATOM      7  O   UNL d   1      -1.115   1.843   2.720  0.00  0.00    -0.526 OA
ATOM      8  H5  UNL d   1      -0.359   2.159   3.244  0.00  0.00     0.418 HD
ENDBRANCH   4   7
TORSDOF 1
ENDMDL
