MODEL 1
REMARK minimizedAffinity -5.05533123
REMARK minimizedRMSD -1
REMARK  1 active torsions:
REMARK  status: ('A' for Active; 'I' for Inactive)
REMARK    1  A    between atoms: C3_4  and  O_7 
ROOT
ATOM      1  C   UNL d   1      -1.197   1.176   1.958  0.00  0.00    -0.033 A 
ATOM      2  C1  UNL d   1       0.187   1.078   2.109  0.00  0.00     0.039 A 
ATOM      3  C2  UNL d   1       0.943   0.356   1.185  0.00  0.00    -0.080 A 
ATOM      4  C3  UNL d   1       0.304  -0.263   0.114  0.00  0.00     0.150 A 
ATOM      5  C4  UNL d   1      -1.074  -0.167  -0.046  0.00  0.00    -0.007 A 
ATOM      6  C5  UNL d   1      -1.828   0.555   0.879  0.00  0.00     0.039 A 
ENDROOT
BRANCH   4   7
ATOM      7  O   UNL d   1       1.000  -0.983  -0.811  0.00  0.00    -0.526 OA
ATOM      8  H5  UNL d   1       1.938  -0.987  -0.557  0.00  0.00     0.418 HD
ENDBRANCH   4   7
TORSDOF 1
ENDMDL
