MODEL 1
REMARK minimizedAffinity -3.25062728
REMARK minimizedRMSD -1
REMARK  1 active torsions:
REMARK  status: ('A' for Active; 'I' for Inactive)
REMARK    1  A    between atoms: C3_4  and  O_7 
ROOT
ATOM      1  C   UNL d   1      -0.050  -0.788  -0.415  0.00  0.00    -0.033 A 
ATOM      2  C1  UNL d   1       0.904  -0.466   0.552  0.00  0.00     0.039 A 
ATOM      3  C2  UNL d   1       0.538   0.275   1.678  0.00  0.00    -0.080 A 
ATOM      4  C3  UNL d   1      -0.784   0.686   1.825  0.00  0.00     0.150 A 
ATOM      5  C4  UNL d   1      -1.741   0.365   0.867  0.00  0.00    -0.007 A 
ATOM      6  C5  UNL d   1      -1.373  -0.373  -0.257  0.00  0.00     0.039 A 
ENDROOT
BRANCH   4   7
ATOM      7  O   UNL d   1      -1.188   1.414   2.904  0.00  0.00    -0.526 OA
ATOM      8  H5  UNL d   1      -0.415   1.585   3.467  0.00  0.00     0.418 HD
ENDBRANCH   4   7
TORSDOF 1
ENDMDL
