MODEL 1
REMARK minimizedAffinity -5.28955746
REMARK minimizedRMSD -1
REMARK  1 active torsions:
REMARK  status: ('A' for Active; 'I' for Inactive)
REMARK    1  A    between atoms: C1_2  and  C2_3 
ROOT
ATOM      1  C2  UNL d   1       0.094   1.518   0.112  0.00  0.00    -0.077 A 
ATOM      2  C3  UNL d   1      -1.201   1.184   0.534  0.00  0.00     0.002 A 
ATOM      3  C4  UNL d   1      -1.570  -0.153   0.689  0.00  0.00     0.002 A 
ATOM      4  C5  UNL d   1      -0.649  -1.167   0.428  0.00  0.00    -0.004 A 
ATOM      5  C6  UNL d   1       0.640  -0.844   0.006  0.00  0.00     0.002 A 
ATOM      6  C7  UNL d   1       1.010   0.492  -0.151  0.00  0.00     0.002 A 
ENDROOT
BRANCH   1   7
ATOM      7  C1  UNL d   1       0.509   2.961  -0.009  0.00  0.00     0.055 C 
ATOM      8  C   UNL d   1       1.807   3.228   0.740  0.00  0.00     0.019 C 
ENDBRANCH   1   7
TORSDOF 1
ENDMDL
