MODEL 1
REMARK minimizedAffinity -4.67165899
REMARK minimizedRMSD -1
REMARK  1 active torsions:
REMARK  status: ('A' for Active; 'I' for Inactive)
REMARK    1  A    between atoms: C1_2  and  C2_3 
ROOT
ATOM      1  C2  UNL d   1       0.072   0.380   0.049  0.00  0.00    -0.077 A 
ATOM      2  C3  UNL d   1      -1.200   0.913   0.300  0.00  0.00     0.002 A 
ATOM      3  C4  UNL d   1      -1.422   2.288   0.201  0.00  0.00     0.002 A 
ATOM      4  C5  UNL d   1      -0.379   3.140  -0.154  0.00  0.00    -0.004 A 
ATOM      5  C6  UNL d   1       0.891   2.620  -0.403  0.00  0.00     0.002 A 
ATOM      6  C7  UNL d   1       1.115   1.246  -0.304  0.00  0.00     0.002 A 
ENDROOT
BRANCH   1   7
ATOM      7  C1  UNL d   1       0.301  -1.108   0.107  0.00  0.00     0.055 C 
ATOM      8  C   UNL d   1      -0.556  -1.841  -0.914  0.00  0.00     0.019 C 
ENDBRANCH   1   7
TORSDOF 1
ENDMDL
