MODEL 1
REMARK minimizedAffinity -5.39756155
REMARK minimizedRMSD -1
REMARK  1 active torsions:
REMARK  status: ('A' for Active; 'I' for Inactive)
REMARK    1  A    between atoms: C1_2  and  C2_3 
ROOT
ATOM      1  C2  UNL d   1      -0.089   0.213  -0.081  0.00  0.00    -0.077 A 
ATOM      2  C3  UNL d   1       1.000   0.968  -0.540  0.00  0.00     0.002 A 
ATOM      3  C4  UNL d   1       0.965   2.363  -0.486  0.00  0.00     0.002 A 
ATOM      4  C5  UNL d   1      -0.154   3.014   0.029  0.00  0.00    -0.004 A 
ATOM      5  C6  UNL d   1      -1.242   2.273   0.487  0.00  0.00     0.002 A 
ATOM      6  C7  UNL d   1      -1.210   0.878   0.433  0.00  0.00     0.002 A 
ENDROOT
BRANCH   1   7
ATOM      7  C1  UNL d   1      -0.033  -1.292  -0.092  0.00  0.00     0.055 C 
ATOM      8  C   UNL d   1      -0.194  -1.841  -1.502  0.00  0.00     0.019 C 
ENDBRANCH   1   7
TORSDOF 1
ENDMDL
