MODEL 1
REMARK minimizedAffinity -4.36440468
REMARK minimizedRMSD -1
REMARK  1 active torsions:
REMARK  status: ('A' for Active; 'I' for Inactive)
REMARK    1  A    between atoms: C1_2  and  C2_3 
ROOT
ATOM      1  C2  UNL d   1       0.128  -0.135   0.082  0.00  0.00    -0.077 A 
ATOM      2  C3  UNL d   1       0.863   1.040  -0.129  0.00  0.00     0.002 A 
ATOM      3  C4  UNL d   1       0.296   2.286   0.146  0.00  0.00     0.002 A 
ATOM      4  C5  UNL d   1      -1.005   2.369   0.637  0.00  0.00    -0.004 A 
ATOM      5  C6  UNL d   1      -1.745   1.206   0.848  0.00  0.00     0.002 A 
ATOM      6  C7  UNL d   1      -1.181  -0.040   0.573  0.00  0.00     0.002 A 
ENDROOT
BRANCH   1   7
ATOM      7  C1  UNL d   1       0.754  -1.482  -0.167  0.00  0.00     0.055 C 
ATOM      8  C   UNL d   1      -0.263  -2.472  -0.717  0.00  0.00     0.019 C 
ENDBRANCH   1   7
TORSDOF 1
ENDMDL
