MODEL 1
REMARK minimizedAffinity -4.75170612
REMARK minimizedRMSD -1
REMARK  1 active torsions:
REMARK  status: ('A' for Active; 'I' for Inactive)
REMARK    1  A    between atoms: C1_2  and  C2_3 
ROOT
ATOM      1  C2  UNL d   1       0.396   0.728   0.224  0.00  0.00    -0.077 A 
ATOM      2  C3  UNL d   1      -0.546   1.594   0.798  0.00  0.00     0.002 A 
ATOM      3  C4  UNL d   1      -0.637   2.921   0.372  0.00  0.00     0.002 A 
ATOM      4  C5  UNL d   1       0.206   3.392  -0.631  0.00  0.00    -0.004 A 
ATOM      5  C6  UNL d   1       1.148   2.539  -1.207  0.00  0.00     0.002 A 
ATOM      6  C7  UNL d   1       1.241   1.213  -0.782  0.00  0.00     0.002 A 
ENDROOT
BRANCH   1   7
ATOM      7  C1  UNL d   1       0.463  -0.716   0.648  0.00  0.00     0.055 C 
ATOM      8  C   UNL d   1      -0.530  -1.567  -0.130  0.00  0.00     0.019 C 
ENDBRANCH   1   7
TORSDOF 1
ENDMDL
