MODEL 1
REMARK minimizedAffinity -2.89653254
REMARK minimizedRMSD -1
REMARK  1 active torsions:
REMARK  status: ('A' for Active; 'I' for Inactive)
REMARK    1  A    between atoms: C1_2  and  C2_3 
ROOT
ATOM      1  C2  UNL d   1      -0.236   0.212  -0.266  0.00  0.00    -0.077 A 
ATOM      2  C3  UNL d   1      -1.105   1.024   0.478  0.00  0.00     0.002 A 
ATOM      3  C4  UNL d   1      -0.919   2.408   0.515  0.00  0.00     0.002 A 
ATOM      4  C5  UNL d   1       0.130   2.991  -0.191  0.00  0.00    -0.004 A 
ATOM      5  C6  UNL d   1       1.000   2.192  -0.932  0.00  0.00     0.002 A 
ATOM      6  C7  UNL d   1       0.817   0.809  -0.970  0.00  0.00     0.002 A 
ENDROOT
BRANCH   1   7
ATOM      7  C1  UNL d   1      -0.464  -1.274  -0.348  0.00  0.00     0.055 C 
ATOM      8  C   UNL d   1      -0.333  -1.777  -1.779  0.00  0.00     0.019 C 
ENDBRANCH   1   7
TORSDOF 1
ENDMDL
