MODEL 1
REMARK minimizedAffinity -5.91492796
REMARK minimizedRMSD -1
REMARK  1 active torsions:
REMARK  status: ('A' for Active; 'I' for Inactive)
REMARK    1  A    between atoms: C1_2  and  C2_3 
ROOT
ATOM      1  C2  UNL d   1       0.091   0.557  -0.200  0.00  0.00    -0.077 A 
ATOM      2  C3  UNL d   1       1.299   1.124  -0.632  0.00  0.00     0.002 A 
ATOM      3  C4  UNL d   1       1.486   2.507  -0.584  0.00  0.00     0.002 A 
ATOM      4  C5  UNL d   1       0.472   3.333  -0.102  0.00  0.00    -0.004 A 
ATOM      5  C6  UNL d   1      -0.732   2.778   0.328  0.00  0.00     0.002 A 
ATOM      6  C7  UNL d   1      -0.922   1.396   0.280  0.00  0.00     0.002 A 
ENDROOT
BRANCH   1   7
ATOM      7  C1  UNL d   1      -0.094  -0.938  -0.204  0.00  0.00     0.055 C 
ATOM      8  C   UNL d   1       1.141  -1.651   0.327  0.00  0.00     0.019 C 
ENDBRANCH   1   7
TORSDOF 1
ENDMDL
