MODEL 1
REMARK minimizedAffinity -4.84545374
REMARK minimizedRMSD -1
REMARK  1 active torsions:
REMARK  status: ('A' for Active; 'I' for Inactive)
REMARK    1  A    between atoms: C1_2  and  C2_3 
ROOT
ATOM      1  C2  UNL d   1      -0.046   1.958   0.064  0.00  0.00    -0.077 A 
ATOM      2  C3  UNL d   1       1.281   1.509   0.003  0.00  0.00     0.002 A 
ATOM      3  C4  UNL d   1       1.577   0.156   0.181  0.00  0.00     0.002 A 
ATOM      4  C5  UNL d   1       0.553  -0.758   0.417  0.00  0.00    -0.004 A 
ATOM      5  C6  UNL d   1      -0.770  -0.321   0.482  0.00  0.00     0.002 A 
ATOM      6  C7  UNL d   1      -1.068   1.031   0.306  0.00  0.00     0.002 A 
ENDROOT
BRANCH   1   7
ATOM      7  C1  UNL d   1      -0.372   3.409  -0.176  0.00  0.00     0.055 C 
ATOM      8  C   UNL d   1       0.856   4.290   0.003  0.00  0.00     0.019 C 
ENDBRANCH   1   7
TORSDOF 1
ENDMDL
