MODEL 1
REMARK minimizedAffinity -3.40778112
REMARK minimizedRMSD -1
REMARK  1 active torsions:
REMARK  status: ('A' for Active; 'I' for Inactive)
REMARK    1  A    between atoms: C1_2  and  C2_3 
ROOT
ATOM      1  C2  UNL d   1      -0.239   0.722   0.221  0.00  0.00    -0.077 A 
ATOM      2  C3  UNL d   1      -0.524   1.628   1.253  0.00  0.00     0.002 A 
ATOM      3  C4  UNL d   1       0.044   2.903   1.251  0.00  0.00     0.002 A 
ATOM      4  C5  UNL d   1       0.897   3.286   0.218  0.00  0.00    -0.004 A 
ATOM      5  C6  UNL d   1       1.189   2.392  -0.812  0.00  0.00     0.002 A 
ATOM      6  C7  UNL d   1       0.623   1.116  -0.810  0.00  0.00     0.002 A 
ENDROOT
BRANCH   1   7
ATOM      7  C1  UNL d   1      -0.889  -0.636   0.196  0.00  0.00     0.055 C 
ATOM      8  C   UNL d   1       0.084  -1.707  -0.276  0.00  0.00     0.019 C 
ENDBRANCH   1   7
TORSDOF 1
ENDMDL
