MODEL 1
REMARK minimizedAffinity -5.26988935
REMARK minimizedRMSD -1
REMARK  1 active torsions:
REMARK  status: ('A' for Active; 'I' for Inactive)
REMARK    1  A    between atoms: C1_2  and  C2_3 
ROOT
ATOM      1  C2  UNL d   1       0.011   0.358   0.350  0.00  0.00    -0.077 A 
ATOM      2  C3  UNL d   1       0.969   0.828  -0.560  0.00  0.00     0.002 A 
ATOM      3  C4  UNL d   1       1.149   2.200  -0.749  0.00  0.00     0.002 A 
ATOM      4  C5  UNL d   1       0.379   3.112  -0.031  0.00  0.00    -0.004 A 
ATOM      5  C6  UNL d   1      -0.578   2.654   0.874  0.00  0.00     0.002 A 
ATOM      6  C7  UNL d   1      -0.761   1.284   1.064  0.00  0.00     0.002 A 
ENDROOT
BRANCH   1   7
ATOM      7  C1  UNL d   1      -0.152  -1.120   0.592  0.00  0.00     0.055 C 
ATOM      8  C   UNL d   1       0.185  -1.925  -0.654  0.00  0.00     0.019 C 
ENDBRANCH   1   7
TORSDOF 1
ENDMDL
