MODEL 1
REMARK minimizedAffinity -1.21951199
REMARK minimizedRMSD -1
REMARK  0 active torsions:
REMARK  status: ('A' for Active; 'I' for Inactive)
ROOT
ATOM      1  C   UNL d   1      -2.838  -1.608   3.312  0.00  0.00     0.077 C 
ATOM      2  C1  UNL d   1      -1.349  -1.517   3.466  0.00  0.00    -0.074 A 
ATOM      3  C2  UNL d   1      -0.720  -1.950   4.638  0.00  0.00    -0.005 A 
ATOM      4  C3  UNL d   1       0.667  -1.868   4.763  0.00  0.00     0.006 A 
ATOM      5  C4  UNL d   1       1.437  -1.353   3.720  0.00  0.00    -0.005 A 
ATOM      6  C5  UNL d   1       0.826  -0.916   2.540  0.00  0.00    -0.074 A 
ATOM      7  C6  UNL d   1       1.640  -0.369   1.406  0.00  0.00     0.077 C 
ATOM      8  C7  UNL d   1      -0.567  -1.008   2.419  0.00  0.00    -0.001 A 
ENDROOT
TORSDOF 0
ENDMDL
