MODEL 1
REMARK minimizedAffinity 0.521895528
REMARK minimizedRMSD -1
REMARK  0 active torsions:
REMARK  status: ('A' for Active; 'I' for Inactive)
ROOT
ATOM      1  C   UNL d   1      -2.920  -1.493   3.133  0.00  0.00     0.077 C 
ATOM      2  C1  UNL d   1      -1.473  -1.212   2.856  0.00  0.00    -0.074 A 
ATOM      3  C2  UNL d   1      -1.088  -0.457   1.744  0.00  0.00    -0.005 A 
ATOM      4  C3  UNL d   1       0.261  -0.196   1.504  0.00  0.00     0.006 A 
ATOM      5  C4  UNL d   1       1.237  -0.686   2.373  0.00  0.00    -0.005 A 
ATOM      6  C5  UNL d   1       0.870  -1.442   3.490  0.00  0.00    -0.074 A 
ATOM      7  C6  UNL d   1       1.906  -1.969   4.439  0.00  0.00     0.077 C 
ATOM      8  C7  UNL d   1      -0.488  -1.695   3.728  0.00  0.00    -0.001 A 
ENDROOT
TORSDOF 0
ENDMDL
