MODEL 1
REMARK minimizedAffinity 1.20266759
REMARK minimizedRMSD -1
REMARK  0 active torsions:
REMARK  status: ('A' for Active; 'I' for Inactive)
ROOT
ATOM      1  C   UNL d   1       2.235  -1.434   3.598  0.00  0.00     0.077 C 
ATOM      2  C1  UNL d   1       1.011  -0.945   2.883  0.00  0.00    -0.074 A 
ATOM      3  C2  UNL d   1       1.116  -0.112   1.765  0.00  0.00    -0.005 A 
ATOM      4  C3  UNL d   1      -0.031   0.327   1.104  0.00  0.00     0.006 A 
ATOM      5  C4  UNL d   1      -1.293  -0.062   1.554  0.00  0.00    -0.005 A 
ATOM      6  C5  UNL d   1      -1.418  -0.896   2.670  0.00  0.00    -0.074 A 
ATOM      7  C6  UNL d   1      -2.767  -1.332   3.161  0.00  0.00     0.077 C 
ATOM      8  C7  UNL d   1      -0.260  -1.338   3.324  0.00  0.00    -0.001 A 
ENDROOT
TORSDOF 0
ENDMDL
