MODEL 1
REMARK minimizedAffinity 5.4129138
REMARK minimizedRMSD -1
REMARK  0 active torsions:
REMARK  status: ('A' for Active; 'I' for Inactive)
ROOT
ATOM      1  C   UNL d   1      -1.500  -2.480  -5.256  0.00  0.00     0.077 C 
ATOM      2  C1  UNL d   1      -0.772  -3.714  -4.812  0.00  0.00    -0.074 A 
ATOM      3  C2  UNL d   1      -0.752  -4.862  -5.610  0.00  0.00    -0.005 A 
ATOM      4  C3  UNL d   1      -0.062  -5.999  -5.189  0.00  0.00     0.006 A 
ATOM      5  C4  UNL d   1       0.613  -6.000  -3.968  0.00  0.00    -0.005 A 
ATOM      6  C5  UNL d   1       0.605  -4.860  -3.157  0.00  0.00    -0.074 A 
ATOM      7  C6  UNL d   1       1.333  -4.840  -1.846  0.00  0.00     0.077 C 
ATOM      8  C7  UNL d   1      -0.084  -3.719  -3.590  0.00  0.00    -0.001 A 
ENDROOT
TORSDOF 0
ENDMDL
