MODEL 1
REMARK minimizedAffinity -4.1336441
REMARK minimizedRMSD -1
REMARK  1 active torsions:
REMARK  status: ('A' for Active; 'I' for Inactive)
REMARK    1  A    between atoms: C1_2  and  C2_3 
ROOT
ATOM      1  C2  UNL d   1       0.470   0.769  -0.310  0.00  0.00    -0.081 A 
ATOM      2  C3  UNL d   1       1.760   0.259  -0.504  0.00  0.00     0.006 A 
ATOM      3  C4  UNL d   1       2.043  -1.078  -0.217  0.00  0.00     0.002 A 
ATOM      4  C5  UNL d   1       1.040  -1.929   0.262  0.00  0.00    -0.080 A 
ATOM      5  C6  UNL d   1       1.323  -3.374   0.546  0.00  0.00     0.076 C 
ATOM      6  C7  UNL d   1      -0.244  -1.414   0.473  0.00  0.00     0.002 A 
ATOM      7  C8  UNL d   1      -0.527  -0.077   0.186  0.00  0.00     0.006 A 
ENDROOT
BRANCH   1   8
ATOM      8  C1  UNL d   1       0.146   2.194  -0.681  0.00  0.00     0.054 C 
ATOM      9  C   UNL d   1      -0.950   2.256  -1.734  0.00  0.00     0.018 C 
ENDBRANCH   1   8
TORSDOF 1
ENDMDL
