MODEL 1
REMARK minimizedAffinity -4.96043015
REMARK minimizedRMSD -1
REMARK  1 active torsions:
REMARK  status: ('A' for Active; 'I' for Inactive)
REMARK    1  A    between atoms: C1_2  and  C2_3 
ROOT
ATOM      1  C2  UNL d   1      -0.355   0.698  -0.854  0.00  0.00    -0.081 A 
ATOM      2  C3  UNL d   1       0.138  -0.364  -1.623  0.00  0.00     0.006 A 
ATOM      3  C4  UNL d   1       0.727  -1.470  -1.007  0.00  0.00     0.002 A 
ATOM      4  C5  UNL d   1       0.826  -1.538   0.387  0.00  0.00    -0.080 A 
ATOM      5  C6  UNL d   1       1.429  -2.734   1.062  0.00  0.00     0.076 C 
ATOM      6  C7  UNL d   1       0.350  -0.469   1.154  0.00  0.00     0.002 A 
ATOM      7  C8  UNL d   1      -0.239   0.638   0.539  0.00  0.00     0.006 A 
ENDROOT
BRANCH   1   8
ATOM      8  C1  UNL d   1      -1.049   1.863  -1.512  0.00  0.00     0.054 C 
ATOM      9  C   UNL d   1      -1.890   1.409  -2.697  0.00  0.00     0.018 C 
ENDBRANCH   1   8
TORSDOF 1
ENDMDL
