MODEL 1
REMARK minimizedAffinity -1.41252339
REMARK minimizedRMSD -1
REMARK  1 active torsions:
REMARK  status: ('A' for Active; 'I' for Inactive)
REMARK    1  A    between atoms: C1_2  and  C2_3 
ROOT
ATOM      1  C2  UNL d   1      -0.070   1.065  -0.394  0.00  0.00    -0.081 A 
ATOM      2  C3  UNL d   1       1.213   0.635  -0.757  0.00  0.00     0.006 A 
ATOM      3  C4  UNL d   1       1.801  -0.458  -0.116  0.00  0.00     0.002 A 
ATOM      4  C5  UNL d   1       1.115  -1.143   0.893  0.00  0.00    -0.080 A 
ATOM      5  C6  UNL d   1       1.723  -2.337   1.568  0.00  0.00     0.076 C 
ATOM      6  C7  UNL d   1      -0.159  -0.703   1.268  0.00  0.00     0.002 A 
ATOM      7  C8  UNL d   1      -0.747   0.390   0.628  0.00  0.00     0.006 A 
ENDROOT
BRANCH   1   8
ATOM      8  C1  UNL d   1      -0.733   2.202  -1.127  0.00  0.00     0.054 C 
ATOM      9  C   UNL d   1      -1.397   1.721  -2.410  0.00  0.00     0.018 C 
ENDBRANCH   1   8
TORSDOF 1
ENDMDL
