MODEL 1
REMARK minimizedAffinity -5.45428753
REMARK minimizedRMSD -1
REMARK  1 active torsions:
REMARK  status: ('A' for Active; 'I' for Inactive)
REMARK    1  A    between atoms: C1_2  and  C2_3 
ROOT
ATOM      1  C2  UNL d   1      -0.172  -0.241  -0.314  0.00  0.00    -0.081 A 
ATOM      2  C3  UNL d   1      -0.857  -0.810  -1.394  0.00  0.00     0.006 A 
ATOM      3  C4  UNL d   1      -1.625  -0.012  -2.246  0.00  0.00     0.002 A 
ATOM      4  C5  UNL d   1      -1.715   1.368  -2.036  0.00  0.00    -0.080 A 
ATOM      5  C6  UNL d   1      -2.511   2.240  -2.960  0.00  0.00     0.076 C 
ATOM      6  C7  UNL d   1      -1.044   1.935  -0.947  0.00  0.00     0.002 A 
ATOM      7  C8  UNL d   1      -0.277   1.137  -0.095  0.00  0.00     0.006 A 
ENDROOT
BRANCH   1   8
ATOM      8  C1  UNL d   1       0.709  -1.088   0.567  0.00  0.00     0.054 C 
ATOM      9  C   UNL d   1       1.766  -1.820  -0.247  0.00  0.00     0.018 C 
ENDBRANCH   1   8
TORSDOF 1
ENDMDL
