MODEL 1
REMARK minimizedAffinity -3.4924953
REMARK minimizedRMSD -1
REMARK  1 active torsions:
REMARK  status: ('A' for Active; 'I' for Inactive)
REMARK    1  A    between atoms: C1_2  and  C2_3 
ROOT
ATOM      1  C2  UNL d   1      -0.487   0.466  -0.062  0.00  0.00    -0.081 A 
ATOM      2  C3  UNL d   1      -1.167  -0.454   0.745  0.00  0.00     0.006 A 
ATOM      3  C4  UNL d   1      -0.556  -1.653   1.121  0.00  0.00     0.002 A 
ATOM      4  C5  UNL d   1       0.747  -1.947   0.704  0.00  0.00    -0.080 A 
ATOM      5  C6  UNL d   1       1.425  -3.216   1.126  0.00  0.00     0.076 C 
ATOM      6  C7  UNL d   1       1.419  -1.035  -0.116  0.00  0.00     0.002 A 
ATOM      7  C8  UNL d   1       0.809   0.163  -0.493  0.00  0.00     0.006 A 
ENDROOT
BRANCH   1   8
ATOM      8  C1  UNL d   1      -1.119   1.788  -0.416  0.00  0.00     0.054 C 
ATOM      9  C   UNL d   1      -1.892   1.699  -1.724  0.00  0.00     0.018 C 
ENDBRANCH   1   8
TORSDOF 1
ENDMDL
