MODEL 1
REMARK minimizedAffinity -3.75229597
REMARK minimizedRMSD -1
REMARK  1 active torsions:
REMARK  status: ('A' for Active; 'I' for Inactive)
REMARK    1  A    between atoms: C1_2  and  C2_3 
ROOT
ATOM      1  C2  UNL d   1      -1.114   0.701  -0.611  0.00  0.00    -0.081 A 
ATOM      2  C3  UNL d   1      -1.267  -0.596  -0.107  0.00  0.00     0.006 A 
ATOM      3  C4  UNL d   1      -0.167  -1.297   0.392  0.00  0.00     0.002 A 
ATOM      4  C5  UNL d   1       1.103  -0.710   0.403  0.00  0.00    -0.080 A 
ATOM      5  C6  UNL d   1       2.287  -1.440   0.964  0.00  0.00     0.076 C 
ATOM      6  C7  UNL d   1       1.259   0.580  -0.116  0.00  0.00     0.002 A 
ATOM      7  C8  UNL d   1       0.160   1.281  -0.616  0.00  0.00     0.006 A 
ENDROOT
BRANCH   1   8
ATOM      8  C1  UNL d   1      -2.310   1.484  -1.090  0.00  0.00     0.054 C 
ATOM      9  C   UNL d   1      -2.276   1.677  -2.599  0.00  0.00     0.018 C 
ENDBRANCH   1   8
TORSDOF 1
ENDMDL
