MODEL 1
REMARK minimizedAffinity -5.58556461
REMARK minimizedRMSD -1
REMARK  1 active torsions:
REMARK  status: ('A' for Active; 'I' for Inactive)
REMARK    1  A    between atoms: C1_2  and  C2_3 
ROOT
ATOM      1  C2  UNL d   1      -0.206   0.646  -0.340  0.00  0.00    -0.081 A 
ATOM      2  C3  UNL d   1       1.114   0.244  -0.578  0.00  0.00     0.006 A 
ATOM      3  C4  UNL d   1       1.623  -0.908   0.027  0.00  0.00     0.002 A 
ATOM      4  C5  UNL d   1       0.820  -1.680   0.873  0.00  0.00    -0.080 A 
ATOM      5  C6  UNL d   1       1.345  -2.935   1.504  0.00  0.00     0.076 C 
ATOM      6  C7  UNL d   1      -0.494  -1.269   1.124  0.00  0.00     0.002 A 
ATOM      7  C8  UNL d   1      -1.003  -0.117   0.520  0.00  0.00     0.006 A 
ENDROOT
BRANCH   1   8
ATOM      8  C1  UNL d   1      -0.779   1.851  -1.041  0.00  0.00     0.054 C 
ATOM      9  C   UNL d   1      -1.684   1.442  -2.195  0.00  0.00     0.018 C 
ENDBRANCH   1   8
TORSDOF 1
ENDMDL
