MODEL 1
REMARK minimizedAffinity -4.97729635
REMARK minimizedRMSD -1
REMARK  1 active torsions:
REMARK  status: ('A' for Active; 'I' for Inactive)
REMARK    1  A    between atoms: C1_2  and  C2_3 
ROOT
ATOM      1  C2  UNL d   1       1.357  -1.202   0.283  0.00  0.00    -0.081 A 
ATOM      2  C3  UNL d   1       0.004  -1.117   0.633  0.00  0.00     0.006 A 
ATOM      3  C4  UNL d   1      -0.781  -0.058   0.173  0.00  0.00     0.002 A 
ATOM      4  C5  UNL d   1      -0.230   0.929  -0.651  0.00  0.00    -0.080 A 
ATOM      5  C6  UNL d   1      -1.070   2.055  -1.176  0.00  0.00     0.076 C 
ATOM      6  C7  UNL d   1       1.126   0.854  -0.987  0.00  0.00     0.002 A 
ATOM      7  C8  UNL d   1       1.912  -0.205  -0.527  0.00  0.00     0.006 A 
ENDROOT
BRANCH   1   8
ATOM      8  C1  UNL d   1       2.191  -2.378   0.724  0.00  0.00     0.054 C 
ATOM      9  C   UNL d   1       1.350  -3.404   1.471  0.00  0.00     0.018 C 
ENDBRANCH   1   8
TORSDOF 1
ENDMDL
