MODEL 1
REMARK minimizedAffinity -3.73018575
REMARK minimizedRMSD -1
REMARK  1 active torsions:
REMARK  status: ('A' for Active; 'I' for Inactive)
REMARK    1  A    between atoms: C1_2  and  C2_3 
ROOT
ATOM      1  C2  UNL d   1      -0.434   0.788  -0.902  0.00  0.00    -0.081 A 
ATOM      2  C3  UNL d   1       0.914   0.511  -1.156  0.00  0.00     0.006 A 
ATOM      3  C4  UNL d   1       1.539  -0.582  -0.551  0.00  0.00     0.002 A 
ATOM      4  C5  UNL d   1       0.824  -1.420   0.312  0.00  0.00    -0.080 A 
ATOM      5  C6  UNL d   1       1.475  -2.614   0.945  0.00  0.00     0.076 C 
ATOM      6  C7  UNL d   1      -0.519  -1.133   0.580  0.00  0.00     0.002 A 
ATOM      7  C8  UNL d   1      -1.143  -0.040  -0.024  0.00  0.00     0.006 A 
ENDROOT
BRANCH   1   8
ATOM      8  C1  UNL d   1      -1.128   1.928  -1.603  0.00  0.00     0.054 C 
ATOM      9  C   UNL d   1      -1.963   1.430  -2.774  0.00  0.00     0.018 C 
ENDBRANCH   1   8
TORSDOF 1
ENDMDL
