MODEL 1
REMARK minimizedAffinity -5.17967415
REMARK minimizedRMSD -1
REMARK  1 active torsions:
REMARK  status: ('A' for Active; 'I' for Inactive)
REMARK    1  A    between atoms: C1_2  and  C2_3 
ROOT
ATOM      1  C2  UNL d   1      -0.236   0.566  -0.275  0.00  0.00    -0.081 A 
ATOM      2  C3  UNL d   1       1.037   0.148  -0.681  0.00  0.00     0.006 A 
ATOM      3  C4  UNL d   1       1.598  -1.021  -0.162  0.00  0.00     0.002 A 
ATOM      4  C5  UNL d   1       0.893  -1.795   0.765  0.00  0.00    -0.080 A 
ATOM      5  C6  UNL d   1       1.470  -3.069   1.308  0.00  0.00     0.076 C 
ATOM      6  C7  UNL d   1      -0.372  -1.369   1.185  0.00  0.00     0.002 A 
ATOM      7  C8  UNL d   1      -0.933  -0.199   0.666  0.00  0.00     0.006 A 
ENDROOT
BRANCH   1   8
ATOM      8  C1  UNL d   1      -0.870   1.792  -0.882  0.00  0.00     0.054 C 
ATOM      9  C   UNL d   1      -1.701   1.436  -2.106  0.00  0.00     0.018 C 
ENDBRANCH   1   8
TORSDOF 1
ENDMDL
