MODEL 1
REMARK minimizedAffinity -5.84349442
REMARK minimizedRMSD -1
REMARK  1 active torsions:
REMARK  status: ('A' for Active; 'I' for Inactive)
REMARK    1  A    between atoms: C1_2  and  C2_3 
ROOT
ATOM      1  C2  UNL d   1      -0.379   0.653  -0.352  0.00  0.00    -0.081 A 
ATOM      2  C3  UNL d   1       0.958   0.456  -0.718  0.00  0.00     0.006 A 
ATOM      3  C4  UNL d   1       1.649  -0.680  -0.289  0.00  0.00     0.002 A 
ATOM      4  C5  UNL d   1       1.014  -1.639   0.506  0.00  0.00    -0.080 A 
ATOM      5  C6  UNL d   1       1.736  -2.877   0.949  0.00  0.00     0.076 C 
ATOM      6  C7  UNL d   1      -0.316  -1.434   0.887  0.00  0.00     0.002 A 
ATOM      7  C8  UNL d   1      -1.008  -0.298   0.458  0.00  0.00     0.006 A 
ENDROOT
BRANCH   1   8
ATOM      8  C1  UNL d   1      -1.147   1.844  -0.867  0.00  0.00     0.054 C 
ATOM      9  C   UNL d   1      -1.874   1.515  -2.163  0.00  0.00     0.018 C 
ENDBRANCH   1   8
TORSDOF 1
ENDMDL
