MODEL 1
REMARK minimizedAffinity -3.82033277
REMARK minimizedRMSD -1
REMARK  1 active torsions:
REMARK  status: ('A' for Active; 'I' for Inactive)
REMARK    1  A    between atoms: C1_2  and  C2_3 
ROOT
ATOM      1  C2  UNL d   1      -0.690   0.692  -0.867  0.00  0.00    -0.081 A 
ATOM      2  C3  UNL d   1       0.670   1.017  -0.931  0.00  0.00     0.006 A 
ATOM      3  C4  UNL d   1       1.604   0.313  -0.167  0.00  0.00     0.002 A 
ATOM      4  C5  UNL d   1       1.194  -0.732   0.668  0.00  0.00    -0.080 A 
ATOM      5  C6  UNL d   1       2.189  -1.516   1.471  0.00  0.00     0.076 C 
ATOM      6  C7  UNL d   1      -0.167  -1.046   0.746  0.00  0.00     0.002 A 
ATOM      7  C8  UNL d   1      -1.101  -0.342  -0.018  0.00  0.00     0.006 A 
ENDROOT
BRANCH   1   8
ATOM      8  C1  UNL d   1      -1.691   1.406  -1.739  0.00  0.00     0.054 C 
ATOM      9  C   UNL d   1      -2.967   0.592  -1.897  0.00  0.00     0.018 C 
ENDBRANCH   1   8
TORSDOF 1
ENDMDL
