MODEL 1
REMARK minimizedAffinity 3.36194015
REMARK minimizedRMSD -1
REMARK  0 active torsions:
REMARK  status: ('A' for Active; 'I' for Inactive)
ROOT
ATOM      1  C   UNL d   1      -0.572  -2.249   0.037  0.00  0.00     0.078 C 
ATOM      2  C1  UNL d   1       0.406  -2.034   1.153  0.00  0.00    -0.077 A 
ATOM      3  C2  UNL d   1       0.515  -2.954   2.204  0.00  0.00    -0.001 A 
ATOM      4  C3  UNL d   1       1.423  -2.735   3.241  0.00  0.00     0.003 A 
ATOM      5  C4  UNL d   1       2.227  -1.597   3.240  0.00  0.00    -0.005 A 
ATOM      6  C5  UNL d   1       2.123  -0.675   2.200  0.00  0.00     0.003 A 
ATOM      7  C6  UNL d   1       1.216  -0.892   1.162  0.00  0.00    -0.001 A 
ENDROOT
TORSDOF 0
ENDMDL
