MODEL 1
REMARK minimizedAffinity 0.70024997
REMARK minimizedRMSD -1
REMARK  0 active torsions:
REMARK  status: ('A' for Active; 'I' for Inactive)
ROOT
ATOM      1  C   UNL d   1      -0.229  -2.608   0.345  0.00  0.00     0.078 C 
ATOM      2  C1  UNL d   1       0.508  -2.214   1.590  0.00  0.00    -0.077 A 
ATOM      3  C2  UNL d   1       1.128  -0.963   1.696  0.00  0.00    -0.001 A 
ATOM      4  C3  UNL d   1       1.820  -0.614   2.857  0.00  0.00     0.003 A 
ATOM      5  C4  UNL d   1       1.899  -1.511   3.920  0.00  0.00    -0.005 A 
ATOM      6  C5  UNL d   1       1.287  -2.759   3.824  0.00  0.00     0.003 A 
ATOM      7  C6  UNL d   1       0.595  -3.110   2.663  0.00  0.00    -0.001 A 
ENDROOT
TORSDOF 0
ENDMDL
