MODEL 1
REMARK minimizedAffinity -0.466618359
REMARK minimizedRMSD -1
REMARK  0 active torsions:
REMARK  status: ('A' for Active; 'I' for Inactive)
ROOT
ATOM      1  C   UNL d   1       4.059  -5.898  -4.894  0.00  0.00     0.078 C 
ATOM      2  C1  UNL d   1       3.961  -4.402  -4.877  0.00  0.00    -0.077 A 
ATOM      3  C2  UNL d   1       4.337  -3.667  -3.745  0.00  0.00    -0.001 A 
ATOM      4  C3  UNL d   1       4.231  -2.276  -3.740  0.00  0.00     0.003 A 
ATOM      5  C4  UNL d   1       3.749  -1.606  -4.863  0.00  0.00    -0.005 A 
ATOM      6  C5  UNL d   1       3.370  -2.329  -5.993  0.00  0.00     0.003 A 
ATOM      7  C6  UNL d   1       3.475  -3.721  -6.000  0.00  0.00    -0.001 A 
ENDROOT
TORSDOF 0
ENDMDL
