MODEL 1
REMARK minimizedAffinity -1.48051703
REMARK minimizedRMSD -1
REMARK  0 active torsions:
REMARK  status: ('A' for Active; 'I' for Inactive)
ROOT
ATOM      1  C   UNL d   1       0.866   1.824  -0.494  0.00  0.00     0.078 C 
ATOM      2  C1  UNL d   1       1.485   1.221   0.731  0.00  0.00    -0.077 A 
ATOM      3  C2  UNL d   1       1.170  -0.084   1.131  0.00  0.00    -0.001 A 
ATOM      4  C3  UNL d   1       1.747  -0.629   2.279  0.00  0.00     0.003 A 
ATOM      5  C4  UNL d   1       2.641   0.123   3.038  0.00  0.00    -0.005 A 
ATOM      6  C5  UNL d   1       2.959   1.423   2.650  0.00  0.00     0.003 A 
ATOM      7  C6  UNL d   1       2.383   1.970   1.502  0.00  0.00    -0.001 A 
ENDROOT
TORSDOF 0
ENDMDL
