MODEL 1
REMARK minimizedAffinity -3.77771258
REMARK minimizedRMSD -1
REMARK  0 active torsions:
REMARK  status: ('A' for Active; 'I' for Inactive)
ROOT
ATOM      1  C   UNL d   1       1.036  -1.933   2.491  0.00  0.00     0.078 C 
ATOM      2  C1  UNL d   1       0.210  -2.265   1.285  0.00  0.00    -0.077 A 
ATOM      3  C2  UNL d   1       0.628  -3.240   0.371  0.00  0.00    -0.001 A 
ATOM      4  C3  UNL d   1      -0.147  -3.532  -0.753  0.00  0.00     0.003 A 
ATOM      5  C4  UNL d   1      -1.343  -2.853  -0.974  0.00  0.00    -0.005 A 
ATOM      6  C5  UNL d   1      -1.766  -1.880  -0.071  0.00  0.00     0.003 A 
ATOM      7  C6  UNL d   1      -0.993  -1.587   1.053  0.00  0.00    -0.001 A 
ENDROOT
TORSDOF 0
ENDMDL
