MODEL 1
REMARK minimizedAffinity 0.362278312
REMARK minimizedRMSD -1
REMARK  0 active torsions:
REMARK  status: ('A' for Active; 'I' for Inactive)
ROOT
ATOM      1  C   UNL d   1       2.545   1.139   1.228  0.00  0.00     0.078 C 
ATOM      2  C1  UNL d   1       1.157   0.820   0.759  0.00  0.00    -0.077 A 
ATOM      3  C2  UNL d   1       0.311   1.825   0.274  0.00  0.00    -0.001 A 
ATOM      4  C3  UNL d   1      -0.982   1.515  -0.150  0.00  0.00     0.003 A 
ATOM      5  C4  UNL d   1      -1.441   0.200  -0.093  0.00  0.00    -0.005 A 
ATOM      6  C5  UNL d   1      -0.607  -0.806   0.390  0.00  0.00     0.003 A 
ATOM      7  C6  UNL d   1       0.686  -0.498   0.815  0.00  0.00    -0.001 A 
ENDROOT
TORSDOF 0
ENDMDL
