MODEL 1
REMARK minimizedAffinity -6.38755369
REMARK minimizedRMSD -1
REMARK  0 active torsions:
REMARK  status: ('A' for Active; 'I' for Inactive)
ROOT
ATOM      1  C1  DEN d   1      -3.458  -0.360   0.011  0.00  0.00     0.130 A 
ATOM      2  C2  DEN d   1      -3.534  -0.825   1.393  0.00  0.00    -0.031 A 
ATOM      3  C3  DEN d   1      -2.170  -1.188   1.828  0.00  0.00     0.027 A 
ATOM      4  C4  DEN d   1       0.040  -1.071   0.504  0.00  0.00     0.027 A 
ATOM      5  C5  DEN d   1       0.605  -0.752  -0.712  0.00  0.00    -0.003 A 
ATOM      6  C6  DEN d   1      -0.143  -0.317  -1.773  0.00  0.00     0.001 A 
ATOM      7  C7  DEN d   1      -1.494  -0.144  -1.626  0.00  0.00     0.017 A 
ATOM      8  C8  DEN d   1      -2.072  -0.471  -0.406  0.00  0.00    -0.094 A 
ATOM      9  C9  DEN d   1      -1.297  -0.898   0.659  0.00  0.00    -0.072 A 
ENDROOT
TORSDOF 0
ENDMDL
