MODEL 1
REMARK minimizedAffinity -4.50578594
REMARK minimizedRMSD -1
REMARK  0 active torsions:
REMARK  status: ('A' for Active; 'I' for Inactive)
ROOT
ATOM      1  C1  DEN d   1       1.252   0.690  -0.452  0.00  0.00     0.130 A 
ATOM      2  C2  DEN d   1       1.783   0.456   0.888  0.00  0.00    -0.031 A 
ATOM      3  C3  DEN d   1       0.727  -0.193   1.691  0.00  0.00     0.027 A 
ATOM      4  C4  DEN d   1      -1.664  -0.859   0.990  0.00  0.00     0.027 A 
ATOM      5  C5  DEN d   1      -2.574  -0.852  -0.044  0.00  0.00    -0.003 A 
ATOM      6  C6  DEN d   1      -2.287  -0.304  -1.266  0.00  0.00     0.001 A 
ATOM      7  C7  DEN d   1      -1.042   0.220  -1.499  0.00  0.00     0.017 A 
ATOM      8  C8  DEN d   1      -0.122   0.222  -0.459  0.00  0.00    -0.094 A 
ATOM      9  C9  DEN d   1      -0.428  -0.347   0.765  0.00  0.00    -0.072 A 
ENDROOT
TORSDOF 0
ENDMDL
