MODEL 1
REMARK minimizedAffinity -1.08995044
REMARK minimizedRMSD -1
REMARK  0 active torsions:
REMARK  status: ('A' for Active; 'I' for Inactive)
ROOT
ATOM      1  C1  DEN d   1       1.155   1.050   0.758  0.00  0.00     0.130 A 
ATOM      2  C2  DEN d   1       1.613  -0.142   1.467  0.00  0.00    -0.031 A 
ATOM      3  C3  DEN d   1       0.866  -1.302   0.941  0.00  0.00     0.027 A 
ATOM      4  C4  DEN d   1      -0.944  -1.368  -0.896  0.00  0.00     0.027 A 
ATOM      5  C5  DEN d   1      -1.675  -0.605  -1.779  0.00  0.00    -0.003 A 
ATOM      6  C6  DEN d   1      -1.540   0.756  -1.854  0.00  0.00     0.001 A 
ATOM      7  C7  DEN d   1      -0.620   1.391  -1.063  0.00  0.00     0.017 A 
ATOM      8  C8  DEN d   1       0.115   0.630  -0.164  0.00  0.00    -0.094 A 
ATOM      9  C9  DEN d   1      -0.027  -0.747  -0.112  0.00  0.00    -0.072 A 
ENDROOT
TORSDOF 0
ENDMDL
