MODEL 1
REMARK minimizedAffinity 2.23847127
REMARK minimizedRMSD -1
REMARK  0 active torsions:
REMARK  status: ('A' for Active; 'I' for Inactive)
ROOT
ATOM      1  C1  DEN d   1       1.279   0.437   0.320  0.00  0.00     0.130 A 
ATOM      2  C2  DEN d   1       1.140  -0.594   1.345  0.00  0.00    -0.031 A 
ATOM      3  C3  DEN d   1      -0.033  -1.423   1.004  0.00  0.00     0.027 A 
ATOM      4  C4  DEN d   1      -1.636  -1.216  -1.006  0.00  0.00     0.027 A 
ATOM      5  C5  DEN d   1      -1.928  -0.489  -2.139  0.00  0.00    -0.003 A 
ATOM      6  C6  DEN d   1      -1.199   0.609  -2.510  0.00  0.00     0.001 A 
ATOM      7  C7  DEN d   1      -0.112   0.985  -1.766  0.00  0.00     0.017 A 
ATOM      8  C8  DEN d   1       0.184   0.261  -0.618  0.00  0.00    -0.094 A 
ATOM      9  C9  DEN d   1      -0.558  -0.853  -0.266  0.00  0.00    -0.072 A 
ENDROOT
TORSDOF 0
ENDMDL
