MODEL 1
REMARK minimizedAffinity 0.177534327
REMARK minimizedRMSD -1
REMARK  0 active torsions:
REMARK  status: ('A' for Active; 'I' for Inactive)
ROOT
ATOM      1  C1  DEN d   1       2.791   2.351   0.194  0.00  0.00     0.130 A 
ATOM      2  C2  DEN d   1       2.822   2.776   1.591  0.00  0.00    -0.031 A 
ATOM      3  C3  DEN d   1       1.747   2.063   2.310  0.00  0.00     0.027 A 
ATOM      4  C4  DEN d   1       0.049   0.347   1.401  0.00  0.00     0.027 A 
ATOM      5  C5  DEN d   1      -0.377  -0.323   0.276  0.00  0.00    -0.003 A 
ATOM      6  C6  DEN d   1       0.196  -0.125  -0.953  0.00  0.00     0.001 A 
ATOM      7  C7  DEN d   1       1.258   0.732  -1.076  0.00  0.00     0.017 A 
ATOM      8  C8  DEN d   1       1.689   1.416   0.053  0.00  0.00    -0.094 A 
ATOM      9  C9  DEN d   1       1.104   1.193   1.288  0.00  0.00    -0.072 A 
ENDROOT
TORSDOF 0
ENDMDL
