MODEL 1
REMARK minimizedAffinity 2.08607721
REMARK minimizedRMSD -1
REMARK  0 active torsions:
REMARK  status: ('A' for Active; 'I' for Inactive)
ROOT
ATOM      1  C1  DEN d   1      -4.746  -0.308  -0.077  0.00  0.00     0.130 A 
ATOM      2  C2  DEN d   1      -4.783  -1.586   0.629  0.00  0.00    -0.031 A 
ATOM      3  C3  DEN d   1      -3.487  -2.261   0.417  0.00  0.00     0.027 A 
ATOM      4  C4  DEN d   1      -1.436  -1.454  -0.922  0.00  0.00     0.027 A 
ATOM      5  C5  DEN d   1      -0.936  -0.437  -1.705  0.00  0.00    -0.003 A 
ATOM      6  C6  DEN d   1      -1.677   0.670  -2.026  0.00  0.00     0.001 A 
ATOM      7  C7  DEN d   1      -2.944   0.807  -1.524  0.00  0.00     0.017 A 
ATOM      8  C8  DEN d   1      -3.458  -0.218  -0.739  0.00  0.00    -0.094 A 
ATOM      9  C9  DEN d   1      -2.688  -1.323  -0.417  0.00  0.00    -0.072 A 
ENDROOT
TORSDOF 0
ENDMDL
