MODEL 1
REMARK minimizedAffinity 1.98257422
REMARK minimizedRMSD -1
REMARK  0 active torsions:
REMARK  status: ('A' for Active; 'I' for Inactive)
ROOT
ATOM      1  C1  DEN d   1       1.612  -1.598   1.959  0.00  0.00     0.130 A 
ATOM      2  C2  DEN d   1       0.372  -2.369   1.949  0.00  0.00    -0.031 A 
ATOM      3  C3  DEN d   1      -0.743  -1.445   2.235  0.00  0.00     0.027 A 
ATOM      4  C4  DEN d   1      -0.671   1.094   2.685  0.00  0.00     0.027 A 
ATOM      5  C5  DEN d   1       0.155   2.189   2.809  0.00  0.00    -0.003 A 
ATOM      6  C6  DEN d   1       1.516   2.093   2.692  0.00  0.00     0.001 A 
ATOM      7  C7  DEN d   1       2.089   0.884   2.400  0.00  0.00     0.017 A 
ATOM      8  C8  DEN d   1       1.263  -0.226   2.281  0.00  0.00    -0.094 A 
ATOM      9  C9  DEN d   1      -0.112  -0.107   2.390  0.00  0.00    -0.072 A 
ENDROOT
TORSDOF 0
ENDMDL
