MODEL 1
REMARK minimizedAffinity 5.00820541
REMARK minimizedRMSD -1
REMARK  0 active torsions:
REMARK  status: ('A' for Active; 'I' for Inactive)
ROOT
ATOM      1  C1  DEN d   1      -3.005   0.372  -1.146  0.00  0.00     0.130 A 
ATOM      2  C2  DEN d   1      -2.806  -0.905  -0.465  0.00  0.00    -0.031 A 
ATOM      3  C3  DEN d   1      -1.473  -1.419  -0.837  0.00  0.00     0.027 A 
ATOM      4  C4  DEN d   1       0.296  -0.365  -2.390  0.00  0.00     0.027 A 
ATOM      5  C5  DEN d   1       0.577   0.708  -3.207  0.00  0.00    -0.003 A 
ATOM      6  C6  DEN d   1      -0.323   1.719  -3.419  0.00  0.00     0.001 A 
ATOM      7  C7  DEN d   1      -1.530   1.701  -2.771  0.00  0.00     0.017 A 
ATOM      8  C8  DEN d   1      -1.823   0.618  -1.952  0.00  0.00    -0.094 A 
ATOM      9  C9  DEN d   1      -0.895  -0.387  -1.740  0.00  0.00    -0.072 A 
ENDROOT
TORSDOF 0
ENDMDL
