MODEL 1
REMARK minimizedAffinity 8.74731255
REMARK minimizedRMSD -1
REMARK  0 active torsions:
REMARK  status: ('A' for Active; 'I' for Inactive)
ROOT
ATOM      1  C1  DEN d   1      -3.832  -1.056  -0.458  0.00  0.00     0.130 A 
ATOM      2  C2  DEN d   1      -3.508   0.024   0.471  0.00  0.00    -0.031 A 
ATOM      3  C3  DEN d   1      -2.218   0.611   0.056  0.00  0.00     0.027 A 
ATOM      4  C4  DEN d   1      -0.702  -0.039  -1.926  0.00  0.00     0.027 A 
ATOM      5  C5  DEN d   1      -0.552  -0.903  -2.989  0.00  0.00    -0.003 A 
ATOM      6  C6  DEN d   1      -1.460  -1.892  -3.260  0.00  0.00     0.001 A 
ATOM      7  C7  DEN d   1      -2.583  -2.013  -2.485  0.00  0.00     0.017 A 
ATOM      8  C8  DEN d   1      -2.738  -1.151  -1.407  0.00  0.00    -0.094 A 
ATOM      9  C9  DEN d   1      -1.814  -0.149  -1.157  0.00  0.00    -0.072 A 
ENDROOT
TORSDOF 0
ENDMDL
