MODEL 1
REMARK minimizedAffinity 6.4822998
REMARK minimizedRMSD -1
REMARK  0 active torsions:
REMARK  status: ('A' for Active; 'I' for Inactive)
ROOT
ATOM      1  C1  DEN d   1      -0.471   0.802  -2.979  0.00  0.00     0.130 A 
ATOM      2  C2  DEN d   1      -1.382   1.793  -3.545  0.00  0.00    -0.031 A 
ATOM      3  C3  DEN d   1      -2.710   1.596  -2.929  0.00  0.00     0.027 A 
ATOM      4  C4  DEN d   1      -3.438  -0.135  -1.161  0.00  0.00     0.027 A 
ATOM      5  C5  DEN d   1      -3.017  -1.194  -0.388  0.00  0.00    -0.003 A 
ATOM      6  C6  DEN d   1      -1.738  -1.680  -0.448  0.00  0.00     0.001 A 
ATOM      7  C7  DEN d   1      -0.821  -1.077  -1.268  0.00  0.00     0.017 A 
ATOM      8  C8  DEN d   1      -1.240  -0.013  -2.056  0.00  0.00    -0.094 A 
ATOM      9  C9  DEN d   1      -2.534   0.471  -1.971  0.00  0.00    -0.072 A 
ENDROOT
TORSDOF 0
ENDMDL
