MODEL 1
REMARK minimizedAffinity -0.780617118
REMARK minimizedRMSD -1
REMARK  0 active torsions:
REMARK  status: ('A' for Active; 'I' for Inactive)
ROOT
ATOM      1  C1  DEN d   1       5.095   5.516  -3.310  0.00  0.00     0.130 A 
ATOM      2  C2  DEN d   1       6.000   4.700  -4.116  0.00  0.00    -0.031 A 
ATOM      3  C3  DEN d   1       5.985   3.328  -3.571  0.00  0.00     0.027 A 
ATOM      4  C4  DEN d   1       4.652   2.391  -1.571  0.00  0.00     0.027 A 
ATOM      5  C5  DEN d   1       3.760   2.706  -0.571  0.00  0.00    -0.003 A 
ATOM      6  C6  DEN d   1       3.280   3.976  -0.393  0.00  0.00     0.001 A 
ATOM      7  C7  DEN d   1       3.656   4.971  -1.258  0.00  0.00     0.017 A 
ATOM      8  C8  DEN d   1       4.561   4.662  -2.265  0.00  0.00    -0.094 A 
ATOM      9  C9  DEN d   1       5.025   3.369  -2.435  0.00  0.00    -0.072 A 
ENDROOT
TORSDOF 0
ENDMDL
