MODEL 1
REMARK minimizedAffinity 14.8058758
REMARK minimizedRMSD -1
REMARK  0 active torsions:
REMARK  status: ('A' for Active; 'I' for Inactive)
ROOT
ATOM      1  C   UNL d   1       3.015   0.005  -1.047  0.00  0.00     0.077 C 
ATOM      2  C1  UNL d   1       2.250  -0.570  -2.202  0.00  0.00    -0.074 A 
ATOM      3  C2  UNL d   1       1.066  -1.285  -1.995  0.00  0.00    -0.005 A 
ATOM      4  C3  UNL d   1       0.361  -1.806  -3.080  0.00  0.00     0.006 A 
ATOM      5  C4  UNL d   1       0.832  -1.619  -4.380  0.00  0.00    -0.005 A 
ATOM      6  C5  UNL d   1       2.014  -0.907  -4.606  0.00  0.00    -0.074 A 
ATOM      7  C6  UNL d   1       2.530  -0.688  -5.998  0.00  0.00     0.077 C 
ATOM      8  C7  UNL d   1       2.713  -0.380  -3.512  0.00  0.00    -0.001 A 
ENDROOT
TORSDOF 0
ENDMDL
