MODEL 1
REMARK minimizedAffinity 9.40121746
REMARK minimizedRMSD -1
REMARK  0 active torsions:
REMARK  status: ('A' for Active; 'I' for Inactive)
ROOT
ATOM      1  C   UNL d   1       2.235  -3.009  -1.090  0.00  0.00     0.077 C 
ATOM      2  C1  UNL d   1       2.007  -2.037  -2.209  0.00  0.00    -0.074 A 
ATOM      3  C2  UNL d   1       1.548  -0.741  -1.953  0.00  0.00    -0.005 A 
ATOM      4  C3  UNL d   1       1.349   0.155  -3.004  0.00  0.00     0.006 A 
ATOM      5  C4  UNL d   1       1.606  -0.236  -4.319  0.00  0.00    -0.005 A 
ATOM      6  C5  UNL d   1       2.067  -1.528  -4.594  0.00  0.00    -0.074 A 
ATOM      7  C6  UNL d   1       2.358  -1.960  -6.000  0.00  0.00     0.077 C 
ATOM      8  C7  UNL d   1       2.271  -2.420  -3.532  0.00  0.00    -0.001 A 
ENDROOT
TORSDOF 0
ENDMDL
