MODEL 1
REMARK minimizedAffinity 14.7797012
REMARK minimizedRMSD -1
REMARK  0 active torsions:
REMARK  status: ('A' for Active; 'I' for Inactive)
ROOT
ATOM      1  C   UNL d   1      -1.806  -1.878  -3.388  0.00  0.00     0.077 C 
ATOM      2  C1  UNL d   1      -1.796  -3.313  -2.952  0.00  0.00    -0.074 A 
ATOM      3  C2  UNL d   1      -2.990  -4.015  -2.760  0.00  0.00    -0.005 A 
ATOM      4  C3  UNL d   1      -2.964  -5.352  -2.363  0.00  0.00     0.006 A 
ATOM      5  C4  UNL d   1      -1.746  -6.000  -2.156  0.00  0.00    -0.005 A 
ATOM      6  C5  UNL d   1      -0.542  -5.315  -2.344  0.00  0.00    -0.074 A 
ATOM      7  C6  UNL d   1       0.776  -5.999  -2.135  0.00  0.00     0.077 C 
ATOM      8  C7  UNL d   1      -0.576  -3.974  -2.750  0.00  0.00    -0.001 A 
ENDROOT
TORSDOF 0
ENDMDL
