MODEL 1
REMARK minimizedAffinity 16.1585388
REMARK minimizedRMSD -1
REMARK  0 active torsions:
REMARK  status: ('A' for Active; 'I' for Inactive)
ROOT
ATOM      1  C   UNL d   1       5.622   2.545  -1.129  0.00  0.00     0.077 C 
ATOM      2  C1  UNL d   1       4.441   1.968  -0.406  0.00  0.00    -0.074 A 
ATOM      3  C2  UNL d   1       3.917   2.594   0.729  0.00  0.00    -0.005 A 
ATOM      4  C3  UNL d   1       2.812   2.051   1.385  0.00  0.00     0.006 A 
ATOM      5  C4  UNL d   1       2.222   0.878   0.913  0.00  0.00    -0.005 A 
ATOM      6  C5  UNL d   1       2.732   0.238  -0.221  0.00  0.00    -0.074 A 
ATOM      7  C6  UNL d   1       2.103  -1.018  -0.747  0.00  0.00     0.077 C 
ATOM      8  C7  UNL d   1       3.838   0.794  -0.879  0.00  0.00    -0.001 A 
ENDROOT
TORSDOF 0
ENDMDL
