MODEL 1
REMARK minimizedAffinity 15.4985552
REMARK minimizedRMSD -1
REMARK  0 active torsions:
REMARK  status: ('A' for Active; 'I' for Inactive)
ROOT
ATOM      1  C   UNL d   1       5.637  -2.941   0.563  0.00  0.00     0.077 C 
ATOM      2  C1  UNL d   1       4.181  -3.073   0.227  0.00  0.00    -0.074 A 
ATOM      3  C2  UNL d   1       3.478  -4.244   0.524  0.00  0.00    -0.005 A 
ATOM      4  C3  UNL d   1       2.122  -4.349   0.214  0.00  0.00     0.006 A 
ATOM      5  C4  UNL d   1       1.457  -3.284  -0.396  0.00  0.00    -0.005 A 
ATOM      6  C5  UNL d   1       2.144  -2.104  -0.700  0.00  0.00    -0.074 A 
ATOM      7  C6  UNL d   1       1.441  -0.947  -1.346  0.00  0.00     0.077 C 
ATOM      8  C7  UNL d   1       3.504  -2.005  -0.378  0.00  0.00    -0.001 A 
ENDROOT
TORSDOF 0
ENDMDL
