MODEL 1
REMARK minimizedAffinity 0.495368987
REMARK minimizedRMSD -1
REMARK  0 active torsions:
REMARK  status: ('A' for Active; 'I' for Inactive)
ROOT
ATOM      1  C   UNL d   1       1.442  -1.688  -1.233  0.00  0.00     0.077 C 
ATOM      2  C1  UNL d   1       0.159  -2.087  -0.567  0.00  0.00    -0.074 A 
ATOM      3  C2  UNL d   1       0.050  -3.303   0.114  0.00  0.00    -0.005 A 
ATOM      4  C3  UNL d   1      -1.147  -3.656   0.737  0.00  0.00     0.006 A 
ATOM      5  C4  UNL d   1      -2.246  -2.798   0.684  0.00  0.00    -0.005 A 
ATOM      6  C5  UNL d   1      -2.156  -1.577   0.008  0.00  0.00    -0.074 A 
ATOM      7  C6  UNL d   1      -3.324  -0.639  -0.049  0.00  0.00     0.077 C 
ATOM      8  C7  UNL d   1      -0.947  -1.226  -0.609  0.00  0.00    -0.001 A 
ENDROOT
TORSDOF 0
ENDMDL
