MODEL 1
REMARK minimizedAffinity 16.1340027
REMARK minimizedRMSD -1
REMARK  0 active torsions:
REMARK  status: ('A' for Active; 'I' for Inactive)
ROOT
ATOM      1  C   UNL d   1      -1.158   4.354  -2.944  0.00  0.00     0.077 C 
ATOM      2  C1  UNL d   1      -2.126   3.942  -4.013  0.00  0.00    -0.074 A 
ATOM      3  C2  UNL d   1      -2.116   2.642  -4.530  0.00  0.00    -0.005 A 
ATOM      4  C3  UNL d   1      -3.029   2.271  -5.517  0.00  0.00     0.006 A 
ATOM      5  C4  UNL d   1      -3.959   3.194  -5.996  0.00  0.00    -0.005 A 
ATOM      6  C5  UNL d   1      -3.985   4.497  -5.490  0.00  0.00    -0.074 A 
ATOM      7  C6  UNL d   1      -4.986   5.498  -5.987  0.00  0.00     0.077 C 
ATOM      8  C7  UNL d   1      -3.069   4.861  -4.494  0.00  0.00    -0.001 A 
ENDROOT
TORSDOF 0
ENDMDL
