MODEL 1
REMARK minimizedAffinity 23.2430172
REMARK minimizedRMSD -1
REMARK  0 active torsions:
REMARK  status: ('A' for Active; 'I' for Inactive)
ROOT
ATOM      1  C   UNL d   1       3.779   0.959   0.264  0.00  0.00     0.077 C 
ATOM      2  C1  UNL d   1       2.722   0.335  -0.599  0.00  0.00    -0.074 A 
ATOM      3  C2  UNL d   1       2.348   0.919  -1.813  0.00  0.00    -0.005 A 
ATOM      4  C3  UNL d   1       1.371   0.322  -2.609  0.00  0.00     0.006 A 
ATOM      5  C4  UNL d   1       0.758  -0.863  -2.199  0.00  0.00    -0.005 A 
ATOM      6  C5  UNL d   1       1.120  -1.462  -0.988  0.00  0.00    -0.074 A 
ATOM      7  C6  UNL d   1       0.479  -2.741  -0.537  0.00  0.00     0.077 C 
ATOM      8  C7  UNL d   1       2.108  -0.860  -0.197  0.00  0.00    -0.001 A 
ENDROOT
TORSDOF 0
ENDMDL
