MODEL 1
REMARK minimizedAffinity 15.5734777
REMARK minimizedRMSD -1
REMARK  0 active torsions:
REMARK  status: ('A' for Active; 'I' for Inactive)
ROOT
ATOM      1  C   UNL d   1       0.570   1.677   2.573  0.00  0.00     0.077 C 
ATOM      2  C1  UNL d   1       1.536   1.280   1.496  0.00  0.00    -0.074 A 
ATOM      3  C2  UNL d   1       2.896   1.589   1.601  0.00  0.00    -0.005 A 
ATOM      4  C3  UNL d   1       3.784   1.205   0.596  0.00  0.00     0.006 A 
ATOM      5  C4  UNL d   1       3.322   0.510  -0.522  0.00  0.00    -0.005 A 
ATOM      6  C5  UNL d   1       1.965   0.191  -0.644  0.00  0.00    -0.074 A 
ATOM      7  C6  UNL d   1       1.453  -0.564  -1.834  0.00  0.00     0.077 C 
ATOM      8  C7  UNL d   1       1.081   0.575   0.374  0.00  0.00    -0.001 A 
ENDROOT
TORSDOF 0
ENDMDL
