MODEL 1
REMARK minimizedAffinity 9.92030239
REMARK minimizedRMSD -1
REMARK  0 active torsions:
REMARK  status: ('A' for Active; 'I' for Inactive)
ROOT
ATOM      1  C   UNL d   1      -5.171   0.117   3.734  0.00  0.00     0.077 C 
ATOM      2  C1  UNL d   1      -4.494   1.202   4.518  0.00  0.00    -0.074 A 
ATOM      3  C2  UNL d   1      -5.192   2.349   4.908  0.00  0.00    -0.005 A 
ATOM      4  C3  UNL d   1      -4.552   3.345   5.646  0.00  0.00     0.006 A 
ATOM      5  C4  UNL d   1      -3.210   3.205   6.000  0.00  0.00    -0.005 A 
ATOM      6  C5  UNL d   1      -2.496   2.064   5.619  0.00  0.00    -0.074 A 
ATOM      7  C6  UNL d   1      -1.055   1.893   6.000  0.00  0.00     0.077 C 
ATOM      8  C7  UNL d   1      -3.148   1.064   4.884  0.00  0.00    -0.001 A 
ENDROOT
TORSDOF 0
ENDMDL
