MODEL 1
REMARK minimizedAffinity 15.8483982
REMARK minimizedRMSD -1
REMARK  0 active torsions:
REMARK  status: ('A' for Active; 'I' for Inactive)
ROOT
ATOM      1  C   UNL d   1       1.882  -0.260  -1.002  0.00  0.00     0.077 C 
ATOM      2  C1  UNL d   1       1.401  -1.184  -2.081  0.00  0.00    -0.074 A 
ATOM      3  C2  UNL d   1       0.488  -2.205  -1.799  0.00  0.00    -0.005 A 
ATOM      4  C3  UNL d   1       0.042  -3.050  -2.815  0.00  0.00     0.006 A 
ATOM      5  C4  UNL d   1       0.505  -2.884  -4.121  0.00  0.00    -0.005 A 
ATOM      6  C5  UNL d   1       1.418  -1.869  -4.422  0.00  0.00    -0.074 A 
ATOM      7  C6  UNL d   1       1.919  -1.670  -5.822  0.00  0.00     0.077 C 
ATOM      8  C7  UNL d   1       1.856  -1.019  -3.397  0.00  0.00    -0.001 A 
ENDROOT
TORSDOF 0
ENDMDL
