MODEL 1
REMARK minimizedAffinity 14.5891714
REMARK minimizedRMSD -1
REMARK  0 active torsions:
REMARK  status: ('A' for Active; 'I' for Inactive)
ROOT
ATOM      1  C   UNL d   1      -4.732  -2.973  -4.977  0.00  0.00     0.077 C 
ATOM      2  C1  UNL d   1      -3.537  -3.766  -4.536  0.00  0.00    -0.074 A 
ATOM      3  C2  UNL d   1      -2.764  -4.474  -5.461  0.00  0.00    -0.005 A 
ATOM      4  C3  UNL d   1      -1.650  -5.200  -5.038  0.00  0.00     0.006 A 
ATOM      5  C4  UNL d   1      -1.299  -5.224  -3.687  0.00  0.00    -0.005 A 
ATOM      6  C5  UNL d   1      -2.061  -4.521  -2.748  0.00  0.00    -0.074 A 
ATOM      7  C6  UNL d   1      -1.692  -4.529  -1.294  0.00  0.00     0.077 C 
ATOM      8  C7  UNL d   1      -3.174  -3.789  -3.182  0.00  0.00    -0.001 A 
ENDROOT
TORSDOF 0
ENDMDL
