MODEL 1
REMARK minimizedAffinity -0.140792385
REMARK minimizedRMSD -1
REMARK  0 active torsions:
REMARK  status: ('A' for Active; 'I' for Inactive)
ROOT
ATOM      1  C   UNL d   1      -2.117  -4.990  -1.733  0.00  0.00     0.077 C 
ATOM      2  C1  UNL d   1      -2.267  -5.094  -3.222  0.00  0.00    -0.074 A 
ATOM      3  C2  UNL d   1      -1.412  -5.905  -3.976  0.00  0.00    -0.005 A 
ATOM      4  C3  UNL d   1      -1.571  -6.000  -5.358  0.00  0.00     0.006 A 
ATOM      5  C4  UNL d   1      -2.584  -5.287  -6.000  0.00  0.00    -0.005 A 
ATOM      6  C5  UNL d   1      -3.449  -4.472  -5.263  0.00  0.00    -0.074 A 
ATOM      7  C6  UNL d   1      -4.549  -3.706  -5.936  0.00  0.00     0.077 C 
ATOM      8  C7  UNL d   1      -3.288  -4.387  -3.873  0.00  0.00    -0.001 A 
ENDROOT
TORSDOF 0
ENDMDL
