MODEL 1
REMARK minimizedAffinity 8.58996868
REMARK minimizedRMSD -1
REMARK  0 active torsions:
REMARK  status: ('A' for Active; 'I' for Inactive)
ROOT
ATOM      1  C   UNL d   1      -0.323  -5.999  -5.281  0.00  0.00     0.077 C 
ATOM      2  C1  UNL d   1      -1.140  -5.053  -4.452  0.00  0.00    -0.074 A 
ATOM      3  C2  UNL d   1      -0.961  -4.972  -3.067  0.00  0.00    -0.005 A 
ATOM      4  C3  UNL d   1      -1.722  -4.080  -2.311  0.00  0.00     0.006 A 
ATOM      5  C4  UNL d   1      -2.667  -3.262  -2.930  0.00  0.00    -0.005 A 
ATOM      6  C5  UNL d   1      -2.859  -3.328  -4.314  0.00  0.00    -0.074 A 
ATOM      7  C6  UNL d   1      -3.864  -2.449  -4.997  0.00  0.00     0.077 C 
ATOM      8  C7  UNL d   1      -2.086  -4.222  -5.068  0.00  0.00    -0.001 A 
ENDROOT
TORSDOF 0
ENDMDL
