MODEL 1
REMARK minimizedAffinity 2.47816682
REMARK minimizedRMSD -1
REMARK  0 active torsions:
REMARK  status: ('A' for Active; 'I' for Inactive)
ROOT
ATOM      1  C   UNL d   1      -5.570  -2.541  -5.942  0.00  0.00     0.077 C 
ATOM      2  C1  UNL d   1      -4.681  -3.668  -5.507  0.00  0.00    -0.074 A 
ATOM      3  C2  UNL d   1      -4.870  -4.963  -6.000  0.00  0.00    -0.005 A 
ATOM      4  C3  UNL d   1      -4.029  -5.999  -5.594  0.00  0.00     0.006 A 
ATOM      5  C4  UNL d   1      -2.993  -5.751  -4.692  0.00  0.00    -0.005 A 
ATOM      6  C5  UNL d   1      -2.789  -4.463  -4.190  0.00  0.00    -0.074 A 
ATOM      7  C6  UNL d   1      -1.674  -4.177  -3.228  0.00  0.00     0.077 C 
ATOM      8  C7  UNL d   1      -3.633  -3.425  -4.608  0.00  0.00    -0.001 A 
ENDROOT
TORSDOF 0
ENDMDL
