MODEL 1
REMARK minimizedAffinity -2.59589815
REMARK minimizedRMSD -1
REMARK  0 active torsions:
REMARK  status: ('A' for Active; 'I' for Inactive)
ROOT
ATOM      1  C   UNL d   1      -0.724  -6.000  -3.784  0.00  0.00     0.077 C 
ATOM      2  C1  UNL d   1      -1.910  -5.239  -4.297  0.00  0.00    -0.074 A 
ATOM      3  C2  UNL d   1      -1.961  -3.844  -4.213  0.00  0.00    -0.005 A 
ATOM      4  C3  UNL d   1      -3.067  -3.149  -4.702  0.00  0.00     0.006 A 
ATOM      5  C4  UNL d   1      -4.132  -3.842  -5.280  0.00  0.00    -0.005 A 
ATOM      6  C5  UNL d   1      -4.099  -5.237  -5.373  0.00  0.00    -0.074 A 
ATOM      7  C6  UNL d   1      -5.231  -5.995  -6.000  0.00  0.00     0.077 C 
ATOM      8  C7  UNL d   1      -2.981  -5.927  -4.885  0.00  0.00    -0.001 A 
ENDROOT
TORSDOF 0
ENDMDL
