MODEL 1
REMARK minimizedAffinity 10.4296389
REMARK minimizedRMSD -1
REMARK  0 active torsions:
REMARK  status: ('A' for Active; 'I' for Inactive)
ROOT
ATOM      1  C   UNL d   1       0.020  -2.410  -2.123  0.00  0.00     0.077 C 
ATOM      2  C1  UNL d   1       1.271  -1.994  -1.407  0.00  0.00    -0.074 A 
ATOM      3  C2  UNL d   1       2.120  -2.945  -0.832  0.00  0.00    -0.005 A 
ATOM      4  C3  UNL d   1       3.285  -2.543  -0.178  0.00  0.00     0.006 A 
ATOM      5  C4  UNL d   1       3.611  -1.189  -0.093  0.00  0.00    -0.005 A 
ATOM      6  C5  UNL d   1       2.775  -0.224  -0.662  0.00  0.00    -0.074 A 
ATOM      7  C6  UNL d   1       3.116   1.235  -0.588  0.00  0.00     0.077 C 
ATOM      8  C7  UNL d   1       1.610  -0.636  -1.324  0.00  0.00    -0.001 A 
ENDROOT
TORSDOF 0
ENDMDL
