MODEL 1
REMARK minimizedAffinity 14.8186741
REMARK minimizedRMSD -1
REMARK  0 active torsions:
REMARK  status: ('A' for Active; 'I' for Inactive)
ROOT
ATOM      1  C   UNL d   1      -3.249  -0.588   3.153  0.00  0.00     0.077 C 
ATOM      2  C1  UNL d   1      -3.755   0.584   3.940  0.00  0.00    -0.074 A 
ATOM      3  C2  UNL d   1      -3.375   0.773   5.273  0.00  0.00    -0.005 A 
ATOM      4  C3  UNL d   1      -3.846   1.874   5.989  0.00  0.00     0.006 A 
ATOM      5  C4  UNL d   1      -4.700   2.795   5.380  0.00  0.00    -0.005 A 
ATOM      6  C5  UNL d   1      -5.090   2.622   4.048  0.00  0.00    -0.074 A 
ATOM      7  C6  UNL d   1      -5.999   3.608   3.377  0.00  0.00     0.077 C 
ATOM      8  C7  UNL d   1      -4.607   1.518   3.333  0.00  0.00    -0.001 A 
ENDROOT
TORSDOF 0
ENDMDL
