MODEL 1
REMARK minimizedAffinity -4.31131792
REMARK minimizedRMSD -1
REMARK  0 active torsions:
REMARK  status: ('A' for Active; 'I' for Inactive)
ROOT
ATOM      1  C   UNL d   1       3.223  -0.188  -1.738  0.00  0.00     0.023 A 
ATOM      2  C1  UNL d   1       3.003  -1.511  -1.357  0.00  0.00     0.003 A 
ATOM      3  C2  UNL d   1       2.078  -1.806  -0.353  0.00  0.00     0.048 A 
ATOM      4  C3  UNL d   1       1.375  -0.773   0.264  0.00  0.00     0.023 A 
ATOM      5  C4  UNL d   1       1.590   0.553  -0.115  0.00  0.00     0.048 A 
ATOM      6  C5  UNL d   1       2.517   0.844  -1.117  0.00  0.00     0.003 A 
ATOM      7  I   UNL d   1      -0.004  -1.209   1.757  0.00  0.00    -0.146 I 
ENDROOT
TORSDOF 0
ENDMDL
