MODEL 1
REMARK minimizedAffinity -1.03272998
REMARK minimizedRMSD -1
REMARK  0 active torsions:
REMARK  status: ('A' for Active; 'I' for Inactive)
ROOT
ATOM      1  C   UNL d   1      -0.060  -0.151   0.783  0.00  0.00     0.023 A 
ATOM      2  C1  UNL d   1       0.259  -1.440   0.357  0.00  0.00     0.003 A 
ATOM      3  C2  UNL d   1       1.511  -1.701  -0.205  0.00  0.00     0.048 A 
ATOM      4  C3  UNL d   1       2.439  -0.668  -0.336  0.00  0.00     0.023 A 
ATOM      5  C4  UNL d   1       2.124   0.623   0.090  0.00  0.00     0.048 A 
ATOM      6  C5  UNL d   1       0.871   0.880   0.650  0.00  0.00     0.003 A 
ATOM      7  I   UNL d   1       4.302  -1.054  -1.172  0.00  0.00    -0.146 I 
ENDROOT
TORSDOF 0
ENDMDL
