MODEL 1
REMARK minimizedAffinity -3.56263638
REMARK minimizedRMSD -1
REMARK  0 active torsions:
REMARK  status: ('A' for Active; 'I' for Inactive)
ROOT
ATOM      1  C   UNL d   1       0.622  -0.761   0.797  0.00  0.00     0.023 A 
ATOM      2  C1  UNL d   1       1.256  -1.929   0.371  0.00  0.00     0.003 A 
ATOM      3  C2  UNL d   1       2.431  -1.853  -0.379  0.00  0.00     0.048 A 
ATOM      4  C3  UNL d   1       2.969  -0.607  -0.698  0.00  0.00     0.023 A 
ATOM      5  C4  UNL d   1       2.339   0.564  -0.274  0.00  0.00     0.048 A 
ATOM      6  C5  UNL d   1       1.163   0.484   0.475  0.00  0.00     0.003 A 
ATOM      7  I   UNL d   1       4.718  -0.493  -1.814  0.00  0.00    -0.146 I 
ENDROOT
TORSDOF 0
ENDMDL
