MODEL 1
REMARK minimizedAffinity -4.5109458
REMARK minimizedRMSD -1
REMARK  0 active torsions:
REMARK  status: ('A' for Active; 'I' for Inactive)
ROOT
ATOM      1  C   UNL d   1       0.875  -0.011   0.412  0.00  0.00     0.023 A 
ATOM      2  C1  UNL d   1       1.320   1.173  -0.176  0.00  0.00     0.003 A 
ATOM      3  C2  UNL d   1       2.433   1.159  -1.019  0.00  0.00     0.048 A 
ATOM      4  C3  UNL d   1       3.096  -0.042  -1.270  0.00  0.00     0.023 A 
ATOM      5  C4  UNL d   1       2.653  -1.229  -0.685  0.00  0.00     0.048 A 
ATOM      6  C5  UNL d   1       1.540  -1.211   0.158  0.00  0.00     0.003 A 
ATOM      7  I   UNL d   1       4.752  -0.066  -2.525  0.00  0.00    -0.146 I 
ENDROOT
TORSDOF 0
ENDMDL
