MODEL 1
REMARK minimizedAffinity -1.32970762
REMARK minimizedRMSD -1
REMARK  0 active torsions:
REMARK  status: ('A' for Active; 'I' for Inactive)
ROOT
ATOM      1  C   UNL d   1       0.736  -0.025   0.588  0.00  0.00     0.023 A 
ATOM      2  C1  UNL d   1       1.134  -1.343   0.365  0.00  0.00     0.003 A 
ATOM      3  C2  UNL d   1       2.275  -1.611  -0.393  0.00  0.00     0.048 A 
ATOM      4  C3  UNL d   1       3.015  -0.555  -0.925  0.00  0.00     0.023 A 
ATOM      5  C4  UNL d   1       2.621   0.766  -0.704  0.00  0.00     0.048 A 
ATOM      6  C5  UNL d   1       1.478   1.028   0.054  0.00  0.00     0.003 A 
ATOM      7  I   UNL d   1       4.715  -0.950  -2.054  0.00  0.00    -0.146 I 
ENDROOT
TORSDOF 0
ENDMDL
