MODEL 1
REMARK minimizedAffinity 0.664152443
REMARK minimizedRMSD -1
REMARK  0 active torsions:
REMARK  status: ('A' for Active; 'I' for Inactive)
ROOT
ATOM      1  C   UNL d   1       1.345  -0.371   0.337  0.00  0.00     0.023 A 
ATOM      2  C1  UNL d   1       1.915   0.787  -0.194  0.00  0.00     0.003 A 
ATOM      3  C2  UNL d   1       3.048   0.700  -1.005  0.00  0.00     0.048 A 
ATOM      4  C3  UNL d   1       3.606  -0.548  -1.283  0.00  0.00     0.023 A 
ATOM      5  C4  UNL d   1       3.039  -1.709  -0.754  0.00  0.00     0.048 A 
ATOM      6  C5  UNL d   1       1.906  -1.617   0.057  0.00  0.00     0.003 A 
ATOM      7  I   UNL d   1       5.292  -0.680  -2.490  0.00  0.00    -0.146 I 
ENDROOT
TORSDOF 0
ENDMDL
