MODEL 1
REMARK minimizedAffinity 1.52188587
REMARK minimizedRMSD -1
REMARK  0 active torsions:
REMARK  status: ('A' for Active; 'I' for Inactive)
ROOT
ATOM      1  C   UNL d   1       1.486  -0.221  -0.345  0.00  0.00     0.023 A 
ATOM      2  C1  UNL d   1       1.934   0.918  -1.015  0.00  0.00     0.003 A 
ATOM      3  C2  UNL d   1       3.079   0.855  -1.812  0.00  0.00     0.048 A 
ATOM      4  C3  UNL d   1       3.771  -0.349  -1.935  0.00  0.00     0.023 A 
ATOM      5  C4  UNL d   1       3.326  -1.491  -1.267  0.00  0.00     0.048 A 
ATOM      6  C5  UNL d   1       2.181  -1.424  -0.471  0.00  0.00     0.003 A 
ATOM      7  I   UNL d   1       5.475  -0.445  -3.120  0.00  0.00    -0.146 I 
ENDROOT
TORSDOF 0
ENDMDL
