MODEL 1
REMARK minimizedAffinity -1.79573095
REMARK minimizedRMSD -1
REMARK  0 active torsions:
REMARK  status: ('A' for Active; 'I' for Inactive)
ROOT
ATOM      1  C   UNL d   1       1.113  -0.461  -0.027  0.00  0.00     0.023 A 
ATOM      2  C1  UNL d   1       1.760  -1.657  -0.338  0.00  0.00     0.003 A 
ATOM      3  C2  UNL d   1       2.977  -1.637  -1.022  0.00  0.00     0.048 A 
ATOM      4  C3  UNL d   1       3.542  -0.417  -1.391  0.00  0.00     0.023 A 
ATOM      5  C4  UNL d   1       2.899   0.783  -1.081  0.00  0.00     0.048 A 
ATOM      6  C5  UNL d   1       1.682   0.757  -0.398  0.00  0.00     0.003 A 
ATOM      7  I   UNL d   1       5.354  -0.384  -2.409  0.00  0.00    -0.146 I 
ENDROOT
TORSDOF 0
ENDMDL
