MODEL 1
REMARK minimizedAffinity -2.13617134
REMARK minimizedRMSD -1
REMARK  0 active torsions:
REMARK  status: ('A' for Active; 'I' for Inactive)
ROOT
ATOM      1  C   UNL d   1       3.326   0.336  -1.325  0.00  0.00     0.023 A 
ATOM      2  C1  UNL d   1       3.321  -0.982  -0.871  0.00  0.00     0.003 A 
ATOM      3  C2  UNL d   1       2.378  -1.393   0.074  0.00  0.00     0.048 A 
ATOM      4  C3  UNL d   1       1.444  -0.479   0.560  0.00  0.00     0.023 A 
ATOM      5  C4  UNL d   1       1.444   0.841   0.108  0.00  0.00     0.048 A 
ATOM      6  C5  UNL d   1       2.389   1.247  -0.837  0.00  0.00     0.003 A 
ATOM      7  I   UNL d   1       0.040  -1.088   1.967  0.00  0.00    -0.146 I 
ENDROOT
TORSDOF 0
ENDMDL
