MODEL 1
REMARK minimizedAffinity 4.31600142
REMARK minimizedRMSD -1
REMARK  0 active torsions:
REMARK  status: ('A' for Active; 'I' for Inactive)
ROOT
ATOM      1  C   UNL d   1       0.873  -2.008  -0.021  0.00  0.00     0.023 A 
ATOM      2  C1  UNL d   1       0.151  -1.134   0.793  0.00  0.00     0.003 A 
ATOM      3  C2  UNL d   1       0.714   0.081   1.188  0.00  0.00     0.048 A 
ATOM      4  C3  UNL d   1       2.000   0.417   0.764  0.00  0.00     0.023 A 
ATOM      5  C4  UNL d   1       2.725  -0.453  -0.051  0.00  0.00     0.048 A 
ATOM      6  C5  UNL d   1       2.159  -1.667  -0.442  0.00  0.00     0.003 A 
ATOM      7  I   UNL d   1       2.840   2.225   1.351  0.00  0.00    -0.146 I 
ENDROOT
TORSDOF 0
ENDMDL
