MODEL 1
REMARK minimizedAffinity -2.38477588
REMARK minimizedRMSD -1
REMARK  0 active torsions:
REMARK  status: ('A' for Active; 'I' for Inactive)
ROOT
ATOM      1  C   UNL d   1       1.131  -0.497   0.499  0.00  0.00     0.023 A 
ATOM      2  C1  UNL d   1       1.818  -1.684   0.246  0.00  0.00     0.003 A 
ATOM      3  C2  UNL d   1       2.918  -1.687  -0.614  0.00  0.00     0.048 A 
ATOM      4  C3  UNL d   1       3.328  -0.497  -1.216  0.00  0.00     0.023 A 
ATOM      5  C4  UNL d   1       2.644   0.694  -0.965  0.00  0.00     0.048 A 
ATOM      6  C5  UNL d   1       1.544   0.691  -0.106  0.00  0.00     0.003 A 
ATOM      7  I   UNL d   1       4.966  -0.498  -2.495  0.00  0.00    -0.146 I 
ENDROOT
TORSDOF 0
ENDMDL
