MODEL 1
REMARK minimizedAffinity -1.05086887
REMARK minimizedRMSD -1
REMARK  0 active torsions:
REMARK  status: ('A' for Active; 'I' for Inactive)
ROOT
ATOM      1  C   UNL d   1       0.923  -0.459   0.738  0.00  0.00     0.023 A 
ATOM      2  C1  UNL d   1       1.027   0.508  -0.262  0.00  0.00     0.003 A 
ATOM      3  C2  UNL d   1       2.127   0.509  -1.122  0.00  0.00     0.048 A 
ATOM      4  C3  UNL d   1       3.119  -0.461  -0.977  0.00  0.00     0.023 A 
ATOM      5  C4  UNL d   1       3.018  -1.431   0.021  0.00  0.00     0.048 A 
ATOM      6  C5  UNL d   1       1.917  -1.427   0.879  0.00  0.00     0.003 A 
ATOM      7  I   UNL d   1       4.757  -0.461  -2.256  0.00  0.00    -0.146 I 
ENDROOT
TORSDOF 0
ENDMDL
