MODEL 1
REMARK minimizedAffinity 0.363219261
REMARK minimizedRMSD -1
REMARK  0 active torsions:
REMARK  status: ('A' for Active; 'I' for Inactive)
ROOT
ATOM      1  C   UNL d   1       1.784  -0.548  -0.476  0.00  0.00     0.023 A 
ATOM      2  C1  UNL d   1       2.528  -1.721  -0.597  0.00  0.00     0.003 A 
ATOM      3  C2  UNL d   1       3.737  -1.714  -1.295  0.00  0.00     0.048 A 
ATOM      4  C3  UNL d   1       4.197  -0.530  -1.869  0.00  0.00     0.023 A 
ATOM      5  C4  UNL d   1       3.457   0.647  -1.750  0.00  0.00     0.048 A 
ATOM      6  C5  UNL d   1       2.247   0.635  -1.052  0.00  0.00     0.003 A 
ATOM      7  I   UNL d   1       5.997  -0.517  -2.907  0.00  0.00    -0.146 I 
ENDROOT
TORSDOF 0
ENDMDL
