MODEL 1
REMARK minimizedAffinity -1.26776898
REMARK minimizedRMSD -1
REMARK  0 active torsions:
REMARK  status: ('A' for Active; 'I' for Inactive)
ROOT
ATOM      1  C   UNL d   1       1.467  -0.061   0.384  0.00  0.00     0.023 A 
ATOM      2  C1  UNL d   1       2.041  -1.307   0.134  0.00  0.00     0.003 A 
ATOM      3  C2  UNL d   1       3.214  -1.398  -0.618  0.00  0.00     0.048 A 
ATOM      4  C3  UNL d   1       3.808  -0.239  -1.117  0.00  0.00     0.023 A 
ATOM      5  C4  UNL d   1       3.237   1.010  -0.868  0.00  0.00     0.048 A 
ATOM      6  C5  UNL d   1       2.064   1.097  -0.116  0.00  0.00     0.003 A 
ATOM      7  I   UNL d   1       5.553  -0.372  -2.236  0.00  0.00    -0.146 I 
ENDROOT
TORSDOF 0
ENDMDL
