MODEL 1
REMARK minimizedAffinity -2.57707882
REMARK minimizedRMSD -1
REMARK  0 active torsions:
REMARK  status: ('A' for Active; 'I' for Inactive)
ROOT
ATOM      1  C   UNL d   1       1.069  -0.457   0.232  0.00  0.00     0.023 A 
ATOM      2  C1  UNL d   1       1.616   0.784  -0.096  0.00  0.00     0.003 A 
ATOM      3  C2  UNL d   1       2.792   0.855  -0.845  0.00  0.00     0.048 A 
ATOM      4  C3  UNL d   1       3.416  -0.320  -1.264  0.00  0.00     0.023 A 
ATOM      5  C4  UNL d   1       2.872  -1.564  -0.940  0.00  0.00     0.048 A 
ATOM      6  C5  UNL d   1       1.696  -1.629  -0.190  0.00  0.00     0.003 A 
ATOM      7  I   UNL d   1       5.167  -0.217  -2.379  0.00  0.00    -0.146 I 
ENDROOT
TORSDOF 0
ENDMDL
