MODEL 1
REMARK minimizedAffinity -1.94910097
REMARK minimizedRMSD -1
REMARK  0 active torsions:
REMARK  status: ('A' for Active; 'I' for Inactive)
ROOT
ATOM      1  C   UNL d   1       0.477  -0.374   0.343  0.00  0.00     0.023 A 
ATOM      2  C1  UNL d   1       1.343  -1.462   0.243  0.00  0.00     0.003 A 
ATOM      3  C2  UNL d   1       2.490  -1.373  -0.549  0.00  0.00     0.048 A 
ATOM      4  C3  UNL d   1       2.764  -0.192  -1.237  0.00  0.00     0.023 A 
ATOM      5  C4  UNL d   1       1.901   0.900  -1.139  0.00  0.00     0.048 A 
ATOM      6  C5  UNL d   1       0.755   0.806  -0.347  0.00  0.00     0.003 A 
ATOM      7  I   UNL d   1       4.471  -0.056  -2.416  0.00  0.00    -0.146 I 
ENDROOT
TORSDOF 0
ENDMDL
