MODEL 1
REMARK minimizedAffinity -2.50616837
REMARK minimizedRMSD -1
REMARK  0 active torsions:
REMARK  status: ('A' for Active; 'I' for Inactive)
ROOT
ATOM      1  C   UNL d   1       3.996   0.101  -2.499  0.00  0.00     0.023 A 
ATOM      2  C1  UNL d   1       3.967  -1.224  -2.062  0.00  0.00     0.003 A 
ATOM      3  C2  UNL d   1       3.077  -1.610  -1.059  0.00  0.00     0.048 A 
ATOM      4  C3  UNL d   1       2.217  -0.667  -0.496  0.00  0.00     0.023 A 
ATOM      5  C4  UNL d   1       2.242   0.659  -0.930  0.00  0.00     0.048 A 
ATOM      6  C5  UNL d   1       3.134   1.041  -1.933  0.00  0.00     0.003 A 
ATOM      7  I   UNL d   1       0.890  -1.241   0.997  0.00  0.00    -0.146 I 
ENDROOT
TORSDOF 0
ENDMDL
