MODEL 1
REMARK minimizedAffinity -2.5716517
REMARK minimizedRMSD -1
REMARK  0 active torsions:
REMARK  status: ('A' for Active; 'I' for Inactive)
ROOT
ATOM      1  C   UNL d   1      -0.019   2.940   1.066  0.00  0.00     0.023 A 
ATOM      2  C1  UNL d   1       1.133   2.155   1.048  0.00  0.00     0.003 A 
ATOM      3  C2  UNL d   1       1.063   0.817   0.653  0.00  0.00     0.048 A 
ATOM      4  C3  UNL d   1      -0.164   0.272   0.275  0.00  0.00     0.023 A 
ATOM      5  C4  UNL d   1      -1.320   1.054   0.289  0.00  0.00     0.048 A 
ATOM      6  C5  UNL d   1      -1.244   2.391   0.687  0.00  0.00     0.003 A 
ATOM      7  I   UNL d   1      -0.271  -1.718  -0.314  0.00  0.00    -0.146 I 
ENDROOT
TORSDOF 0
ENDMDL
