MODEL 1
REMARK minimizedAffinity -3.21281934
REMARK minimizedRMSD -1
REMARK  0 active torsions:
REMARK  status: ('A' for Active; 'I' for Inactive)
ROOT
ATOM      1  C   UNL d   1       0.311   3.073   0.948  0.00  0.00     0.023 A 
ATOM      2  C1  UNL d   1      -0.777   2.399   1.502  0.00  0.00     0.003 A 
ATOM      3  C2  UNL d   1      -0.998   1.054   1.196  0.00  0.00     0.048 A 
ATOM      4  C3  UNL d   1      -0.125   0.390   0.334  0.00  0.00     0.023 A 
ATOM      5  C4  UNL d   1       0.965   1.060  -0.222  0.00  0.00     0.048 A 
ATOM      6  C5  UNL d   1       1.181   2.404   0.087  0.00  0.00     0.003 A 
ATOM      7  I   UNL d   1      -0.451  -1.611  -0.124  0.00  0.00    -0.146 I 
ENDROOT
TORSDOF 0
ENDMDL
