MODEL 1
REMARK minimizedAffinity -4.04671955
REMARK minimizedRMSD -1
REMARK  0 active torsions:
REMARK  status: ('A' for Active; 'I' for Inactive)
ROOT
ATOM      1  C   UNL d   1       0.022   2.858   0.810  0.00  0.00     0.023 A 
ATOM      2  C1  UNL d   1      -0.943   1.901   1.125  0.00  0.00     0.003 A 
ATOM      3  C2  UNL d   1      -1.076   0.755   0.338  0.00  0.00     0.048 A 
ATOM      4  C3  UNL d   1      -0.240   0.573  -0.763  0.00  0.00     0.023 A 
ATOM      5  C4  UNL d   1       0.727   1.527  -1.083  0.00  0.00     0.048 A 
ATOM      6  C5  UNL d   1       0.856   2.672  -0.293  0.00  0.00     0.003 A 
ATOM      7  I   UNL d   1      -0.436  -1.131  -1.937  0.00  0.00    -0.146 I 
ENDROOT
TORSDOF 0
ENDMDL
