MODEL 1
REMARK minimizedAffinity -3.98038602
REMARK minimizedRMSD -1
REMARK  0 active torsions:
REMARK  status: ('A' for Active; 'I' for Inactive)
ROOT
ATOM      1  C   UNL d   1      -0.074   2.856   0.383  0.00  0.00     0.023 A 
ATOM      2  C1  UNL d   1       1.047   2.204  -0.130  0.00  0.00     0.003 A 
ATOM      3  C2  UNL d   1       1.042   0.815  -0.275  0.00  0.00     0.048 A 
ATOM      4  C3  UNL d   1      -0.087   0.085   0.093  0.00  0.00     0.023 A 
ATOM      5  C4  UNL d   1      -1.212   0.734   0.606  0.00  0.00     0.048 A 
ATOM      6  C5  UNL d   1      -1.202   2.122   0.751  0.00  0.00     0.003 A 
ATOM      7  I   UNL d   1      -0.096  -1.982  -0.122  0.00  0.00    -0.146 I 
ENDROOT
TORSDOF 0
ENDMDL
