MODEL 1
REMARK minimizedAffinity -4.33537626
REMARK minimizedRMSD -1
REMARK  0 active torsions:
REMARK  status: ('A' for Active; 'I' for Inactive)
ROOT
ATOM      1  C   UNL d   1       0.216   3.283   0.497  0.00  0.00     0.023 A 
ATOM      2  C1  UNL d   1      -0.741   2.633   1.275  0.00  0.00     0.003 A 
ATOM      3  C2  UNL d   1      -0.852   1.241   1.229  0.00  0.00     0.048 A 
ATOM      4  C3  UNL d   1      -0.002   0.507   0.404  0.00  0.00     0.023 A 
ATOM      5  C4  UNL d   1       0.958   1.153  -0.376  0.00  0.00     0.048 A 
ATOM      6  C5  UNL d   1       1.065   2.545  -0.328  0.00  0.00     0.003 A 
ATOM      7  I   UNL d   1      -0.165  -1.564   0.334  0.00  0.00    -0.146 I 
ENDROOT
TORSDOF 0
ENDMDL
