MODEL 1
REMARK minimizedAffinity -2.10854602
REMARK minimizedRMSD -1
REMARK  0 active torsions:
REMARK  status: ('A' for Active; 'I' for Inactive)
ROOT
ATOM      1  C   UNL d   1      -0.203  -0.007  -0.949  0.00  0.00     0.023 A 
ATOM      2  C1  UNL d   1      -1.014  -0.504   0.071  0.00  0.00     0.003 A 
ATOM      3  C2  UNL d   1      -1.285   0.280   1.195  0.00  0.00     0.048 A 
ATOM      4  C3  UNL d   1      -0.743   1.561   1.290  0.00  0.00     0.023 A 
ATOM      5  C4  UNL d   1       0.068   2.063   0.272  0.00  0.00     0.048 A 
ATOM      6  C5  UNL d   1       0.337   1.275  -0.849  0.00  0.00     0.003 A 
ATOM      7  I   UNL d   1      -1.146   2.730   2.961  0.00  0.00    -0.146 I 
ENDROOT
TORSDOF 0
ENDMDL
