MODEL 1
REMARK minimizedAffinity -1.22065508
REMARK minimizedRMSD -1
REMARK  0 active torsions:
REMARK  status: ('A' for Active; 'I' for Inactive)
ROOT
ATOM      1  C   UNL d   1      -0.115  -1.559   1.578  0.00  0.00     0.023 A 
ATOM      2  C1  UNL d   1      -1.125  -0.600   1.509  0.00  0.00     0.003 A 
ATOM      3  C2  UNL d   1      -0.933   0.566   0.765  0.00  0.00     0.048 A 
ATOM      4  C3  UNL d   1       0.272   0.766   0.093  0.00  0.00     0.023 A 
ATOM      5  C4  UNL d   1       1.285  -0.191   0.159  0.00  0.00     0.048 A 
ATOM      6  C5  UNL d   1       1.089  -1.355   0.904  0.00  0.00     0.003 A 
ATOM      7  I   UNL d   1       0.560   2.501  -1.015  0.00  0.00    -0.146 I 
ENDROOT
TORSDOF 0
ENDMDL
