MODEL 1
REMARK minimizedAffinity -4.85919046
REMARK minimizedRMSD -1
REMARK  0 active torsions:
REMARK  status: ('A' for Active; 'I' for Inactive)
ROOT
ATOM      1  C   UNL d   1      -0.288   3.081   0.520  0.00  0.00     0.023 A 
ATOM      2  C1  UNL d   1       0.732   2.614  -0.309  0.00  0.00     0.003 A 
ATOM      3  C2  UNL d   1       0.668   1.324  -0.838  0.00  0.00     0.048 A 
ATOM      4  C3  UNL d   1      -0.420   0.506  -0.535  0.00  0.00     0.023 A 
ATOM      5  C4  UNL d   1      -1.444   0.969   0.293  0.00  0.00     0.048 A 
ATOM      6  C5  UNL d   1      -1.374   2.260   0.821  0.00  0.00     0.003 A 
ATOM      7  I   UNL d   1      -0.519  -1.416  -1.322  0.00  0.00    -0.146 I 
ENDROOT
TORSDOF 0
ENDMDL
