MODEL 1
REMARK minimizedAffinity -3.03183126
REMARK minimizedRMSD -1
REMARK  0 active torsions:
REMARK  status: ('A' for Active; 'I' for Inactive)
ROOT
ATOM      1  C   UNL d   1       1.035   3.347  -0.878  0.00  0.00     0.023 A 
ATOM      2  C1  UNL d   1       1.582   2.063  -0.892  0.00  0.00     0.003 A 
ATOM      3  C2  UNL d   1       0.946   1.025  -0.209  0.00  0.00     0.048 A 
ATOM      4  C3  UNL d   1      -0.237   1.276   0.485  0.00  0.00     0.023 A 
ATOM      5  C4  UNL d   1      -0.788   2.558   0.501  0.00  0.00     0.048 A 
ATOM      6  C5  UNL d   1      -0.149   3.594  -0.183  0.00  0.00     0.003 A 
ATOM      7  I   UNL d   1      -1.185  -0.269   1.503  0.00  0.00    -0.146 I 
ENDROOT
TORSDOF 0
ENDMDL
