MODEL 1
REMARK minimizedAffinity -4.61229849
REMARK minimizedRMSD -1
REMARK  0 active torsions:
REMARK  status: ('A' for Active; 'I' for Inactive)
ROOT
ATOM      1  C   UNL d   1       0.079   3.229   0.612  0.00  0.00     0.023 A 
ATOM      2  C1  UNL d   1      -1.005   2.474   1.060  0.00  0.00     0.003 A 
ATOM      3  C2  UNL d   1      -1.058   1.103   0.800  0.00  0.00     0.048 A 
ATOM      4  C3  UNL d   1      -0.023   0.493   0.092  0.00  0.00     0.023 A 
ATOM      5  C4  UNL d   1       1.064   1.244  -0.357  0.00  0.00     0.048 A 
ATOM      6  C5  UNL d   1       1.112   2.615  -0.096  0.00  0.00     0.003 A 
ATOM      7  I   UNL d   1      -0.099  -1.547  -0.296  0.00  0.00    -0.146 I 
ENDROOT
TORSDOF 0
ENDMDL
