MODEL 1
REMARK minimizedAffinity -2.21375012
REMARK minimizedRMSD -1
REMARK  0 active torsions:
REMARK  status: ('A' for Active; 'I' for Inactive)
ROOT
ATOM      1  C   UNL d   1      -0.737   2.689   0.971  0.00  0.00     0.023 A 
ATOM      2  C1  UNL d   1       0.418   2.412   0.239  0.00  0.00     0.003 A 
ATOM      3  C2  UNL d   1       0.626   1.133  -0.281  0.00  0.00     0.048 A 
ATOM      4  C3  UNL d   1      -0.326   0.137  -0.068  0.00  0.00     0.023 A 
ATOM      5  C4  UNL d   1      -1.483   0.410   0.663  0.00  0.00     0.048 A 
ATOM      6  C5  UNL d   1      -1.687   1.690   1.182  0.00  0.00     0.003 A 
ATOM      7  I   UNL d   1      -0.019  -1.768  -0.842  0.00  0.00    -0.146 I 
ENDROOT
TORSDOF 0
ENDMDL
