MODEL 1
REMARK minimizedAffinity -2.3448596
REMARK minimizedRMSD -1
REMARK  0 active torsions:
REMARK  status: ('A' for Active; 'I' for Inactive)
ROOT
ATOM      1  C   UNL d   1      -0.807   3.670   1.658  0.00  0.00     0.023 A 
ATOM      2  C1  UNL d   1      -1.614   2.587   2.007  0.00  0.00     0.003 A 
ATOM      3  C2  UNL d   1      -1.385   1.332   1.439  0.00  0.00     0.048 A 
ATOM      4  C3  UNL d   1      -0.347   1.167   0.523  0.00  0.00     0.023 A 
ATOM      5  C4  UNL d   1       0.464   2.248   0.171  0.00  0.00     0.048 A 
ATOM      6  C5  UNL d   1       0.230   3.501   0.741  0.00  0.00     0.003 A 
ATOM      7  I   UNL d   1      -0.004  -0.699  -0.325  0.00  0.00    -0.146 I 
ENDROOT
TORSDOF 0
ENDMDL
