MODEL 1
REMARK minimizedAffinity -3.42301083
REMARK minimizedRMSD -1
REMARK  0 active torsions:
REMARK  status: ('A' for Active; 'I' for Inactive)
ROOT
ATOM      1  C   UNL d   1      -0.560   2.765   1.058  0.00  0.00     0.023 A 
ATOM      2  C1  UNL d   1       0.542   2.464   0.257  0.00  0.00     0.003 A 
ATOM      3  C2  UNL d   1       0.634   1.218  -0.366  0.00  0.00     0.048 A 
ATOM      4  C3  UNL d   1      -0.379   0.278  -0.185  0.00  0.00     0.023 A 
ATOM      5  C4  UNL d   1      -1.484   0.575   0.614  0.00  0.00     0.048 A 
ATOM      6  C5  UNL d   1      -1.572   1.822   1.236  0.00  0.00     0.003 A 
ATOM      7  I   UNL d   1      -0.244  -1.578  -1.111  0.00  0.00    -0.146 I 
ENDROOT
TORSDOF 0
ENDMDL
