MODEL 1
REMARK minimizedAffinity -2.78260541
REMARK minimizedRMSD -1
REMARK  0 active torsions:
REMARK  status: ('A' for Active; 'I' for Inactive)
ROOT
ATOM      1  C   UNL d   1       2.192   1.013   0.369  0.00  0.00     0.023 A 
ATOM      2  C1  UNL d   1       2.404  -0.217   0.992  0.00  0.00     0.003 A 
ATOM      3  C2  UNL d   1       1.424  -1.210   0.932  0.00  0.00     0.048 A 
ATOM      4  C3  UNL d   1       0.235  -0.967   0.246  0.00  0.00     0.023 A 
ATOM      5  C4  UNL d   1       0.018   0.262  -0.379  0.00  0.00     0.048 A 
ATOM      6  C5  UNL d   1       1.000   1.252  -0.316  0.00  0.00     0.003 A 
ATOM      7  I   UNL d   1      -1.225  -2.444   0.155  0.00  0.00    -0.146 I 
ENDROOT
TORSDOF 0
ENDMDL
