MODEL 1
REMARK minimizedAffinity -1.04367101
REMARK minimizedRMSD -1
REMARK  0 active torsions:
REMARK  status: ('A' for Active; 'I' for Inactive)
ROOT
ATOM      1  C   UNL d   1      -1.919   1.859   0.734  0.00  0.00     0.023 A 
ATOM      2  C1  UNL d   1      -1.731   0.531   0.351  0.00  0.00     0.003 A 
ATOM      3  C2  UNL d   1      -0.441   0.005   0.259  0.00  0.00     0.048 A 
ATOM      4  C3  UNL d   1       0.657   0.812   0.553  0.00  0.00     0.023 A 
ATOM      5  C4  UNL d   1       0.475   2.141   0.938  0.00  0.00     0.048 A 
ATOM      6  C5  UNL d   1      -0.817   2.663   1.027  0.00  0.00     0.003 A 
ATOM      7  I   UNL d   1       2.579   0.031   0.418  0.00  0.00    -0.146 I 
ENDROOT
TORSDOF 0
ENDMDL
