MODEL 1
REMARK minimizedAffinity -2.13379169
REMARK minimizedRMSD -1
REMARK  0 active torsions:
REMARK  status: ('A' for Active; 'I' for Inactive)
ROOT
ATOM      1  C   UNL d   1       0.920   1.647   0.906  0.00  0.00     0.023 A 
ATOM      2  C1  UNL d   1      -0.358   1.723   0.351  0.00  0.00     0.003 A 
ATOM      3  C2  UNL d   1      -0.886   0.631  -0.341  0.00  0.00     0.048 A 
ATOM      4  C3  UNL d   1      -0.133  -0.535  -0.472  0.00  0.00     0.023 A 
ATOM      5  C4  UNL d   1       1.145  -0.616   0.083  0.00  0.00     0.048 A 
ATOM      6  C5  UNL d   1       1.670   0.479   0.772  0.00  0.00     0.003 A 
ATOM      7  I   UNL d   1      -0.917  -2.162  -1.500  0.00  0.00    -0.146 I 
ENDROOT
TORSDOF 0
ENDMDL
