MODEL 1
REMARK minimizedAffinity -5.64427471
REMARK minimizedRMSD -1
REMARK  2 active torsions:
REMARK  status: ('A' for Active; 'I' for Inactive)
REMARK    1  A    between atoms: C1_2  and  C2_3 
REMARK    2  A    between atoms: C2_3  and  C3_4 
ROOT
ATOM      1  C3  UNL d   1      -0.180  -0.133   0.078  0.00  0.00    -0.075 A 
ATOM      2  C4  UNL d   1       1.015   0.540   0.371  0.00  0.00     0.002 A 
ATOM      3  C5  UNL d   1       1.618   0.402   1.621  0.00  0.00     0.002 A 
ATOM      4  C6  UNL d   1       1.031  -0.401   2.596  0.00  0.00    -0.004 A 
ATOM      5  C7  UNL d   1      -0.165  -1.061   2.322  0.00  0.00     0.002 A 
ATOM      6  C8  UNL d   1      -0.769  -0.928   1.070  0.00  0.00     0.002 A 
ENDROOT
BRANCH   1   7
ATOM      7  C2  UNL d   1      -0.823  -0.011  -1.283  0.00  0.00     0.056 C 
BRANCH   7   8
ATOM      8  C1  UNL d   1       0.046   0.707  -2.321  0.00  0.00     0.007 C 
ATOM      9  C   UNL d   1      -0.764   1.511  -3.329  0.00  0.00     0.009 C 
ENDBRANCH   7   8
ENDBRANCH   1   7
TORSDOF 2
ENDMDL
