MODEL 1
REMARK minimizedAffinity -6.21154022
REMARK minimizedRMSD -1
REMARK  2 active torsions:
REMARK  status: ('A' for Active; 'I' for Inactive)
REMARK    1  A    between atoms: C1_2  and  C2_3 
REMARK    2  A    between atoms: C2_3  and  C3_4 
ROOT
ATOM      1  C3  UNL d   1      -4.099   0.647  -3.991  0.00  0.00    -0.075 A 
ATOM      2  C4  UNL d   1      -4.642  -0.142  -5.016  0.00  0.00     0.002 A 
ATOM      3  C5  UNL d   1      -4.303  -1.490  -5.126  0.00  0.00     0.002 A 
ATOM      4  C6  UNL d   1      -3.412  -2.064  -4.223  0.00  0.00    -0.004 A 
ATOM      5  C7  UNL d   1      -2.853  -1.286  -3.211  0.00  0.00     0.002 A 
ATOM      6  C8  UNL d   1      -3.193   0.063  -3.095  0.00  0.00     0.002 A 
ENDROOT
BRANCH   1   7
ATOM      7  C2  UNL d   1      -4.484   2.100  -3.848  0.00  0.00     0.056 C 
BRANCH   7   8
ATOM      8  C1  UNL d   1      -3.792   2.817  -2.684  0.00  0.00     0.007 C 
ATOM      9  C   UNL d   1      -2.371   3.259  -3.010  0.00  0.00     0.009 C 
ENDBRANCH   7   8
ENDBRANCH   1   7
TORSDOF 2
ENDMDL
