MODEL 1
REMARK minimizedAffinity 5.21992302
REMARK minimizedRMSD -1
REMARK  2 active torsions:
REMARK  status: ('A' for Active; 'I' for Inactive)
REMARK    1  A    between atoms: C1_2  and  C2_3 
REMARK    2  A    between atoms: C2_3  and  C3_4 
ROOT
ATOM      1  C3  UNL d   1      -4.689  -0.560  -4.276  0.00  0.00    -0.075 A 
ATOM      2  C4  UNL d   1      -3.459  -0.265  -4.882  0.00  0.00     0.002 A 
ATOM      3  C5  UNL d   1      -3.318   0.869  -5.682  0.00  0.00     0.002 A 
ATOM      4  C6  UNL d   1      -4.404   1.715  -5.895  0.00  0.00    -0.004 A 
ATOM      5  C7  UNL d   1      -5.635   1.422  -5.312  0.00  0.00     0.002 A 
ATOM      6  C8  UNL d   1      -5.778   0.291  -4.507  0.00  0.00     0.002 A 
ENDROOT
BRANCH   1   7
ATOM      7  C2  UNL d   1      -4.840  -1.770  -3.385  0.00  0.00     0.056 C 
BRANCH   7   8
ATOM      8  C1  UNL d   1      -4.110  -1.651  -2.043  0.00  0.00     0.007 C 
ATOM      9  C   UNL d   1      -3.452  -0.293  -1.835  0.00  0.00     0.009 C 
ENDBRANCH   7   8
ENDBRANCH   1   7
TORSDOF 2
ENDMDL
