MODEL 1
REMARK minimizedAffinity 3.89894009
REMARK minimizedRMSD -1
REMARK  2 active torsions:
REMARK  status: ('A' for Active; 'I' for Inactive)
REMARK    1  A    between atoms: C1_2  and  C2_3 
REMARK    2  A    between atoms: C2_3  and  C3_4 
ROOT
ATOM      1  C3  UNL d   1      -3.246   0.171  -5.239  0.00  0.00    -0.075 A 
ATOM      2  C4  UNL d   1      -4.422   0.102  -6.000  0.00  0.00     0.002 A 
ATOM      3  C5  UNL d   1      -5.594   0.710  -5.548  0.00  0.00     0.002 A 
ATOM      4  C6  UNL d   1      -5.608   1.384  -4.329  0.00  0.00    -0.004 A 
ATOM      5  C7  UNL d   1      -4.449   1.444  -3.557  0.00  0.00     0.002 A 
ATOM      6  C8  UNL d   1      -3.274   0.841  -4.008  0.00  0.00     0.002 A 
ENDROOT
BRANCH   1   7
ATOM      7  C2  UNL d   1      -1.967  -0.460  -5.735  0.00  0.00     0.056 C 
BRANCH   7   8
ATOM      8  C1  UNL d   1      -1.640  -1.806  -5.081  0.00  0.00     0.007 C 
ATOM      9  C   UNL d   1      -1.885  -2.996  -5.999  0.00  0.00     0.009 C 
ENDBRANCH   7   8
ENDBRANCH   1   7
TORSDOF 2
ENDMDL
