MODEL 1
REMARK minimizedAffinity 3.36956644
REMARK minimizedRMSD -1
REMARK  2 active torsions:
REMARK  status: ('A' for Active; 'I' for Inactive)
REMARK    1  A    between atoms: C1_2  and  C2_3 
REMARK    2  A    between atoms: C2_3  and  C3_4 
ROOT
ATOM      1  C3  UNL d   1      -3.892   0.375  -3.646  0.00  0.00    -0.075 A 
ATOM      2  C4  UNL d   1      -5.208   0.859  -3.656  0.00  0.00     0.002 A 
ATOM      3  C5  UNL d   1      -5.972   0.812  -4.823  0.00  0.00     0.002 A 
ATOM      4  C6  UNL d   1      -5.427   0.291  -5.994  0.00  0.00    -0.004 A 
ATOM      5  C7  UNL d   1      -4.115  -0.178  -6.000  0.00  0.00     0.002 A 
ATOM      6  C8  UNL d   1      -3.351  -0.136  -4.833  0.00  0.00     0.002 A 
ENDROOT
BRANCH   1   7
ATOM      7  C2  UNL d   1      -3.071   0.396  -2.379  0.00  0.00     0.056 C 
BRANCH   7   8
ATOM      8  C1  UNL d   1      -2.715   1.804  -1.890  0.00  0.00     0.007 C 
ATOM      9  C   UNL d   1      -2.668   2.834  -3.010  0.00  0.00     0.009 C 
ENDBRANCH   7   8
ENDBRANCH   1   7
TORSDOF 2
ENDMDL
