MODEL 1
REMARK minimizedAffinity 3.73880219
REMARK minimizedRMSD -1
REMARK  2 active torsions:
REMARK  status: ('A' for Active; 'I' for Inactive)
REMARK    1  A    between atoms: C1_2  and  C2_3 
REMARK    2  A    between atoms: C2_3  and  C3_4 
ROOT
ATOM      1  C3  UNL d   1       2.896  -3.643   2.431  0.00  0.00    -0.075 A 
ATOM      2  C4  UNL d   1       1.930  -2.625   2.417  0.00  0.00     0.002 A 
ATOM      3  C5  UNL d   1       1.397  -2.171   1.211  0.00  0.00     0.002 A 
ATOM      4  C6  UNL d   1       1.828  -2.719   0.005  0.00  0.00    -0.004 A 
ATOM      5  C7  UNL d   1       2.798  -3.719   0.005  0.00  0.00     0.002 A 
ATOM      6  C8  UNL d   1       3.331  -4.178   1.211  0.00  0.00     0.002 A 
ENDROOT
BRANCH   1   7
ATOM      7  C2  UNL d   1       3.456  -4.159   3.735  0.00  0.00     0.056 C 
BRANCH   7   8
ATOM      8  C1  UNL d   1       4.071  -3.073   4.623  0.00  0.00     0.007 C 
ATOM      9  C   UNL d   1       4.476  -3.581   6.000  0.00  0.00     0.009 C 
ENDBRANCH   7   8
ENDBRANCH   1   7
TORSDOF 2
ENDMDL
