MODEL 1
REMARK minimizedAffinity -4.49358225
REMARK minimizedRMSD -1
REMARK  0 active torsions:
REMARK  status: ('A' for Active; 'I' for Inactive)
ROOT
ATOM      1  C   UNL d   1       2.015   0.956   0.170  0.00  0.00     0.020 A 
ATOM      2  C1  UNL d   1       2.373  -0.044   1.073  0.00  0.00     0.020 A 
ATOM      3  C2  UNL d   1       1.434  -1.003   1.460  0.00  0.00     0.034 A 
ATOM      4  C3  UNL d   1       0.133  -0.962   0.945  0.00  0.00     0.017 A 
ATOM      5  C4  UNL d   1      -0.225   0.042   0.039  0.00  0.00     0.017 A 
ATOM      6  C5  UNL d   1       0.719   0.999  -0.346  0.00  0.00     0.034 A 
ATOM      7 Cl   UNL d   1      -1.810   0.157  -0.640  0.00  0.00    -0.070 Cl
ATOM      8 Cl1  UNL d   1      -0.976  -2.179   1.468  0.00  0.00    -0.070 Cl
ENDROOT
TORSDOF 0
ENDMDL
