MODEL 1
REMARK minimizedAffinity -3.36957002
REMARK minimizedRMSD -1
REMARK  0 active torsions:
REMARK  status: ('A' for Active; 'I' for Inactive)
ROOT
ATOM      1  C   UNL d   1       0.368   0.909  -0.213  0.00  0.00     0.020 A 
ATOM      2  C1  UNL d   1       1.531   1.449   0.334  0.00  0.00     0.020 A 
ATOM      3  C2  UNL d   1       2.187   0.787   1.374  0.00  0.00     0.034 A 
ATOM      4  C3  UNL d   1       1.680  -0.420   1.870  0.00  0.00     0.017 A 
ATOM      5  C4  UNL d   1       0.513  -0.961   1.321  0.00  0.00     0.017 A 
ATOM      6  C5  UNL d   1      -0.140  -0.294   0.280  0.00  0.00     0.034 A 
ATOM      7 Cl   UNL d   1      -0.173  -2.446   1.880  0.00  0.00    -0.070 Cl
ATOM      8 Cl1  UNL d   1       2.543  -1.185   3.157  0.00  0.00    -0.070 Cl
ENDROOT
TORSDOF 0
ENDMDL
