MODEL 1
REMARK minimizedAffinity -3.14497423
REMARK minimizedRMSD -1
REMARK  0 active torsions:
REMARK  status: ('A' for Active; 'I' for Inactive)
ROOT
ATOM      1  C   UNL d   1       2.283   1.259   0.378  0.00  0.00     0.020 A 
ATOM      2  C1  UNL d   1       1.258   1.926  -0.292  0.00  0.00     0.020 A 
ATOM      3  C2  UNL d   1       0.012   1.316  -0.446  0.00  0.00     0.034 A 
ATOM      4  C3  UNL d   1      -0.213   0.035   0.071  0.00  0.00     0.017 A 
ATOM      5  C4  UNL d   1       0.816  -0.634   0.743  0.00  0.00     0.017 A 
ATOM      6  C5  UNL d   1       2.062  -0.018   0.894  0.00  0.00     0.034 A 
ATOM      7 Cl   UNL d   1       0.614  -2.217   1.408  0.00  0.00    -0.070 Cl
ATOM      8 Cl1  UNL d   1      -1.780  -0.659  -0.156  0.00  0.00    -0.070 Cl
ENDROOT
TORSDOF 0
ENDMDL
