MODEL 1
REMARK minimizedAffinity -2.01533699
REMARK minimizedRMSD -1
REMARK  0 active torsions:
REMARK  status: ('A' for Active; 'I' for Inactive)
ROOT
ATOM      1  C   UNL d   1      -1.371   0.376  -3.402  0.00  0.00     0.020 A 
ATOM      2  C1  UNL d   1      -2.633   0.001  -2.943  0.00  0.00     0.020 A 
ATOM      3  C2  UNL d   1      -2.845  -0.215  -1.580  0.00  0.00     0.034 A 
ATOM      4  C3  UNL d   1      -1.793  -0.057  -0.670  0.00  0.00     0.017 A 
ATOM      5  C4  UNL d   1      -0.526   0.319  -1.132  0.00  0.00     0.017 A 
ATOM      6  C5  UNL d   1      -0.320   0.534  -2.498  0.00  0.00     0.034 A 
ATOM      7 Cl   UNL d   1       0.821   0.533  -0.070  0.00  0.00    -0.070 Cl
ATOM      8 Cl1  UNL d   1      -2.127  -0.341   1.001  0.00  0.00    -0.070 Cl
ENDROOT
TORSDOF 0
ENDMDL
