MODEL 1
REMARK minimizedAffinity -1.29855335
REMARK minimizedRMSD -1
REMARK  0 active torsions:
REMARK  status: ('A' for Active; 'I' for Inactive)
ROOT
ATOM      1  C   UNL d   1       2.349   1.104   1.065  0.00  0.00     0.020 A 
ATOM      2  C1  UNL d   1       1.652   2.018   0.276  0.00  0.00     0.020 A 
ATOM      3  C2  UNL d   1       0.374   1.704  -0.192  0.00  0.00     0.034 A 
ATOM      4  C3  UNL d   1      -0.210   0.473   0.128  0.00  0.00     0.017 A 
ATOM      5  C4  UNL d   1       0.491  -0.444   0.920  0.00  0.00     0.017 A 
ATOM      6  C5  UNL d   1       1.770  -0.125   1.386  0.00  0.00     0.034 A 
ATOM      7 Cl   UNL d   1      -0.164  -1.983   1.357  0.00  0.00    -0.070 Cl
ATOM      8 Cl1  UNL d   1      -1.793   0.151  -0.485  0.00  0.00    -0.070 Cl
ENDROOT
TORSDOF 0
ENDMDL
