MODEL 1
REMARK minimizedAffinity -3.92490482
REMARK minimizedRMSD -1
REMARK  0 active torsions:
REMARK  status: ('A' for Active; 'I' for Inactive)
ROOT
ATOM      1  C   UNL d   1       2.394   0.464   1.180  0.00  0.00     0.020 A 
ATOM      2  C1  UNL d   1       1.766   1.440   0.408  0.00  0.00     0.020 A 
ATOM      3  C2  UNL d   1       0.434   1.276   0.023  0.00  0.00     0.034 A 
ATOM      4  C3  UNL d   1      -0.275   0.133   0.410  0.00  0.00     0.017 A 
ATOM      5  C4  UNL d   1       0.356  -0.847   1.185  0.00  0.00     0.017 A 
ATOM      6  C5  UNL d   1       1.691  -0.677   1.568  0.00  0.00     0.034 A 
ATOM      7 Cl   UNL d   1      -0.453  -2.284   1.701  0.00  0.00    -0.070 Cl
ATOM      8 Cl1  UNL d   1      -1.919  -0.004  -0.102  0.00  0.00    -0.070 Cl
ENDROOT
TORSDOF 0
ENDMDL
