MODEL 1
REMARK minimizedAffinity 2.71907687
REMARK minimizedRMSD -1
REMARK  0 active torsions:
REMARK  status: ('A' for Active; 'I' for Inactive)
ROOT
ATOM      1  C   UNL d   1       2.064   1.732   0.055  0.00  0.00     0.020 A 
ATOM      2  C1  UNL d   1       2.840   1.005   0.957  0.00  0.00     0.020 A 
ATOM      3  C2  UNL d   1       2.304  -0.117   1.593  0.00  0.00     0.034 A 
ATOM      4  C3  UNL d   1       0.989  -0.515   1.328  0.00  0.00     0.017 A 
ATOM      5  C4  UNL d   1       0.211   0.215   0.423  0.00  0.00     0.017 A 
ATOM      6  C5  UNL d   1       0.752   1.338  -0.211  0.00  0.00     0.034 A 
ATOM      7 Cl   UNL d   1      -1.420  -0.215   0.044  0.00  0.00    -0.070 Cl
ATOM      8 Cl1  UNL d   1       0.392  -1.913   2.150  0.00  0.00    -0.070 Cl
ENDROOT
TORSDOF 0
ENDMDL
