MODEL 1
REMARK minimizedAffinity -4.72817278
REMARK minimizedRMSD -1
REMARK  0 active torsions:
REMARK  status: ('A' for Active; 'I' for Inactive)
ROOT
ATOM      1  C   UNL d   1       2.855  -0.603   1.989  0.00  0.00     0.020 A 
ATOM      2  C1  UNL d   1       2.058  -1.743   2.083  0.00  0.00     0.020 A 
ATOM      3  C2  UNL d   1       0.778  -1.748   1.524  0.00  0.00     0.034 A 
ATOM      4  C3  UNL d   1       0.292  -0.612   0.868  0.00  0.00     0.017 A 
ATOM      5  C4  UNL d   1       1.093   0.532   0.774  0.00  0.00     0.017 A 
ATOM      6  C5  UNL d   1       2.374   0.532   1.336  0.00  0.00     0.034 A 
ATOM      7 Cl   UNL d   1       0.563   1.973  -0.020  0.00  0.00    -0.070 Cl
ATOM      8 Cl1  UNL d   1      -1.299  -0.688   0.199  0.00  0.00    -0.070 Cl
ENDROOT
TORSDOF 0
ENDMDL
