MODEL 1
REMARK minimizedAffinity -1.75471509
REMARK minimizedRMSD -1
REMARK  0 active torsions:
REMARK  status: ('A' for Active; 'I' for Inactive)
ROOT
ATOM      1  C   UNL d   1       2.649   0.715   0.915  0.00  0.00     0.020 A 
ATOM      2  C1  UNL d   1       2.140   1.528  -0.097  0.00  0.00     0.020 A 
ATOM      3  C2  UNL d   1       0.889   1.250  -0.652  0.00  0.00     0.034 A 
ATOM      4  C3  UNL d   1       0.143   0.158  -0.195  0.00  0.00     0.017 A 
ATOM      5  C4  UNL d   1       0.655  -0.657   0.821  0.00  0.00     0.017 A 
ATOM      6  C5  UNL d   1       1.908  -0.375   1.373  0.00  0.00     0.034 A 
ATOM      7 Cl   UNL d   1      -0.207  -2.023   1.437  0.00  0.00    -0.070 Cl
ATOM      8 Cl1  UNL d   1      -1.397  -0.126  -0.926  0.00  0.00    -0.070 Cl
ENDROOT
TORSDOF 0
ENDMDL
