MODEL 1
REMARK minimizedAffinity 8.52363777
REMARK minimizedRMSD -1
REMARK  0 active torsions:
REMARK  status: ('A' for Active; 'I' for Inactive)
ROOT
ATOM      1  C2' OXE d   1      -2.413   2.077  -0.373  0.00  0.00     0.078 C 
ATOM      2  C1' OXE d   1      -1.435   3.681   1.714  0.00  0.00     0.078 C 
ATOM      3  C1  OXE d   1      -2.921   3.691   1.456  0.00  0.00    -0.078 A 
ATOM      4  C2  OXE d   1      -3.385   2.939   0.403  0.00  0.00    -0.078 A 
ATOM      5  C3  OXE d   1      -4.753   2.869   0.156  0.00  0.00     0.003 A 
ATOM      6  C4  OXE d   1      -5.645   3.677   0.872  0.00  0.00    -0.002 A 
ATOM      7  C5  OXE d   1      -5.189   4.480   1.922  0.00  0.00    -0.002 A 
ATOM      8  C6  OXE d   1      -3.839   4.466   2.254  0.00  0.00     0.003 A 
ENDROOT
TORSDOF 0
ENDMDL
