MODEL 1
REMARK minimizedAffinity 1.2510283
REMARK minimizedRMSD -1
REMARK  0 active torsions:
REMARK  status: ('A' for Active; 'I' for Inactive)
ROOT
ATOM      1  C2' OXE d   1       3.571  -4.862  -4.843  0.00  0.00     0.078 C 
ATOM      2  C1' OXE d   1       4.370  -2.594  -3.394  0.00  0.00     0.078 C 
ATOM      3  C1  OXE d   1       3.843  -3.775  -2.618  0.00  0.00    -0.078 A 
ATOM      4  C2  OXE d   1       3.410  -4.863  -3.338  0.00  0.00    -0.078 A 
ATOM      5  C3  OXE d   1       2.966  -6.000  -2.669  0.00  0.00     0.003 A 
ATOM      6  C4  OXE d   1       2.811  -5.989  -1.278  0.00  0.00    -0.002 A 
ATOM      7  C5  OXE d   1       3.208  -4.876  -0.528  0.00  0.00    -0.002 A 
ATOM      8  C6  OXE d   1       3.764  -3.780  -1.178  0.00  0.00     0.003 A 
ENDROOT
TORSDOF 0
ENDMDL
