MODEL 1
REMARK minimizedAffinity 3.09897518
REMARK minimizedRMSD -1
REMARK  0 active torsions:
REMARK  status: ('A' for Active; 'I' for Inactive)
ROOT
ATOM      1  C2' OXE d   1       4.298  -5.686  -1.953  0.00  0.00     0.078 C 
ATOM      2  C1' OXE d   1       1.533  -6.000  -2.317  0.00  0.00     0.078 C 
ATOM      3  C1  OXE d   1       2.397  -5.901  -3.549  0.00  0.00    -0.078 A 
ATOM      4  C2  OXE d   1       3.744  -5.701  -3.361  0.00  0.00    -0.078 A 
ATOM      5  C3  OXE d   1       4.594  -5.658  -4.463  0.00  0.00     0.003 A 
ATOM      6  C4  OXE d   1       4.072  -5.663  -5.762  0.00  0.00    -0.002 A 
ATOM      7  C5  OXE d   1       2.699  -5.826  -5.975  0.00  0.00    -0.002 A 
ATOM      8  C6  OXE d   1       1.855  -5.989  -4.882  0.00  0.00     0.003 A 
ENDROOT
TORSDOF 0
ENDMDL
