MODEL 1
REMARK minimizedAffinity 6.15971088
REMARK minimizedRMSD -1
REMARK  0 active torsions:
REMARK  status: ('A' for Active; 'I' for Inactive)
ROOT
ATOM      1  C2' OXE d   1      -3.191   2.229  -2.141  0.00  0.00     0.078 C 
ATOM      2  C1' OXE d   1      -2.348   1.416   0.410  0.00  0.00     0.078 C 
ATOM      3  C1  OXE d   1      -3.644   2.182   0.308  0.00  0.00    -0.078 A 
ATOM      4  C2  OXE d   1      -4.025   2.616  -0.939  0.00  0.00    -0.078 A 
ATOM      5  C3  OXE d   1      -5.238   3.279  -1.097  0.00  0.00     0.003 A 
ATOM      6  C4  OXE d   1      -5.999   3.642   0.021  0.00  0.00    -0.002 A 
ATOM      7  C5  OXE d   1      -5.609   3.244   1.305  0.00  0.00    -0.002 A 
ATOM      8  C6  OXE d   1      -4.458   2.478   1.460  0.00  0.00     0.003 A 
ENDROOT
TORSDOF 0
ENDMDL
