MODEL 1
REMARK minimizedAffinity 8.75557899
REMARK minimizedRMSD -1
REMARK  0 active torsions:
REMARK  status: ('A' for Active; 'I' for Inactive)
ROOT
ATOM      1  C2' OXE d   1      -1.854   2.268   0.495  0.00  0.00     0.078 C 
ATOM      2  C1' OXE d   1      -3.299   1.897  -1.883  0.00  0.00     0.078 C 
ATOM      3  C1  OXE d   1      -4.012   2.540  -0.719  0.00  0.00    -0.078 A 
ATOM      4  C2  OXE d   1      -3.311   2.675   0.455  0.00  0.00    -0.078 A 
ATOM      5  C3  OXE d   1      -3.904   3.311   1.542  0.00  0.00     0.003 A 
ATOM      6  C4  OXE d   1      -5.255   3.676   1.500  0.00  0.00    -0.002 A 
ATOM      7  C5  OXE d   1      -5.998   3.511   0.327  0.00  0.00    -0.002 A 
ATOM      8  C6  OXE d   1      -5.381   2.985  -0.803  0.00  0.00     0.003 A 
ENDROOT
TORSDOF 0
ENDMDL
