MODEL 1
REMARK minimizedAffinity -1.00768805
REMARK minimizedRMSD -1
REMARK  0 active torsions:
REMARK  status: ('A' for Active; 'I' for Inactive)
ROOT
ATOM      1  C2' OXE d   1       5.642  -5.956  -3.958  0.00  0.00     0.078 C 
ATOM      2  C1' OXE d   1       3.722  -5.970  -1.909  0.00  0.00     0.078 C 
ATOM      3  C1  OXE d   1       3.230  -5.968  -3.335  0.00  0.00    -0.078 A 
ATOM      4  C2  OXE d   1       4.176  -5.914  -4.330  0.00  0.00    -0.078 A 
ATOM      5  C3  OXE d   1       3.777  -5.966  -5.663  0.00  0.00     0.003 A 
ATOM      6  C4  OXE d   1       2.419  -5.917  -6.000  0.00  0.00    -0.002 A 
ATOM      7  C5  OXE d   1       1.440  -5.932  -5.001  0.00  0.00    -0.002 A 
ATOM      8  C6  OXE d   1       1.827  -6.000  -3.667  0.00  0.00     0.003 A 
ENDROOT
TORSDOF 0
ENDMDL
