MODEL 1
REMARK minimizedAffinity 1.73289907
REMARK minimizedRMSD -1
REMARK  0 active torsions:
REMARK  status: ('A' for Active; 'I' for Inactive)
ROOT
ATOM      1  C2' OXE d   1       5.230  -5.949  -5.869  0.00  0.00     0.078 C 
ATOM      2  C1' OXE d   1       2.435  -5.988  -5.612  0.00  0.00     0.078 C 
ATOM      3  C1  OXE d   1       3.257  -5.972  -4.348  0.00  0.00    -0.078 A 
ATOM      4  C2  OXE d   1       4.624  -6.000  -4.483  0.00  0.00    -0.078 A 
ATOM      5  C3  OXE d   1       5.430  -5.931  -3.350  0.00  0.00     0.003 A 
ATOM      6  C4  OXE d   1       4.863  -5.988  -2.071  0.00  0.00    -0.002 A 
ATOM      7  C5  OXE d   1       3.473  -6.000  -1.912  0.00  0.00    -0.002 A 
ATOM      8  C6  OXE d   1       2.657  -5.949  -3.037  0.00  0.00     0.003 A 
ENDROOT
TORSDOF 0
ENDMDL
