MODEL 1
REMARK minimizedAffinity 11.2498484
REMARK minimizedRMSD -1
REMARK  0 active torsions:
REMARK  status: ('A' for Active; 'I' for Inactive)
ROOT
ATOM      1  C2' OXE d   1      -5.981   5.393  -0.335  0.00  0.00     0.078 C 
ATOM      2  C1' OXE d   1      -5.829   4.380   2.278  0.00  0.00     0.078 C 
ATOM      3  C1  OXE d   1      -5.870   3.390   1.141  0.00  0.00    -0.078 A 
ATOM      4  C2  OXE d   1      -5.991   3.893  -0.131  0.00  0.00    -0.078 A 
ATOM      5  C3  OXE d   1      -5.979   3.026  -1.220  0.00  0.00     0.003 A 
ATOM      6  C4  OXE d   1      -5.999   1.640  -1.022  0.00  0.00    -0.002 A 
ATOM      7  C5  OXE d   1      -5.916   1.106   0.268  0.00  0.00    -0.002 A 
ATOM      8  C6  OXE d   1      -5.808   1.965   1.356  0.00  0.00     0.003 A 
ENDROOT
TORSDOF 0
ENDMDL
