MODEL 1
REMARK minimizedAffinity 1.09981275
REMARK minimizedRMSD -1
REMARK  0 active torsions:
REMARK  status: ('A' for Active; 'I' for Inactive)
ROOT
ATOM      1  C2' OXE d   1       6.000  -0.919  -5.996  0.00  0.00     0.078 C 
ATOM      2  C1' OXE d   1       4.457   1.426  -5.936  0.00  0.00     0.078 C 
ATOM      3  C1  OXE d   1       4.593   0.640  -4.656  0.00  0.00    -0.078 A 
ATOM      4  C2  OXE d   1       5.311  -0.530  -4.705  0.00  0.00    -0.078 A 
ATOM      5  C3  OXE d   1       5.514  -1.265  -3.540  0.00  0.00     0.003 A 
ATOM      6  C4  OXE d   1       4.865  -0.904  -2.353  0.00  0.00    -0.002 A 
ATOM      7  C5  OXE d   1       4.096   0.263  -2.291  0.00  0.00    -0.002 A 
ATOM      8  C6  OXE d   1       3.986   1.068  -3.420  0.00  0.00     0.003 A 
ENDROOT
TORSDOF 0
ENDMDL
