MODEL 1
REMARK minimizedAffinity 3.10744858
REMARK minimizedRMSD -1
REMARK  0 active torsions:
REMARK  status: ('A' for Active; 'I' for Inactive)
ROOT
ATOM      1  C2' OXE d   1       1.195  -4.120   5.238  0.00  0.00     0.078 C 
ATOM      2  C1' OXE d   1       2.474  -4.567   2.780  0.00  0.00     0.078 C 
ATOM      3  C1  OXE d   1       2.089  -3.150   3.125  0.00  0.00    -0.078 A 
ATOM      4  C2  OXE d   1       1.422  -2.947   4.309  0.00  0.00    -0.078 A 
ATOM      5  C3  OXE d   1       1.092  -1.653   4.701  0.00  0.00     0.003 A 
ATOM      6  C4  OXE d   1       1.296  -0.575   3.831  0.00  0.00    -0.002 A 
ATOM      7  C5  OXE d   1       1.939  -0.765   2.603  0.00  0.00    -0.002 A 
ATOM      8  C6  OXE d   1       2.379  -2.038   2.254  0.00  0.00     0.003 A 
ENDROOT
TORSDOF 0
ENDMDL
