MODEL 1
REMARK minimizedAffinity -2.15196562
REMARK minimizedRMSD -1
REMARK  0 active torsions:
REMARK  status: ('A' for Active; 'I' for Inactive)
ROOT
ATOM      1  C1  DEN d   1       0.073  -1.249   2.318  0.00  0.00     0.130 A 
ATOM      2  C2  DEN d   1      -1.003  -0.398   2.818  0.00  0.00    -0.031 A 
ATOM      3  C3  DEN d   1      -1.461   0.459   1.706  0.00  0.00     0.027 A 
ATOM      4  C4  DEN d   1      -0.618   0.546  -0.730  0.00  0.00     0.027 A 
ATOM      5  C5  DEN d   1       0.289   0.020  -1.623  0.00  0.00    -0.003 A 
ATOM      6  C6  DEN d   1       1.203  -0.934  -1.260  0.00  0.00     0.001 A 
ATOM      7  C7  DEN d   1       1.200  -1.424   0.019  0.00  0.00     0.017 A 
ATOM      8  C8  DEN d   1       0.294  -0.893   0.928  0.00  0.00    -0.094 A 
ATOM      9  C9  DEN d   1      -0.630   0.061   0.538  0.00  0.00    -0.072 A 
ENDROOT
TORSDOF 0
ENDMDL
