MODEL 1
REMARK minimizedAffinity -0.716650188
REMARK minimizedRMSD -1
REMARK  0 active torsions:
REMARK  status: ('A' for Active; 'I' for Inactive)
ROOT
ATOM      1  C1  DEN d   1       2.303  -1.397  -0.681  0.00  0.00     0.130 A 
ATOM      2  C2  DEN d   1       2.900  -2.464   0.117  0.00  0.00    -0.031 A 
ATOM      3  C3  DEN d   1       2.207  -2.502   1.421  0.00  0.00     0.027 A 
ATOM      4  C4  DEN d   1       0.273  -1.024   2.274  0.00  0.00     0.027 A 
ATOM      5  C5  DEN d   1      -0.561   0.026   1.958  0.00  0.00    -0.003 A 
ATOM      6  C6  DEN d   1      -0.477   0.691   0.763  0.00  0.00     0.001 A 
ATOM      7  C7  DEN d   1       0.431   0.285  -0.178  0.00  0.00     0.017 A 
ATOM      8  C8  DEN d   1       1.281  -0.768   0.136  0.00  0.00    -0.094 A 
ATOM      9  C9  DEN d   1       1.172  -1.436   1.344  0.00  0.00    -0.072 A 
ENDROOT
TORSDOF 0
ENDMDL
