MODEL 1
REMARK minimizedAffinity -6.07200956
REMARK minimizedRMSD -1
REMARK  0 active torsions:
REMARK  status: ('A' for Active; 'I' for Inactive)
ROOT
ATOM      1  C1  DEN d   1      -0.835   0.278   1.387  0.00  0.00     0.130 A 
ATOM      2  C2  DEN d   1      -0.486   0.879   0.102  0.00  0.00    -0.031 A 
ATOM      3  C3  DEN d   1       0.914   0.522  -0.203  0.00  0.00     0.027 A 
ATOM      4  C4  DEN d   1       2.564  -0.900   1.178  0.00  0.00     0.027 A 
ATOM      5  C5  DEN d   1       2.727  -1.614   2.345  0.00  0.00    -0.003 A 
ATOM      6  C6  DEN d   1       1.733  -1.719   3.282  0.00  0.00     0.001 A 
ATOM      7  C7  DEN d   1       0.516  -1.137   3.047  0.00  0.00     0.017 A 
ATOM      8  C8  DEN d   1       0.347  -0.408   1.877  0.00  0.00    -0.094 A 
ATOM      9  C9  DEN d   1       1.359  -0.324   0.937  0.00  0.00    -0.072 A 
ENDROOT
TORSDOF 0
ENDMDL
