MODEL 1
REMARK minimizedAffinity -5.16925955
REMARK minimizedRMSD -1
REMARK  0 active torsions:
REMARK  status: ('A' for Active; 'I' for Inactive)
ROOT
ATOM      1  C1  DEN d   1       0.302  -0.436  -0.893  0.00  0.00     0.130 A 
ATOM      2  C2  DEN d   1      -1.137  -0.238  -0.746  0.00  0.00    -0.031 A 
ATOM      3  C3  DEN d   1      -1.436  -0.119   0.696  0.00  0.00     0.027 A 
ATOM      4  C4  DEN d   1       0.182  -0.217   2.702  0.00  0.00     0.027 A 
ATOM      5  C5  DEN d   1       1.498  -0.382   3.076  0.00  0.00    -0.003 A 
ATOM      6  C6  DEN d   1       2.494  -0.608   2.163  0.00  0.00     0.001 A 
ATOM      7  C7  DEN d   1       2.196  -0.631   0.826  0.00  0.00     0.017 A 
ATOM      8  C8  DEN d   1       0.871  -0.473   0.442  0.00  0.00    -0.094 A 
ATOM      9  C9  DEN d   1      -0.119  -0.234   1.379  0.00  0.00    -0.072 A 
ENDROOT
TORSDOF 0
ENDMDL
