MODEL 1
REMARK minimizedAffinity -5.06442785
REMARK minimizedRMSD -1
REMARK  0 active torsions:
REMARK  status: ('A' for Active; 'I' for Inactive)
ROOT
ATOM      1  C1  DEN d   1      -0.754  -0.048   0.460  0.00  0.00     0.130 A 
ATOM      2  C2  DEN d   1      -0.633  -0.118  -0.994  0.00  0.00    -0.031 A 
ATOM      3  C3  DEN d   1       0.609  -0.850  -1.313  0.00  0.00     0.027 A 
ATOM      4  C4  DEN d   1       2.345  -1.880   0.293  0.00  0.00     0.027 A 
ATOM      5  C5  DEN d   1       2.678  -2.066   1.616  0.00  0.00    -0.003 A 
ATOM      6  C6  DEN d   1       1.915  -1.566   2.638  0.00  0.00     0.001 A 
ATOM      7  C7  DEN d   1       0.755  -0.895   2.354  0.00  0.00     0.017 A 
ATOM      8  C8  DEN d   1       0.416  -0.698   1.022  0.00  0.00    -0.094 A 
ATOM      9  C9  DEN d   1       1.194  -1.221   0.003  0.00  0.00    -0.072 A 
ENDROOT
TORSDOF 0
ENDMDL
