MODEL 1
REMARK minimizedAffinity 1.17151284
REMARK minimizedRMSD -1
REMARK  0 active torsions:
REMARK  status: ('A' for Active; 'I' for Inactive)
ROOT
ATOM      1  C   UNL d   1      -1.118  -0.231  -1.505  0.00  0.00    -0.002 A 
ATOM      2  C1  UNL d   1       0.033  -0.465  -2.244  0.00  0.00     0.010 A 
ATOM      3  C2  UNL d   1       1.263  -0.639  -1.606  0.00  0.00     0.041 A 
ATOM      4  C3  UNL d   1       1.316  -0.576  -0.199  0.00  0.00    -0.075 A 
ATOM      5  S   UNL d   1       2.711  -0.760   0.797  0.00  0.00     0.015 SA
ATOM      6  C4  UNL d   1       1.811  -0.534   2.227  0.00  0.00     0.022 A 
ATOM      7  C5  UNL d   1       0.477  -0.322   1.969  0.00  0.00     0.026 A 
ATOM      8  C6  UNL d   1       0.170  -0.343   0.566  0.00  0.00    -0.082 A 
ATOM      9  C7  UNL d   1      -1.061  -0.169  -0.110  0.00  0.00     0.045 A 
ENDROOT
TORSDOF 0
ENDMDL
