MODEL 1
REMARK minimizedAffinity -4.79389954
REMARK minimizedRMSD -1
REMARK  0 active torsions:
REMARK  status: ('A' for Active; 'I' for Inactive)
ROOT
ATOM      1  C   UNL d   1       1.878  -1.455   2.832  0.00  0.00    -0.002 A 
ATOM      2  C1  UNL d   1       2.517  -2.214   1.861  0.00  0.00     0.010 A 
ATOM      3  C2  UNL d   1       2.103  -2.157   0.529  0.00  0.00     0.041 A 
ATOM      4  C3  UNL d   1       1.027  -1.316   0.185  0.00  0.00    -0.075 A 
ATOM      5  S   UNL d   1       0.348  -1.084  -1.383  0.00  0.00     0.015 SA
ATOM      6  C4  UNL d   1      -0.805   0.027  -0.802  0.00  0.00     0.022 A 
ATOM      7  C5  UNL d   1      -0.690   0.229   0.553  0.00  0.00     0.026 A 
ATOM      8  C6  UNL d   1       0.368  -0.541   1.144  0.00  0.00    -0.082 A 
ATOM      9  C7  UNL d   1       0.811  -0.622   2.486  0.00  0.00     0.045 A 
ENDROOT
TORSDOF 0
ENDMDL
