MODEL 1
REMARK minimizedAffinity -2.06131387
REMARK minimizedRMSD -1
REMARK  0 active torsions:
REMARK  status: ('A' for Active; 'I' for Inactive)
ROOT
ATOM      1  C   UNL d   1       0.382  -0.762   2.484  0.00  0.00    -0.002 A 
ATOM      2  C1  UNL d   1      -0.790  -0.230   1.965  0.00  0.00     0.010 A 
ATOM      3  C2  UNL d   1      -1.011  -0.210   0.586  0.00  0.00     0.041 A 
ATOM      4  C3  UNL d   1      -0.025  -0.741  -0.269  0.00  0.00    -0.075 A 
ATOM      5  S   UNL d   1      -0.079  -0.824  -1.991  0.00  0.00     0.015 SA
ATOM      6  C4  UNL d   1       1.452  -1.568  -2.077  0.00  0.00     0.022 A 
ATOM      7  C5  UNL d   1       2.005  -1.755  -0.832  0.00  0.00     0.026 A 
ATOM      8  C6  UNL d   1       1.163  -1.282   0.230  0.00  0.00    -0.082 A 
ATOM      9  C7  UNL d   1       1.357  -1.287   1.632  0.00  0.00     0.045 A 
ENDROOT
TORSDOF 0
ENDMDL
