MODEL 1
REMARK minimizedAffinity 0.0821813345
REMARK minimizedRMSD -1
REMARK  1 active torsions:
REMARK  status: ('A' for Active; 'I' for Inactive)
REMARK    1  A    between atoms: C3_4  and  O_7 
ROOT
ATOM      1  C   UNL d   1       1.260   1.006   1.062  0.00  0.00    -0.033 A 
ATOM      2  C1  UNL d   1       0.640   1.974   0.270  0.00  0.00     0.039 A 
ATOM      3  C2  UNL d   1       0.303   1.684  -1.054  0.00  0.00    -0.080 A 
ATOM      4  C3  UNL d   1       0.591   0.424  -1.571  0.00  0.00     0.150 A 
ATOM      5  C4  UNL d   1       1.205  -0.546  -0.786  0.00  0.00    -0.007 A 
ATOM      6  C5  UNL d   1       1.541  -0.254   0.535  0.00  0.00     0.039 A 
ENDROOT
BRANCH   4   7
ATOM      7  O   UNL d   1       0.286   0.095  -2.859  0.00  0.00    -0.526 OA
ATOM      8  H5  UNL d   1      -0.108   0.872  -3.290  0.00  0.00     0.418 HD
ENDBRANCH   4   7
TORSDOF 1
ENDMDL
