MODEL 1
REMARK minimizedAffinity 4.26033115
REMARK minimizedRMSD -1
REMARK  1 active torsions:
REMARK  status: ('A' for Active; 'I' for Inactive)
REMARK    1  A    between atoms: C3_4  and  O_7 
ROOT
ATOM      1  C   UNL d   1       0.777   3.714  -0.090  0.00  0.00    -0.033 A 
ATOM      2  C1  UNL d   1      -0.177   4.609  -0.577  0.00  0.00     0.039 A 
ATOM      3  C2  UNL d   1      -1.400   4.136  -1.058  0.00  0.00    -0.080 A 
ATOM      4  C3  UNL d   1      -1.656   2.768  -1.044  0.00  0.00     0.150 A 
ATOM      5  C4  UNL d   1      -0.711   1.871  -0.556  0.00  0.00    -0.007 A 
ATOM      6  C5  UNL d   1       0.509   2.345  -0.078  0.00  0.00     0.039 A 
ENDROOT
BRANCH   4   7
ATOM      7  O   UNL d   1      -2.833   2.259  -1.507  0.00  0.00    -0.526 OA
ATOM      8  H5  UNL d   1      -3.376   2.992  -1.839  0.00  0.00     0.418 HD
ENDBRANCH   4   7
TORSDOF 1
ENDMDL
