MODEL 1
REMARK minimizedAffinity 1.76981032
REMARK minimizedRMSD -1
REMARK  1 active torsions:
REMARK  status: ('A' for Active; 'I' for Inactive)
REMARK    1  A    between atoms: C3_4  and  O_7 
ROOT
ATOM      1  C   UNL d   1       1.433   0.216   1.328  0.00  0.00    -0.033 A 
ATOM      2  C1  UNL d   1       1.907  -0.915   0.659  0.00  0.00     0.039 A 
ATOM      3  C2  UNL d   1       1.736  -1.035  -0.721  0.00  0.00    -0.080 A 
ATOM      4  C3  UNL d   1       1.090  -0.019  -1.420  0.00  0.00     0.150 A 
ATOM      5  C4  UNL d   1       0.618   1.112  -0.761  0.00  0.00    -0.007 A 
ATOM      6  C5  UNL d   1       0.790   1.230   0.618  0.00  0.00     0.039 A 
ENDROOT
BRANCH   4   7
ATOM      7  O   UNL d   1       0.895  -0.093  -2.767  0.00  0.00    -0.526 OA
ATOM      8  H5  UNL d   1       1.247  -0.942  -3.083  0.00  0.00     0.418 HD
ENDBRANCH   4   7
TORSDOF 1
ENDMDL
