MODEL 1
REMARK minimizedAffinity -1.18589234
REMARK minimizedRMSD -1
REMARK  1 active torsions:
REMARK  status: ('A' for Active; 'I' for Inactive)
REMARK    1  A    between atoms: C3_4  and  O_7 
ROOT
ATOM      1  C   UNL d   1       0.748   1.927   1.062  0.00  0.00    -0.033 A 
ATOM      2  C1  UNL d   1      -0.084   2.508   0.103  0.00  0.00     0.039 A 
ATOM      3  C2  UNL d   1      -0.154   1.969  -1.183  0.00  0.00    -0.080 A 
ATOM      4  C3  UNL d   1       0.611   0.849  -1.496  0.00  0.00     0.150 A 
ATOM      5  C4  UNL d   1       1.439   0.262  -0.545  0.00  0.00    -0.007 A 
ATOM      6  C5  UNL d   1       1.509   0.803   0.738  0.00  0.00     0.039 A 
ENDROOT
BRANCH   4   7
ATOM      7  O   UNL d   1       0.580   0.289  -2.739  0.00  0.00    -0.526 OA
ATOM      8  H5  UNL d   1      -0.014   0.817  -3.299  0.00  0.00     0.418 HD
ENDBRANCH   4   7
TORSDOF 1
ENDMDL
