MODEL 1
REMARK minimizedAffinity 7.26429415
REMARK minimizedRMSD -1
REMARK  1 active torsions:
REMARK  status: ('A' for Active; 'I' for Inactive)
REMARK    1  A    between atoms: C3_4  and  O_7 
ROOT
ATOM      1  C   UNL d   1       5.202  -2.054   4.081  0.00  0.00    -0.033 A 
ATOM      2  C1  UNL d   1       4.997  -2.626   5.338  0.00  0.00     0.039 A 
ATOM      3  C2  UNL d   1       3.780  -2.447   5.999  0.00  0.00    -0.080 A 
ATOM      4  C3  UNL d   1       2.777  -1.697   5.392  0.00  0.00     0.150 A 
ATOM      5  C4  UNL d   1       2.973  -1.127   4.138  0.00  0.00    -0.007 A 
ATOM      6  C5  UNL d   1       4.189  -1.306   3.480  0.00  0.00     0.039 A 
ENDROOT
BRANCH   4   7
ATOM      7  O   UNL d   1       1.574  -1.491   6.000  0.00  0.00    -0.526 OA
ATOM      8  H5  UNL d   1       1.593  -1.919   6.872  0.00  0.00     0.418 HD
ENDBRANCH   4   7
TORSDOF 1
ENDMDL
