MODEL 1
REMARK minimizedAffinity -2.2772913
REMARK minimizedRMSD -1
REMARK  1 active torsions:
REMARK  status: ('A' for Active; 'I' for Inactive)
REMARK    1  A    between atoms: C3_4  and  O_7 
ROOT
ATOM      1  C   UNL d   1      -5.999   3.162  -4.850  0.00  0.00    -0.033 A 
ATOM      2  C1  UNL d   1      -5.900   4.326  -5.615  0.00  0.00     0.039 A 
ATOM      3  C2  UNL d   1      -4.647   4.806  -5.999  0.00  0.00    -0.080 A 
ATOM      4  C3  UNL d   1      -3.502   4.115  -5.613  0.00  0.00     0.150 A 
ATOM      5  C4  UNL d   1      -3.594   2.953  -4.853  0.00  0.00    -0.007 A 
ATOM      6  C5  UNL d   1      -4.846   2.475  -4.470  0.00  0.00     0.039 A 
ENDROOT
BRANCH   4   7
ATOM      7  O   UNL d   1      -2.257   4.548  -5.959  0.00  0.00    -0.526 OA
ATOM      8  H5  UNL d   1      -2.347   5.377  -6.458  0.00  0.00     0.418 HD
ENDBRANCH   4   7
TORSDOF 1
ENDMDL
