MODEL 1
REMARK minimizedAffinity 4.20105362
REMARK minimizedRMSD -1
REMARK  1 active torsions:
REMARK  status: ('A' for Active; 'I' for Inactive)
REMARK    1  A    between atoms: C3_4  and  O_7 
ROOT
ATOM      1  C   UNL d   1       1.466  -0.878  -0.793  0.00  0.00    -0.033 A 
ATOM      2  C1  UNL d   1       1.431  -0.676   0.588  0.00  0.00     0.039 A 
ATOM      3  C2  UNL d   1       0.979   0.539   1.107  0.00  0.00    -0.080 A 
ATOM      4  C3  UNL d   1       0.565   1.542   0.235  0.00  0.00     0.150 A 
ATOM      5  C4  UNL d   1       0.593   1.347  -1.142  0.00  0.00    -0.007 A 
ATOM      6  C5  UNL d   1       1.046   0.133  -1.658  0.00  0.00     0.039 A 
ENDROOT
BRANCH   4   7
ATOM      7  O   UNL d   1       0.120   2.746   0.694  0.00  0.00    -0.526 OA
ATOM      8  H5  UNL d   1       0.184   2.748   1.664  0.00  0.00     0.418 HD
ENDBRANCH   4   7
TORSDOF 1
ENDMDL
