MODEL 1
REMARK minimizedAffinity 5.57067204
REMARK minimizedRMSD -1
REMARK  1 active torsions:
REMARK  status: ('A' for Active; 'I' for Inactive)
REMARK    1  A    between atoms: C3_4  and  O_7 
ROOT
ATOM      1  C   UNL d   1       4.632  -1.408   5.068  0.00  0.00    -0.033 A 
ATOM      2  C1  UNL d   1       4.673  -2.535   4.245  0.00  0.00     0.039 A 
ATOM      3  C2  UNL d   1       3.989  -2.539   3.028  0.00  0.00    -0.080 A 
ATOM      4  C3  UNL d   1       3.269  -1.410   2.646  0.00  0.00     0.150 A 
ATOM      5  C4  UNL d   1       3.227  -0.282   3.458  0.00  0.00    -0.007 A 
ATOM      6  C5  UNL d   1       3.911  -0.281   4.673  0.00  0.00     0.039 A 
ENDROOT
BRANCH   4   7
ATOM      7  O   UNL d   1       2.582  -1.369   1.469  0.00  0.00    -0.526 OA
ATOM      8  H5  UNL d   1       2.678  -2.229   1.026  0.00  0.00     0.418 HD
ENDBRANCH   4   7
TORSDOF 1
ENDMDL
