MODEL 1
REMARK minimizedAffinity -4.71417713
REMARK minimizedRMSD -1
REMARK  0 active torsions:
REMARK  status: ('A' for Active; 'I' for Inactive)
ROOT
ATOM      1  C   UNL d   1       0.972   2.392   1.576  0.00  0.00     0.078 C 
ATOM      2  C1  UNL d   1       0.459   1.073   1.081  0.00  0.00    -0.077 A 
ATOM      3  C2  UNL d   1       1.057   0.430  -0.010  0.00  0.00    -0.001 A 
ATOM      4  C3  UNL d   1       0.563  -0.793  -0.466  0.00  0.00     0.003 A 
ATOM      5  C4  UNL d   1      -0.532  -1.383   0.161  0.00  0.00    -0.005 A 
ATOM      6  C5  UNL d   1      -1.135  -0.750   1.246  0.00  0.00     0.003 A 
ATOM      7  C6  UNL d   1      -0.643   0.473   1.704  0.00  0.00    -0.001 A 
ENDROOT
TORSDOF 0
ENDMDL
