MODEL 1
REMARK minimizedAffinity -4.45972347
REMARK minimizedRMSD -1
REMARK  0 active torsions:
REMARK  status: ('A' for Active; 'I' for Inactive)
ROOT
ATOM      1  C   UNL d   1      -0.308  -1.316  -0.710  0.00  0.00     0.078 C 
ATOM      2  C1  UNL d   1      -0.113  -0.039   0.052  0.00  0.00    -0.077 A 
ATOM      3  C2  UNL d   1      -0.451   0.050   1.408  0.00  0.00    -0.001 A 
ATOM      4  C3  UNL d   1      -0.274   1.248   2.102  0.00  0.00     0.003 A 
ATOM      5  C4  UNL d   1       0.241   2.366   1.448  0.00  0.00    -0.005 A 
ATOM      6  C5  UNL d   1       0.579   2.287   0.099  0.00  0.00     0.003 A 
ATOM      7  C6  UNL d   1       0.402   1.090  -0.597  0.00  0.00    -0.001 A 
ENDROOT
TORSDOF 0
ENDMDL
