MODEL 1
REMARK minimizedAffinity -5.30499506
REMARK minimizedRMSD -1
REMARK  0 active torsions:
REMARK  status: ('A' for Active; 'I' for Inactive)
ROOT
ATOM      1  C   UNL d   1       1.078   2.564   0.660  0.00  0.00     0.078 C 
ATOM      2  C1  UNL d   1       0.916   1.125   0.273  0.00  0.00    -0.077 A 
ATOM      3  C2  UNL d   1      -0.274   0.436   0.542  0.00  0.00    -0.001 A 
ATOM      4  C3  UNL d   1      -0.407  -0.907   0.185  0.00  0.00     0.003 A 
ATOM      5  C4  UNL d   1       0.644  -1.573  -0.442  0.00  0.00    -0.005 A 
ATOM      6  C5  UNL d   1       1.832  -0.896  -0.711  0.00  0.00     0.003 A 
ATOM      7  C6  UNL d   1       1.968   0.447  -0.355  0.00  0.00    -0.001 A 
ENDROOT
TORSDOF 0
ENDMDL
