MODEL 1
REMARK minimizedAffinity -4.5225358
REMARK minimizedRMSD -1
REMARK  0 active torsions:
REMARK  status: ('A' for Active; 'I' for Inactive)
ROOT
ATOM      1  C   UNL d   1      -0.494  -1.233  -0.812  0.00  0.00     0.078 C 
ATOM      2  C1  UNL d   1      -0.130  -0.212   0.225  0.00  0.00    -0.077 A 
ATOM      3  C2  UNL d   1      -0.781  -0.178   1.464  0.00  0.00    -0.001 A 
ATOM      4  C3  UNL d   1      -0.438   0.784   2.415  0.00  0.00     0.003 A 
ATOM      5  C4  UNL d   1       0.557   1.719   2.138  0.00  0.00    -0.005 A 
ATOM      6  C5  UNL d   1       1.209   1.694   0.907  0.00  0.00     0.003 A 
ATOM      7  C6  UNL d   1       0.867   0.733  -0.046  0.00  0.00    -0.001 A 
ENDROOT
TORSDOF 0
ENDMDL
