MODEL 1
REMARK minimizedAffinity -3.67506766
REMARK minimizedRMSD -1
REMARK  0 active torsions:
REMARK  status: ('A' for Active; 'I' for Inactive)
ROOT
ATOM      1  C   UNL d   1      -3.916  -3.455  -1.129  0.00  0.00     0.078 C 
ATOM      2  C1  UNL d   1      -2.753  -2.604  -1.543  0.00  0.00    -0.077 A 
ATOM      3  C2  UNL d   1      -2.583  -2.216  -2.878  0.00  0.00    -0.001 A 
ATOM      4  C3  UNL d   1      -1.490  -1.432  -3.252  0.00  0.00     0.003 A 
ATOM      5  C4  UNL d   1      -0.559  -1.030  -2.297  0.00  0.00    -0.005 A 
ATOM      6  C5  UNL d   1      -0.719  -1.412  -0.967  0.00  0.00     0.003 A 
ATOM      7  C6  UNL d   1      -1.810  -2.197  -0.591  0.00  0.00    -0.001 A 
ENDROOT
TORSDOF 0
ENDMDL
