MODEL 1
REMARK minimizedAffinity -5.62137413
REMARK minimizedRMSD -1
REMARK  0 active torsions:
REMARK  status: ('A' for Active; 'I' for Inactive)
ROOT
ATOM      1  C   UNL d   1      -0.491  -1.078  -0.446  0.00  0.00     0.078 C 
ATOM      2  C1  UNL d   1      -0.205   0.207   0.271  0.00  0.00    -0.077 A 
ATOM      3  C2  UNL d   1       0.614   1.187  -0.303  0.00  0.00    -0.001 A 
ATOM      4  C3  UNL d   1       0.879   2.375   0.380  0.00  0.00     0.003 A 
ATOM      5  C4  UNL d   1       0.329   2.594   1.642  0.00  0.00    -0.005 A 
ATOM      6  C5  UNL d   1      -0.485   1.624   2.222  0.00  0.00     0.003 A 
ATOM      7  C6  UNL d   1      -0.751   0.435   1.541  0.00  0.00    -0.001 A 
ENDROOT
TORSDOF 0
ENDMDL
