MODEL 1
REMARK minimizedAffinity -4.08006763
REMARK minimizedRMSD -1
REMARK  0 active torsions:
REMARK  status: ('A' for Active; 'I' for Inactive)
ROOT
ATOM      1  C   UNL d   1       1.008   2.253   1.031  0.00  0.00     0.078 C 
ATOM      2  C1  UNL d   1       0.795   0.876   0.477  0.00  0.00    -0.077 A 
ATOM      3  C2  UNL d   1      -0.411   0.194   0.682  0.00  0.00    -0.001 A 
ATOM      4  C3  UNL d   1      -0.592  -1.091   0.169  0.00  0.00     0.003 A 
ATOM      5  C4  UNL d   1       0.428  -1.706  -0.553  0.00  0.00    -0.005 A 
ATOM      6  C5  UNL d   1       1.633  -1.037  -0.761  0.00  0.00     0.003 A 
ATOM      7  C6  UNL d   1       1.816   0.248  -0.248  0.00  0.00    -0.001 A 
ENDROOT
TORSDOF 0
ENDMDL
