MODEL 1
REMARK minimizedAffinity -3.63726115
REMARK minimizedRMSD -1
REMARK  0 active torsions:
REMARK  status: ('A' for Active; 'I' for Inactive)
ROOT
ATOM      1  C   UNL d   1       0.489   0.824   3.675  0.00  0.00     0.078 C 
ATOM      2  C1  UNL d   1       0.423   0.937   2.181  0.00  0.00    -0.077 A 
ATOM      3  C2  UNL d   1      -0.273  -0.008   1.416  0.00  0.00    -0.001 A 
ATOM      4  C3  UNL d   1      -0.317   0.104   0.026  0.00  0.00     0.003 A 
ATOM      5  C4  UNL d   1       0.333   1.158  -0.612  0.00  0.00    -0.005 A 
ATOM      6  C5  UNL d   1       1.029   2.102   0.140  0.00  0.00     0.003 A 
ATOM      7  C6  UNL d   1       1.075   1.992   1.530  0.00  0.00    -0.001 A 
ENDROOT
TORSDOF 0
ENDMDL
