MODEL 1
REMARK minimizedAffinity -5.57479239
REMARK minimizedRMSD -1
REMARK  0 active torsions:
REMARK  status: ('A' for Active; 'I' for Inactive)
ROOT
ATOM      1  C   UNL d   1      -0.272  -0.920  -0.790  0.00  0.00     0.078 C 
ATOM      2  C1  UNL d   1       0.475   0.114  -0.001  0.00  0.00    -0.077 A 
ATOM      3  C2  UNL d   1       1.812   0.415  -0.290  0.00  0.00    -0.001 A 
ATOM      4  C3  UNL d   1       2.498   1.372   0.458  0.00  0.00     0.003 A 
ATOM      5  C4  UNL d   1       1.856   2.037   1.501  0.00  0.00    -0.005 A 
ATOM      6  C5  UNL d   1       0.527   1.743   1.798  0.00  0.00     0.003 A 
ATOM      7  C6  UNL d   1      -0.161   0.785   1.051  0.00  0.00    -0.001 A 
ENDROOT
TORSDOF 0
ENDMDL
