MODEL 1
REMARK minimizedAffinity -5.61083078
REMARK minimizedRMSD -1
REMARK  0 active torsions:
REMARK  status: ('A' for Active; 'I' for Inactive)
ROOT
ATOM      1  C   UNL d   1      -0.165  -1.269  -0.154  0.00  0.00     0.078 C 
ATOM      2  C1  UNL d   1       0.492  -0.007   0.321  0.00  0.00    -0.077 A 
ATOM      3  C2  UNL d   1       1.857   0.219   0.110  0.00  0.00    -0.001 A 
ATOM      4  C3  UNL d   1       2.457   1.393   0.566  0.00  0.00     0.003 A 
ATOM      5  C4  UNL d   1       1.700   2.351   1.237  0.00  0.00    -0.005 A 
ATOM      6  C5  UNL d   1       0.341   2.134   1.454  0.00  0.00     0.003 A 
ATOM      7  C6  UNL d   1      -0.261   0.960   0.998  0.00  0.00    -0.001 A 
ENDROOT
TORSDOF 0
ENDMDL
