MODEL 1
REMARK minimizedAffinity -3.96421456
REMARK minimizedRMSD -1
REMARK  0 active torsions:
REMARK  status: ('A' for Active; 'I' for Inactive)
ROOT
ATOM      1  C   UNL d   1       1.316   2.962   1.072  0.00  0.00     0.078 C 
ATOM      2  C1  UNL d   1       0.701   1.658   0.658  0.00  0.00    -0.077 A 
ATOM      3  C2  UNL d   1       1.228   0.919  -0.409  0.00  0.00    -0.001 A 
ATOM      4  C3  UNL d   1       0.640  -0.288  -0.789  0.00  0.00     0.003 A 
ATOM      5  C4  UNL d   1      -0.478  -0.767  -0.109  0.00  0.00    -0.005 A 
ATOM      6  C5  UNL d   1      -1.011  -0.037   0.952  0.00  0.00     0.003 A 
ATOM      7  C6  UNL d   1      -0.424   1.170   1.334  0.00  0.00    -0.001 A 
ENDROOT
TORSDOF 0
ENDMDL
