MODEL 1
REMARK minimizedAffinity -4.09270573
REMARK minimizedRMSD -1
REMARK  0 active torsions:
REMARK  status: ('A' for Active; 'I' for Inactive)
ROOT
ATOM      1  C   UNL d   1      -0.346  -1.255  -0.719  0.00  0.00     0.078 C 
ATOM      2  C1  UNL d   1      -0.145  -0.023   0.112  0.00  0.00    -0.077 A 
ATOM      3  C2  UNL d   1       0.623   1.048  -0.360  0.00  0.00    -0.001 A 
ATOM      4  C3  UNL d   1       0.809   2.185   0.429  0.00  0.00     0.003 A 
ATOM      5  C4  UNL d   1       0.233   2.260   1.695  0.00  0.00    -0.005 A 
ATOM      6  C5  UNL d   1      -0.531   1.198   2.174  0.00  0.00     0.003 A 
ATOM      7  C6  UNL d   1      -0.719   0.061   1.387  0.00  0.00    -0.001 A 
ENDROOT
TORSDOF 0
ENDMDL
