MODEL 1
REMARK minimizedAffinity -3.04501677
REMARK minimizedRMSD -1
REMARK  0 active torsions:
REMARK  status: ('A' for Active; 'I' for Inactive)
ROOT
ATOM      1  C   UNL d   1       0.014   1.609   1.898  0.00  0.00     0.078 C 
ATOM      2  C1  UNL d   1      -0.376   0.655   0.809  0.00  0.00    -0.077 A 
ATOM      3  C2  UNL d   1      -0.872   1.122  -0.415  0.00  0.00    -0.001 A 
ATOM      4  C3  UNL d   1      -1.241   0.222  -1.416  0.00  0.00     0.003 A 
ATOM      5  C4  UNL d   1      -1.119  -1.149  -1.204  0.00  0.00    -0.005 A 
ATOM      6  C5  UNL d   1      -0.628  -1.623   0.011  0.00  0.00     0.003 A 
ATOM      7  C6  UNL d   1      -0.259  -0.725   1.014  0.00  0.00    -0.001 A 
ENDROOT
TORSDOF 0
ENDMDL
