MODEL 1
REMARK minimizedAffinity -5.07863092
REMARK minimizedRMSD -1
REMARK  0 active torsions:
REMARK  status: ('A' for Active; 'I' for Inactive)
ROOT
ATOM      1  C   UNL d   1      -2.037   0.430   2.296  0.00  0.00     0.078 C 
ATOM      2  C1  UNL d   1      -0.887   0.789   1.403  0.00  0.00    -0.077 A 
ATOM      3  C2  UNL d   1      -0.563   0.001   0.292  0.00  0.00    -0.001 A 
ATOM      4  C3  UNL d   1       0.517   0.341  -0.524  0.00  0.00     0.003 A 
ATOM      5  C4  UNL d   1       1.282   1.469  -0.238  0.00  0.00    -0.005 A 
ATOM      6  C5  UNL d   1       0.969   2.259   0.867  0.00  0.00     0.003 A 
ATOM      7  C6  UNL d   1      -0.110   1.920   1.685  0.00  0.00    -0.001 A 
ENDROOT
TORSDOF 0
ENDMDL
