MODEL 1
REMARK minimizedAffinity -4.88317966
REMARK minimizedRMSD -1
REMARK  0 active torsions:
REMARK  status: ('A' for Active; 'I' for Inactive)
ROOT
ATOM      1  C   UNL d   1      -0.470  -1.028  -0.526  0.00  0.00     0.078 C 
ATOM      2  C1  UNL d   1       0.140   0.129   0.207  0.00  0.00    -0.077 A 
ATOM      3  C2  UNL d   1       1.358   0.684  -0.206  0.00  0.00    -0.001 A 
ATOM      4  C3  UNL d   1       1.919   1.754   0.492  0.00  0.00     0.003 A 
ATOM      5  C4  UNL d   1       1.271   2.278   1.608  0.00  0.00    -0.005 A 
ATOM      6  C5  UNL d   1       0.060   1.731   2.029  0.00  0.00     0.003 A 
ATOM      7  C6  UNL d   1      -0.503   0.661   1.332  0.00  0.00    -0.001 A 
ENDROOT
TORSDOF 0
ENDMDL
