MODEL 1
REMARK minimizedAffinity -5.08750153
REMARK minimizedRMSD -1
REMARK  0 active torsions:
REMARK  status: ('A' for Active; 'I' for Inactive)
ROOT
ATOM      1  C   UNL d   1      -1.080   2.804   1.931  0.00  0.00     0.020 A 
ATOM      2  C1  UNL d   1      -0.680   1.611   2.531  0.00  0.00     0.020 A 
ATOM      3  C2  UNL d   1      -0.199   0.561   1.745  0.00  0.00     0.034 A 
ATOM      4  C3  UNL d   1      -0.118   0.702   0.355  0.00  0.00     0.017 A 
ATOM      5  C4  UNL d   1      -0.520   1.900  -0.246  0.00  0.00     0.017 A 
ATOM      6  C5  UNL d   1      -1.000   2.948   0.545  0.00  0.00     0.034 A 
ATOM      7 Cl   UNL d   1      -0.449   2.149  -1.955  0.00  0.00    -0.070 Cl
ATOM      8 Cl1  UNL d   1       0.486  -0.637  -0.554  0.00  0.00    -0.070 Cl
ENDROOT
TORSDOF 0
ENDMDL
