MODEL 1
REMARK minimizedAffinity -3.94767427
REMARK minimizedRMSD -1
REMARK  0 active torsions:
REMARK  status: ('A' for Active; 'I' for Inactive)
ROOT
ATOM      1  C   UNL d   1       0.536  -0.631  -0.770  0.00  0.00     0.020 A 
ATOM      2  C1  UNL d   1       0.461  -0.980   0.578  0.00  0.00     0.020 A 
ATOM      3  C2  UNL d   1       0.163  -0.008   1.535  0.00  0.00     0.034 A 
ATOM      4  C3  UNL d   1      -0.061   1.318   1.147  0.00  0.00     0.017 A 
ATOM      5  C4  UNL d   1       0.015   1.667  -0.207  0.00  0.00     0.017 A 
ATOM      6  C5  UNL d   1       0.313   0.690  -1.161  0.00  0.00     0.034 A 
ATOM      7 Cl   UNL d   1      -0.249   3.282  -0.763  0.00  0.00    -0.070 Cl
ATOM      8 Cl1  UNL d   1      -0.425   2.468   2.384  0.00  0.00    -0.070 Cl
ENDROOT
TORSDOF 0
ENDMDL
