MODEL 1
REMARK minimizedAffinity -1.38627577
REMARK minimizedRMSD -1
REMARK  0 active torsions:
REMARK  status: ('A' for Active; 'I' for Inactive)
ROOT
ATOM      1  C   UNL d   1       0.274  -0.441   0.369  0.00  0.00     0.020 A 
ATOM      2  C1  UNL d   1       0.387   0.211   1.596  0.00  0.00     0.020 A 
ATOM      3  C2  UNL d   1       0.321   1.605   1.655  0.00  0.00     0.034 A 
ATOM      4  C3  UNL d   1       0.142   2.351   0.484  0.00  0.00     0.017 A 
ATOM      5  C4  UNL d   1       0.030   1.696  -0.747  0.00  0.00     0.017 A 
ATOM      6  C5  UNL d   1       0.096   0.300  -0.800  0.00  0.00     0.034 A 
ATOM      7 Cl   UNL d   1      -0.192   2.549  -2.234  0.00  0.00    -0.070 Cl
ATOM      8 Cl1  UNL d   1       0.069   4.071   0.631  0.00  0.00    -0.070 Cl
ENDROOT
TORSDOF 0
ENDMDL
