MODEL 1
REMARK minimizedAffinity -3.74995518
REMARK minimizedRMSD -1
REMARK  0 active torsions:
REMARK  status: ('A' for Active; 'I' for Inactive)
ROOT
ATOM      1  C   UNL d   1       0.601  -0.390   0.610  0.00  0.00     0.020 A 
ATOM      2  C1  UNL d   1       0.316   0.517   1.629  0.00  0.00     0.020 A 
ATOM      3  C2  UNL d   1       0.041   1.851   1.320  0.00  0.00     0.034 A 
ATOM      4  C3  UNL d   1       0.051   2.281  -0.012  0.00  0.00     0.017 A 
ATOM      5  C4  UNL d   1       0.337   1.370  -1.034  0.00  0.00     0.017 A 
ATOM      6  C5  UNL d   1       0.612   0.035  -0.719  0.00  0.00     0.034 A 
ATOM      7 Cl   UNL d   1       0.367   1.826  -2.701  0.00  0.00    -0.070 Cl
ATOM      8 Cl1  UNL d   1      -0.299   3.945  -0.321  0.00  0.00    -0.070 Cl
ENDROOT
TORSDOF 0
ENDMDL
