MODEL 1
REMARK minimizedAffinity -4.0835247
REMARK minimizedRMSD -1
REMARK  0 active torsions:
REMARK  status: ('A' for Active; 'I' for Inactive)
ROOT
ATOM      1  C   UNL d   1      -1.546   2.951  -0.407  0.00  0.00     0.020 A 
ATOM      2  C1  UNL d   1      -1.554   3.162   0.971  0.00  0.00     0.020 A 
ATOM      3  C2  UNL d   1      -0.946   2.237   1.823  0.00  0.00     0.034 A 
ATOM      4  C3  UNL d   1      -0.328   1.096   1.297  0.00  0.00     0.017 A 
ATOM      5  C4  UNL d   1      -0.322   0.885  -0.087  0.00  0.00     0.017 A 
ATOM      6  C5  UNL d   1      -0.931   1.815  -0.935  0.00  0.00     0.034 A 
ATOM      7 Cl   UNL d   1       0.420  -0.499  -0.810  0.00  0.00    -0.070 Cl
ATOM      8 Cl1  UNL d   1       0.404  -0.006   2.408  0.00  0.00    -0.070 Cl
ENDROOT
TORSDOF 0
ENDMDL
