MODEL 1
REMARK minimizedAffinity 1.84618676
REMARK minimizedRMSD -1
REMARK  0 active torsions:
REMARK  status: ('A' for Active; 'I' for Inactive)
ROOT
ATOM      1  C   UNL d   1       0.057  -2.195  -0.218  0.00  0.00     0.020 A 
ATOM      2  C1  UNL d   1       0.264  -2.110   1.158  0.00  0.00     0.020 A 
ATOM      3  C2  UNL d   1       0.416  -0.862   1.765  0.00  0.00     0.034 A 
ATOM      4  C3  UNL d   1       0.360   0.307   0.996  0.00  0.00     0.017 A 
ATOM      5  C4  UNL d   1       0.151   0.220  -0.385  0.00  0.00     0.017 A 
ATOM      6  C5  UNL d   1       0.000  -1.033  -0.988  0.00  0.00     0.034 A 
ATOM      7 Cl   UNL d   1       0.070   1.617  -1.399  0.00  0.00    -0.070 Cl
ATOM      8 Cl1  UNL d   1       0.554   1.816   1.814  0.00  0.00    -0.070 Cl
ENDROOT
TORSDOF 0
ENDMDL
