MODEL 1
REMARK minimizedAffinity -1.97326767
REMARK minimizedRMSD -1
REMARK  0 active torsions:
REMARK  status: ('A' for Active; 'I' for Inactive)
ROOT
ATOM      1  C   UNL d   1       0.295   1.777   1.790  0.00  0.00     0.020 A 
ATOM      2  C1  UNL d   1       0.130   0.521   2.372  0.00  0.00     0.020 A 
ATOM      3  C2  UNL d   1       0.205  -0.629   1.583  0.00  0.00     0.034 A 
ATOM      4  C3  UNL d   1       0.446  -0.525   0.208  0.00  0.00     0.017 A 
ATOM      5  C4  UNL d   1       0.611   0.736  -0.375  0.00  0.00     0.017 A 
ATOM      6  C5  UNL d   1       0.535   1.884   0.419  0.00  0.00     0.034 A 
ATOM      7 Cl   UNL d   1       0.911   0.944  -2.065  0.00  0.00    -0.070 Cl
ATOM      8 Cl1  UNL d   1       0.526  -1.989  -0.706  0.00  0.00    -0.070 Cl
ENDROOT
TORSDOF 0
ENDMDL
