MODEL 1
REMARK minimizedAffinity 1.16382897
REMARK minimizedRMSD -1
REMARK  0 active torsions:
REMARK  status: ('A' for Active; 'I' for Inactive)
ROOT
ATOM      1  C   UNL d   1      -4.060  -5.971  -5.997  0.00  0.00     0.172 C 
ATOM      2  N   UNL d   1      -2.777  -5.842  -5.347  0.00  0.00    -0.070 N 
ATOM      3  C1  UNL d   1      -2.568  -5.798  -3.994  0.00  0.00    -0.004 A 
ATOM      4  C2  UNL d   1      -1.213  -5.671  -3.780  0.00  0.00    -0.047 A 
ATOM      5  C3  UNL d   1      -0.585  -5.637  -5.048  0.00  0.00    -0.047 A 
ATOM      6  C4  UNL d   1      -1.577  -5.745  -6.000  0.00  0.00    -0.004 A 
ENDROOT
TORSDOF 0
ENDMDL
