MODEL 1
REMARK minimizedAffinity -0.546038032
REMARK minimizedRMSD -1
REMARK  0 active torsions:
REMARK  status: ('A' for Active; 'I' for Inactive)
ROOT
ATOM      1  C   UNL d   1      -2.886  -0.249   3.047  0.00  0.00     0.172 C 
ATOM      2  N   UNL d   1      -2.033  -0.789   2.015  0.00  0.00    -0.070 N 
ATOM      3  C1  UNL d   1      -1.241  -0.058   1.171  0.00  0.00    -0.004 A 
ATOM      4  C2  UNL d   1      -0.586  -0.939   0.337  0.00  0.00    -0.047 A 
ATOM      5  C3  UNL d   1      -0.999  -2.245   0.693  0.00  0.00    -0.047 A 
ATOM      6  C4  UNL d   1      -1.895  -2.123   1.734  0.00  0.00    -0.004 A 
ENDROOT
TORSDOF 0
ENDMDL
