MODEL 1
REMARK minimizedAffinity -2.02414203
REMARK minimizedRMSD -1
REMARK  0 active torsions:
REMARK  status: ('A' for Active; 'I' for Inactive)
ROOT
ATOM      1  C   UNL d   1       0.187   0.405   0.788  0.00  0.00     0.172 C 
ATOM      2  N   UNL d   1      -1.137  -0.171   0.804  0.00  0.00    -0.070 N 
ATOM      3  C1  UNL d   1      -2.099   0.012  -0.154  0.00  0.00    -0.004 A 
ATOM      4  C2  UNL d   1      -3.215  -0.701   0.228  0.00  0.00    -0.047 A 
ATOM      5  C3  UNL d   1      -2.914  -1.333   1.458  0.00  0.00    -0.047 A 
ATOM      6  C4  UNL d   1      -1.622  -0.987   1.791  0.00  0.00    -0.004 A 
ENDROOT
TORSDOF 0
ENDMDL
