MODEL 1
REMARK minimizedAffinity -2.05608201
REMARK minimizedRMSD -1
REMARK  0 active torsions:
REMARK  status: ('A' for Active; 'I' for Inactive)
ROOT
ATOM      1  C   UNL d   1      -2.311  -5.215  -2.418  0.00  0.00     0.172 C 
ATOM      2  N   UNL d   1      -2.385  -5.102  -3.855  0.00  0.00    -0.070 N 
ATOM      3  C1  UNL d   1      -3.472  -4.672  -4.568  0.00  0.00    -0.004 A 
ATOM      4  C2  UNL d   1      -3.142  -4.709  -5.905  0.00  0.00    -0.047 A 
ATOM      5  C3  UNL d   1      -1.810  -5.178  -6.000  0.00  0.00    -0.047 A 
ATOM      6  C4  UNL d   1      -1.366  -5.414  -4.716  0.00  0.00    -0.004 A 
ENDROOT
TORSDOF 0
ENDMDL
