MODEL 1
REMARK minimizedAffinity -1.87991858
REMARK minimizedRMSD -1
REMARK  0 active torsions:
REMARK  status: ('A' for Active; 'I' for Inactive)
ROOT
ATOM      1  C   UNL d   1      -3.748  -4.541  -5.999  0.00  0.00     0.172 C 
ATOM      2  N   UNL d   1      -2.719  -5.105  -5.158  0.00  0.00    -0.070 N 
ATOM      3  C1  UNL d   1      -2.813  -5.303  -3.806  0.00  0.00    -0.004 A 
ATOM      4  C2  UNL d   1      -1.627  -5.859  -3.377  0.00  0.00    -0.047 A 
ATOM      5  C3  UNL d   1      -0.791  -5.999  -4.511  0.00  0.00    -0.047 A 
ATOM      6  C4  UNL d   1      -1.492  -5.524  -5.599  0.00  0.00    -0.004 A 
ENDROOT
TORSDOF 0
ENDMDL
