MODEL 1
REMARK minimizedAffinity -2.04913068
REMARK minimizedRMSD -1
REMARK  0 active torsions:
REMARK  status: ('A' for Active; 'I' for Inactive)
ROOT
ATOM      1  C   UNL d   1      -5.578  -4.498  -5.624  0.00  0.00     0.172 C 
ATOM      2  N   UNL d   1      -4.190  -4.865  -5.475  0.00  0.00    -0.070 N 
ATOM      3  C1  UNL d   1      -3.242  -4.147  -4.796  0.00  0.00    -0.004 A 
ATOM      4  C2  UNL d   1      -2.049  -4.831  -4.887  0.00  0.00    -0.047 A 
ATOM      5  C3  UNL d   1      -2.288  -6.000  -5.649  0.00  0.00    -0.047 A 
ATOM      6  C4  UNL d   1      -3.621  -5.996  -6.000  0.00  0.00    -0.004 A 
ENDROOT
TORSDOF 0
ENDMDL
