MODEL 1
REMARK minimizedAffinity -1.99986112
REMARK minimizedRMSD -1
REMARK  0 active torsions:
REMARK  status: ('A' for Active; 'I' for Inactive)
ROOT
ATOM      1  C   UNL d   1      -5.579  -3.697  -4.881  0.00  0.00     0.172 C 
ATOM      2  N   UNL d   1      -4.388  -4.506  -4.984  0.00  0.00    -0.070 N 
ATOM      3  C1  UNL d   1      -3.349  -4.515  -4.092  0.00  0.00    -0.004 A 
ATOM      4  C2  UNL d   1      -2.411  -5.417  -4.545  0.00  0.00    -0.047 A 
ATOM      5  C3  UNL d   1      -2.903  -5.969  -5.751  0.00  0.00    -0.047 A 
ATOM      6  C4  UNL d   1      -4.128  -5.388  -6.000  0.00  0.00    -0.004 A 
ENDROOT
TORSDOF 0
ENDMDL
