MODEL 1
REMARK minimizedAffinity -0.589789569
REMARK minimizedRMSD -1
REMARK  0 active torsions:
REMARK  status: ('A' for Active; 'I' for Inactive)
ROOT
ATOM      1  C   UNL d   1       0.622   0.405   0.855  0.00  0.00     0.172 C 
ATOM      2  N   UNL d   1      -0.383  -0.625   0.978  0.00  0.00    -0.070 N 
ATOM      3  C1  UNL d   1      -1.025  -0.979   2.134  0.00  0.00    -0.004 A 
ATOM      4  C2  UNL d   1      -1.905  -1.997   1.833  0.00  0.00    -0.047 A 
ATOM      5  C3  UNL d   1      -1.786  -2.264   0.449  0.00  0.00    -0.047 A 
ATOM      6  C4  UNL d   1      -0.837  -1.401  -0.056  0.00  0.00    -0.004 A 
ENDROOT
TORSDOF 0
ENDMDL
