MODEL 1
REMARK minimizedAffinity -1.22563231
REMARK minimizedRMSD -1
REMARK  0 active torsions:
REMARK  status: ('A' for Active; 'I' for Inactive)
ROOT
ATOM      1  C   UNL d   1      -4.916  -5.077  -5.870  0.00  0.00     0.172 C 
ATOM      2  N   UNL d   1      -3.593  -5.309  -5.341  0.00  0.00    -0.070 N 
ATOM      3  C1  UNL d   1      -3.138  -4.896  -4.117  0.00  0.00    -0.004 A 
ATOM      4  C2  UNL d   1      -1.831  -5.312  -3.990  0.00  0.00    -0.047 A 
ATOM      5  C3  UNL d   1      -1.488  -5.999  -5.178  0.00  0.00    -0.047 A 
ATOM      6  C4  UNL d   1      -2.597  -5.982  -5.998  0.00  0.00    -0.004 A 
ENDROOT
TORSDOF 0
ENDMDL
