MODEL 1
REMARK minimizedAffinity -0.415295601
REMARK minimizedRMSD -1
REMARK  0 active torsions:
REMARK  status: ('A' for Active; 'I' for Inactive)
ROOT
ATOM      1  C   UNL d   1      -4.042  -3.786  -4.432  0.00  0.00     0.172 C 
ATOM      2  N   UNL d   1      -2.878  -4.559  -4.797  0.00  0.00    -0.070 N 
ATOM      3  C1  UNL d   1      -2.255  -5.487  -4.005  0.00  0.00    -0.004 A 
ATOM      4  C2  UNL d   1      -1.191  -6.000  -4.714  0.00  0.00    -0.047 A 
ATOM      5  C3  UNL d   1      -1.173  -5.358  -5.975  0.00  0.00    -0.047 A 
ATOM      6  C4  UNL d   1      -2.228  -4.471  -6.000  0.00  0.00    -0.004 A 
ENDROOT
TORSDOF 0
ENDMDL
