MODEL 1
REMARK minimizedAffinity -1.96427
REMARK minimizedRMSD -1
REMARK  0 active torsions:
REMARK  status: ('A' for Active; 'I' for Inactive)
ROOT
ATOM      1  C   UNL d   1      -0.572  -5.979  -5.968  0.00  0.00     0.172 C 
ATOM      2  N   UNL d   1      -1.793  -5.521  -5.349  0.00  0.00    -0.070 N 
ATOM      3  C1  UNL d   1      -2.970  -5.264  -6.000  0.00  0.00    -0.004 A 
ATOM      4  C2  UNL d   1      -3.890  -4.850  -5.061  0.00  0.00    -0.047 A 
ATOM      5  C3  UNL d   1      -3.244  -4.858  -3.802  0.00  0.00    -0.047 A 
ATOM      6  C4  UNL d   1      -1.947  -5.277  -4.010  0.00  0.00    -0.004 A 
ENDROOT
TORSDOF 0
ENDMDL
