MODEL 1
REMARK minimizedAffinity 0.0326745622
REMARK minimizedRMSD -1
REMARK  0 active torsions:
REMARK  status: ('A' for Active; 'I' for Inactive)
ROOT
ATOM      1  C   UNL d   1      -4.621  -4.551  -5.723  0.00  0.00     0.172 C 
ATOM      2  N   UNL d   1      -5.182  -3.313  -5.232  0.00  0.00    -0.070 N 
ATOM      3  C1  UNL d   1      -5.489  -2.218  -5.994  0.00  0.00    -0.004 A 
ATOM      4  C2  UNL d   1      -6.000  -1.251  -5.156  0.00  0.00    -0.047 A 
ATOM      5  C3  UNL d   1      -5.998  -1.782  -3.845  0.00  0.00    -0.047 A 
ATOM      6  C4  UNL d   1      -5.487  -3.061  -3.920  0.00  0.00    -0.004 A 
ENDROOT
TORSDOF 0
ENDMDL
