MODEL 1
REMARK minimizedAffinity -1.97090232
REMARK minimizedRMSD -1
REMARK  0 active torsions:
REMARK  status: ('A' for Active; 'I' for Inactive)
ROOT
ATOM      1  C   UNL d   1      -6.000  -2.485  -4.574  0.00  0.00     0.172 C 
ATOM      2  N   UNL d   1      -5.326  -3.699  -4.972  0.00  0.00    -0.070 N 
ATOM      3  C1  UNL d   1      -4.113  -4.129  -4.505  0.00  0.00    -0.004 A 
ATOM      4  C2  UNL d   1      -3.820  -5.323  -5.127  0.00  0.00    -0.047 A 
ATOM      5  C3  UNL d   1      -4.894  -5.621  -5.999  0.00  0.00    -0.047 A 
ATOM      6  C4  UNL d   1      -5.813  -4.599  -5.883  0.00  0.00    -0.004 A 
ENDROOT
TORSDOF 0
ENDMDL
