MODEL 1
REMARK minimizedAffinity -2.46573091
REMARK minimizedRMSD -1
REMARK  0 active torsions:
REMARK  status: ('A' for Active; 'I' for Inactive)
ROOT
ATOM      1  C   UNL d   1      -2.447  -5.415  -5.102  0.00  0.00     0.172 C 
ATOM      2  N   UNL d   1      -3.853  -5.166  -5.316  0.00  0.00    -0.070 N 
ATOM      3  C1  UNL d   1      -4.547  -4.073  -4.870  0.00  0.00    -0.004 A 
ATOM      4  C2  UNL d   1      -5.856  -4.209  -5.278  0.00  0.00    -0.047 A 
ATOM      5  C3  UNL d   1      -5.953  -5.427  -5.992  0.00  0.00    -0.047 A 
ATOM      6  C4  UNL d   1      -4.698  -5.999  -6.000  0.00  0.00    -0.004 A 
ENDROOT
TORSDOF 0
ENDMDL
