MODEL 1
REMARK minimizedAffinity -2.00021577
REMARK minimizedRMSD -1
REMARK  0 active torsions:
REMARK  status: ('A' for Active; 'I' for Inactive)
ROOT
ATOM      1  C   UNL d   1      -1.194  -5.621  -5.943  0.00  0.00     0.172 C 
ATOM      2  N   UNL d   1      -2.493  -5.206  -5.467  0.00  0.00    -0.070 N 
ATOM      3  C1  UNL d   1      -3.389  -5.999  -4.801  0.00  0.00    -0.004 A 
ATOM      4  C2  UNL d   1      -4.501  -5.234  -4.521  0.00  0.00    -0.047 A 
ATOM      5  C3  UNL d   1      -4.265  -3.938  -5.037  0.00  0.00    -0.047 A 
ATOM      6  C4  UNL d   1      -3.014  -3.949  -5.617  0.00  0.00    -0.004 A 
ENDROOT
TORSDOF 0
ENDMDL
