MODEL 1
REMARK minimizedAffinity -0.481682569
REMARK minimizedRMSD -1
REMARK  0 active torsions:
REMARK  status: ('A' for Active; 'I' for Inactive)
ROOT
ATOM      1  C   UNL d   1      -0.956  -4.940  -5.901  0.00  0.00     0.172 C 
ATOM      2  N   UNL d   1      -2.399  -4.897  -5.940  0.00  0.00    -0.070 N 
ATOM      3  C1  UNL d   1      -3.164  -3.762  -5.965  0.00  0.00    -0.004 A 
ATOM      4  C2  UNL d   1      -4.487  -4.145  -5.999  0.00  0.00    -0.047 A 
ATOM      5  C3  UNL d   1      -4.519  -5.560  -5.995  0.00  0.00    -0.047 A 
ATOM      6  C4  UNL d   1      -3.212  -6.000  -5.958  0.00  0.00    -0.004 A 
ENDROOT
TORSDOF 0
ENDMDL
