MODEL 1
REMARK minimizedAffinity -0.0726422593
REMARK minimizedRMSD -1
REMARK  0 active torsions:
REMARK  status: ('A' for Active; 'I' for Inactive)
ROOT
ATOM      1  C   UNL d   1      -3.002   0.367  -5.202  0.00  0.00     0.172 C 
ATOM      2  N   UNL d   1      -4.221  -0.362  -4.940  0.00  0.00    -0.070 N 
ATOM      3  C1  UNL d   1      -4.886  -1.155  -5.837  0.00  0.00    -0.004 A 
ATOM      4  C2  UNL d   1      -5.996  -1.669  -5.204  0.00  0.00    -0.047 A 
ATOM      5  C3  UNL d   1      -6.000  -1.168  -3.881  0.00  0.00    -0.047 A 
ATOM      6  C4  UNL d   1      -4.890  -0.361  -3.744  0.00  0.00    -0.004 A 
ENDROOT
TORSDOF 0
ENDMDL
