MODEL 1
REMARK minimizedAffinity 2.20041561
REMARK minimizedRMSD -1
REMARK  0 active torsions:
REMARK  status: ('A' for Active; 'I' for Inactive)
ROOT
ATOM      1  C4' PXY d   1      -0.739  -3.004   3.503  0.00  0.00     0.077 C 
ATOM      2  C1' PXY d   1       1.502  -0.010  -0.905  0.00  0.00     0.077 C 
ATOM      3  C1  PXY d   1       0.919  -0.806   0.246  0.00  0.00    -0.082 A 
ATOM      4  C2  PXY d   1      -0.121  -0.330   0.911  0.00  0.00     0.003 A 
ATOM      5  C3  PXY d   1      -0.640  -1.021   1.975  0.00  0.00     0.003 A 
ATOM      6  C4  PXY d   1      -0.124  -2.239   2.328  0.00  0.00    -0.082 A 
ATOM      7  C5  PXY d   1       0.931  -2.737   1.648  0.00  0.00     0.003 A 
ATOM      8  C6  PXY d   1       1.470  -2.000   0.598  0.00  0.00     0.003 A 
ENDROOT
TORSDOF 0
ENDMDL
