MODEL 1
REMARK minimizedAffinity 10.0031576
REMARK minimizedRMSD -1
REMARK  0 active torsions:
REMARK  status: ('A' for Active; 'I' for Inactive)
ROOT
ATOM      1  C4' PXY d   1       1.347  -1.283  -0.017  0.00  0.00     0.077 C 
ATOM      2  C1' PXY d   1      -3.376   0.677   2.680  0.00  0.00     0.077 C 
ATOM      3  C1  PXY d   1      -2.130   0.165   1.983  0.00  0.00    -0.082 A 
ATOM      4  C2  PXY d   1      -2.056   0.206   0.663  0.00  0.00     0.003 A 
ATOM      5  C3  PXY d   1      -0.950  -0.282   0.015  0.00  0.00     0.003 A 
ATOM      6  C4  PXY d   1       0.113  -0.768   0.729  0.00  0.00    -0.082 A 
ATOM      7  C5  PXY d   1       0.049  -0.803   2.077  0.00  0.00     0.003 A 
ATOM      8  C6  PXY d   1      -1.100  -0.341   2.713  0.00  0.00     0.003 A 
ENDROOT
TORSDOF 0
ENDMDL
