MODEL 1
REMARK minimizedAffinity 7.79284525
REMARK minimizedRMSD -1
REMARK  0 active torsions:
REMARK  status: ('A' for Active; 'I' for Inactive)
ROOT
ATOM      1  C4' PXY d   1       5.307  -0.027   0.585  0.00  0.00     0.077 C 
ATOM      2  C1' PXY d   1       0.170   0.540  -2.003  0.00  0.00     0.077 C 
ATOM      3  C1  PXY d   1       1.522   0.399  -1.333  0.00  0.00    -0.082 A 
ATOM      4  C2  PXY d   1       1.770  -0.657  -0.575  0.00  0.00     0.003 A 
ATOM      5  C3  PXY d   1       2.976  -0.784   0.064  0.00  0.00     0.003 A 
ATOM      6  C4  PXY d   1       3.959   0.152  -0.118  0.00  0.00    -0.082 A 
ATOM      7  C5  PXY d   1       3.718   1.226  -0.899  0.00  0.00     0.003 A 
ATOM      8  C6  PXY d   1       2.472   1.358  -1.505  0.00  0.00     0.003 A 
ENDROOT
TORSDOF 0
ENDMDL
