MODEL 1
REMARK minimizedAffinity 8.29643154
REMARK minimizedRMSD -1
REMARK  0 active torsions:
REMARK  status: ('A' for Active; 'I' for Inactive)
ROOT
ATOM      1  C4' PXY d   1       1.795  -0.683   0.612  0.00  0.00     0.077 C 
ATOM      2  C1' PXY d   1      -1.944  -3.454   4.041  0.00  0.00     0.077 C 
ATOM      3  C1  PXY d   1      -0.973  -2.718   3.139  0.00  0.00    -0.082 A 
ATOM      4  C2  PXY d   1       0.045  -3.372   2.602  0.00  0.00     0.003 A 
ATOM      5  C3  PXY d   1       0.951  -2.715   1.809  0.00  0.00     0.003 A 
ATOM      6  C4  PXY d   1       0.784  -1.387   1.521  0.00  0.00    -0.082 A 
ATOM      7  C5  PXY d   1      -0.257  -0.715   2.057  0.00  0.00     0.003 A 
ATOM      8  C6  PXY d   1      -1.143  -1.391   2.891  0.00  0.00     0.003 A 
ENDROOT
TORSDOF 0
ENDMDL
