MODEL 1
REMARK minimizedAffinity 6.68621063
REMARK minimizedRMSD -1
REMARK  0 active torsions:
REMARK  status: ('A' for Active; 'I' for Inactive)
ROOT
ATOM      1  C4' PXY d   1       1.333  -0.738   0.412  0.00  0.00     0.077 C 
ATOM      2  C1' PXY d   1      -1.896  -3.413   4.391  0.00  0.00     0.077 C 
ATOM      3  C1  PXY d   1      -1.040  -2.720   3.350  0.00  0.00    -0.082 A 
ATOM      4  C2  PXY d   1      -1.322  -1.477   2.993  0.00  0.00     0.003 A 
ATOM      5  C3  PXY d   1      -0.577  -0.846   2.030  0.00  0.00     0.003 A 
ATOM      6  C4  PXY d   1       0.501  -1.474   1.465  0.00  0.00    -0.082 A 
ATOM      7  C5  PXY d   1       0.801  -2.738   1.832  0.00  0.00     0.003 A 
ATOM      8  C6  PXY d   1       0.008  -3.376   2.781  0.00  0.00     0.003 A 
ENDROOT
TORSDOF 0
ENDMDL
