MODEL 1
REMARK minimizedAffinity -2.73495317
REMARK minimizedRMSD -1
REMARK  0 active torsions:
REMARK  status: ('A' for Active; 'I' for Inactive)
ROOT
ATOM      1  C4' PXY d   1       1.762  -4.223   1.946  0.00  0.00     0.077 C 
ATOM      2  C1' PXY d   1      -1.604   0.467   1.649  0.00  0.00     0.077 C 
ATOM      3  C1  PXY d   1      -0.723  -0.763   1.740  0.00  0.00    -0.082 A 
ATOM      4  C2  PXY d   1       0.173  -0.998   0.794  0.00  0.00     0.003 A 
ATOM      5  C3  PXY d   1       0.955  -2.123   0.844  0.00  0.00     0.003 A 
ATOM      6  C4  PXY d   1       0.857  -2.989   1.900  0.00  0.00    -0.082 A 
ATOM      7  C5  PXY d   1      -0.046  -2.750   2.874  0.00  0.00     0.003 A 
ATOM      8  C6  PXY d   1      -0.860  -1.625   2.784  0.00  0.00     0.003 A 
ENDROOT
TORSDOF 0
ENDMDL
