MODEL 1
REMARK minimizedAffinity 8.54613781
REMARK minimizedRMSD -1
REMARK  0 active torsions:
REMARK  status: ('A' for Active; 'I' for Inactive)
ROOT
ATOM      1  C4' PXY d   1      -0.319  -0.612   2.894  0.00  0.00     0.077 C 
ATOM      2  C1' PXY d   1       3.480  -3.546  -0.327  0.00  0.00     0.077 C 
ATOM      3  C1  PXY d   1       2.486  -2.766   0.511  0.00  0.00    -0.082 A 
ATOM      4  C2  PXY d   1       2.214  -3.164   1.743  0.00  0.00     0.003 A 
ATOM      5  C3  PXY d   1       1.293  -2.489   2.503  0.00  0.00     0.003 A 
ATOM      6  C4  PXY d   1       0.685  -1.364   2.015  0.00  0.00    -0.082 A 
ATOM      7  C5  PXY d   1       0.965  -0.945   0.763  0.00  0.00     0.003 A 
ATOM      8  C6  PXY d   1       1.871  -1.668  -0.007  0.00  0.00     0.003 A 
ENDROOT
TORSDOF 0
ENDMDL
