MODEL 1
REMARK minimizedAffinity 0.29345122
REMARK minimizedRMSD -1
REMARK  0 active torsions:
REMARK  status: ('A' for Active; 'I' for Inactive)
ROOT
ATOM      1  C4' PXY d   1       0.342   0.132   0.760  0.00  0.00     0.077 C 
ATOM      2  C1' PXY d   1      -0.933  -4.584   3.850  0.00  0.00     0.077 C 
ATOM      3  C1  PXY d   1      -0.587  -3.352   3.038  0.00  0.00    -0.082 A 
ATOM      4  C2  PXY d   1      -1.275  -2.236   3.216  0.00  0.00     0.003 A 
ATOM      5  C3  PXY d   1      -0.996  -1.122   2.467  0.00  0.00     0.003 A 
ATOM      6  C4  PXY d   1       0.033  -1.133   1.565  0.00  0.00    -0.082 A 
ATOM      7  C5  PXY d   1       0.747  -2.265   1.385  0.00  0.00     0.003 A 
ATOM      8  C6  PXY d   1       0.422  -3.397   2.125  0.00  0.00     0.003 A 
ENDROOT
TORSDOF 0
ENDMDL
