MODEL 1
REMARK minimizedAffinity -0.97999537
REMARK minimizedRMSD -1
REMARK  0 active torsions:
REMARK  status: ('A' for Active; 'I' for Inactive)
ROOT
ATOM      1  C4' PXY d   1       2.502  -4.059   1.257  0.00  0.00     0.077 C 
ATOM      2  C1' PXY d   1      -0.530   0.793   0.429  0.00  0.00     0.077 C 
ATOM      3  C1  PXY d   1       0.264  -0.478   0.659  0.00  0.00    -0.082 A 
ATOM      4  C2  PXY d   1       1.154  -0.866  -0.240  0.00  0.00     0.003 A 
ATOM      5  C3  PXY d   1       1.857  -2.029  -0.063  0.00  0.00     0.003 A 
ATOM      6  C4  PXY d   1       1.685  -2.777   1.071  0.00  0.00    -0.082 A 
ATOM      7  C5  PXY d   1       0.787  -2.383   1.998  0.00  0.00     0.003 A 
ATOM      8  C6  PXY d   1       0.053  -1.220   1.780  0.00  0.00     0.003 A 
ENDROOT
TORSDOF 0
ENDMDL
