MODEL 1
REMARK minimizedAffinity -2.31683493
REMARK minimizedRMSD -1
REMARK  0 active torsions:
REMARK  status: ('A' for Active; 'I' for Inactive)
ROOT
ATOM      1  C4' PXY d   1       5.984   4.952   2.129  0.00  0.00     0.077 C 
ATOM      2  C1' PXY d   1       1.336   5.997   5.403  0.00  0.00     0.077 C 
ATOM      3  C1  PXY d   1       2.548   5.714   4.538  0.00  0.00    -0.082 A 
ATOM      4  C2  PXY d   1       3.758   5.998   4.993  0.00  0.00     0.003 A 
ATOM      5  C3  PXY d   1       4.862   5.778   4.212  0.00  0.00     0.003 A 
ATOM      6  C4  PXY d   1       4.732   5.213   2.971  0.00  0.00    -0.082 A 
ATOM      7  C5  PXY d   1       3.502   4.911   2.504  0.00  0.00     0.003 A 
ATOM      8  C6  PXY d   1       2.390   5.180   3.297  0.00  0.00     0.003 A 
ENDROOT
TORSDOF 0
ENDMDL
