MODEL 1
REMARK minimizedAffinity 4.09279108
REMARK minimizedRMSD -1
REMARK  0 active torsions:
REMARK  status: ('A' for Active; 'I' for Inactive)
ROOT
ATOM      1  C4' PXY d   1       1.902  -1.362   0.045  0.00  0.00     0.077 C 
ATOM      2  C1' PXY d   1      -1.500  -3.353   4.274  0.00  0.00     0.077 C 
ATOM      3  C1  PXY d   1      -0.600  -2.841   3.167  0.00  0.00    -0.082 A 
ATOM      4  C2  PXY d   1      -0.659  -1.567   2.812  0.00  0.00     0.003 A 
ATOM      5  C3  PXY d   1       0.126  -1.094   1.792  0.00  0.00     0.003 A 
ATOM      6  C4  PXY d   1       1.018  -1.921   1.164  0.00  0.00    -0.082 A 
ATOM      7  C5  PXY d   1       1.092  -3.219   1.527  0.00  0.00     0.003 A 
ATOM      8  C6  PXY d   1       0.257  -3.689   2.537  0.00  0.00     0.003 A 
ENDROOT
TORSDOF 0
ENDMDL
