MODEL 1
REMARK minimizedAffinity 5.9958396
REMARK minimizedRMSD -1
REMARK  0 active torsions:
REMARK  status: ('A' for Active; 'I' for Inactive)
ROOT
ATOM      1  C4' PXY d   1      -5.999   1.534  -4.025  0.00  0.00     0.077 C 
ATOM      2  C1' PXY d   1      -0.924   2.983  -1.668  0.00  0.00     0.077 C 
ATOM      3  C1  PXY d   1      -2.251   2.590  -2.287  0.00  0.00    -0.082 A 
ATOM      4  C2  PXY d   1      -2.985   3.507  -2.896  0.00  0.00     0.003 A 
ATOM      5  C3  PXY d   1      -4.202   3.176  -3.433  0.00  0.00     0.003 A 
ATOM      6  C4  PXY d   1      -4.649   1.883  -3.394  0.00  0.00    -0.082 A 
ATOM      7  C5  PXY d   1      -3.900   0.939  -2.784  0.00  0.00     0.003 A 
ATOM      8  C6  PXY d   1      -2.686   1.304  -2.208  0.00  0.00     0.003 A 
ENDROOT
TORSDOF 0
ENDMDL
