MODEL 1
REMARK minimizedAffinity -0.988239288
REMARK minimizedRMSD -1
REMARK  0 active torsions:
REMARK  status: ('A' for Active; 'I' for Inactive)
ROOT
ATOM      1  C4' PXY d   1       2.463  -3.848   1.459  0.00  0.00     0.077 C 
ATOM      2  C1' PXY d   1      -1.499   0.344   1.842  0.00  0.00     0.077 C 
ATOM      3  C1  PXY d   1      -0.461  -0.756   1.729  0.00  0.00    -0.082 A 
ATOM      4  C2  PXY d   1      -0.199  -1.518   2.778  0.00  0.00     0.003 A 
ATOM      5  C3  PXY d   1       0.759  -2.496   2.703  0.00  0.00     0.003 A 
ATOM      6  C4  PXY d   1       1.417  -2.732   1.525  0.00  0.00    -0.082 A 
ATOM      7  C5  PXY d   1       1.147  -1.966   0.447  0.00  0.00     0.003 A 
ATOM      8  C6  PXY d   1       0.201  -0.951   0.557  0.00  0.00     0.003 A 
ENDROOT
TORSDOF 0
ENDMDL
