MODEL 1
REMARK minimizedAffinity 0.3908059
REMARK minimizedRMSD -1
REMARK  0 active torsions:
REMARK  status: ('A' for Active; 'I' for Inactive)
ROOT
ATOM      1  C4' PXY d   1       2.232  -3.943   1.491  0.00  0.00     0.077 C 
ATOM      2  C1' PXY d   1      -1.825   0.171   1.653  0.00  0.00     0.077 C 
ATOM      3  C1  PXY d   1      -0.761  -0.907   1.597  0.00  0.00    -0.082 A 
ATOM      4  C2  PXY d   1      -0.660  -1.778   2.588  0.00  0.00     0.003 A 
ATOM      5  C3  PXY d   1       0.318  -2.739   2.570  0.00  0.00     0.003 A 
ATOM      6  C4  PXY d   1       1.167  -2.843   1.500  0.00  0.00    -0.082 A 
ATOM      7  C5  PXY d   1       1.063  -1.965   0.480  0.00  0.00     0.003 A 
ATOM      8  C6  PXY d   1       0.090  -0.971   0.538  0.00  0.00     0.003 A 
ENDROOT
TORSDOF 0
ENDMDL
