MODEL 1
REMARK minimizedAffinity 1.93411863
REMARK minimizedRMSD -1
REMARK  0 active torsions:
REMARK  status: ('A' for Active; 'I' for Inactive)
ROOT
ATOM      1  C4' PXY d   1      -3.104   0.197   3.631  0.00  0.00     0.077 C 
ATOM      2  C1' PXY d   1       1.192  -1.298   0.065  0.00  0.00     0.077 C 
ATOM      3  C1  PXY d   1       0.068  -0.917   1.008  0.00  0.00    -0.082 A 
ATOM      4  C2  PXY d   1      -0.917  -0.148   0.573  0.00  0.00     0.003 A 
ATOM      5  C3  PXY d   1      -1.925   0.233   1.421  0.00  0.00     0.003 A 
ATOM      6  C4  PXY d   1      -1.953  -0.221   2.712  0.00  0.00    -0.082 A 
ATOM      7  C5  PXY d   1      -0.957  -1.015   3.160  0.00  0.00     0.003 A 
ATOM      8  C6  PXY d   1       0.078  -1.357   2.295  0.00  0.00     0.003 A 
ENDROOT
TORSDOF 0
ENDMDL
