MODEL 1
REMARK minimizedAffinity 13.6801529
REMARK minimizedRMSD -1
REMARK  0 active torsions:
REMARK  status: ('A' for Active; 'I' for Inactive)
ROOT
ATOM      1  C2' OXE d   1      -3.736   0.902   1.991  0.00  0.00     0.078 C 
ATOM      2  C1' OXE d   1      -3.682  -1.622   3.219  0.00  0.00     0.078 C 
ATOM      3  C1  OXE d   1      -4.519  -0.545   3.862  0.00  0.00    -0.078 A 
ATOM      4  C2  OXE d   1      -4.503   0.700   3.280  0.00  0.00    -0.078 A 
ATOM      5  C3  OXE d   1      -5.301   1.715   3.801  0.00  0.00     0.003 A 
ATOM      6  C4  OXE d   1      -5.999   1.523   4.999  0.00  0.00    -0.002 A 
ATOM      7  C5  OXE d   1      -5.998   0.274   5.630  0.00  0.00    -0.002 A 
ATOM      8  C6  OXE d   1      -5.299  -0.780   5.052  0.00  0.00     0.003 A 
ENDROOT
TORSDOF 0
ENDMDL
