MODEL 1
REMARK minimizedAffinity 12.7617092
REMARK minimizedRMSD -1
REMARK  0 active torsions:
REMARK  status: ('A' for Active; 'I' for Inactive)
ROOT
ATOM      1  C2' OXE d   1      -1.599   2.862   2.217  0.00  0.00     0.078 C 
ATOM      2  C1' OXE d   1       1.190   2.606   2.026  0.00  0.00     0.078 C 
ATOM      3  C1  OXE d   1       0.502   3.545   1.066  0.00  0.00    -0.078 A 
ATOM      4  C2  OXE d   1      -0.867   3.628   1.136  0.00  0.00    -0.078 A 
ATOM      5  C3  OXE d   1      -1.547   4.519   0.311  0.00  0.00     0.003 A 
ATOM      6  C4  OXE d   1      -0.864   5.217  -0.693  0.00  0.00    -0.002 A 
ATOM      7  C5  OXE d   1       0.526   5.116  -0.808  0.00  0.00    -0.002 A 
ATOM      8  C6  OXE d   1       1.228   4.319   0.090  0.00  0.00     0.003 A 
ENDROOT
TORSDOF 0
ENDMDL
