MODEL 1
REMARK minimizedAffinity 9.33082581
REMARK minimizedRMSD -1
REMARK  0 active torsions:
REMARK  status: ('A' for Active; 'I' for Inactive)
ROOT
ATOM      1  C2' OXE d   1       4.504  -3.367  -4.187  0.00  0.00     0.078 C 
ATOM      2  C1' OXE d   1       2.379  -5.147  -3.745  0.00  0.00     0.078 C 
ATOM      3  C1  OXE d   1       3.514  -5.146  -2.752  0.00  0.00    -0.078 A 
ATOM      4  C2  OXE d   1       4.572  -4.305  -3.001  0.00  0.00    -0.078 A 
ATOM      5  C3  OXE d   1       5.619  -4.226  -2.088  0.00  0.00     0.003 A 
ATOM      6  C4  OXE d   1       5.679  -5.104  -0.999  0.00  0.00    -0.002 A 
ATOM      7  C5  OXE d   1       4.631  -5.996  -0.748  0.00  0.00    -0.002 A 
ATOM      8  C6  OXE d   1       3.523  -6.000  -1.589  0.00  0.00     0.003 A 
ENDROOT
TORSDOF 0
ENDMDL
