MODEL 1
REMARK minimizedAffinity 13.4120979
REMARK minimizedRMSD -1
REMARK  0 active torsions:
REMARK  status: ('A' for Active; 'I' for Inactive)
ROOT
ATOM      1  C2' OXE d   1       0.748   3.004   1.826  0.00  0.00     0.078 C 
ATOM      2  C1' OXE d   1      -1.206   2.065   3.611  0.00  0.00     0.078 C 
ATOM      3  C1  OXE d   1       0.038   1.232   3.426  0.00  0.00    -0.078 A 
ATOM      4  C2  OXE d   1       0.967   1.675   2.517  0.00  0.00    -0.078 A 
ATOM      5  C3  OXE d   1       2.157   0.973   2.349  0.00  0.00     0.003 A 
ATOM      6  C4  OXE d   1       2.348  -0.260   2.983  0.00  0.00    -0.002 A 
ATOM      7  C5  OXE d   1       1.397  -0.750   3.884  0.00  0.00    -0.002 A 
ATOM      8  C6  OXE d   1       0.258   0.003   4.148  0.00  0.00     0.003 A 
ENDROOT
TORSDOF 0
ENDMDL
