MODEL 1
REMARK minimizedAffinity 7.21868801
REMARK minimizedRMSD -1
REMARK  0 active torsions:
REMARK  status: ('A' for Active; 'I' for Inactive)
ROOT
ATOM      1  C2' OXE d   1       0.754   3.000   2.439  0.00  0.00     0.078 C 
ATOM      2  C1' OXE d   1      -0.208   1.765   0.109  0.00  0.00     0.078 C 
ATOM      3  C1  OXE d   1       0.047   3.251   0.064  0.00  0.00    -0.078 A 
ATOM      4  C2  OXE d   1       0.474   3.855   1.222  0.00  0.00    -0.078 A 
ATOM      5  C3  OXE d   1       0.776   5.213   1.220  0.00  0.00     0.003 A 
ATOM      6  C4  OXE d   1       0.505   5.999   0.094  0.00  0.00    -0.002 A 
ATOM      7  C5  OXE d   1       0.032   5.411  -1.084  0.00  0.00    -0.002 A 
ATOM      8  C6  OXE d   1      -0.161   4.034  -1.129  0.00  0.00     0.003 A 
ENDROOT
TORSDOF 0
ENDMDL
