MODEL 1
REMARK minimizedAffinity -0.00318873837
REMARK minimizedRMSD -1
REMARK  0 active torsions:
REMARK  status: ('A' for Active; 'I' for Inactive)
ROOT
ATOM      1  C2' OXE d   1      -0.892   3.405   2.812  0.00  0.00     0.078 C 
ATOM      2  C1' OXE d   1      -1.870   6.000   2.375  0.00  0.00     0.078 C 
ATOM      3  C1  OXE d   1      -1.084   5.348   1.265  0.00  0.00    -0.078 A 
ATOM      4  C2  OXE d   1      -0.570   4.097   1.505  0.00  0.00    -0.078 A 
ATOM      5  C3  OXE d   1       0.116   3.429   0.495  0.00  0.00     0.003 A 
ATOM      6  C4  OXE d   1       0.419   4.080  -0.707  0.00  0.00    -0.002 A 
ATOM      7  C5  OXE d   1      -0.062   5.369  -0.957  0.00  0.00    -0.002 A 
ATOM      8  C6  OXE d   1      -0.849   6.000   0.000  0.00  0.00     0.003 A 
ENDROOT
TORSDOF 0
ENDMDL
