MODEL 1
REMARK minimizedAffinity 5.34606266
REMARK minimizedRMSD -1
REMARK  0 active torsions:
REMARK  status: ('A' for Active; 'I' for Inactive)
ROOT
ATOM      1  C2' OXE d   1       1.012   1.963   3.733  0.00  0.00     0.078 C 
ATOM      2  C1' OXE d   1       3.168   3.689   3.231  0.00  0.00     0.078 C 
ATOM      3  C1  OXE d   1       2.028   3.681   2.243  0.00  0.00    -0.078 A 
ATOM      4  C2  OXE d   1       0.999   2.800   2.472  0.00  0.00    -0.078 A 
ATOM      5  C3  OXE d   1      -0.102   2.790   1.621  0.00  0.00     0.003 A 
ATOM      6  C4  OXE d   1      -0.101   3.560   0.451  0.00  0.00    -0.002 A 
ATOM      7  C5  OXE d   1       0.955   4.435   0.178  0.00  0.00    -0.002 A 
ATOM      8  C6  OXE d   1       2.005   4.539   1.084  0.00  0.00     0.003 A 
ENDROOT
TORSDOF 0
ENDMDL
