MODEL 1
REMARK minimizedAffinity 6.26916313
REMARK minimizedRMSD -1
REMARK  0 active torsions:
REMARK  status: ('A' for Active; 'I' for Inactive)
ROOT
ATOM      1  C2' OXE d   1      -3.692   1.170   1.036  0.00  0.00     0.078 C 
ATOM      2  C1' OXE d   1      -2.753   2.215  -1.394  0.00  0.00     0.078 C 
ATOM      3  C1  OXE d   1      -1.863   2.342  -0.184  0.00  0.00    -0.078 A 
ATOM      4  C2  OXE d   1      -2.350   1.870   1.011  0.00  0.00    -0.078 A 
ATOM      5  C3  OXE d   1      -1.547   1.912   2.148  0.00  0.00     0.003 A 
ATOM      6  C4  OXE d   1      -0.312   2.570   2.119  0.00  0.00    -0.002 A 
ATOM      7  C5  OXE d   1       0.186   3.093   0.920  0.00  0.00    -0.002 A 
ATOM      8  C6  OXE d   1      -0.557   2.950  -0.246  0.00  0.00     0.003 A 
ENDROOT
TORSDOF 0
ENDMDL
