MODEL 1
REMARK minimizedAffinity 3.60965204
REMARK minimizedRMSD -1
REMARK  0 active torsions:
REMARK  status: ('A' for Active; 'I' for Inactive)
ROOT
ATOM      1  C2' OXE d   1      -5.174   1.139  -3.169  0.00  0.00     0.078 C 
ATOM      2  C1' OXE d   1      -5.263   1.110  -5.974  0.00  0.00     0.078 C 
ATOM      3  C1  OXE d   1      -5.494   2.427  -5.277  0.00  0.00    -0.078 A 
ATOM      4  C2  OXE d   1      -5.495   2.423  -3.903  0.00  0.00    -0.078 A 
ATOM      5  C3  OXE d   1      -5.648   3.621  -3.210  0.00  0.00     0.003 A 
ATOM      6  C4  OXE d   1      -5.953   4.802  -3.896  0.00  0.00    -0.002 A 
ATOM      7  C5  OXE d   1      -5.996   4.820  -5.295  0.00  0.00    -0.002 A 
ATOM      8  C6  OXE d   1      -5.727   3.653  -6.000  0.00  0.00     0.003 A 
ENDROOT
TORSDOF 0
ENDMDL
