MODEL 1
REMARK minimizedAffinity 8.07229805
REMARK minimizedRMSD -1
REMARK  0 active torsions:
REMARK  status: ('A' for Active; 'I' for Inactive)
ROOT
ATOM      1  C2' OXE d   1      -2.507   0.359   1.943  0.00  0.00     0.078 C 
ATOM      2  C1' OXE d   1      -2.197  -1.899   3.582  0.00  0.00     0.078 C 
ATOM      3  C1  OXE d   1      -3.550  -1.233   3.551  0.00  0.00    -0.078 A 
ATOM      4  C2  OXE d   1      -3.680  -0.101   2.782  0.00  0.00    -0.078 A 
ATOM      5  C3  OXE d   1      -4.920   0.520   2.674  0.00  0.00     0.003 A 
ATOM      6  C4  OXE d   1      -5.997   0.095   3.461  0.00  0.00    -0.002 A 
ATOM      7  C5  OXE d   1      -5.876  -1.032   4.281  0.00  0.00    -0.002 A 
ATOM      8  C6  OXE d   1      -4.674  -1.731   4.305  0.00  0.00     0.003 A 
ENDROOT
TORSDOF 0
ENDMDL
