MODEL 1
REMARK minimizedAffinity 0.061196249
REMARK minimizedRMSD -1
REMARK  2 active torsions:
REMARK  status: ('A' for Active; 'I' for Inactive)
REMARK    1  A    between atoms: C1_2  and  C2_3 
REMARK    2  A    between atoms: C2_3  and  C3_4 
ROOT
ATOM      1  C3  UNL d   1       2.028  -0.175   2.553  0.00  0.00    -0.075 A 
ATOM      2  C4  UNL d   1       2.507  -0.386   3.855  0.00  0.00     0.002 A 
ATOM      3  C5  UNL d   1       2.125  -1.518   4.575  0.00  0.00     0.002 A 
ATOM      4  C6  UNL d   1       1.254  -2.447   4.008  0.00  0.00    -0.004 A 
ATOM      5  C7  UNL d   1       0.760  -2.239   2.722  0.00  0.00     0.002 A 
ATOM      6  C8  UNL d   1       1.144  -1.109   1.998  0.00  0.00     0.002 A 
ENDROOT
BRANCH   1   7
ATOM      7  C2  UNL d   1       2.461   1.034   1.758  0.00  0.00     0.056 C 
BRANCH   7   8
ATOM      8  C1  UNL d   1       1.861   1.101   0.349  0.00  0.00     0.007 C 
ATOM      9  C   UNL d   1       0.719   2.101   0.230  0.00  0.00     0.009 C 
ENDBRANCH   7   8
ENDBRANCH   1   7
TORSDOF 2
ENDMDL
