MODEL 1
REMARK minimizedAffinity 2.16169453
REMARK minimizedRMSD -1
REMARK  2 active torsions:
REMARK  status: ('A' for Active; 'I' for Inactive)
REMARK    1  A    between atoms: C1_2  and  C2_3 
REMARK    2  A    between atoms: C2_3  and  C3_4 
ROOT
ATOM      1  C3  UNL d   1       0.912  -0.238   1.390  0.00  0.00    -0.075 A 
ATOM      2  C4  UNL d   1      -0.199   0.267   0.699  0.00  0.00     0.002 A 
ATOM      3  C5  UNL d   1      -0.111   1.469  -0.003  0.00  0.00     0.002 A 
ATOM      4  C6  UNL d   1       1.084   2.185  -0.016  0.00  0.00    -0.004 A 
ATOM      5  C7  UNL d   1       2.190   1.702   0.680  0.00  0.00     0.002 A 
ATOM      6  C8  UNL d   1       2.105   0.497   1.381  0.00  0.00     0.002 A 
ENDROOT
BRANCH   1   7
ATOM      7  C2  UNL d   1       0.831  -1.553   2.128  0.00  0.00     0.056 C 
BRANCH   7   8
ATOM      8  C1  UNL d   1       1.652  -1.593   3.422  0.00  0.00     0.007 C 
ATOM      9  C   UNL d   1       1.483  -2.892   4.199  0.00  0.00     0.009 C 
ENDBRANCH   7   8
ENDBRANCH   1   7
TORSDOF 2
ENDMDL
