MODEL 1
REMARK minimizedAffinity 0.93813014
REMARK minimizedRMSD -1
REMARK  0 active torsions:
REMARK  status: ('A' for Active; 'I' for Inactive)
ROOT
ATOM      1  C4' PXY d   1      -0.272  -1.037   1.198  0.00  0.00     0.077 C 
ATOM      2  C1' PXY d   1       1.191   4.534   0.707  0.00  0.00     0.077 C 
ATOM      3  C1  PXY d   1       0.815   3.071   0.846  0.00  0.00    -0.082 A 
ATOM      4  C2  PXY d   1       0.368   2.408  -0.207  0.00  0.00     0.003 A 
ATOM      5  C3  PXY d   1      -0.007   1.094  -0.092  0.00  0.00     0.003 A 
ATOM      6  C4  PXY d   1       0.128   0.438   1.102  0.00  0.00    -0.082 A 
ATOM      7  C5  PXY d   1       0.594   1.105   2.179  0.00  0.00     0.003 A 
ATOM      8  C6  PXY d   1       0.930   2.449   2.051  0.00  0.00     0.003 A 
ENDROOT
TORSDOF 0
ENDMDL
