MODEL 1
REMARK minimizedAffinity 4.78458738
REMARK minimizedRMSD -1
REMARK  0 active torsions:
REMARK  status: ('A' for Active; 'I' for Inactive)
ROOT
ATOM      1  C4' PXY d   1      -0.219   2.228   2.416  0.00  0.00     0.077 C 
ATOM      2  C1' PXY d   1      -0.518   1.738  -3.336  0.00  0.00     0.077 C 
ATOM      3  C1  PXY d   1      -0.439   1.879  -1.829  0.00  0.00    -0.082 A 
ATOM      4  C2  PXY d   1      -0.043   0.852  -1.095  0.00  0.00     0.003 A 
ATOM      5  C3  PXY d   1       0.004   0.952   0.271  0.00  0.00     0.003 A 
ATOM      6  C4  PXY d   1      -0.306   2.134   0.890  0.00  0.00    -0.082 A 
ATOM      7  C5  PXY d   1      -0.700   3.190   0.148  0.00  0.00     0.003 A 
ATOM      8  C6  PXY d   1      -0.781   3.055  -1.235  0.00  0.00     0.003 A 
ENDROOT
TORSDOF 0
ENDMDL
