MODEL 1
REMARK minimizedAffinity 2.32443166
REMARK minimizedRMSD -1
REMARK  0 active torsions:
REMARK  status: ('A' for Active; 'I' for Inactive)
ROOT
ATOM      1  C4' PXY d   1      -0.483  -1.063  -2.804  0.00  0.00     0.077 C 
ATOM      2  C1' PXY d   1       1.496   1.877   1.762  0.00  0.00     0.077 C 
ATOM      3  C1  PXY d   1       0.965   1.108   0.569  0.00  0.00    -0.082 A 
ATOM      4  C2  PXY d   1       1.735   0.213  -0.029  0.00  0.00     0.003 A 
ATOM      5  C3  PXY d   1       1.282  -0.468  -1.129  0.00  0.00     0.003 A 
ATOM      6  C4  PXY d   1       0.008  -0.270  -1.590  0.00  0.00    -0.082 A 
ATOM      7  C5  PXY d   1      -0.788   0.633  -0.980  0.00  0.00     0.003 A 
ATOM      8  C6  PXY d   1      -0.294   1.344   0.110  0.00  0.00     0.003 A 
ENDROOT
TORSDOF 0
ENDMDL
