MODEL 1
REMARK minimizedAffinity 1.70913994
REMARK minimizedRMSD -1
REMARK  0 active torsions:
REMARK  status: ('A' for Active; 'I' for Inactive)
ROOT
ATOM      1  C4' PXY d   1       0.410   0.014   3.188  0.00  0.00     0.077 C 
ATOM      2  C1' PXY d   1      -1.067   4.155  -0.566  0.00  0.00     0.077 C 
ATOM      3  C1  PXY d   1      -0.682   3.060   0.410  0.00  0.00    -0.082 A 
ATOM      4  C2  PXY d   1      -0.771   3.282   1.711  0.00  0.00     0.003 A 
ATOM      5  C3  PXY d   1      -0.396   2.314   2.607  0.00  0.00     0.003 A 
ATOM      6  C4  PXY d   1       0.023   1.088   2.167  0.00  0.00    -0.082 A 
ATOM      7  C5  PXY d   1       0.106   0.849   0.841  0.00  0.00     0.003 A 
ATOM      8  C6  PXY d   1      -0.240   1.859  -0.053  0.00  0.00     0.003 A 
ENDROOT
TORSDOF 0
ENDMDL
