MODEL 1
REMARK minimizedAffinity 5.69295263
REMARK minimizedRMSD -1
REMARK  0 active torsions:
REMARK  status: ('A' for Active; 'I' for Inactive)
ROOT
ATOM      1  C4' PXY d   1      -2.369   5.454   0.378  0.00  0.00     0.077 C 
ATOM      2  C1' PXY d   1       0.322   0.666  -1.424  0.00  0.00     0.077 C 
ATOM      3  C1  PXY d   1      -0.377   1.929  -0.961  0.00  0.00    -0.082 A 
ATOM      4  C2  PXY d   1      -0.880   1.986   0.262  0.00  0.00     0.003 A 
ATOM      5  C3  PXY d   1      -1.544   3.109   0.687  0.00  0.00     0.003 A 
ATOM      6  C4  PXY d   1      -1.647   4.203  -0.130  0.00  0.00    -0.082 A 
ATOM      7  C5  PXY d   1      -1.127   4.156  -1.375  0.00  0.00     0.003 A 
ATOM      8  C6  PXY d   1      -0.493   2.992  -1.801  0.00  0.00     0.003 A 
ENDROOT
TORSDOF 0
ENDMDL
