MODEL 1
REMARK minimizedAffinity 1.9366188
REMARK minimizedRMSD -1
REMARK  0 active torsions:
REMARK  status: ('A' for Active; 'I' for Inactive)
ROOT
ATOM      1  C4' PXY d   1      -2.094   3.257  -0.120  0.00  0.00     0.077 C 
ATOM      2  C1' PXY d   1       2.496   3.695   3.365  0.00  0.00     0.077 C 
ATOM      3  C1  PXY d   1       1.296   3.591   2.445  0.00  0.00    -0.082 A 
ATOM      4  C2  PXY d   1       0.226   2.920   2.839  0.00  0.00     0.003 A 
ATOM      5  C3  PXY d   1      -0.856   2.789   2.007  0.00  0.00     0.003 A 
ATOM      6  C4  PXY d   1      -0.863   3.396   0.780  0.00  0.00    -0.082 A 
ATOM      7  C5  PXY d   1       0.221   4.091   0.375  0.00  0.00     0.003 A 
ATOM      8  C6  PXY d   1       1.325   4.178   1.218  0.00  0.00     0.003 A 
ENDROOT
TORSDOF 0
ENDMDL
