MODEL 1
REMARK minimizedAffinity 2.93266201
REMARK minimizedRMSD -1
REMARK  0 active torsions:
REMARK  status: ('A' for Active; 'I' for Inactive)
ROOT
ATOM      1  C4' PXY d   1       2.360  -1.858  -1.224  0.00  0.00     0.077 C 
ATOM      2  C1' PXY d   1      -0.671   1.494   2.381  0.00  0.00     0.077 C 
ATOM      3  C1  PXY d   1       0.114   0.615   1.427  0.00  0.00    -0.082 A 
ATOM      4  C2  PXY d   1       1.040  -0.202   1.902  0.00  0.00     0.003 A 
ATOM      5  C3  PXY d   1       1.782  -0.980   1.050  0.00  0.00     0.003 A 
ATOM      6  C4  PXY d   1       1.536  -0.960  -0.297  0.00  0.00    -0.082 A 
ATOM      7  C5  PXY d   1       0.586  -0.137  -0.788  0.00  0.00     0.003 A 
ATOM      8  C6  PXY d   1      -0.127   0.675   0.090  0.00  0.00     0.003 A 
ENDROOT
TORSDOF 0
ENDMDL
