MODEL 1
REMARK minimizedAffinity 5.69019079
REMARK minimizedRMSD -1
REMARK  0 active torsions:
REMARK  status: ('A' for Active; 'I' for Inactive)
ROOT
ATOM      1  C4' PXY d   1       2.426  -1.743  -0.467  0.00  0.00     0.077 C 
ATOM      2  C1' PXY d   1      -0.633   1.522   3.193  0.00  0.00     0.077 C 
ATOM      3  C1  PXY d   1       0.179   0.664   2.242  0.00  0.00    -0.082 A 
ATOM      4  C2  PXY d   1       0.026   0.811   0.936  0.00  0.00     0.003 A 
ATOM      5  C3  PXY d   1       0.728   0.022   0.063  0.00  0.00     0.003 A 
ATOM      6  C4  PXY d   1       1.635  -0.892   0.530  0.00  0.00    -0.082 A 
ATOM      7  C5  PXY d   1       1.804  -1.041   1.861  0.00  0.00     0.003 A 
ATOM      8  C6  PXY d   1       1.052  -0.258   2.732  0.00  0.00     0.003 A 
ENDROOT
TORSDOF 0
ENDMDL
