MODEL 1
REMARK minimizedAffinity 7.85176229
REMARK minimizedRMSD -1
REMARK  1 active torsions:
REMARK  status: ('A' for Active; 'I' for Inactive)
REMARK    1  A    between atoms: C1_2  and  C2_3 
ROOT
ATOM      1  C2  UNL d   1      -4.903  -4.630  -0.412  0.00  0.00    -0.076 A 
ATOM      2  C3  UNL d   1      -6.000  -3.761  -0.545  0.00  0.00     0.004 A 
ATOM      3  C4  UNL d   1      -5.989  -2.497   0.041  0.00  0.00    -0.003 A 
ATOM      4  C5  UNL d   1      -4.881  -2.080   0.770  0.00  0.00     0.000 A 
ATOM      5  C6  UNL d   1      -3.777  -2.922   0.898  0.00  0.00     0.000 A 
ATOM      6  C7  UNL d   1      -3.765  -4.194   0.299  0.00  0.00    -0.073 A 
ATOM      7  C8  UNL d   1      -2.549  -5.063   0.474  0.00  0.00     0.078 C 
ENDROOT
BRANCH   1   8
ATOM      8  C1  UNL d   1      -4.982  -6.000  -1.047  0.00  0.00     0.053 C 
ATOM      9  C   UNL d   1      -4.618  -5.979  -2.524  0.00  0.00     0.018 C 
ENDBRANCH   1   8
TORSDOF 1
ENDMDL
