MODEL 1
REMARK minimizedAffinity 12.183486
REMARK minimizedRMSD -1
REMARK  1 active torsions:
REMARK  status: ('A' for Active; 'I' for Inactive)
REMARK    1  A    between atoms: C1_2  and  C2_3 
ROOT
ATOM      1  C2  UNL d   1      -1.019   1.129   2.099  0.00  0.00    -0.076 A 
ATOM      2  C3  UNL d   1      -1.910   2.156   1.743  0.00  0.00     0.004 A 
ATOM      3  C4  UNL d   1      -3.180   1.865   1.248  0.00  0.00    -0.003 A 
ATOM      4  C5  UNL d   1      -3.581   0.541   1.103  0.00  0.00     0.000 A 
ATOM      5  C6  UNL d   1      -2.717  -0.490   1.468  0.00  0.00     0.000 A 
ATOM      6  C7  UNL d   1      -1.439  -0.214   1.984  0.00  0.00    -0.073 A 
ATOM      7  C8  UNL d   1      -0.546  -1.366   2.356  0.00  0.00     0.078 C 
ENDROOT
BRANCH   1   8
ATOM      8  C1  UNL d   1       0.355   1.505   2.605  0.00  0.00     0.053 C 
ATOM      9  C   UNL d   1       0.469   2.984   2.937  0.00  0.00     0.018 C 
ENDBRANCH   1   8
TORSDOF 1
ENDMDL
