MODEL 1
REMARK minimizedAffinity 16.8440838
REMARK minimizedRMSD -1
REMARK  1 active torsions:
REMARK  status: ('A' for Active; 'I' for Inactive)
REMARK    1  A    between atoms: C1_2  and  C2_3 
ROOT
ATOM      1  C2  UNL d   1      -3.898  -0.458   1.052  0.00  0.00    -0.076 A 
ATOM      2  C3  UNL d   1      -3.131  -1.085   2.049  0.00  0.00     0.004 A 
ATOM      3  C4  UNL d   1      -2.001  -0.465   2.581  0.00  0.00    -0.003 A 
ATOM      4  C5  UNL d   1      -1.620   0.792   2.125  0.00  0.00     0.000 A 
ATOM      5  C6  UNL d   1      -2.380   1.436   1.148  0.00  0.00     0.000 A 
ATOM      6  C7  UNL d   1      -3.530   0.832   0.613  0.00  0.00    -0.073 A 
ATOM      7  C8  UNL d   1      -4.308   1.570  -0.442  0.00  0.00     0.078 C 
ENDROOT
BRANCH   1   8
ATOM      8  C1  UNL d   1      -5.097  -1.190   0.493  0.00  0.00     0.053 C 
ATOM      9  C   UNL d   1      -5.050  -2.684   0.773  0.00  0.00     0.018 C 
ENDBRANCH   1   8
TORSDOF 1
ENDMDL
