MODEL 1
REMARK minimizedAffinity 15.6280079
REMARK minimizedRMSD -1
REMARK  1 active torsions:
REMARK  status: ('A' for Active; 'I' for Inactive)
REMARK    1  A    between atoms: C1_2  and  C2_3 
ROOT
ATOM      1  C2  UNL d   1      -5.222  -3.573  -0.050  0.00  0.00    -0.076 A 
ATOM      2  C3  UNL d   1      -4.787  -3.591  -1.386  0.00  0.00     0.004 A 
ATOM      3  C4  UNL d   1      -4.613  -4.794  -2.068  0.00  0.00    -0.003 A 
ATOM      4  C5  UNL d   1      -4.873  -5.999  -1.425  0.00  0.00     0.000 A 
ATOM      5  C6  UNL d   1      -5.323  -6.000  -0.105  0.00  0.00     0.000 A 
ATOM      6  C7  UNL d   1      -5.519  -4.795   0.592  0.00  0.00    -0.073 A 
ATOM      7  C8  UNL d   1      -6.000  -4.854   2.016  0.00  0.00     0.078 C 
ENDROOT
BRANCH   1   8
ATOM      8  C1  UNL d   1      -5.366  -2.239   0.647  0.00  0.00     0.053 C 
ATOM      9  C   UNL d   1      -4.240  -1.277   0.302  0.00  0.00     0.018 C 
ENDBRANCH   1   8
TORSDOF 1
ENDMDL
