MODEL 1
REMARK minimizedAffinity -1.37126696
REMARK minimizedRMSD -1
REMARK  1 active torsions:
REMARK  status: ('A' for Active; 'I' for Inactive)
REMARK    1  A    between atoms: C1_2  and  C2_3 
ROOT
ATOM      1  C2  UNL d   1      -0.248  -1.596  -2.313  0.00  0.00    -0.076 A 
ATOM      2  C3  UNL d   1       0.399  -2.489  -3.184  0.00  0.00     0.004 A 
ATOM      3  C4  UNL d   1       1.733  -2.301  -3.542  0.00  0.00    -0.003 A 
ATOM      4  C5  UNL d   1       2.441  -1.217  -3.035  0.00  0.00     0.000 A 
ATOM      5  C6  UNL d   1       1.820  -0.331  -2.156  0.00  0.00     0.000 A 
ATOM      6  C7  UNL d   1       0.480  -0.515  -1.772  0.00  0.00    -0.073 A 
ATOM      7  C8  UNL d   1      -0.141   0.475  -0.825  0.00  0.00     0.078 C 
ENDROOT
BRANCH   1   8
ATOM      8  C1  UNL d   1      -1.704  -1.835  -1.981  0.00  0.00     0.053 C 
ATOM      9  C   UNL d   1      -1.975  -3.267  -1.548  0.00  0.00     0.018 C 
ENDBRANCH   1   8
TORSDOF 1
ENDMDL
