MODEL 1
REMARK minimizedAffinity -3.49967456
REMARK minimizedRMSD -1
REMARK  1 active torsions:
REMARK  status: ('A' for Active; 'I' for Inactive)
REMARK    1  A    between atoms: C1_2  and  C2_3 
ROOT
ATOM      1  C2  UNL d   1      -0.625  -0.391  -1.651  0.00  0.00    -0.076 A 
ATOM      2  C3  UNL d   1      -1.844  -0.009  -1.063  0.00  0.00     0.004 A 
ATOM      3  C4  UNL d   1      -3.030  -0.672  -1.377  0.00  0.00    -0.003 A 
ATOM      4  C5  UNL d   1      -3.016  -1.727  -2.282  0.00  0.00     0.000 A 
ATOM      5  C6  UNL d   1      -1.813  -2.130  -2.861  0.00  0.00     0.000 A 
ATOM      6  C7  UNL d   1      -0.606  -1.484  -2.543  0.00  0.00    -0.073 A 
ATOM      7  C8  UNL d   1       0.661  -1.957  -3.202  0.00  0.00     0.078 C 
ENDROOT
BRANCH   1   8
ATOM      8  C1  UNL d   1       0.625   0.382  -1.293  0.00  0.00     0.053 C 
ATOM      9  C   UNL d   1       0.945   0.317   0.192  0.00  0.00     0.018 C 
ENDBRANCH   1   8
TORSDOF 1
ENDMDL
