MODEL 1
REMARK minimizedAffinity -5.5065918
REMARK minimizedRMSD -1
REMARK  1 active torsions:
REMARK  status: ('A' for Active; 'I' for Inactive)
REMARK    1  A    between atoms: C1_2  and  C2_3 
ROOT
ATOM      1  C2  UNL d   1      -1.165  -1.512  -2.735  0.00  0.00    -0.076 A 
ATOM      2  C3  UNL d   1      -1.979  -0.625  -2.008  0.00  0.00     0.004 A 
ATOM      3  C4  UNL d   1      -1.457   0.549  -1.469  0.00  0.00    -0.003 A 
ATOM      4  C5  UNL d   1      -0.112   0.856  -1.648  0.00  0.00     0.000 A 
ATOM      5  C6  UNL d   1       0.705  -0.003  -2.382  0.00  0.00     0.000 A 
ATOM      6  C7  UNL d   1       0.191  -1.183  -2.946  0.00  0.00    -0.073 A 
ATOM      7  C8  UNL d   1       1.119  -2.076  -3.722  0.00  0.00     0.078 C 
ENDROOT
BRANCH   1   8
ATOM      8  C1  UNL d   1      -1.781  -2.784  -3.273  0.00  0.00     0.053 C 
ATOM      9  C   UNL d   1      -1.687  -3.939  -2.288  0.00  0.00     0.018 C 
ENDBRANCH   1   8
TORSDOF 1
ENDMDL
