MODEL 1
REMARK minimizedAffinity -5.0533762
REMARK minimizedRMSD -1
REMARK  1 active torsions:
REMARK  status: ('A' for Active; 'I' for Inactive)
REMARK    1  A    between atoms: C1_2  and  C2_3 
ROOT
ATOM      1  C2  UNL d   1      -0.776  -0.308  -0.617  0.00  0.00    -0.076 A 
ATOM      2  C3  UNL d   1      -1.169  -0.453   0.725  0.00  0.00     0.004 A 
ATOM      3  C4  UNL d   1      -0.309  -0.109   1.766  0.00  0.00    -0.003 A 
ATOM      4  C5  UNL d   1       0.958   0.388   1.482  0.00  0.00     0.000 A 
ATOM      5  C6  UNL d   1       1.359   0.555   0.157  0.00  0.00     0.000 A 
ATOM      6  C7  UNL d   1       0.497   0.228  -0.905  0.00  0.00    -0.073 A 
ATOM      7  C8  UNL d   1       0.983   0.423  -2.315  0.00  0.00     0.078 C 
ENDROOT
BRANCH   1   8
ATOM      8  C1  UNL d   1      -1.741  -0.724  -1.704  0.00  0.00     0.053 C 
ATOM      9  C   UNL d   1      -1.603  -2.192  -2.075  0.00  0.00     0.018 C 
ENDBRANCH   1   8
TORSDOF 1
ENDMDL
