MODEL 1
REMARK minimizedAffinity -4.59722137
REMARK minimizedRMSD -1
REMARK  1 active torsions:
REMARK  status: ('A' for Active; 'I' for Inactive)
REMARK    1  A    between atoms: C1_2  and  C2_3 
ROOT
ATOM      1  C2  UNL d   1      -1.376  -2.332  -2.666  0.00  0.00    -0.076 A 
ATOM      2  C3  UNL d   1      -2.545  -2.290  -1.887  0.00  0.00     0.004 A 
ATOM      3  C4  UNL d   1      -2.891  -1.144  -1.174  0.00  0.00    -0.003 A 
ATOM      4  C5  UNL d   1      -2.074  -0.020  -1.229  0.00  0.00     0.000 A 
ATOM      5  C6  UNL d   1      -0.919  -0.038  -2.011  0.00  0.00     0.000 A 
ATOM      6  C7  UNL d   1      -0.564  -1.181  -2.749  0.00  0.00    -0.073 A 
ATOM      7  C8  UNL d   1       0.695  -1.147  -3.570  0.00  0.00     0.078 C 
ENDROOT
BRANCH   1   8
ATOM      8  C1  UNL d   1      -1.038  -3.613  -3.396  0.00  0.00     0.053 C 
ATOM      9  C   UNL d   1      -1.823  -4.806  -2.874  0.00  0.00     0.018 C 
ENDBRANCH   1   8
TORSDOF 1
ENDMDL
