MODEL 1
REMARK minimizedAffinity -6.09488678
REMARK minimizedRMSD -1
REMARK  1 active torsions:
REMARK  status: ('A' for Active; 'I' for Inactive)
REMARK    1  A    between atoms: C1_2  and  C2_3 
ROOT
ATOM      1  C2  UNL d   1      -1.437   0.108  -0.255  0.00  0.00    -0.076 A 
ATOM      2  C3  UNL d   1      -1.998  -0.159   1.005  0.00  0.00     0.004 A 
ATOM      3  C4  UNL d   1      -1.212  -0.156   2.156  0.00  0.00    -0.003 A 
ATOM      4  C5  UNL d   1       0.148   0.117   2.066  0.00  0.00     0.000 A 
ATOM      5  C6  UNL d   1       0.719   0.402   0.826  0.00  0.00     0.000 A 
ATOM      6  C7  UNL d   1      -0.062   0.418  -0.342  0.00  0.00    -0.073 A 
ATOM      7  C8  UNL d   1       0.606   0.727  -1.654  0.00  0.00     0.078 C 
ENDROOT
BRANCH   1   8
ATOM      8  C1  UNL d   1      -2.333   0.063  -1.472  0.00  0.00     0.053 C 
ATOM      9  C   UNL d   1      -2.518  -1.348  -2.008  0.00  0.00     0.018 C 
ENDBRANCH   1   8
TORSDOF 1
ENDMDL
