MODEL 1
REMARK minimizedAffinity -3.52198553
REMARK minimizedRMSD -1
REMARK  1 active torsions:
REMARK  status: ('A' for Active; 'I' for Inactive)
REMARK    1  A    between atoms: C1_2  and  C2_3 
ROOT
ATOM      1  C2  UNL d   1      -1.247  -1.561  -2.200  0.00  0.00    -0.076 A 
ATOM      2  C3  UNL d   1      -0.085  -1.912  -2.908  0.00  0.00     0.004 A 
ATOM      3  C4  UNL d   1       1.085  -1.164  -2.785  0.00  0.00    -0.003 A 
ATOM      4  C5  UNL d   1       1.112  -0.052  -1.951  0.00  0.00     0.000 A 
ATOM      5  C6  UNL d   1      -0.027   0.301  -1.227  0.00  0.00     0.000 A 
ATOM      6  C7  UNL d   1      -1.209  -0.453  -1.327  0.00  0.00    -0.073 A 
ATOM      7  C8  UNL d   1      -2.409  -0.023  -0.528  0.00  0.00     0.078 C 
ENDROOT
BRANCH   1   8
ATOM      8  C1  UNL d   1      -2.493  -2.394  -2.394  0.00  0.00     0.053 C 
ATOM      9  C   UNL d   1      -2.256  -3.871  -2.119  0.00  0.00     0.018 C 
ENDBRANCH   1   8
TORSDOF 1
ENDMDL
