MODEL 1
REMARK minimizedAffinity -2.63353515
REMARK minimizedRMSD -1
REMARK  1 active torsions:
REMARK  status: ('A' for Active; 'I' for Inactive)
REMARK    1  A    between atoms: C1_2  and  C2_3 
ROOT
ATOM      1  C2  UNL d   1       0.105   0.550   1.523  0.00  0.00    -0.076 A 
ATOM      2  C3  UNL d   1      -1.220   0.438   1.065  0.00  0.00     0.004 A 
ATOM      3  C4  UNL d   1      -1.519   0.525  -0.294  0.00  0.00    -0.003 A 
ATOM      4  C5  UNL d   1      -0.498   0.725  -1.217  0.00  0.00     0.000 A 
ATOM      5  C6  UNL d   1       0.823   0.821  -0.782  0.00  0.00     0.000 A 
ATOM      6  C7  UNL d   1       1.144   0.719   0.583  0.00  0.00    -0.073 A 
ATOM      7  C8  UNL d   1       2.585   0.835   0.997  0.00  0.00     0.078 C 
ENDROOT
BRANCH   1   8
ATOM      8  C1  UNL d   1       0.365   0.474   3.010  0.00  0.00     0.053 C 
ATOM      9  C   UNL d   1      -0.825  -0.071   3.784  0.00  0.00     0.018 C 
ENDBRANCH   1   8
TORSDOF 1
ENDMDL
