MODEL 1
REMARK minimizedAffinity 19.6379929
REMARK minimizedRMSD -1
REMARK  0 active torsions:
REMARK  status: ('A' for Active; 'I' for Inactive)
ROOT
ATOM      1  C   UNL d   1      -4.899   3.852  -4.082  0.00  0.00     0.077 C 
ATOM      2  C1  UNL d   1      -4.080   2.637  -4.402  0.00  0.00    -0.074 A 
ATOM      3  C2  UNL d   1      -3.195   2.632  -5.485  0.00  0.00    -0.005 A 
ATOM      4  C3  UNL d   1      -2.433   1.498  -5.766  0.00  0.00     0.006 A 
ATOM      5  C4  UNL d   1      -2.547   0.360  -4.967  0.00  0.00    -0.005 A 
ATOM      6  C5  UNL d   1      -3.426   0.346  -3.880  0.00  0.00    -0.074 A 
ATOM      7  C6  UNL d   1      -3.555  -0.866  -3.006  0.00  0.00     0.077 C 
ATOM      8  C7  UNL d   1      -4.184   1.492  -3.600  0.00  0.00    -0.001 A 
ENDROOT
TORSDOF 0
ENDMDL
