MODEL 1
REMARK minimizedAffinity 4.69471407
REMARK minimizedRMSD -1
REMARK  0 active torsions:
REMARK  status: ('A' for Active; 'I' for Inactive)
ROOT
ATOM      1  C   UNL d   1       2.540  -3.307  -0.378  0.00  0.00     0.077 C 
ATOM      2  C1  UNL d   1       3.295  -2.168  -0.998  0.00  0.00    -0.074 A 
ATOM      3  C2  UNL d   1       3.889  -2.301  -2.257  0.00  0.00    -0.005 A 
ATOM      4  C3  UNL d   1       4.580  -1.231  -2.825  0.00  0.00     0.006 A 
ATOM      5  C4  UNL d   1       4.683  -0.019  -2.141  0.00  0.00    -0.005 A 
ATOM      6  C5  UNL d   1       4.094   0.133  -0.882  0.00  0.00    -0.074 A 
ATOM      7  C6  UNL d   1       4.186   1.432  -0.138  0.00  0.00     0.077 C 
ATOM      8  C7  UNL d   1       3.396  -0.945  -0.321  0.00  0.00    -0.001 A 
ENDROOT
TORSDOF 0
ENDMDL
