MODEL 1
REMARK minimizedAffinity 13.7363768
REMARK minimizedRMSD -1
REMARK  0 active torsions:
REMARK  status: ('A' for Active; 'I' for Inactive)
ROOT
ATOM      1  C   UNL d   1      -5.990  -0.069  -5.254  0.00  0.00     0.077 C 
ATOM      2  C1  UNL d   1      -5.743   1.000  -4.232  0.00  0.00    -0.074 A 
ATOM      3  C2  UNL d   1      -6.000   0.772  -2.876  0.00  0.00    -0.005 A 
ATOM      4  C3  UNL d   1      -5.756   1.773  -1.935  0.00  0.00     0.006 A 
ATOM      5  C4  UNL d   1      -5.252   3.010  -2.340  0.00  0.00    -0.005 A 
ATOM      6  C5  UNL d   1      -4.988   3.256  -3.691  0.00  0.00    -0.074 A 
ATOM      7  C6  UNL d   1      -4.438   4.576  -4.142  0.00  0.00     0.077 C 
ATOM      8  C7  UNL d   1      -5.230   2.243  -4.629  0.00  0.00    -0.001 A 
ENDROOT
TORSDOF 0
ENDMDL
