MODEL 1
REMARK minimizedAffinity 9.57470894
REMARK minimizedRMSD -1
REMARK  0 active torsions:
REMARK  status: ('A' for Active; 'I' for Inactive)
ROOT
ATOM      1  C   UNL d   1       4.876   1.407  -1.499  0.00  0.00     0.077 C 
ATOM      2  C1  UNL d   1       4.895   0.138  -0.700  0.00  0.00    -0.074 A 
ATOM      3  C2  UNL d   1       6.000  -0.199   0.088  0.00  0.00    -0.005 A 
ATOM      4  C3  UNL d   1       5.999  -1.378   0.834  0.00  0.00     0.006 A 
ATOM      5  C4  UNL d   1       4.895  -2.231   0.799  0.00  0.00    -0.005 A 
ATOM      6  C5  UNL d   1       3.780  -1.910   0.017  0.00  0.00    -0.074 A 
ATOM      7  C6  UNL d   1       2.581  -2.810  -0.024  0.00  0.00     0.077 C 
ATOM      8  C7  UNL d   1       3.786  -0.720  -0.723  0.00  0.00    -0.001 A 
ENDROOT
TORSDOF 0
ENDMDL
