MODEL 1
REMARK minimizedAffinity 8.26130199
REMARK minimizedRMSD -1
REMARK  0 active torsions:
REMARK  status: ('A' for Active; 'I' for Inactive)
ROOT
ATOM      1  C   UNL d   1       6.000  -1.473   1.295  0.00  0.00     0.077 C 
ATOM      2  C1  UNL d   1       5.299  -0.501   0.393  0.00  0.00    -0.074 A 
ATOM      3  C2  UNL d   1       5.999   0.542  -0.222  0.00  0.00    -0.005 A 
ATOM      4  C3  UNL d   1       5.336   1.433  -1.066  0.00  0.00     0.006 A 
ATOM      5  C4  UNL d   1       3.968   1.290  -1.304  0.00  0.00    -0.005 A 
ATOM      6  C5  UNL d   1       3.252   0.253  -0.698  0.00  0.00    -0.074 A 
ATOM      7  C6  UNL d   1       1.784   0.079  -0.950  0.00  0.00     0.077 C 
ATOM      8  C7  UNL d   1       3.927  -0.642   0.143  0.00  0.00    -0.001 A 
ENDROOT
TORSDOF 0
ENDMDL
