MODEL 1
REMARK minimizedAffinity 7.76196575
REMARK minimizedRMSD -1
REMARK  0 active torsions:
REMARK  status: ('A' for Active; 'I' for Inactive)
ROOT
ATOM      1  C   UNL d   1       4.901   2.845  -1.606  0.00  0.00     0.077 C 
ATOM      2  C1  UNL d   1       4.904   1.444  -1.070  0.00  0.00    -0.074 A 
ATOM      3  C2  UNL d   1       5.999   0.951  -0.353  0.00  0.00    -0.005 A 
ATOM      4  C3  UNL d   1       5.983  -0.351   0.148  0.00  0.00     0.006 A 
ATOM      5  C4  UNL d   1       4.874  -1.171  -0.063  0.00  0.00    -0.005 A 
ATOM      6  C5  UNL d   1       3.769  -0.695  -0.776  0.00  0.00    -0.074 A 
ATOM      7  C6  UNL d   1       2.565  -1.560  -1.003  0.00  0.00     0.077 C 
ATOM      8  C7  UNL d   1       3.790   0.617  -1.270  0.00  0.00    -0.001 A 
ENDROOT
TORSDOF 0
ENDMDL
