MODEL 1
REMARK minimizedAffinity 10.3963261
REMARK minimizedRMSD -1
REMARK  0 active torsions:
REMARK  status: ('A' for Active; 'I' for Inactive)
ROOT
ATOM      1  C   UNL d   1       5.999   1.254  -1.666  0.00  0.00     0.077 C 
ATOM      2  C1  UNL d   1       4.687   0.702  -1.195  0.00  0.00    -0.074 A 
ATOM      3  C2  UNL d   1       3.821   1.474  -0.414  0.00  0.00    -0.005 A 
ATOM      4  C3  UNL d   1       2.599   0.951   0.008  0.00  0.00     0.006 A 
ATOM      5  C4  UNL d   1       2.232  -0.349  -0.344  0.00  0.00    -0.005 A 
ATOM      6  C5  UNL d   1       3.084  -1.135  -1.125  0.00  0.00    -0.074 A 
ATOM      7  C6  UNL d   1       2.700  -2.530  -1.521  0.00  0.00     0.077 C 
ATOM      8  C7  UNL d   1       4.307  -0.600  -1.552  0.00  0.00    -0.001 A 
ENDROOT
TORSDOF 0
ENDMDL
