MODEL 1
REMARK minimizedAffinity -2.15801692
REMARK minimizedRMSD -1
REMARK  0 active torsions:
REMARK  status: ('A' for Active; 'I' for Inactive)
ROOT
ATOM      1  C   UNL d   1       5.858   5.243   2.272  0.00  0.00     0.172 C 
ATOM      2  N   UNL d   1       5.702   4.033   1.500  0.00  0.00    -0.070 N 
ATOM      3  C1  UNL d   1       5.999   2.768   1.931  0.00  0.00    -0.004 A 
ATOM      4  C2  UNL d   1       5.711   1.894   0.904  0.00  0.00    -0.047 A 
ATOM      5  C3  UNL d   1       5.225   2.661  -0.181  0.00  0.00    -0.047 A 
ATOM      6  C4  UNL d   1       5.229   3.982   0.215  0.00  0.00    -0.004 A 
ENDROOT
TORSDOF 0
ENDMDL
