MODEL 1
REMARK minimizedAffinity -1.82419384
REMARK minimizedRMSD -1
REMARK  0 active torsions:
REMARK  status: ('A' for Active; 'I' for Inactive)
ROOT
ATOM      1  C   UNL d   1       3.948   6.000   5.778  0.00  0.00     0.172 C 
ATOM      2  N   UNL d   1       2.890   5.539   4.910  0.00  0.00    -0.070 N 
ATOM      3  C1  UNL d   1       1.961   4.582   5.221  0.00  0.00    -0.004 A 
ATOM      4  C2  UNL d   1       1.130   4.430   4.132  0.00  0.00    -0.047 A 
ATOM      5  C3  UNL d   1       1.576   5.326   3.131  0.00  0.00    -0.047 A 
ATOM      6  C4  UNL d   1       2.667   6.000   3.639  0.00  0.00    -0.004 A 
ENDROOT
TORSDOF 0
ENDMDL
