MODEL 1
REMARK minimizedAffinity 2.76510715
REMARK minimizedRMSD -1
REMARK  0 active torsions:
REMARK  status: ('A' for Active; 'I' for Inactive)
ROOT
ATOM      1  C   UNL d   1       0.075  -1.113   2.878  0.00  0.00     0.172 C 
ATOM      2  N   UNL d   1       0.936  -1.686   1.870  0.00  0.00    -0.070 N 
ATOM      3  C1  UNL d   1       1.480  -2.942   1.906  0.00  0.00    -0.004 A 
ATOM      4  C2  UNL d   1       2.235  -3.107   0.765  0.00  0.00    -0.047 A 
ATOM      5  C3  UNL d   1       2.143  -1.908   0.019  0.00  0.00    -0.047 A 
ATOM      6  C4  UNL d   1       1.332  -1.045   0.726  0.00  0.00    -0.004 A 
ENDROOT
TORSDOF 0
ENDMDL
