MODEL 1
REMARK minimizedAffinity 4.56457329
REMARK minimizedRMSD -1
REMARK  0 active torsions:
REMARK  status: ('A' for Active; 'I' for Inactive)
ROOT
ATOM      1  C   UNL d   1       3.008   3.028   3.386  0.00  0.00     0.172 C 
ATOM      2  N   UNL d   1       2.741   4.139   4.269  0.00  0.00    -0.070 N 
ATOM      3  C1  UNL d   1       3.364   4.375   5.466  0.00  0.00    -0.004 A 
ATOM      4  C2  UNL d   1       2.830   5.527   6.000  0.00  0.00    -0.047 A 
ATOM      5  C3  UNL d   1       1.851   6.000   5.094  0.00  0.00    -0.047 A 
ATOM      6  C4  UNL d   1       1.816   5.121   4.031  0.00  0.00    -0.004 A 
ENDROOT
TORSDOF 0
ENDMDL
