MODEL 1
REMARK minimizedAffinity 2.14907503
REMARK minimizedRMSD -1
REMARK  0 active torsions:
REMARK  status: ('A' for Active; 'I' for Inactive)
ROOT
ATOM      1  C   UNL d   1      -0.368  -2.359   2.605  0.00  0.00     0.172 C 
ATOM      2  N   UNL d   1       0.769  -2.834   1.853  0.00  0.00    -0.070 N 
ATOM      3  C1  UNL d   1       1.254  -4.115   1.862  0.00  0.00    -0.004 A 
ATOM      4  C2  UNL d   1       2.342  -4.160   1.017  0.00  0.00    -0.047 A 
ATOM      5  C3  UNL d   1       2.518  -2.862   0.482  0.00  0.00    -0.047 A 
ATOM      6  C4  UNL d   1       1.531  -2.061   1.017  0.00  0.00    -0.004 A 
ENDROOT
TORSDOF 0
ENDMDL
