MODEL 1
REMARK minimizedAffinity 3.23387671
REMARK minimizedRMSD -1
REMARK  0 active torsions:
REMARK  status: ('A' for Active; 'I' for Inactive)
ROOT
ATOM      1  C   UNL d   1      -0.756  -2.247   2.180  0.00  0.00     0.172 C 
ATOM      2  N   UNL d   1       0.481  -2.844   1.736  0.00  0.00    -0.070 N 
ATOM      3  C1  UNL d   1       0.613  -4.088   1.179  0.00  0.00    -0.004 A 
ATOM      4  C2  UNL d   1       1.947  -4.283   0.893  0.00  0.00    -0.047 A 
ATOM      5  C3  UNL d   1       2.641  -3.117   1.293  0.00  0.00    -0.047 A 
ATOM      6  C4  UNL d   1       1.710  -2.242   1.812  0.00  0.00    -0.004 A 
ENDROOT
TORSDOF 0
ENDMDL
