MODEL 1
REMARK minimizedAffinity 0.534915209
REMARK minimizedRMSD -1
REMARK  0 active torsions:
REMARK  status: ('A' for Active; 'I' for Inactive)
ROOT
ATOM      1  C   UNL d   1      -5.997   1.885   2.495  0.00  0.00     0.172 C 
ATOM      2  N   UNL d   1      -5.431   1.879   3.823  0.00  0.00    -0.070 N 
ATOM      3  C1  UNL d   1      -5.999   1.309   4.931  0.00  0.00    -0.004 A 
ATOM      4  C2  UNL d   1      -5.151   1.518   5.996  0.00  0.00    -0.047 A 
ATOM      5  C3  UNL d   1      -4.034   2.241   5.513  0.00  0.00    -0.047 A 
ATOM      6  C4  UNL d   1      -4.234   2.451   4.164  0.00  0.00    -0.004 A 
ENDROOT
TORSDOF 0
ENDMDL
