MODEL 1
REMARK minimizedAffinity -1.9147712
REMARK minimizedRMSD -1
REMARK  0 active torsions:
REMARK  status: ('A' for Active; 'I' for Inactive)
ROOT
ATOM      1  C   UNL d   1       1.497   3.156   3.051  0.00  0.00     0.172 C 
ATOM      2  N   UNL d   1       1.493   4.149   4.099  0.00  0.00    -0.070 N 
ATOM      3  C1  UNL d   1       2.195   4.075   5.273  0.00  0.00    -0.004 A 
ATOM      4  C2  UNL d   1       1.925   5.214   5.999  0.00  0.00    -0.047 A 
ATOM      5  C3  UNL d   1       1.028   6.000   5.237  0.00  0.00    -0.047 A 
ATOM      6  C4  UNL d   1       0.778   5.317   4.066  0.00  0.00    -0.004 A 
ENDROOT
TORSDOF 0
ENDMDL
