MODEL 1
REMARK minimizedAffinity 3.82939672
REMARK minimizedRMSD -1
REMARK  0 active torsions:
REMARK  status: ('A' for Active; 'I' for Inactive)
ROOT
ATOM      1  C   UNL d   1       2.167  -4.532   0.691  0.00  0.00     0.172 C 
ATOM      2  N   UNL d   1       1.845  -3.141   0.906  0.00  0.00    -0.070 N 
ATOM      3  C1  UNL d   1       1.880  -2.157  -0.046  0.00  0.00    -0.004 A 
ATOM      4  C2  UNL d   1       1.506  -0.975   0.556  0.00  0.00    -0.047 A 
ATOM      5  C3  UNL d   1       1.238  -1.258   1.916  0.00  0.00    -0.047 A 
ATOM      6  C4  UNL d   1       1.455  -2.606   2.105  0.00  0.00    -0.004 A 
ENDROOT
TORSDOF 0
ENDMDL
