MODEL 1
REMARK minimizedAffinity 0.850200474
REMARK minimizedRMSD -1
REMARK  0 active torsions:
REMARK  status: ('A' for Active; 'I' for Inactive)
ROOT
ATOM      1  C   UNL d   1       2.397  -2.334   0.772  0.00  0.00     0.172 C 
ATOM      2  N   UNL d   1       3.380  -3.247   1.308  0.00  0.00    -0.070 N 
ATOM      3  C1  UNL d   1       4.157  -4.104   0.575  0.00  0.00    -0.004 A 
ATOM      4  C2  UNL d   1       4.962  -4.799   1.452  0.00  0.00    -0.047 A 
ATOM      5  C3  UNL d   1       4.657  -4.344   2.757  0.00  0.00    -0.047 A 
ATOM      6  C4  UNL d   1       3.674  -3.384   2.639  0.00  0.00    -0.004 A 
ENDROOT
TORSDOF 0
ENDMDL
