MODEL 1
REMARK minimizedAffinity -1.95047164
REMARK minimizedRMSD -1
REMARK  0 active torsions:
REMARK  status: ('A' for Active; 'I' for Inactive)
ROOT
ATOM      1  C   UNL d   1      -3.958   4.150   5.334  0.00  0.00     0.172 C 
ATOM      2  N   UNL d   1      -4.787   3.001   5.055  0.00  0.00    -0.070 N 
ATOM      3  C1  UNL d   1      -5.233   2.620   3.818  0.00  0.00    -0.004 A 
ATOM      4  C2  UNL d   1      -5.990   1.479   3.975  0.00  0.00    -0.047 A 
ATOM      5  C3  UNL d   1      -6.000   1.164   5.355  0.00  0.00    -0.047 A 
ATOM      6  C4  UNL d   1      -5.247   2.123   6.000  0.00  0.00    -0.004 A 
ENDROOT
TORSDOF 0
ENDMDL
