MODEL 1
REMARK minimizedAffinity -1.097381
REMARK minimizedRMSD -1
REMARK  0 active torsions:
REMARK  status: ('A' for Active; 'I' for Inactive)
ROOT
ATOM      1  C   UNL d   1       5.999   5.952   4.137  0.00  0.00     0.172 C 
ATOM      2  N   UNL d   1       4.581   5.867   4.394  0.00  0.00    -0.070 N 
ATOM      3  C1  UNL d   1       3.981   6.000   5.618  0.00  0.00    -0.004 A 
ATOM      4  C2  UNL d   1       2.622   5.854   5.440  0.00  0.00    -0.047 A 
ATOM      5  C3  UNL d   1       2.398   5.625   4.062  0.00  0.00    -0.047 A 
ATOM      6  C4  UNL d   1       3.627   5.638   3.438  0.00  0.00    -0.004 A 
ENDROOT
TORSDOF 0
ENDMDL
