MODEL 1
REMARK minimizedAffinity 23.3305569
REMARK minimizedRMSD -1
REMARK  2 active torsions:
REMARK  status: ('A' for Active; 'I' for Inactive)
REMARK    1  A    between atoms: C2'_3  and  C1'_4 
REMARK    2  A    between atoms: C1'_4  and  C1_5 
ROOT
ATOM      1  C1  I4B d   1       2.486  -2.102  -3.085  0.00  0.00    -0.075 A 
ATOM      2  C2  I4B d   1       2.260  -0.749  -3.147  0.00  0.00     0.003 A 
ATOM      3  C3  I4B d   1       1.759  -0.058  -2.017  0.00  0.00     0.002 A 
ATOM      4  C4  I4B d   1       1.453  -0.762  -0.870  0.00  0.00    -0.004 A 
ATOM      5  C5  I4B d   1       1.704  -2.129  -0.802  0.00  0.00     0.002 A 
ATOM      6  C6  I4B d   1       2.236  -2.802  -1.912  0.00  0.00     0.003 A 
ENDROOT
BRANCH   1   7
ATOM      7  C1' I4B d   1       2.984  -2.806  -4.307  0.00  0.00     0.060 C 
BRANCH   7   8
ATOM      8  C2' I4B d   1       3.866  -1.842  -5.074  0.00  0.00    -0.013 C 
ATOM      9  C4' I4B d   1       4.941  -2.573  -5.834  0.00  0.00     0.013 C 
ATOM     10  C3' I4B d   1       2.991  -1.050  -6.000  0.00  0.00     0.013 C 
ENDBRANCH   7   8
ENDBRANCH   1   7
TORSDOF 2
ENDMDL
