MODEL 1
REMARK minimizedAffinity 14.1469927
REMARK minimizedRMSD -1
REMARK  2 active torsions:
REMARK  status: ('A' for Active; 'I' for Inactive)
REMARK    1  A    between atoms: C2'_3  and  C1'_4 
REMARK    2  A    between atoms: C1'_4  and  C1_5 
ROOT
ATOM      1  C1  I4B d   1       1.092   1.322   0.887  0.00  0.00    -0.075 A 
ATOM      2  C2  I4B d   1       0.227   1.227   1.949  0.00  0.00     0.003 A 
ATOM      3  C3  I4B d   1       0.605   1.716   3.222  0.00  0.00     0.002 A 
ATOM      4  C4  I4B d   1       1.868   2.243   3.401  0.00  0.00    -0.004 A 
ATOM      5  C5  I4B d   1       2.735   2.360   2.318  0.00  0.00     0.002 A 
ATOM      6  C6  I4B d   1       2.341   1.908   1.050  0.00  0.00     0.003 A 
ENDROOT
BRANCH   1   7
ATOM      7  C1' I4B d   1       0.673   0.765  -0.436  0.00  0.00     0.060 C 
BRANCH   7   8
ATOM      8  C2' I4B d   1       1.894   0.157  -1.095  0.00  0.00    -0.013 C 
ATOM      9  C4' I4B d   1       1.772  -1.341  -1.192  0.00  0.00     0.013 C 
ATOM     10  C3' I4B d   1       2.045   0.777  -2.452  0.00  0.00     0.013 C 
ENDBRANCH   7   8
ENDBRANCH   1   7
TORSDOF 2
ENDMDL
