MODEL 1
REMARK minimizedAffinity 9.51026058
REMARK minimizedRMSD -1
REMARK  2 active torsions:
REMARK  status: ('A' for Active; 'I' for Inactive)
REMARK    1  A    between atoms: C2'_3  and  C1'_4 
REMARK    2  A    between atoms: C1'_4  and  C1_5 
ROOT
ATOM      1  C1  I4B d   1      -2.587  -4.450  -4.844  0.00  0.00    -0.075 A 
ATOM      2  C2  I4B d   1      -3.657  -4.915  -5.568  0.00  0.00     0.003 A 
ATOM      3  C3  I4B d   1      -4.668  -4.022  -5.999  0.00  0.00     0.002 A 
ATOM      4  C4  I4B d   1      -4.596  -2.691  -5.643  0.00  0.00    -0.004 A 
ATOM      5  C5  I4B d   1      -3.499  -2.217  -4.928  0.00  0.00     0.002 A 
ATOM      6  C6  I4B d   1      -2.482  -3.100  -4.537  0.00  0.00     0.003 A 
ENDROOT
BRANCH   1   7
ATOM      7  C1' I4B d   1      -1.554  -5.426  -4.377  0.00  0.00     0.060 C 
BRANCH   7   8
ATOM      8  C2' I4B d   1      -0.719  -4.747  -3.311  0.00  0.00    -0.013 C 
ATOM      9  C4' I4B d   1      -1.505  -4.558  -2.040  0.00  0.00     0.013 C 
ATOM     10  C3' I4B d   1       0.500  -5.587  -3.073  0.00  0.00     0.013 C 
ENDBRANCH   7   8
ENDBRANCH   1   7
TORSDOF 2
ENDMDL
