MODEL 1
REMARK minimizedAffinity 6.29718256
REMARK minimizedRMSD -1
REMARK  2 active torsions:
REMARK  status: ('A' for Active; 'I' for Inactive)
REMARK    1  A    between atoms: C2'_3  and  C1'_4 
REMARK    2  A    between atoms: C1'_4  and  C1_5 
ROOT
ATOM      1  C1  I4B d   1      -2.847  -5.010  -3.961  0.00  0.00    -0.075 A 
ATOM      2  C2  I4B d   1      -3.862  -4.085  -3.969  0.00  0.00     0.003 A 
ATOM      3  C3  I4B d   1      -4.846  -4.115  -4.987  0.00  0.00     0.002 A 
ATOM      4  C4  I4B d   1      -4.749  -5.049  -5.999  0.00  0.00    -0.004 A 
ATOM      5  C5  I4B d   1      -3.733  -6.000  -5.976  0.00  0.00     0.002 A 
ATOM      6  C6  I4B d   1      -2.783  -5.988  -4.944  0.00  0.00     0.003 A 
ENDROOT
BRANCH   1   7
ATOM      7  C1' I4B d   1      -1.807  -4.929  -2.890  0.00  0.00     0.060 C 
BRANCH   7   8
ATOM      8  C2' I4B d   1      -0.849  -3.812  -3.253  0.00  0.00    -0.013 C 
ATOM      9  C4' I4B d   1       0.290  -3.730  -2.271  0.00  0.00     0.013 C 
ATOM     10  C3' I4B d   1      -0.348  -4.066  -4.643  0.00  0.00     0.013 C 
ENDBRANCH   7   8
ENDBRANCH   1   7
TORSDOF 2
ENDMDL
