MODEL 1
REMARK minimizedAffinity 1.10629666
REMARK minimizedRMSD -1
REMARK  2 active torsions:
REMARK  status: ('A' for Active; 'I' for Inactive)
REMARK    1  A    between atoms: C2'_3  and  C1'_4 
REMARK    2  A    between atoms: C1'_4  and  C1_5 
ROOT
ATOM      1  C1  I4B d   1      -3.189  -4.473  -5.810  0.00  0.00    -0.075 A 
ATOM      2  C2  I4B d   1      -3.262  -3.103  -5.776  0.00  0.00     0.003 A 
ATOM      3  C3  I4B d   1      -4.519  -2.454  -5.841  0.00  0.00     0.002 A 
ATOM      4  C4  I4B d   1      -5.666  -3.207  -5.989  0.00  0.00    -0.004 A 
ATOM      5  C5  I4B d   1      -5.592  -4.596  -6.000  0.00  0.00     0.002 A 
ATOM      6  C6  I4B d   1      -4.347  -5.235  -5.897  0.00  0.00     0.003 A 
ENDROOT
BRANCH   1   7
ATOM      7  C1' I4B d   1      -1.843  -5.125  -5.772  0.00  0.00     0.060 C 
BRANCH   7   8
ATOM      8  C2' I4B d   1      -1.597  -5.605  -4.356  0.00  0.00    -0.013 C 
ATOM      9  C4' I4B d   1      -0.129  -5.582  -4.021  0.00  0.00     0.013 C 
ATOM     10  C3' I4B d   1      -2.378  -4.726  -3.426  0.00  0.00     0.013 C 
ENDBRANCH   7   8
ENDBRANCH   1   7
TORSDOF 2
ENDMDL
