MODEL 1
REMARK minimizedAffinity 4.09865046
REMARK minimizedRMSD -1
REMARK  2 active torsions:
REMARK  status: ('A' for Active; 'I' for Inactive)
REMARK    1  A    between atoms: C2'_3  and  C1'_4 
REMARK    2  A    between atoms: C1'_4  and  C1_5 
ROOT
ATOM      1  C1  I4B d   1      -1.798  -4.292  -3.636  0.00  0.00    -0.075 A 
ATOM      2  C2  I4B d   1      -1.902  -5.266  -4.597  0.00  0.00     0.003 A 
ATOM      3  C3  I4B d   1      -2.737  -5.070  -5.723  0.00  0.00     0.002 A 
ATOM      4  C4  I4B d   1      -3.485  -3.914  -5.822  0.00  0.00    -0.004 A 
ATOM      5  C5  I4B d   1      -3.361  -2.918  -4.858  0.00  0.00     0.002 A 
ATOM      6  C6  I4B d   1      -2.503  -3.102  -3.764  0.00  0.00     0.003 A 
ENDROOT
BRANCH   1   7
ATOM      7  C1' I4B d   1      -0.932  -4.546  -2.443  0.00  0.00     0.060 C 
BRANCH   7   8
ATOM      8  C2' I4B d   1       0.457  -4.027  -2.756  0.00  0.00    -0.013 C 
ATOM      9  C4' I4B d   1       0.967  -3.136  -1.654  0.00  0.00     0.013 C 
ATOM     10  C3' I4B d   1       1.358  -5.209  -2.957  0.00  0.00     0.013 C 
ENDBRANCH   7   8
ENDBRANCH   1   7
TORSDOF 2
ENDMDL
