MODEL 1
REMARK minimizedAffinity -2.0191462
REMARK minimizedRMSD -1
REMARK  2 active torsions:
REMARK  status: ('A' for Active; 'I' for Inactive)
REMARK    1  A    between atoms: C2'_3  and  C1'_4 
REMARK    2  A    between atoms: C1'_4  and  C1_5 
ROOT
ATOM      1  C1  I4B d   1      -2.188  -4.328  -5.621  0.00  0.00    -0.075 A 
ATOM      2  C2  I4B d   1      -2.556  -5.642  -5.765  0.00  0.00     0.003 A 
ATOM      3  C3  I4B d   1      -3.912  -5.984  -5.983  0.00  0.00     0.002 A 
ATOM      4  C4  I4B d   1      -4.869  -4.989  -6.000  0.00  0.00    -0.004 A 
ATOM      5  C5  I4B d   1      -4.492  -3.655  -5.877  0.00  0.00     0.002 A 
ATOM      6  C6  I4B d   1      -3.141  -3.321  -5.698  0.00  0.00     0.003 A 
ENDROOT
BRANCH   1   7
ATOM      7  C1' I4B d   1      -0.751  -4.006  -5.359  0.00  0.00     0.060 C 
BRANCH   7   8
ATOM      8  C2' I4B d   1      -0.570  -3.867  -3.861  0.00  0.00    -0.013 C 
ATOM      9  C4' I4B d   1      -1.518  -2.846  -3.289  0.00  0.00     0.013 C 
ATOM     10  C3' I4B d   1      -0.787  -5.215  -3.241  0.00  0.00     0.013 C 
ENDBRANCH   7   8
ENDBRANCH   1   7
TORSDOF 2
ENDMDL
