MODEL 1
REMARK minimizedAffinity 0.765261769
REMARK minimizedRMSD -1
REMARK  2 active torsions:
REMARK  status: ('A' for Active; 'I' for Inactive)
REMARK    1  A    between atoms: C2'_3  and  C1'_4 
REMARK    2  A    between atoms: C1'_4  and  C1_5 
ROOT
ATOM      1  C1  I4B d   1      -1.892  -4.651  -5.010  0.00  0.00    -0.075 A 
ATOM      2  C2  I4B d   1      -2.950  -5.138  -5.737  0.00  0.00     0.003 A 
ATOM      3  C3  I4B d   1      -4.073  -4.317  -6.000  0.00  0.00     0.002 A 
ATOM      4  C4  I4B d   1      -4.118  -3.040  -5.478  0.00  0.00    -0.004 A 
ATOM      5  C5  I4B d   1      -3.035  -2.540  -4.760  0.00  0.00     0.002 A 
ATOM      6  C6  I4B d   1      -1.910  -3.346  -4.535  0.00  0.00     0.003 A 
ENDROOT
BRANCH   1   7
ATOM      7  C1' I4B d   1      -0.737  -5.556  -4.722  0.00  0.00     0.060 C 
BRANCH   7   8
ATOM      8  C2' I4B d   1      -0.569  -5.636  -3.219  0.00  0.00    -0.013 C 
ATOM      9  C4' I4B d   1      -0.050  -4.339  -2.658  0.00  0.00     0.013 C 
ATOM     10  C3' I4B d   1      -1.899  -5.990  -2.623  0.00  0.00     0.013 C 
ENDBRANCH   7   8
ENDBRANCH   1   7
TORSDOF 2
ENDMDL
