MODEL 1
REMARK minimizedAffinity 16.0231152
REMARK minimizedRMSD -1
REMARK  2 active torsions:
REMARK  status: ('A' for Active; 'I' for Inactive)
REMARK    1  A    between atoms: C2'_3  and  C1'_4 
REMARK    2  A    between atoms: C1'_4  and  C1_5 
ROOT
ATOM      1  C1  I4B d   1       3.394   1.328  -1.197  0.00  0.00    -0.075 A 
ATOM      2  C2  I4B d   1       4.496   0.957  -0.469  0.00  0.00     0.003 A 
ATOM      3  C3  I4B d   1       4.670  -0.393  -0.077  0.00  0.00     0.002 A 
ATOM      4  C4  I4B d   1       3.697  -1.321  -0.387  0.00  0.00    -0.004 A 
ATOM      5  C5  I4B d   1       2.591  -0.947  -1.145  0.00  0.00     0.002 A 
ATOM      6  C6  I4B d   1       2.444   0.383  -1.563  0.00  0.00     0.003 A 
ENDROOT
BRANCH   1   7
ATOM      7  C1' I4B d   1       3.226   2.768  -1.567  0.00  0.00     0.060 C 
BRANCH   7   8
ATOM      8  C2' I4B d   1       2.202   3.375  -0.629  0.00  0.00    -0.013 C 
ATOM      9  C4' I4B d   1       2.588   3.161   0.811  0.00  0.00     0.013 C 
ATOM     10  C3' I4B d   1       2.089   4.835  -0.949  0.00  0.00     0.013 C 
ENDBRANCH   7   8
ENDBRANCH   1   7
TORSDOF 2
ENDMDL
