MODEL 1
REMARK minimizedAffinity 10.5842829
REMARK minimizedRMSD -1
REMARK  2 active torsions:
REMARK  status: ('A' for Active; 'I' for Inactive)
REMARK    1  A    between atoms: C2'_3  and  C1'_4 
REMARK    2  A    between atoms: C1'_4  and  C1_5 
ROOT
ATOM      1  C1  I4B d   1      -1.039   1.922  -4.614  0.00  0.00    -0.075 A 
ATOM      2  C2  I4B d   1      -1.638   2.435  -3.491  0.00  0.00     0.003 A 
ATOM      3  C3  I4B d   1      -2.760   3.291  -3.609  0.00  0.00     0.002 A 
ATOM      4  C4  I4B d   1      -3.215   3.646  -4.862  0.00  0.00    -0.004 A 
ATOM      5  C5  I4B d   1      -2.621   3.107  -6.000  0.00  0.00     0.002 A 
ATOM      6  C6  I4B d   1      -1.534   2.229  -5.875  0.00  0.00     0.003 A 
ENDROOT
BRANCH   1   7
ATOM      7  C1' I4B d   1       0.164   1.048  -4.453  0.00  0.00     0.060 C 
BRANCH   7   8
ATOM      8  C2' I4B d   1      -0.092   0.111  -3.291  0.00  0.00    -0.013 C 
ATOM      9  C4' I4B d   1      -1.524  -0.354  -3.270  0.00  0.00     0.013 C 
ATOM     10  C3' I4B d   1       0.851  -1.048  -3.414  0.00  0.00     0.013 C 
ENDBRANCH   7   8
ENDBRANCH   1   7
TORSDOF 2
ENDMDL
