MODEL 1
REMARK minimizedAffinity 1.6239711
REMARK minimizedRMSD -1
REMARK  2 active torsions:
REMARK  status: ('A' for Active; 'I' for Inactive)
REMARK    1  A    between atoms: C2'_3  and  C1'_4 
REMARK    2  A    between atoms: C1'_4  and  C1_5 
ROOT
ATOM      1  C1  I4B d   1      -2.009  -3.721  -5.161  0.00  0.00    -0.075 A 
ATOM      2  C2  I4B d   1      -2.667  -2.516  -5.151  0.00  0.00     0.003 A 
ATOM      3  C3  I4B d   1      -4.024  -2.442  -5.548  0.00  0.00     0.002 A 
ATOM      4  C4  I4B d   1      -4.665  -3.580  -5.993  0.00  0.00    -0.004 A 
ATOM      5  C5  I4B d   1      -4.004  -4.804  -5.982  0.00  0.00     0.002 A 
ATOM      6  C6  I4B d   1      -2.671  -4.878  -5.551  0.00  0.00     0.003 A 
ENDROOT
BRANCH   1   7
ATOM      7  C1' I4B d   1      -0.567  -3.758  -4.767  0.00  0.00     0.060 C 
BRANCH   7   8
ATOM      8  C2' I4B d   1      -0.467  -4.455  -3.425  0.00  0.00    -0.013 C 
ATOM      9  C4' I4B d   1      -0.336  -5.946  -3.594  0.00  0.00     0.013 C 
ATOM     10  C3' I4B d   1       0.712  -3.887  -2.694  0.00  0.00     0.013 C 
ENDBRANCH   7   8
ENDBRANCH   1   7
TORSDOF 2
ENDMDL
