MODEL 1
REMARK minimizedAffinity 3.58103609
REMARK minimizedRMSD -1
REMARK  2 active torsions:
REMARK  status: ('A' for Active; 'I' for Inactive)
REMARK    1  A    between atoms: C2'_3  and  C1'_4 
REMARK    2  A    between atoms: C1'_4  and  C1_5 
ROOT
ATOM      1  C1  I4B d   1      -2.960  -4.702  -5.527  0.00  0.00    -0.075 A 
ATOM      2  C2  I4B d   1      -3.691  -5.845  -5.734  0.00  0.00     0.003 A 
ATOM      3  C3  I4B d   1      -5.080  -5.765  -6.000  0.00  0.00     0.002 A 
ATOM      4  C4  I4B d   1      -5.702  -4.533  -5.999  0.00  0.00    -0.004 A 
ATOM      5  C5  I4B d   1      -4.955  -3.374  -5.812  0.00  0.00     0.002 A 
ATOM      6  C6  I4B d   1      -3.573  -3.457  -5.587  0.00  0.00     0.003 A 
ENDROOT
BRANCH   1   7
ATOM      7  C1' I4B d   1      -1.502  -4.825  -5.216  0.00  0.00     0.060 C 
BRANCH   7   8
ATOM      8  C2' I4B d   1      -1.368  -5.261  -3.772  0.00  0.00    -0.013 C 
ATOM      9  C4' I4B d   1      -0.009  -4.916  -3.222  0.00  0.00     0.013 C 
ATOM     10  C3' I4B d   1      -2.456  -4.594  -2.984  0.00  0.00     0.013 C 
ENDBRANCH   7   8
ENDBRANCH   1   7
TORSDOF 2
ENDMDL
