MODEL 1
REMARK minimizedAffinity 6.57474375
REMARK minimizedRMSD -1
REMARK  2 active torsions:
REMARK  status: ('A' for Active; 'I' for Inactive)
REMARK    1  A    between atoms: C2'_3  and  C1'_4 
REMARK    2  A    between atoms: C1'_4  and  C1_5 
ROOT
ATOM      1  C1  I4B d   1      -2.293  -3.894  -4.601  0.00  0.00    -0.075 A 
ATOM      2  C2  I4B d   1      -2.723  -5.001  -5.290  0.00  0.00     0.003 A 
ATOM      3  C3  I4B d   1      -3.948  -4.968  -6.000  0.00  0.00     0.002 A 
ATOM      4  C4  I4B d   1      -4.730  -3.832  -5.952  0.00  0.00    -0.004 A 
ATOM      5  C5  I4B d   1      -4.282  -2.703  -5.273  0.00  0.00     0.002 A 
ATOM      6  C6  I4B d   1      -3.050  -2.730  -4.603  0.00  0.00     0.003 A 
ENDROOT
BRANCH   1   7
ATOM      7  C1' I4B d   1      -1.011  -3.975  -3.836  0.00  0.00     0.060 C 
BRANCH   7   8
ATOM      8  C2' I4B d   1      -1.016  -5.271  -3.051  0.00  0.00    -0.013 C 
ATOM      9  C4' I4B d   1       0.312  -5.509  -2.383  0.00  0.00     0.013 C 
ATOM     10  C3' I4B d   1      -2.124  -5.198  -2.043  0.00  0.00     0.013 C 
ENDBRANCH   7   8
ENDBRANCH   1   7
TORSDOF 2
ENDMDL
