MODEL 1
REMARK minimizedAffinity 13.6999474
REMARK minimizedRMSD -1
REMARK  0 active torsions:
REMARK  status: ('A' for Active; 'I' for Inactive)
ROOT
ATOM      1  C1  DEN d   1      -2.520   4.566  -2.164  0.00  0.00     0.130 A 
ATOM      2  C2  DEN d   1      -2.049   5.255  -3.362  0.00  0.00    -0.031 A 
ATOM      3  C3  DEN d   1      -0.575   5.160  -3.393  0.00  0.00     0.027 A 
ATOM      4  C4  DEN d   1       1.012   4.015  -1.714  0.00  0.00     0.027 A 
ATOM      5  C5  DEN d   1       1.077   3.308  -0.533  0.00  0.00    -0.003 A 
ATOM      6  C6  DEN d   1      -0.040   3.003   0.198  0.00  0.00     0.001 A 
ATOM      7  C7  DEN d   1      -1.276   3.367  -0.268  0.00  0.00     0.017 A 
ATOM      8  C8  DEN d   1      -1.349   4.086  -1.453  0.00  0.00    -0.094 A 
ATOM      9  C9  DEN d   1      -0.209   4.374  -2.184  0.00  0.00    -0.072 A 
ENDROOT
TORSDOF 0
ENDMDL
