MODEL 1
REMARK minimizedAffinity 9.20602798
REMARK minimizedRMSD -1
REMARK  0 active torsions:
REMARK  status: ('A' for Active; 'I' for Inactive)
ROOT
ATOM      1  C1  DEN d   1       2.750   2.605   0.744  0.00  0.00     0.130 A 
ATOM      2  C2  DEN d   1       2.122   1.872   1.839  0.00  0.00    -0.031 A 
ATOM      3  C3  DEN d   1       0.659   2.020   1.707  0.00  0.00     0.027 A 
ATOM      4  C4  DEN d   1      -0.688   3.302  -0.080  0.00  0.00     0.027 A 
ATOM      5  C5  DEN d   1      -0.594   4.090  -1.206  0.00  0.00    -0.003 A 
ATOM      6  C6  DEN d   1       0.612   4.463  -1.737  0.00  0.00     0.001 A 
ATOM      7  C7  DEN d   1       1.773   4.011  -1.168  0.00  0.00     0.017 A 
ATOM      8  C8  DEN d   1       1.686   3.222  -0.028  0.00  0.00    -0.094 A 
ATOM      9  C9  DEN d   1       0.457   2.846   0.486  0.00  0.00    -0.072 A 
ENDROOT
TORSDOF 0
ENDMDL
