MODEL 1
REMARK minimizedAffinity 9.86742496
REMARK minimizedRMSD -1
REMARK  0 active torsions:
REMARK  status: ('A' for Active; 'I' for Inactive)
ROOT
ATOM      1  C1  DEN d   1       0.954  -4.233  -3.008  0.00  0.00     0.130 A 
ATOM      2  C2  DEN d   1       0.398  -4.358  -1.663  0.00  0.00    -0.031 A 
ATOM      3  C3  DEN d   1       1.430  -4.960  -0.796  0.00  0.00     0.027 A 
ATOM      4  C4  DEN d   1       3.825  -5.702  -1.401  0.00  0.00     0.027 A 
ATOM      5  C5  DEN d   1       4.745  -5.805  -2.421  0.00  0.00    -0.003 A 
ATOM      6  C6  DEN d   1       4.456  -5.426  -3.705  0.00  0.00     0.001 A 
ATOM      7  C7  DEN d   1       3.231  -4.883  -3.993  0.00  0.00     0.017 A 
ATOM      8  C8  DEN d   1       2.297  -4.783  -2.971  0.00  0.00    -0.094 A 
ATOM      9  C9  DEN d   1       2.612  -5.161  -1.677  0.00  0.00    -0.072 A 
ENDROOT
TORSDOF 0
ENDMDL
