MODEL 1
REMARK minimizedAffinity 13.1548634
REMARK minimizedRMSD -1
REMARK  0 active torsions:
REMARK  status: ('A' for Active; 'I' for Inactive)
ROOT
ATOM      1  C1  DEN d   1       3.254  -4.094   0.318  0.00  0.00     0.130 A 
ATOM      2  C2  DEN d   1       1.933  -4.688   0.132  0.00  0.00    -0.031 A 
ATOM      3  C3  DEN d   1       1.959  -5.480  -1.114  0.00  0.00     0.027 A 
ATOM      4  C4  DEN d   1       3.909  -5.846  -2.763  0.00  0.00     0.027 A 
ATOM      5  C5  DEN d   1       5.223  -5.534  -3.034  0.00  0.00    -0.003 A 
ATOM      6  C6  DEN d   1       5.956  -4.701  -2.232  0.00  0.00     0.001 A 
ATOM      7  C7  DEN d   1       5.394  -4.186  -1.095  0.00  0.00     0.017 A 
ATOM      8  C8  DEN d   1       4.067  -4.489  -0.818  0.00  0.00    -0.094 A 
ATOM      9  C9  DEN d   1       3.346  -5.343  -1.635  0.00  0.00    -0.072 A 
ENDROOT
TORSDOF 0
ENDMDL
