MODEL 1
REMARK minimizedAffinity 12.3131247
REMARK minimizedRMSD -1
REMARK  0 active torsions:
REMARK  status: ('A' for Active; 'I' for Inactive)
ROOT
ATOM      1  C1  DEN d   1       1.020  -2.695  -4.034  0.00  0.00     0.130 A 
ATOM      2  C2  DEN d   1       2.184  -3.126  -4.804  0.00  0.00    -0.031 A 
ATOM      3  C3  DEN d   1       2.934  -4.103  -3.990  0.00  0.00     0.027 A 
ATOM      4  C4  DEN d   1       2.405  -4.991  -1.626  0.00  0.00     0.027 A 
ATOM      5  C5  DEN d   1       1.530  -4.910  -0.566  0.00  0.00    -0.003 A 
ATOM      6  C6  DEN d   1       0.451  -4.066  -0.574  0.00  0.00     0.001 A 
ATOM      7  C7  DEN d   1       0.194  -3.303  -1.682  0.00  0.00     0.017 A 
ATOM      8  C8  DEN d   1       1.076  -3.374  -2.752  0.00  0.00    -0.094 A 
ATOM      9  C9  DEN d   1       2.155  -4.242  -2.730  0.00  0.00    -0.072 A 
ENDROOT
TORSDOF 0
ENDMDL
