MODEL 1
REMARK minimizedAffinity 8.80191326
REMARK minimizedRMSD -1
REMARK  0 active torsions:
REMARK  status: ('A' for Active; 'I' for Inactive)
ROOT
ATOM      1  C1  DEN d   1      -0.546   2.658  -1.178  0.00  0.00     0.130 A 
ATOM      2  C2  DEN d   1      -1.080   3.571  -0.171  0.00  0.00    -0.031 A 
ATOM      3  C3  DEN d   1      -0.361   3.325   1.095  0.00  0.00     0.027 A 
ATOM      4  C4  DEN d   1       1.521   1.632   1.590  0.00  0.00     0.027 A 
ATOM      5  C5  DEN d   1       2.302   0.633   1.053  0.00  0.00    -0.003 A 
ATOM      6  C6  DEN d   1       2.165   0.218  -0.245  0.00  0.00     0.001 A 
ATOM      7  C7  DEN d   1       1.258   0.837  -1.064  0.00  0.00     0.017 A 
ATOM      8  C8  DEN d   1       0.462   1.840  -0.527  0.00  0.00    -0.094 A 
ATOM      9  C9  DEN d   1       0.624   2.254   0.784  0.00  0.00    -0.072 A 
ENDROOT
TORSDOF 0
ENDMDL
