MODEL 1
REMARK minimizedAffinity 10.0284634
REMARK minimizedRMSD -1
REMARK  0 active torsions:
REMARK  status: ('A' for Active; 'I' for Inactive)
ROOT
ATOM      1  C1  DEN d   1       0.431   5.610  -1.316  0.00  0.00     0.130 A 
ATOM      2  C2  DEN d   1       1.859   5.700  -1.607  0.00  0.00    -0.031 A 
ATOM      3  C3  DEN d   1       2.477   4.403  -1.265  0.00  0.00     0.027 A 
ATOM      4  C4  DEN d   1       1.365   2.274  -0.325  0.00  0.00     0.027 A 
ATOM      5  C5  DEN d   1       0.176   1.721   0.096  0.00  0.00    -0.003 A 
ATOM      6  C6  DEN d   1      -0.995   2.430   0.108  0.00  0.00     0.001 A 
ATOM      7  C7  DEN d   1      -1.012   3.720  -0.352  0.00  0.00     0.017 A 
ATOM      8  C8  DEN d   1       0.184   4.287  -0.771  0.00  0.00    -0.094 A 
ATOM      9  C9  DEN d   1       1.356   3.550  -0.787  0.00  0.00    -0.072 A 
ENDROOT
TORSDOF 0
ENDMDL
