MODEL 1
REMARK minimizedAffinity 1.13575435
REMARK minimizedRMSD -1
REMARK  0 active torsions:
REMARK  status: ('A' for Active; 'I' for Inactive)
ROOT
ATOM      1  C   UNL d   1       2.566  -1.756   0.022  0.00  0.00     0.077 C 
ATOM      2  C1  UNL d   1       3.644  -2.503  -0.706  0.00  0.00    -0.074 A 
ATOM      3  C2  UNL d   1       4.988  -2.144  -0.566  0.00  0.00    -0.005 A 
ATOM      4  C3  UNL d   1       5.980  -2.855  -1.241  0.00  0.00     0.006 A 
ATOM      5  C4  UNL d   1       5.639  -3.930  -2.063  0.00  0.00    -0.005 A 
ATOM      6  C5  UNL d   1       4.300  -4.304  -2.215  0.00  0.00    -0.074 A 
ATOM      7  C6  UNL d   1       3.917  -5.463  -3.086  0.00  0.00     0.077 C 
ATOM      8  C7  UNL d   1       3.310  -3.589  -1.527  0.00  0.00    -0.001 A 
ENDROOT
TORSDOF 0
ENDMDL
