MODEL 1
REMARK minimizedAffinity 14.2399368
REMARK minimizedRMSD -1
REMARK  0 active torsions:
REMARK  status: ('A' for Active; 'I' for Inactive)
ROOT
ATOM      1  C   UNL d   1      -0.014   0.658  -0.602  0.00  0.00     0.077 C 
ATOM      2  C1  UNL d   1       0.247   2.006   0.001  0.00  0.00    -0.074 A 
ATOM      3  C2  UNL d   1       0.692   2.128   1.322  0.00  0.00    -0.005 A 
ATOM      4  C3  UNL d   1       0.939   3.388   1.866  0.00  0.00     0.006 A 
ATOM      5  C4  UNL d   1       0.745   4.537   1.098  0.00  0.00    -0.005 A 
ATOM      6  C5  UNL d   1       0.302   4.434  -0.225  0.00  0.00    -0.074 A 
ATOM      7  C6  UNL d   1       0.098   5.658  -1.068  0.00  0.00     0.077 C 
ATOM      8  C7  UNL d   1       0.062   3.164  -0.767  0.00  0.00    -0.001 A 
ENDROOT
TORSDOF 0
ENDMDL
