MODEL 1
REMARK minimizedAffinity 2.24379635
REMARK minimizedRMSD -1
REMARK  0 active torsions:
REMARK  status: ('A' for Active; 'I' for Inactive)
ROOT
ATOM      1  C   UNL d   1      -0.222  -4.241  -1.147  0.00  0.00     0.077 C 
ATOM      2  C1  UNL d   1       1.184  -4.546  -1.573  0.00  0.00    -0.074 A 
ATOM      3  C2  UNL d   1       1.438  -5.351  -2.688  0.00  0.00    -0.005 A 
ATOM      4  C3  UNL d   1       2.751  -5.618  -3.078  0.00  0.00     0.006 A 
ATOM      5  C4  UNL d   1       3.820  -5.084  -2.357  0.00  0.00    -0.005 A 
ATOM      6  C5  UNL d   1       3.585  -4.276  -1.240  0.00  0.00    -0.074 A 
ATOM      7  C6  UNL d   1       4.723  -3.686  -0.461  0.00  0.00     0.077 C 
ATOM      8  C7  UNL d   1       2.263  -4.007  -0.859  0.00  0.00    -0.001 A 
ENDROOT
TORSDOF 0
ENDMDL
