MODEL 1
REMARK minimizedAffinity 8.17342758
REMARK minimizedRMSD -1
REMARK  0 active torsions:
REMARK  status: ('A' for Active; 'I' for Inactive)
ROOT
ATOM      1  C   UNL d   1      -2.306   5.387  -1.689  0.00  0.00     0.077 C 
ATOM      2  C1  UNL d   1      -1.041   4.878  -1.064  0.00  0.00    -0.074 A 
ATOM      3  C2  UNL d   1       0.202   5.407  -1.423  0.00  0.00    -0.005 A 
ATOM      4  C3  UNL d   1       1.369   4.930  -0.826  0.00  0.00     0.006 A 
ATOM      5  C4  UNL d   1       1.304   3.921   0.135  0.00  0.00    -0.005 A 
ATOM      6  C5  UNL d   1       0.070   3.380   0.508  0.00  0.00    -0.074 A 
ATOM      7  C6  UNL d   1      -0.018   2.301   1.547  0.00  0.00     0.077 C 
ATOM      8  C7  UNL d   1      -1.099   3.869  -0.091  0.00  0.00    -0.001 A 
ENDROOT
TORSDOF 0
ENDMDL
