MODEL 1
REMARK minimizedAffinity 8.68923283
REMARK minimizedRMSD -1
REMARK  0 active torsions:
REMARK  status: ('A' for Active; 'I' for Inactive)
ROOT
ATOM      1  C   UNL d   1      -1.123  -1.869   5.999  0.00  0.00     0.077 C 
ATOM      2  C1  UNL d   1      -0.200  -1.038   5.159  0.00  0.00    -0.074 A 
ATOM      3  C2  UNL d   1       1.095  -1.477   4.865  0.00  0.00    -0.005 A 
ATOM      4  C3  UNL d   1       1.939  -0.697   4.074  0.00  0.00     0.006 A 
ATOM      5  C4  UNL d   1       1.497   0.527   3.570  0.00  0.00    -0.005 A 
ATOM      6  C5  UNL d   1       0.205   0.981   3.852  0.00  0.00    -0.074 A 
ATOM      7  C6  UNL d   1      -0.289   2.289   3.310  0.00  0.00     0.077 C 
ATOM      8  C7  UNL d   1      -0.639   0.189   4.642  0.00  0.00    -0.001 A 
ENDROOT
TORSDOF 0
ENDMDL
