MODEL 1
REMARK minimizedAffinity 7.2791419
REMARK minimizedRMSD -1
REMARK  0 active torsions:
REMARK  status: ('A' for Active; 'I' for Inactive)
ROOT
ATOM      1  C   UNL d   1       0.919   2.205   1.136  0.00  0.00     0.077 C 
ATOM      2  C1  UNL d   1       0.335   3.531   0.747  0.00  0.00    -0.074 A 
ATOM      3  C2  UNL d   1       0.727   4.170  -0.434  0.00  0.00    -0.005 A 
ATOM      4  C3  UNL d   1       0.168   5.398  -0.787  0.00  0.00     0.006 A 
ATOM      5  C4  UNL d   1      -0.787   5.998   0.034  0.00  0.00    -0.005 A 
ATOM      6  C5  UNL d   1      -1.192   5.373   1.218  0.00  0.00    -0.074 A 
ATOM      7  C6  UNL d   1      -2.224   6.000   2.107  0.00  0.00     0.077 C 
ATOM      8  C7  UNL d   1      -0.631   4.136   1.563  0.00  0.00    -0.001 A 
ENDROOT
TORSDOF 0
ENDMDL
