MODEL 1
REMARK minimizedAffinity 11.2048969
REMARK minimizedRMSD -1
REMARK  0 active torsions:
REMARK  status: ('A' for Active; 'I' for Inactive)
ROOT
ATOM      1  C   UNL d   1      -1.566   2.981   0.608  0.00  0.00     0.172 C 
ATOM      2  N   UNL d   1      -2.574   4.006   0.749  0.00  0.00    -0.070 N 
ATOM      3  C1  UNL d   1      -3.875   3.800   1.120  0.00  0.00    -0.004 A 
ATOM      4  C2  UNL d   1      -4.508   5.024   1.138  0.00  0.00    -0.047 A 
ATOM      5  C3  UNL d   1      -3.554   5.999   0.762  0.00  0.00    -0.047 A 
ATOM      6  C4  UNL d   1      -2.365   5.342   0.527  0.00  0.00    -0.004 A 
ENDROOT
TORSDOF 0
ENDMDL
