MODEL 1
REMARK minimizedAffinity 5.92382765
REMARK minimizedRMSD -1
REMARK  0 active torsions:
REMARK  status: ('A' for Active; 'I' for Inactive)
ROOT
ATOM      1  C   UNL d   1      -1.918   2.473  -4.802  0.00  0.00     0.172 C 
ATOM      2  N   UNL d   1      -1.902   3.908  -4.641  0.00  0.00    -0.070 N 
ATOM      3  C1  UNL d   1      -0.782   4.693  -4.587  0.00  0.00    -0.004 A 
ATOM      4  C2  UNL d   1      -1.190   6.000  -4.427  0.00  0.00    -0.047 A 
ATOM      5  C3  UNL d   1      -2.604   6.000  -4.383  0.00  0.00    -0.047 A 
ATOM      6  C4  UNL d   1      -3.019   4.691  -4.518  0.00  0.00    -0.004 A 
ENDROOT
TORSDOF 0
ENDMDL
