MODEL 1
REMARK minimizedAffinity 7.05932236
REMARK minimizedRMSD -1
REMARK  0 active torsions:
REMARK  status: ('A' for Active; 'I' for Inactive)
ROOT
ATOM      1  C   UNL d   1      -4.117   2.463   1.122  0.00  0.00     0.172 C 
ATOM      2  N   UNL d   1      -4.099   3.900   0.979  0.00  0.00    -0.070 N 
ATOM      3  C1  UNL d   1      -2.977   4.679   0.887  0.00  0.00    -0.004 A 
ATOM      4  C2  UNL d   1      -3.383   5.990   0.761  0.00  0.00    -0.047 A 
ATOM      5  C3  UNL d   1      -4.798   6.000   0.778  0.00  0.00    -0.047 A 
ATOM      6  C4  UNL d   1      -5.215   4.693   0.914  0.00  0.00    -0.004 A 
ENDROOT
TORSDOF 0
ENDMDL
