MODEL 1
REMARK minimizedAffinity 12.1223412
REMARK minimizedRMSD -1
REMARK  0 active torsions:
REMARK  status: ('A' for Active; 'I' for Inactive)
ROOT
ATOM      1  C   UNL d   1       5.942  -5.177  -1.981  0.00  0.00     0.172 C 
ATOM      2  N   UNL d   1       5.913  -4.899  -0.564  0.00  0.00    -0.070 N 
ATOM      3  C1  UNL d   1       5.809  -5.834   0.431  0.00  0.00    -0.004 A 
ATOM      4  C2  UNL d   1       5.816  -5.168   1.638  0.00  0.00    -0.047 A 
ATOM      5  C3  UNL d   1       5.928  -3.785   1.359  0.00  0.00    -0.047 A 
ATOM      6  C4  UNL d   1       5.985  -3.647  -0.012  0.00  0.00    -0.004 A 
ENDROOT
TORSDOF 0
ENDMDL
