MODEL 1
REMARK minimizedAffinity -0.548090577
REMARK minimizedRMSD -1
REMARK  0 active torsions:
REMARK  status: ('A' for Active; 'I' for Inactive)
ROOT
ATOM      1  C   UNL d   1      -3.989   2.605  -4.499  0.00  0.00     0.172 C 
ATOM      2  N   UNL d   1      -3.370   3.900  -4.656  0.00  0.00    -0.070 N 
ATOM      3  C1  UNL d   1      -3.884   4.948  -5.372  0.00  0.00    -0.004 A 
ATOM      4  C2  UNL d   1      -2.999   6.000  -5.276  0.00  0.00    -0.047 A 
ATOM      5  C3  UNL d   1      -1.914   5.568  -4.476  0.00  0.00    -0.047 A 
ATOM      6  C4  UNL d   1      -2.170   4.264  -4.106  0.00  0.00    -0.004 A 
ENDROOT
TORSDOF 0
ENDMDL
