MODEL 1
REMARK minimizedAffinity 4.02992678
REMARK minimizedRMSD -1
REMARK  0 active torsions:
REMARK  status: ('A' for Active; 'I' for Inactive)
ROOT
ATOM      1  C   UNL d   1      -2.518  -2.968   4.942  0.00  0.00     0.172 C 
ATOM      2  N   UNL d   1      -3.905  -3.363   5.008  0.00  0.00    -0.070 N 
ATOM      3  C1  UNL d   1      -4.553  -4.157   4.100  0.00  0.00    -0.004 A 
ATOM      4  C2  UNL d   1      -5.858  -4.299   4.519  0.00  0.00    -0.047 A 
ATOM      5  C3  UNL d   1      -6.000  -3.564   5.720  0.00  0.00    -0.047 A 
ATOM      6  C4  UNL d   1      -4.776  -2.995   6.000  0.00  0.00    -0.004 A 
ENDROOT
TORSDOF 0
ENDMDL
