MODEL 1
REMARK minimizedAffinity 6.4559474
REMARK minimizedRMSD -1
REMARK  0 active torsions:
REMARK  status: ('A' for Active; 'I' for Inactive)
ROOT
ATOM      1  C   UNL d   1      -1.866   4.019  -3.047  0.00  0.00     0.172 C 
ATOM      2  N   UNL d   1      -1.868   4.824  -4.245  0.00  0.00    -0.070 N 
ATOM      3  C1  UNL d   1      -0.757   5.266  -4.912  0.00  0.00    -0.004 A 
ATOM      4  C2  UNL d   1      -1.180   5.999  -5.999  0.00  0.00    -0.047 A 
ATOM      5  C3  UNL d   1      -2.596   5.999  -5.985  0.00  0.00    -0.047 A 
ATOM      6  C4  UNL d   1      -2.995   5.264  -4.888  0.00  0.00    -0.004 A 
ENDROOT
TORSDOF 0
ENDMDL
