MODEL 1
REMARK minimizedAffinity -3.14855981
REMARK minimizedRMSD -1
REMARK  0 active torsions:
REMARK  status: ('A' for Active; 'I' for Inactive)
ROOT
ATOM      1  C   UNL d   1      -4.124   5.999  -6.000  0.00  0.00     0.172 C 
ATOM      2  N   UNL d   1      -3.478   4.995  -5.188  0.00  0.00    -0.070 N 
ATOM      3  C1  UNL d   1      -2.379   5.193  -4.396  0.00  0.00    -0.004 A 
ATOM      4  C2  UNL d   1      -2.074   3.995  -3.788  0.00  0.00    -0.047 A 
ATOM      5  C3  UNL d   1      -3.023   3.042  -4.231  0.00  0.00    -0.047 A 
ATOM      6  C4  UNL d   1      -3.880   3.688  -5.097  0.00  0.00    -0.004 A 
ENDROOT
TORSDOF 0
ENDMDL
