MODEL 1
REMARK minimizedAffinity -0.0591891035
REMARK minimizedRMSD -1
REMARK  0 active torsions:
REMARK  status: ('A' for Active; 'I' for Inactive)
ROOT
ATOM      1  C   UNL d   1      -4.097   5.998  -5.999  0.00  0.00     0.172 C 
ATOM      2  N   UNL d   1      -3.391   4.910  -5.364  0.00  0.00    -0.070 N 
ATOM      3  C1  UNL d   1      -3.587   3.578  -5.612  0.00  0.00    -0.004 A 
ATOM      4  C2  UNL d   1      -2.723   2.867  -4.808  0.00  0.00    -0.047 A 
ATOM      5  C3  UNL d   1      -1.982   3.804  -4.050  0.00  0.00    -0.047 A 
ATOM      6  C4  UNL d   1      -2.416   5.061  -4.414  0.00  0.00    -0.004 A 
ENDROOT
TORSDOF 0
ENDMDL
