MODEL 1
REMARK minimizedAffinity -0.400560379
REMARK minimizedRMSD -1
REMARK  0 active torsions:
REMARK  status: ('A' for Active; 'I' for Inactive)
ROOT
ATOM      1  C   UNL d   1      -1.377   2.119  -2.302  0.00  0.00     0.172 C 
ATOM      2  N   UNL d   1      -0.838   2.655  -1.074  0.00  0.00    -0.070 N 
ATOM      3  C1  UNL d   1      -0.384   3.934  -0.892  0.00  0.00    -0.004 A 
ATOM      4  C2  UNL d   1       0.046   4.047   0.412  0.00  0.00    -0.047 A 
ATOM      5  C3  UNL d   1      -0.155   2.793   1.035  0.00  0.00    -0.047 A 
ATOM      6  C4  UNL d   1      -0.703   1.949   0.092  0.00  0.00    -0.004 A 
ENDROOT
TORSDOF 0
ENDMDL
