MODEL 1
REMARK minimizedAffinity 11.1304483
REMARK minimizedRMSD -1
REMARK  0 active torsions:
REMARK  status: ('A' for Active; 'I' for Inactive)
ROOT
ATOM      1  C   UNL d   1      -0.744   6.000  -5.273  0.00  0.00     0.172 C 
ATOM      2  N   UNL d   1      -1.514   5.268  -4.294  0.00  0.00    -0.070 N 
ATOM      3  C1  UNL d   1      -2.727   5.648  -3.786  0.00  0.00    -0.004 A 
ATOM      4  C2  UNL d   1      -3.127   4.685  -2.885  0.00  0.00    -0.047 A 
ATOM      5  C3  UNL d   1      -2.119   3.693  -2.849  0.00  0.00    -0.047 A 
ATOM      6  C4  UNL d   1      -1.132   4.079  -3.731  0.00  0.00    -0.004 A 
ENDROOT
TORSDOF 0
ENDMDL
