MODEL 1
REMARK minimizedAffinity 9.49065399
REMARK minimizedRMSD -1
REMARK  0 active torsions:
REMARK  status: ('A' for Active; 'I' for Inactive)
ROOT
ATOM      1  C   UNL d   1      -2.247   1.132   3.406  0.00  0.00     0.172 C 
ATOM      2  N   UNL d   1      -1.011   1.777   3.031  0.00  0.00    -0.070 N 
ATOM      3  C1  UNL d   1      -0.762   2.389   1.832  0.00  0.00    -0.004 A 
ATOM      4  C2  UNL d   1       0.526   2.878   1.867  0.00  0.00    -0.047 A 
ATOM      5  C3  UNL d   1       1.070   2.547   3.131  0.00  0.00    -0.047 A 
ATOM      6  C4  UNL d   1       0.097   1.866   3.831  0.00  0.00    -0.004 A 
ENDROOT
TORSDOF 0
ENDMDL
