MODEL 1
REMARK minimizedAffinity 0.319213599
REMARK minimizedRMSD -1
REMARK  0 active torsions:
REMARK  status: ('A' for Active; 'I' for Inactive)
ROOT
ATOM      1  C   UNL d   1      -5.998  -4.093   0.319  0.00  0.00     0.172 C 
ATOM      2  N   UNL d   1      -5.992  -4.572   1.681  0.00  0.00    -0.070 N 
ATOM      3  C1  UNL d   1      -5.997  -5.886   2.065  0.00  0.00    -0.004 A 
ATOM      4  C2  UNL d   1      -5.988  -5.923   3.443  0.00  0.00    -0.047 A 
ATOM      5  C3  UNL d   1      -5.978  -4.585   3.902  0.00  0.00    -0.047 A 
ATOM      6  C4  UNL d   1      -5.980  -3.769   2.791  0.00  0.00    -0.004 A 
ENDROOT
TORSDOF 0
ENDMDL
