MODEL 1
REMARK minimizedAffinity 10.4390631
REMARK minimizedRMSD -1
REMARK  0 active torsions:
REMARK  status: ('A' for Active; 'I' for Inactive)
ROOT
ATOM      1  C   UNL d   1      -1.509   2.390  -2.754  0.00  0.00     0.172 C 
ATOM      2  N   UNL d   1      -0.901   2.329  -1.446  0.00  0.00    -0.070 N 
ATOM      3  C1  UNL d   1      -1.547   2.020  -0.278  0.00  0.00    -0.004 A 
ATOM      4  C2  UNL d   1      -0.621   2.069   0.742  0.00  0.00    -0.047 A 
ATOM      5  C3  UNL d   1       0.624   2.420   0.168  0.00  0.00    -0.047 A 
ATOM      6  C4  UNL d   1       0.422   2.575  -1.187  0.00  0.00    -0.004 A 
ENDROOT
TORSDOF 0
ENDMDL
