MODEL 1
REMARK minimizedAffinity 8.77259064
REMARK minimizedRMSD -1
REMARK  0 active torsions:
REMARK  status: ('A' for Active; 'I' for Inactive)
ROOT
ATOM      1  C   UNL d   1      -5.999  -5.882   4.822  0.00  0.00     0.172 C 
ATOM      2  N   UNL d   1      -5.394  -4.613   5.154  0.00  0.00    -0.070 N 
ATOM      3  C1  UNL d   1      -4.142  -4.203   4.780  0.00  0.00    -0.004 A 
ATOM      4  C2  UNL d   1      -3.941  -2.940   5.292  0.00  0.00    -0.047 A 
ATOM      5  C3  UNL d   1      -5.112  -2.578   5.998  0.00  0.00    -0.047 A 
ATOM      6  C4  UNL d   1      -5.996  -3.631   5.897  0.00  0.00    -0.004 A 
ENDROOT
TORSDOF 0
ENDMDL
