MODEL 1
REMARK minimizedAffinity 24.5113964
REMARK minimizedRMSD -1
REMARK  0 active torsions:
REMARK  status: ('A' for Active; 'I' for Inactive)
ROOT
ATOM      1  C1  DEN d   1       1.794   2.244   0.715  0.00  0.00     0.130 A 
ATOM      2  C2  DEN d   1       2.417   1.496  -0.373  0.00  0.00    -0.031 A 
ATOM      3  C3  DEN d   1       2.606   2.418  -1.511  0.00  0.00     0.027 A 
ATOM      4  C4  DEN d   1       2.003   4.919  -1.691  0.00  0.00     0.027 A 
ATOM      5  C5  DEN d   1       1.444   5.989  -1.028  0.00  0.00    -0.003 A 
ATOM      6  C6  DEN d   1       0.936   5.879   0.239  0.00  0.00     0.001 A 
ATOM      7  C7  DEN d   1       1.018   4.683   0.901  0.00  0.00     0.017 A 
ATOM      8  C8  DEN d   1       1.573   3.597   0.237  0.00  0.00    -0.094 A 
ATOM      9  C9  DEN d   1       2.092   3.732  -1.040  0.00  0.00    -0.072 A 
ENDROOT
TORSDOF 0
ENDMDL
