MODEL 1
REMARK minimizedAffinity 11.4811249
REMARK minimizedRMSD -1
REMARK  0 active torsions:
REMARK  status: ('A' for Active; 'I' for Inactive)
ROOT
ATOM      1  C1  DEN d   1       4.325  -0.985  -0.314  0.00  0.00     0.130 A 
ATOM      2  C2  DEN d   1       4.280   0.440  -0.632  0.00  0.00    -0.031 A 
ATOM      3  C3  DEN d   1       2.973   0.726  -1.258  0.00  0.00     0.027 A 
ATOM      4  C4  DEN d   1       1.025  -0.888  -1.758  0.00  0.00     0.027 A 
ATOM      5  C5  DEN d   1       0.602  -2.196  -1.678  0.00  0.00    -0.003 A 
ATOM      6  C6  DEN d   1       1.398  -3.191  -1.173  0.00  0.00     0.001 A 
ATOM      7  C7  DEN d   1       2.641  -2.884  -0.687  0.00  0.00     0.017 A 
ATOM      8  C8  DEN d   1       3.077  -1.568  -0.771  0.00  0.00    -0.094 A 
ATOM      9  C9  DEN d   1       2.253  -0.575  -1.273  0.00  0.00    -0.072 A 
ENDROOT
TORSDOF 0
ENDMDL
