MODEL 1
REMARK minimizedAffinity 19.9257069
REMARK minimizedRMSD -1
REMARK  0 active torsions:
REMARK  status: ('A' for Active; 'I' for Inactive)
ROOT
ATOM      1  C1  DEN d   1       1.559   1.594  -2.835  0.00  0.00     0.130 A 
ATOM      2  C2  DEN d   1       1.255   0.383  -3.593  0.00  0.00    -0.031 A 
ATOM      3  C3  DEN d   1       2.056  -0.722  -3.029  0.00  0.00     0.027 A 
ATOM      4  C4  DEN d   1       3.725  -0.677  -1.064  0.00  0.00     0.027 A 
ATOM      5  C5  DEN d   1       4.324   0.125  -0.117  0.00  0.00    -0.003 A 
ATOM      6  C6  DEN d   1       4.070   1.469  -0.032  0.00  0.00     0.001 A 
ATOM      7  C7  DEN d   1       3.161   2.042  -0.882  0.00  0.00     0.017 A 
ATOM      8  C8  DEN d   1       2.559   1.242  -1.843  0.00  0.00    -0.094 A 
ATOM      9  C9  DEN d   1       2.820  -0.117  -1.905  0.00  0.00    -0.072 A 
ENDROOT
TORSDOF 0
ENDMDL
