MODEL 1
REMARK minimizedAffinity 19.225256
REMARK minimizedRMSD -1
REMARK  0 active torsions:
REMARK  status: ('A' for Active; 'I' for Inactive)
ROOT
ATOM      1  C1  DEN d   1       2.236  -3.738  -0.386  0.00  0.00     0.130 A 
ATOM      2  C2  DEN d   1       1.399  -4.886  -0.723  0.00  0.00    -0.031 A 
ATOM      3  C3  DEN d   1       2.283  -5.977  -1.182  0.00  0.00     0.027 A 
ATOM      4  C4  DEN d   1       4.853  -6.000  -1.398  0.00  0.00     0.027 A 
ATOM      5  C5  DEN d   1       6.000  -5.253  -1.240  0.00  0.00    -0.003 A 
ATOM      6  C6  DEN d   1       5.970  -3.949  -0.822  0.00  0.00     0.001 A 
ATOM      7  C7  DEN d   1       4.772  -3.365  -0.504  0.00  0.00     0.017 A 
ATOM      8  C8  DEN d   1       3.611  -4.109  -0.668  0.00  0.00    -0.094 A 
ATOM      9  C9  DEN d   1       3.663  -5.430  -1.080  0.00  0.00    -0.072 A 
ENDROOT
TORSDOF 0
ENDMDL
