MODEL 1
REMARK minimizedAffinity 5.90785122
REMARK minimizedRMSD -1
REMARK  0 active torsions:
REMARK  status: ('A' for Active; 'I' for Inactive)
ROOT
ATOM      1  C1  DEN d   1       1.104   0.289  -1.949  0.00  0.00     0.130 A 
ATOM      2  C2  DEN d   1       2.382   0.831  -1.493  0.00  0.00    -0.031 A 
ATOM      3  C3  DEN d   1       3.174  -0.282  -0.932  0.00  0.00     0.027 A 
ATOM      4  C4  DEN d   1       2.553  -2.777  -0.729  0.00  0.00     0.027 A 
ATOM      5  C5  DEN d   1       1.570  -3.712  -0.968  0.00  0.00    -0.003 A 
ATOM      6  C6  DEN d   1       0.360  -3.376  -1.515  0.00  0.00     0.001 A 
ATOM      7  C7  DEN d   1       0.118  -2.078  -1.883  0.00  0.00     0.017 A 
ATOM      8  C8  DEN d   1       1.101  -1.129  -1.639  0.00  0.00    -0.094 A 
ATOM      9  C9  DEN d   1       2.323  -1.491  -1.096  0.00  0.00    -0.072 A 
ENDROOT
TORSDOF 0
ENDMDL
