MODEL 1
REMARK minimizedAffinity 24.6667652
REMARK minimizedRMSD -1
REMARK  0 active torsions:
REMARK  status: ('A' for Active; 'I' for Inactive)
ROOT
ATOM      1  C1  DEN d   1       3.391   0.471   0.717  0.00  0.00     0.130 A 
ATOM      2  C2  DEN d   1       4.265   1.380  -0.019  0.00  0.00    -0.031 A 
ATOM      3  C3  DEN d   1       3.814   1.408  -1.425  0.00  0.00     0.027 A 
ATOM      4  C4  DEN d   1       1.856   0.140  -2.527  0.00  0.00     0.027 A 
ATOM      5  C5  DEN d   1       0.836  -0.759  -2.307  0.00  0.00    -0.003 A 
ATOM      6  C6  DEN d   1       0.619  -1.332  -1.082  0.00  0.00     0.001 A 
ATOM      7  C7  DEN d   1       1.406  -0.978  -0.018  0.00  0.00     0.017 A 
ATOM      8  C8  DEN d   1       2.441  -0.078  -0.233  0.00  0.00    -0.094 A 
ATOM      9  C9  DEN d   1       2.637   0.500  -1.476  0.00  0.00    -0.072 A 
ENDROOT
TORSDOF 0
ENDMDL
