MODEL 1
REMARK minimizedAffinity 24.0600147
REMARK minimizedRMSD -1
REMARK  0 active torsions:
REMARK  status: ('A' for Active; 'I' for Inactive)
ROOT
ATOM      1  C1  DEN d   1      -0.515  -5.999  -3.156  0.00  0.00     0.130 A 
ATOM      2  C2  DEN d   1      -1.625  -5.069  -3.342  0.00  0.00    -0.031 A 
ATOM      3  C3  DEN d   1      -1.455  -3.957  -2.386  0.00  0.00     0.027 A 
ATOM      4  C4  DEN d   1       0.414  -3.584  -0.647  0.00  0.00     0.027 A 
ATOM      5  C5  DEN d   1       1.569  -4.109  -0.111  0.00  0.00    -0.003 A 
ATOM      6  C6  DEN d   1       2.087  -5.307  -0.525  0.00  0.00     0.001 A 
ATOM      7  C7  DEN d   1       1.474  -5.999  -1.535  0.00  0.00     0.017 A 
ATOM      8  C8  DEN d   1       0.305  -5.480  -2.076  0.00  0.00    -0.094 A 
ATOM      9  C9  DEN d   1      -0.197  -4.261  -1.653  0.00  0.00    -0.072 A 
ENDROOT
TORSDOF 0
ENDMDL
