MODEL 1
REMARK minimizedAffinity 12.9905949
REMARK minimizedRMSD -1
REMARK  0 active torsions:
REMARK  status: ('A' for Active; 'I' for Inactive)
ROOT
ATOM      1  C1  DEN d   1       0.995  -0.062  -2.152  0.00  0.00     0.130 A 
ATOM      2  C2  DEN d   1       1.844   0.705  -1.244  0.00  0.00    -0.031 A 
ATOM      3  C3  DEN d   1       2.432  -0.233  -0.267  0.00  0.00     0.027 A 
ATOM      4  C4  DEN d   1       2.117  -2.786  -0.077  0.00  0.00     0.027 A 
ATOM      5  C5  DEN d   1       1.481  -3.882  -0.617  0.00  0.00    -0.003 A 
ATOM      6  C6  DEN d   1       0.618  -3.777  -1.676  0.00  0.00     0.001 A 
ATOM      7  C7  DEN d   1       0.404  -2.556  -2.258  0.00  0.00     0.017 A 
ATOM      8  C8  DEN d   1       1.036  -1.446  -1.715  0.00  0.00    -0.094 A 
ATOM      9  C9  DEN d   1       1.914  -1.574  -0.652  0.00  0.00    -0.072 A 
ENDROOT
TORSDOF 0
ENDMDL
