MODEL 1
REMARK minimizedAffinity 16.4875965
REMARK minimizedRMSD -1
REMARK  0 active torsions:
REMARK  status: ('A' for Active; 'I' for Inactive)
ROOT
ATOM      1  C1  DEN d   1       0.494   1.147   3.026  0.00  0.00     0.130 A 
ATOM      2  C2  DEN d   1       0.688   1.040   1.583  0.00  0.00    -0.031 A 
ATOM      3  C3  DEN d   1      -0.637   1.123   0.937  0.00  0.00     0.027 A 
ATOM      4  C4  DEN d   1      -2.958   1.410   2.025  0.00  0.00     0.027 A 
ATOM      5  C5  DEN d   1      -3.629   1.534   3.222  0.00  0.00    -0.003 A 
ATOM      6  C6  DEN d   1      -2.981   1.505   4.429  0.00  0.00     0.001 A 
ATOM      7  C7  DEN d   1      -1.616   1.392   4.464  0.00  0.00     0.017 A 
ATOM      8  C8  DEN d   1      -0.934   1.258   3.262  0.00  0.00    -0.094 A 
ATOM      9  C9  DEN d   1      -1.605   1.303   2.052  0.00  0.00    -0.072 A 
ENDROOT
TORSDOF 0
ENDMDL
