MODEL 1
REMARK minimizedAffinity 18.8661518
REMARK minimizedRMSD -1
REMARK  0 active torsions:
REMARK  status: ('A' for Active; 'I' for Inactive)
ROOT
ATOM      1  C1  DEN d   1       0.446  -1.118  -0.356  0.00  0.00     0.130 A 
ATOM      2  C2  DEN d   1       1.344   0.012  -0.573  0.00  0.00    -0.031 A 
ATOM      3  C3  DEN d   1       1.918  -0.114  -1.927  0.00  0.00     0.027 A 
ATOM      4  C4  DEN d   1       1.501  -1.937  -3.703  0.00  0.00     0.027 A 
ATOM      5  C5  DEN d   1       0.827  -3.108  -3.973  0.00  0.00    -0.003 A 
ATOM      6  C6  DEN d   1       0.012  -3.710  -3.052  0.00  0.00     0.001 A 
ATOM      7  C7  DEN d   1      -0.186  -3.120  -1.832  0.00  0.00     0.017 A 
ATOM      8  C8  DEN d   1       0.496  -1.944  -1.549  0.00  0.00    -0.094 A 
ATOM      9  C9  DEN d   1       1.307  -1.344  -2.498  0.00  0.00    -0.072 A 
ENDROOT
TORSDOF 0
ENDMDL
