MODEL 1
REMARK minimizedAffinity -6.44357967
REMARK minimizedRMSD -1
REMARK  0 active torsions:
REMARK  status: ('A' for Active; 'I' for Inactive)
ROOT
ATOM      1  C1  DEN d   1      -0.256  -0.732   0.679  0.00  0.00     0.130 A 
ATOM      2  C2  DEN d   1      -0.213   0.677   1.061  0.00  0.00    -0.031 A 
ATOM      3  C3  DEN d   1       0.600   1.397   0.061  0.00  0.00     0.027 A 
ATOM      4  C4  DEN d   1       1.789   0.472  -2.033  0.00  0.00     0.027 A 
ATOM      5  C5  DEN d   1       2.050  -0.665  -2.766  0.00  0.00    -0.003 A 
ATOM      6  C6  DEN d   1       1.593  -1.899  -2.386  0.00  0.00     0.001 A 
ATOM      7  C7  DEN d   1       0.812  -2.019  -1.267  0.00  0.00     0.017 A 
ATOM      8  C8  DEN d   1       0.551  -0.878  -0.519  0.00  0.00    -0.094 A 
ATOM      9  C9  DEN d   1       1.012   0.362  -0.926  0.00  0.00    -0.072 A 
ENDROOT
TORSDOF 0
ENDMDL
