MODEL 1
REMARK minimizedAffinity -1.58558285
REMARK minimizedRMSD -1
REMARK  0 active torsions:
REMARK  status: ('A' for Active; 'I' for Inactive)
ROOT
ATOM      1  C1  DEN d   1      -0.409  -0.959   1.583  0.00  0.00     0.130 A 
ATOM      2  C2  DEN d   1      -0.498   0.496   1.663  0.00  0.00    -0.031 A 
ATOM      3  C3  DEN d   1      -0.246   1.044   0.315  0.00  0.00     0.027 A 
ATOM      4  C4  DEN d   1       0.265  -0.215  -1.878  0.00  0.00     0.027 A 
ATOM      5  C5  DEN d   1       0.455  -1.458  -2.441  0.00  0.00    -0.003 A 
ATOM      6  C6  DEN d   1       0.404  -2.610  -1.702  0.00  0.00     0.001 A 
ATOM      7  C7  DEN d   1       0.112  -2.546  -0.365  0.00  0.00     0.017 A 
ATOM      8  C8  DEN d   1      -0.073  -1.296   0.211  0.00  0.00    -0.094 A 
ATOM      9  C9  DEN d   1      -0.029  -0.144  -0.555  0.00  0.00    -0.072 A 
ENDROOT
TORSDOF 0
ENDMDL
