MODEL 1
REMARK minimizedAffinity -5.47159863
REMARK minimizedRMSD -1
REMARK  0 active torsions:
REMARK  status: ('A' for Active; 'I' for Inactive)
ROOT
ATOM      1  C1  DEN d   1       0.776   1.664  -0.579  0.00  0.00     0.130 A 
ATOM      2  C2  DEN d   1       0.115   1.154   0.620  0.00  0.00    -0.031 A 
ATOM      3  C3  DEN d   1       0.132  -0.322   0.558  0.00  0.00     0.027 A 
ATOM      4  C4  DEN d   1       1.117  -1.858  -1.265  0.00  0.00     0.027 A 
ATOM      5  C5  DEN d   1       1.768  -1.885  -2.479  0.00  0.00    -0.003 A 
ATOM      6  C6  DEN d   1       2.101  -0.741  -3.155  0.00  0.00     0.001 A 
ATOM      7  C7  DEN d   1       1.825   0.480  -2.600  0.00  0.00     0.017 A 
ATOM      8  C8  DEN d   1       1.162   0.516  -1.380  0.00  0.00    -0.094 A 
ATOM      9  C9  DEN d   1       0.845  -0.652  -0.706  0.00  0.00    -0.072 A 
ENDROOT
TORSDOF 0
ENDMDL
