MODEL 1
REMARK minimizedAffinity -3.2647469
REMARK minimizedRMSD -1
REMARK  0 active torsions:
REMARK  status: ('A' for Active; 'I' for Inactive)
ROOT
ATOM      1  C1  DEN d   1       0.233   0.873   0.581  0.00  0.00     0.130 A 
ATOM      2  C2  DEN d   1      -0.501  -0.119   1.363  0.00  0.00    -0.031 A 
ATOM      3  C3  DEN d   1      -0.528  -1.378   0.592  0.00  0.00     0.027 A 
ATOM      4  C4  DEN d   1       0.494  -1.887  -1.721  0.00  0.00     0.027 A 
ATOM      5  C5  DEN d   1       1.201  -1.357  -2.777  0.00  0.00    -0.003 A 
ATOM      6  C6  DEN d   1       1.602  -0.048  -2.803  0.00  0.00     0.001 A 
ATOM      7  C7  DEN d   1       1.338   0.765  -1.732  0.00  0.00     0.017 A 
ATOM      8  C8  DEN d   1       0.619   0.239  -0.666  0.00  0.00    -0.094 A 
ATOM      9  C9  DEN d   1       0.233  -1.091  -0.654  0.00  0.00    -0.072 A 
ENDROOT
TORSDOF 0
ENDMDL
