MODEL 1
REMARK minimizedAffinity -5.55740738
REMARK minimizedRMSD -1
REMARK  0 active torsions:
REMARK  status: ('A' for Active; 'I' for Inactive)
ROOT
ATOM      1  C1  DEN d   1      -0.208  -1.311   0.629  0.00  0.00     0.130 A 
ATOM      2  C2  DEN d   1      -0.459   0.083   0.983  0.00  0.00    -0.031 A 
ATOM      3  C3  DEN d   1       0.255   0.937   0.012  0.00  0.00     0.027 A 
ATOM      4  C4  DEN d   1       1.712   0.238  -1.998  0.00  0.00     0.027 A 
ATOM      5  C5  DEN d   1       2.227  -0.835  -2.693  0.00  0.00    -0.003 A 
ATOM      6  C6  DEN d   1       1.996  -2.130  -2.312  0.00  0.00     0.001 A 
ATOM      7  C7  DEN d   1       1.193  -2.387  -1.232  0.00  0.00     0.017 A 
ATOM      8  C8  DEN d   1       0.676  -1.311  -0.523  0.00  0.00    -0.094 A 
ATOM      9  C9  DEN d   1       0.911  -0.009  -0.931  0.00  0.00    -0.072 A 
ENDROOT
TORSDOF 0
ENDMDL
