MODEL 1
REMARK minimizedAffinity -6.61830854
REMARK minimizedRMSD -1
REMARK  0 active torsions:
REMARK  status: ('A' for Active; 'I' for Inactive)
ROOT
ATOM      1  C1  DEN d   1      -0.544  -1.030   0.477  0.00  0.00     0.130 A 
ATOM      2  C2  DEN d   1      -0.721   0.387   0.783  0.00  0.00    -0.031 A 
ATOM      3  C3  DEN d   1       0.082   1.166  -0.181  0.00  0.00     0.027 A 
ATOM      4  C4  DEN d   1       1.572   0.321  -2.109  0.00  0.00     0.027 A 
ATOM      5  C5  DEN d   1       2.046  -0.801  -2.752  0.00  0.00    -0.003 A 
ATOM      6  C6  DEN d   1       1.720  -2.068  -2.347  0.00  0.00     0.001 A 
ATOM      7  C7  DEN d   1       0.860  -2.244  -1.295  0.00  0.00     0.017 A 
ATOM      8  C8  DEN d   1       0.384  -1.118  -0.637  0.00  0.00    -0.094 A 
ATOM      9  C9  DEN d   1       0.715   0.155  -1.070  0.00  0.00    -0.072 A 
ENDROOT
TORSDOF 0
ENDMDL
