MODEL 1
REMARK minimizedAffinity -4.90399981
REMARK minimizedRMSD -1
REMARK  0 active torsions:
REMARK  status: ('A' for Active; 'I' for Inactive)
ROOT
ATOM      1  C1  DEN d   1      -0.131   0.826   1.145  0.00  0.00     0.130 A 
ATOM      2  C2  DEN d   1      -1.001  -0.192   1.727  0.00  0.00    -0.031 A 
ATOM      3  C3  DEN d   1      -1.033  -1.346   0.806  0.00  0.00     0.027 A 
ATOM      4  C4  DEN d   1       0.177  -1.654  -1.451  0.00  0.00     0.027 A 
ATOM      5  C5  DEN d   1       1.018  -1.058  -2.364  0.00  0.00    -0.003 A 
ATOM      6  C6  DEN d   1       1.503   0.211  -2.190  0.00  0.00     0.001 A 
ATOM      7  C7  DEN d   1       1.188   0.908  -1.054  0.00  0.00     0.017 A 
ATOM      8  C8  DEN d   1       0.335   0.317  -0.132  0.00  0.00    -0.094 A 
ATOM      9  C9  DEN d   1      -0.136  -0.972  -0.320  0.00  0.00    -0.072 A 
ENDROOT
TORSDOF 0
ENDMDL
