MODEL 1
REMARK minimizedAffinity -4.97822332
REMARK minimizedRMSD -1
REMARK  0 active torsions:
REMARK  status: ('A' for Active; 'I' for Inactive)
ROOT
ATOM      1  C1  DEN d   1      -0.183  -0.324   0.423  0.00  0.00     0.130 A 
ATOM      2  C2  DEN d   1       0.032   1.114   0.560  0.00  0.00    -0.031 A 
ATOM      3  C3  DEN d   1       0.909   1.552  -0.545  0.00  0.00     0.027 A 
ATOM      4  C4  DEN d   1       1.946   0.152  -2.446  0.00  0.00     0.027 A 
ATOM      5  C5  DEN d   1       2.059  -1.116  -2.974  0.00  0.00    -0.003 A 
ATOM      6  C6  DEN d   1       1.465  -2.204  -2.392  0.00  0.00     0.001 A 
ATOM      7  C7  DEN d   1       0.694  -2.039  -1.272  0.00  0.00     0.017 A 
ATOM      8  C8  DEN d   1       0.581  -0.766  -0.730  0.00  0.00    -0.094 A 
ATOM      9  C9  DEN d   1       1.179   0.324  -1.340  0.00  0.00    -0.072 A 
ENDROOT
TORSDOF 0
ENDMDL
