MODEL 1
REMARK minimizedAffinity 1.01409614
REMARK minimizedRMSD -1
REMARK  0 active torsions:
REMARK  status: ('A' for Active; 'I' for Inactive)
ROOT
ATOM      1  C1  DEN d   1       0.979  -0.748  -2.518  0.00  0.00     0.130 A 
ATOM      2  C2  DEN d   1       2.265  -0.102  -2.766  0.00  0.00    -0.031 A 
ATOM      3  C3  DEN d   1       2.588   0.738  -1.595  0.00  0.00     0.027 A 
ATOM      4  C4  DEN d   1       1.230   1.094   0.569  0.00  0.00     0.027 A 
ATOM      5  C5  DEN d   1       0.068   0.766   1.232  0.00  0.00    -0.003 A 
ATOM      6  C6  DEN d   1      -0.879  -0.056   0.682  0.00  0.00     0.001 A 
ATOM      7  C7  DEN d   1      -0.661  -0.614  -0.550  0.00  0.00     0.017 A 
ATOM      8  C8  DEN d   1       0.505  -0.282  -1.228  0.00  0.00    -0.094 A 
ATOM      9  C9  DEN d   1       1.456   0.541  -0.649  0.00  0.00    -0.072 A 
ENDROOT
TORSDOF 0
ENDMDL
