MODEL 1
REMARK minimizedAffinity -4.06931782
REMARK minimizedRMSD -1
REMARK  0 active torsions:
REMARK  status: ('A' for Active; 'I' for Inactive)
ROOT
ATOM      1  C1  DEN d   1       0.596   1.164  -0.748  0.00  0.00     0.130 A 
ATOM      2  C2  DEN d   1       0.984   0.638  -2.054  0.00  0.00    -0.031 A 
ATOM      3  C3  DEN d   1       0.949  -0.836  -1.981  0.00  0.00     0.027 A 
ATOM      4  C4  DEN d   1       0.330  -2.347   0.016  0.00  0.00     0.027 A 
ATOM      5  C5  DEN d   1      -0.055  -2.358   1.339  0.00  0.00    -0.003 A 
ATOM      6  C6  DEN d   1      -0.217  -1.206   2.062  0.00  0.00     0.001 A 
ATOM      7  C7  DEN d   1      -0.035   0.008   1.453  0.00  0.00     0.017 A 
ATOM      8  C8  DEN d   1       0.361   0.027   0.123  0.00  0.00    -0.094 A 
ATOM      9  C9  DEN d   1       0.507  -1.148  -0.595  0.00  0.00    -0.072 A 
ENDROOT
TORSDOF 0
ENDMDL
