MODEL 1
REMARK minimizedAffinity -5.85165501
REMARK minimizedRMSD -1
REMARK  0 active torsions:
REMARK  status: ('A' for Active; 'I' for Inactive)
ROOT
ATOM      1  C1  DEN d   1       1.254   1.722   0.057  0.00  0.00     0.130 A 
ATOM      2  C2  DEN d   1       1.855   1.713  -1.274  0.00  0.00    -0.031 A 
ATOM      3  C3  DEN d   1       1.711   0.353  -1.831  0.00  0.00     0.027 A 
ATOM      4  C4  DEN d   1       0.619  -1.728  -0.769  0.00  0.00     0.027 A 
ATOM      5  C5  DEN d   1      -0.018  -2.213   0.352  0.00  0.00    -0.003 A 
ATOM      6  C6  DEN d   1      -0.243  -1.436   1.457  0.00  0.00     0.001 A 
ATOM      7  C7  DEN d   1       0.131  -0.118   1.448  0.00  0.00     0.017 A 
ATOM      8  C8  DEN d   1       0.781   0.376   0.325  0.00  0.00    -0.094 A 
ATOM      9  C9  DEN d   1       0.988  -0.423  -0.787  0.00  0.00    -0.072 A 
ENDROOT
TORSDOF 0
ENDMDL
