MODEL 1
REMARK minimizedAffinity -5.01438093
REMARK minimizedRMSD -1
REMARK  0 active torsions:
REMARK  status: ('A' for Active; 'I' for Inactive)
ROOT
ATOM      1  C1  DEN d   1      -1.305  -1.010  -0.517  0.00  0.00     0.130 A 
ATOM      2  C2  DEN d   1      -2.012  -0.046   0.321  0.00  0.00    -0.031 A 
ATOM      3  C3  DEN d   1      -1.300   1.245   0.233  0.00  0.00     0.027 A 
ATOM      4  C4  DEN d   1       0.815   1.842  -1.116  0.00  0.00     0.027 A 
ATOM      5  C5  DEN d   1       1.778   1.351  -1.969  0.00  0.00    -0.003 A 
ATOM      6  C6  DEN d   1       1.801   0.041  -2.368  0.00  0.00     0.001 A 
ATOM      7  C7  DEN d   1       0.816  -0.813  -1.949  0.00  0.00     0.017 A 
ATOM      8  C8  DEN d   1      -0.155  -0.327  -1.083  0.00  0.00    -0.094 A 
ATOM      9  C9  DEN d   1      -0.168   1.004  -0.701  0.00  0.00    -0.072 A 
ENDROOT
TORSDOF 0
ENDMDL
