MODEL 1
REMARK minimizedAffinity -1.62598479
REMARK minimizedRMSD -1
REMARK  0 active torsions:
REMARK  status: ('A' for Active; 'I' for Inactive)
ROOT
ATOM      1  C1  DEN d   1       1.881  -1.238  -1.666  0.00  0.00     0.130 A 
ATOM      2  C2  DEN d   1       2.798  -0.235  -2.200  0.00  0.00    -0.031 A 
ATOM      3  C3  DEN d   1       2.529   1.043  -1.512  0.00  0.00     0.027 A 
ATOM      4  C4  DEN d   1       0.793   1.563   0.323  0.00  0.00     0.027 A 
ATOM      5  C5  DEN d   1      -0.220   1.034   1.093  0.00  0.00    -0.003 A 
ATOM      6  C6  DEN d   1      -0.623  -0.269   0.974  0.00  0.00     0.001 A 
ATOM      7  C7  DEN d   1       0.021  -1.101   0.096  0.00  0.00     0.017 A 
ATOM      8  C8  DEN d   1       1.038  -0.573  -0.688  0.00  0.00    -0.094 A 
ATOM      9  C9  DEN d   1       1.439   0.744  -0.545  0.00  0.00    -0.072 A 
ENDROOT
TORSDOF 0
ENDMDL
