MODEL 1
REMARK minimizedAffinity -6.75052118
REMARK minimizedRMSD -1
REMARK  0 active torsions:
REMARK  status: ('A' for Active; 'I' for Inactive)
ROOT
ATOM      1  C1  DEN d   1       0.548   1.094   0.273  0.00  0.00     0.130 A 
ATOM      2  C2  DEN d   1      -0.312   0.370   1.205  0.00  0.00    -0.031 A 
ATOM      3  C3  DEN d   1      -0.352  -1.045   0.784  0.00  0.00     0.027 A 
ATOM      4  C4  DEN d   1       0.833  -2.180  -1.206  0.00  0.00     0.027 A 
ATOM      5  C5  DEN d   1       1.661  -1.972  -2.286  0.00  0.00    -0.003 A 
ATOM      6  C6  DEN d   1       2.146  -0.731  -2.607  0.00  0.00     0.001 A 
ATOM      7  C7  DEN d   1       1.842   0.342  -1.812  0.00  0.00     0.017 A 
ATOM      8  C8  DEN d   1       1.001   0.141  -0.725  0.00  0.00    -0.094 A 
ATOM      9  C9  DEN d   1       0.531  -1.123  -0.411  0.00  0.00    -0.072 A 
ENDROOT
TORSDOF 0
ENDMDL
