MODEL 1
REMARK minimizedAffinity 3.53882909
REMARK minimizedRMSD -1
REMARK  1 active torsions:
REMARK  status: ('A' for Active; 'I' for Inactive)
REMARK    1  A    between atoms: C1_2  and  C2_3 
ROOT
ATOM      1  C2  UNL d   1       0.557   3.532   0.176  0.00  0.00    -0.081 A 
ATOM      2  C3  UNL d   1       1.586   2.862  -0.496  0.00  0.00     0.006 A 
ATOM      3  C4  UNL d   1       1.672   1.469  -0.451  0.00  0.00     0.002 A 
ATOM      4  C5  UNL d   1       0.727   0.722   0.259  0.00  0.00    -0.080 A 
ATOM      5  C6  UNL d   1       0.790  -0.776   0.291  0.00  0.00     0.076 C 
ATOM      6  C7  UNL d   1      -0.291   1.392   0.946  0.00  0.00     0.002 A 
ATOM      7  C8  UNL d   1      -0.377   2.785   0.902  0.00  0.00     0.006 A 
ENDROOT
BRANCH   1   8
ATOM      8  C1  UNL d   1       0.424   5.030   0.076  0.00  0.00     0.054 C 
ATOM      9  C   UNL d   1      -0.594   5.563   1.075  0.00  0.00     0.018 C 
ENDBRANCH   1   8
TORSDOF 1
ENDMDL
