MODEL 1
REMARK minimizedAffinity -3.0597353
REMARK minimizedRMSD -1
REMARK  1 active torsions:
REMARK  status: ('A' for Active; 'I' for Inactive)
REMARK    1  A    between atoms: C1_2  and  C2_3 
ROOT
ATOM      1  C2  UNL d   1      -1.062  -0.102  -0.463  0.00  0.00    -0.081 A 
ATOM      2  C3  UNL d   1      -0.319   1.083  -0.408  0.00  0.00     0.006 A 
ATOM      3  C4  UNL d   1       1.022   1.061  -0.016  0.00  0.00     0.002 A 
ATOM      4  C5  UNL d   1       1.643  -0.147   0.320  0.00  0.00    -0.080 A 
ATOM      5  C6  UNL d   1       3.090  -0.189   0.713  0.00  0.00     0.076 C 
ATOM      6  C7  UNL d   1       0.896  -1.329   0.281  0.00  0.00     0.002 A 
ATOM      7  C8  UNL d   1      -0.444  -1.307  -0.110  0.00  0.00     0.006 A 
ENDROOT
BRANCH   1   8
ATOM      8  C1  UNL d   1      -2.489  -0.090  -0.948  0.00  0.00     0.054 C 
ATOM      9  C   UNL d   1      -2.657  -0.945  -2.195  0.00  0.00     0.018 C 
ENDBRANCH   1   8
TORSDOF 1
ENDMDL
