MODEL 1
REMARK minimizedAffinity 9.24319458
REMARK minimizedRMSD -1
REMARK  1 active torsions:
REMARK  status: ('A' for Active; 'I' for Inactive)
REMARK    1  A    between atoms: C1_2  and  C2_3 
ROOT
ATOM      1  C2  UNL d   1       1.505   0.272   1.642  0.00  0.00    -0.081 A 
ATOM      2  C3  UNL d   1       0.361   0.830   1.059  0.00  0.00     0.006 A 
ATOM      3  C4  UNL d   1       0.473   1.876   0.140  0.00  0.00     0.002 A 
ATOM      4  C5  UNL d   1       1.730   2.375  -0.218  0.00  0.00    -0.080 A 
ATOM      5  C6  UNL d   1       1.866   3.476  -1.227  0.00  0.00     0.076 C 
ATOM      6  C7  UNL d   1       2.872   1.829   0.378  0.00  0.00     0.002 A 
ATOM      7  C8  UNL d   1       2.761   0.784   1.298  0.00  0.00     0.006 A 
ENDROOT
BRANCH   1   8
ATOM      8  C1  UNL d   1       1.391  -0.899   2.585  0.00  0.00     0.054 C 
ATOM      9  C   UNL d   1       0.767  -2.104   1.898  0.00  0.00     0.018 C 
ENDBRANCH   1   8
TORSDOF 1
ENDMDL
