MODEL 1
REMARK minimizedAffinity -4.38407135
REMARK minimizedRMSD -1
REMARK  1 active torsions:
REMARK  status: ('A' for Active; 'I' for Inactive)
REMARK    1  A    between atoms: C1_2  and  C2_3 
ROOT
ATOM      1  C2  UNL d   1       1.668   0.179   0.396  0.00  0.00    -0.081 A 
ATOM      2  C3  UNL d   1       0.768  -0.875   0.594  0.00  0.00     0.006 A 
ATOM      3  C4  UNL d   1      -0.558  -0.763   0.172  0.00  0.00     0.002 A 
ATOM      4  C5  UNL d   1      -1.005   0.401  -0.463  0.00  0.00    -0.080 A 
ATOM      5  C6  UNL d   1      -2.419   0.523  -0.948  0.00  0.00     0.076 C 
ATOM      6  C7  UNL d   1      -0.110   1.461  -0.646  0.00  0.00     0.002 A 
ATOM      7  C8  UNL d   1       1.216   1.350  -0.223  0.00  0.00     0.006 A 
ENDROOT
BRANCH   1   8
ATOM      8  C1  UNL d   1       3.116   0.036   0.792  0.00  0.00     0.054 C 
ATOM      9  C   UNL d   1       3.280  -0.950   1.940  0.00  0.00     0.018 C 
ENDBRANCH   1   8
TORSDOF 1
ENDMDL
