MODEL 1
REMARK minimizedAffinity -1.38579333
REMARK minimizedRMSD -1
REMARK  1 active torsions:
REMARK  status: ('A' for Active; 'I' for Inactive)
REMARK    1  A    between atoms: C1_2  and  C2_3 
ROOT
ATOM      1  C2  UNL d   1      -1.739   0.632  -0.630  0.00  0.00    -0.081 A 
ATOM      2  C3  UNL d   1      -1.066   1.782  -0.201  0.00  0.00     0.006 A 
ATOM      3  C4  UNL d   1       0.051   1.680   0.631  0.00  0.00     0.002 A 
ATOM      4  C5  UNL d   1       0.518   0.427   1.042  0.00  0.00    -0.080 A 
ATOM      5  C6  UNL d   1       1.734   0.303   1.911  0.00  0.00     0.076 C 
ATOM      6  C7  UNL d   1      -0.165  -0.721   0.628  0.00  0.00     0.002 A 
ATOM      7  C8  UNL d   1      -1.282  -0.620  -0.204  0.00  0.00     0.006 A 
ENDROOT
BRANCH   1   8
ATOM      8  C1  UNL d   1      -2.905   0.735  -1.580  0.00  0.00     0.054 C 
ATOM      9  C   UNL d   1      -2.606   0.040  -2.901  0.00  0.00     0.018 C 
ENDBRANCH   1   8
TORSDOF 1
ENDMDL
