MODEL 1
REMARK minimizedAffinity -4.67151785
REMARK minimizedRMSD -1
REMARK  1 active torsions:
REMARK  status: ('A' for Active; 'I' for Inactive)
REMARK    1  A    between atoms: C1_2  and  C2_3 
ROOT
ATOM      1  C2  UNL d   1      -1.606   0.078  -1.221  0.00  0.00    -0.081 A 
ATOM      2  C3  UNL d   1      -0.361   0.362  -1.796  0.00  0.00     0.006 A 
ATOM      3  C4  UNL d   1       0.816   0.153  -1.074  0.00  0.00     0.002 A 
ATOM      4  C5  UNL d   1       0.769  -0.351   0.230  0.00  0.00    -0.080 A 
ATOM      5  C6  UNL d   1       2.027  -0.609   1.005  0.00  0.00     0.076 C 
ATOM      6  C7  UNL d   1      -0.475  -0.619   0.811  0.00  0.00     0.002 A 
ATOM      7  C8  UNL d   1      -1.653  -0.409   0.090  0.00  0.00     0.006 A 
ENDROOT
BRANCH   1   8
ATOM      8  C1  UNL d   1      -2.874   0.241  -2.020  0.00  0.00     0.054 C 
ATOM      9  C   UNL d   1      -2.877  -0.661  -3.245  0.00  0.00     0.018 C 
ENDBRANCH   1   8
TORSDOF 1
ENDMDL
