MODEL 1
REMARK minimizedAffinity 13.9410219
REMARK minimizedRMSD -1
REMARK  0 active torsions:
REMARK  status: ('A' for Active; 'I' for Inactive)
ROOT
ATOM      1  C1  DEN d   1       5.108   1.873  -2.497  0.00  0.00     0.130 A 
ATOM      2  C2  DEN d   1       6.000   2.609  -1.606  0.00  0.00    -0.031 A 
ATOM      3  C3  DEN d   1       5.591   2.326  -0.215  0.00  0.00     0.027 A 
ATOM      4  C4  DEN d   1       3.677   0.823   0.640  0.00  0.00     0.027 A 
ATOM      5  C5  DEN d   1       2.640   0.000   0.258  0.00  0.00    -0.003 A 
ATOM      6  C6  DEN d   1       2.335  -0.227  -1.057  0.00  0.00     0.001 A 
ATOM      7  C7  DEN d   1       3.102   0.339  -2.040  0.00  0.00     0.017 A 
ATOM      8  C8  DEN d   1       4.145   1.176  -1.664  0.00  0.00    -0.094 A 
ATOM      9  C9  DEN d   1       4.446   1.384  -0.328  0.00  0.00    -0.072 A 
ENDROOT
TORSDOF 0
ENDMDL
