MODEL 1
REMARK minimizedAffinity 19.7641487
REMARK minimizedRMSD -1
REMARK  0 active torsions:
REMARK  status: ('A' for Active; 'I' for Inactive)
ROOT
ATOM      1  C1  DEN d   1       6.000   2.662  -0.694  0.00  0.00     0.130 A 
ATOM      2  C2  DEN d   1       6.000   2.709  -2.154  0.00  0.00    -0.031 A 
ATOM      3  C3  DEN d   1       4.874   1.885  -2.637  0.00  0.00     0.027 A 
ATOM      4  C4  DEN d   1       3.137   0.551  -1.275  0.00  0.00     0.027 A 
ATOM      5  C5  DEN d   1       2.737   0.198  -0.005  0.00  0.00    -0.003 A 
ATOM      6  C6  DEN d   1       3.412   0.611   1.114  0.00  0.00     0.001 A 
ATOM      7  C7  DEN d   1       4.496   1.438   0.986  0.00  0.00     0.017 A 
ATOM      8  C8  DEN d   1       4.909   1.792  -0.291  0.00  0.00    -0.094 A 
ATOM      9  C9  DEN d   1       4.207   1.375  -1.409  0.00  0.00    -0.072 A 
ENDROOT
TORSDOF 0
ENDMDL
