MODEL 1
REMARK minimizedAffinity 6.38463354
REMARK minimizedRMSD -1
REMARK  0 active torsions:
REMARK  status: ('A' for Active; 'I' for Inactive)
ROOT
ATOM      1  C1  DEN d   1       4.607   1.554  -2.590  0.00  0.00     0.130 A 
ATOM      2  C2  DEN d   1       5.778   2.414  -2.441  0.00  0.00    -0.031 A 
ATOM      3  C3  DEN d   1       5.914   2.756  -1.011  0.00  0.00     0.027 A 
ATOM      4  C4  DEN d   1       4.437   2.037   0.977  0.00  0.00     0.027 A 
ATOM      5  C5  DEN d   1       3.321   1.318   1.344  0.00  0.00    -0.003 A 
ATOM      6  C6  DEN d   1       2.542   0.660   0.429  0.00  0.00     0.001 A 
ATOM      7  C7  DEN d   1       2.895   0.671  -0.895  0.00  0.00     0.017 A 
ATOM      8  C8  DEN d   1       4.015   1.400  -1.273  0.00  0.00    -0.094 A 
ATOM      9  C9  DEN d   1       4.796   2.048  -0.332  0.00  0.00    -0.072 A 
ENDROOT
TORSDOF 0
ENDMDL
