MODEL 1
REMARK minimizedAffinity 21.2393055
REMARK minimizedRMSD -1
REMARK  0 active torsions:
REMARK  status: ('A' for Active; 'I' for Inactive)
ROOT
ATOM      1  C1  DEN d   1       4.509   1.128  -2.479  0.00  0.00     0.130 A 
ATOM      2  C2  DEN d   1       5.697   1.890  -2.103  0.00  0.00    -0.031 A 
ATOM      3  C3  DEN d   1       5.802   1.874  -0.630  0.00  0.00     0.027 A 
ATOM      4  C4  DEN d   1       4.251   0.746   1.095  0.00  0.00     0.027 A 
ATOM      5  C5  DEN d   1       3.107  -0.004   1.254  0.00  0.00    -0.003 A 
ATOM      6  C6  DEN d   1       2.338  -0.398   0.192  0.00  0.00     0.001 A 
ATOM      7  C7  DEN d   1       2.728  -0.081  -1.083  0.00  0.00     0.017 A 
ATOM      8  C8  DEN d   1       3.876   0.682  -1.251  0.00  0.00    -0.094 A 
ATOM      9  C9  DEN d   1       4.647   1.060  -0.165  0.00  0.00    -0.072 A 
ENDROOT
TORSDOF 0
ENDMDL
