MODEL 1
REMARK minimizedAffinity 15.2304649
REMARK minimizedRMSD -1
REMARK  0 active torsions:
REMARK  status: ('A' for Active; 'I' for Inactive)
ROOT
ATOM      1  C1  DEN d   1       4.879   1.875  -2.627  0.00  0.00     0.130 A 
ATOM      2  C2  DEN d   1       5.981   2.703  -2.145  0.00  0.00    -0.031 A 
ATOM      3  C3  DEN d   1       6.000   2.624  -0.670  0.00  0.00     0.027 A 
ATOM      4  C4  DEN d   1       4.441   1.304   0.905  0.00  0.00     0.027 A 
ATOM      5  C5  DEN d   1       3.350   0.465   0.960  0.00  0.00    -0.003 A 
ATOM      6  C6  DEN d   1       2.677   0.067  -0.165  0.00  0.00     0.001 A 
ATOM      7  C7  DEN d   1       3.116   0.473  -1.397  0.00  0.00     0.017 A 
ATOM      8  C8  DEN d   1       4.211   1.325  -1.461  0.00  0.00    -0.094 A 
ATOM      9  C9  DEN d   1       4.885   1.706  -0.313  0.00  0.00    -0.072 A 
ENDROOT
TORSDOF 0
ENDMDL
