MODEL 1
REMARK minimizedAffinity 14.7743101
REMARK minimizedRMSD -1
REMARK  0 active torsions:
REMARK  status: ('A' for Active; 'I' for Inactive)
ROOT
ATOM      1  C1  DEN d   1       0.045   3.640   0.376  0.00  0.00     0.130 A 
ATOM      2  C2  DEN d   1       0.407   4.522   1.482  0.00  0.00    -0.031 A 
ATOM      3  C3  DEN d   1       1.642   3.996   2.100  0.00  0.00     0.027 A 
ATOM      4  C4  DEN d   1       3.022   1.916   1.451  0.00  0.00     0.027 A 
ATOM      5  C5  DEN d   1       3.102   0.848   0.585  0.00  0.00    -0.003 A 
ATOM      6  C6  DEN d   1       2.158   0.618  -0.380  0.00  0.00     0.001 A 
ATOM      7  C7  DEN d   1       1.116   1.494  -0.534  0.00  0.00     0.017 A 
ATOM      8  C8  DEN d   1       1.025   2.569   0.340  0.00  0.00    -0.094 A 
ATOM      9  C9  DEN d   1       1.995   2.792   1.302  0.00  0.00    -0.072 A 
ENDROOT
TORSDOF 0
ENDMDL
