MODEL 1
REMARK minimizedAffinity -0.407053083
REMARK minimizedRMSD -1
REMARK  0 active torsions:
REMARK  status: ('A' for Active; 'I' for Inactive)
ROOT
ATOM      1  C2' OXE d   1       1.124  -1.056  -0.768  0.00  0.00     0.078 C 
ATOM      2  C1' OXE d   1       1.266   0.236   1.720  0.00  0.00     0.078 C 
ATOM      3  C1  OXE d   1       1.152   1.096   0.487  0.00  0.00    -0.078 A 
ATOM      4  C2  OXE d   1       1.130   0.457  -0.730  0.00  0.00    -0.078 A 
ATOM      5  C3  OXE d   1       0.971   1.200  -1.896  0.00  0.00     0.003 A 
ATOM      6  C4  OXE d   1       0.988   2.600  -1.852  0.00  0.00    -0.002 A 
ATOM      7  C5  OXE d   1       1.049   3.271  -0.627  0.00  0.00    -0.002 A 
ATOM      8  C6  OXE d   1       1.088   2.535   0.552  0.00  0.00     0.003 A 
ENDROOT
TORSDOF 0
ENDMDL
