MODEL 1
REMARK minimizedAffinity -1.43038404
REMARK minimizedRMSD -1
REMARK  0 active torsions:
REMARK  status: ('A' for Active; 'I' for Inactive)
ROOT
ATOM      1  C2' OXE d   1       0.784   1.441   1.633  0.00  0.00     0.078 C 
ATOM      2  C1' OXE d   1       0.874  -1.014   0.276  0.00  0.00     0.078 C 
ATOM      3  C1  OXE d   1       1.013   0.246  -0.541  0.00  0.00    -0.078 A 
ATOM      4  C2  OXE d   1       0.921   1.444   0.126  0.00  0.00    -0.078 A 
ATOM      5  C3  OXE d   1       1.098   2.636  -0.571  0.00  0.00     0.003 A 
ATOM      6  C4  OXE d   1       1.214   2.631  -1.967  0.00  0.00    -0.002 A 
ATOM      7  C5  OXE d   1       1.270   1.423  -2.670  0.00  0.00    -0.002 A 
ATOM      8  C6  OXE d   1       1.213   0.223  -1.969  0.00  0.00     0.003 A 
ENDROOT
TORSDOF 0
ENDMDL
