MODEL 1
REMARK minimizedAffinity -2.42800689
REMARK minimizedRMSD -1
REMARK  0 active torsions:
REMARK  status: ('A' for Active; 'I' for Inactive)
ROOT
ATOM      1  C2' OXE d   1       1.735  -0.748  -1.120  0.00  0.00     0.078 C 
ATOM      2  C1' OXE d   1       1.649   0.340   1.466  0.00  0.00     0.078 C 
ATOM      3  C1  OXE d   1       1.427   1.273   0.302  0.00  0.00    -0.078 A 
ATOM      4  C2  OXE d   1       1.517   0.741  -0.961  0.00  0.00    -0.078 A 
ATOM      5  C3  OXE d   1       1.267   1.547  -2.068  0.00  0.00     0.003 A 
ATOM      6  C4  OXE d   1       1.076   2.925  -1.913  0.00  0.00    -0.002 A 
ATOM      7  C5  OXE d   1       1.020   3.495  -0.637  0.00  0.00    -0.002 A 
ATOM      8  C6  OXE d   1       1.150   2.677   0.481  0.00  0.00     0.003 A 
ENDROOT
TORSDOF 0
ENDMDL
