MODEL 1
REMARK minimizedAffinity -2.12306714
REMARK minimizedRMSD -1
REMARK  0 active torsions:
REMARK  status: ('A' for Active; 'I' for Inactive)
ROOT
ATOM      1  C2' OXE d   1       0.049   3.529  -1.533  0.00  0.00     0.078 C 
ATOM      2  C1' OXE d   1       0.082   2.795   1.176  0.00  0.00     0.078 C 
ATOM      3  C1  OXE d   1       0.692   1.839   0.180  0.00  0.00    -0.078 A 
ATOM      4  C2  OXE d   1       0.629   2.185  -1.148  0.00  0.00    -0.078 A 
ATOM      5  C3  OXE d   1       1.224   1.365  -2.103  0.00  0.00     0.003 A 
ATOM      6  C4  OXE d   1       1.750   0.120  -1.739  0.00  0.00    -0.002 A 
ATOM      7  C5  OXE d   1       1.788  -0.270  -0.396  0.00  0.00    -0.002 A 
ATOM      8  C6  OXE d   1       1.302   0.595   0.579  0.00  0.00     0.003 A 
ENDROOT
TORSDOF 0
ENDMDL
