MODEL 1
REMARK minimizedAffinity 0.613962591
REMARK minimizedRMSD -1
REMARK  0 active torsions:
REMARK  status: ('A' for Active; 'I' for Inactive)
ROOT
ATOM      1  C2' OXE d   1       1.507   4.412  -0.316  0.00  0.00     0.078 C 
ATOM      2  C1' OXE d   1       0.369   3.202  -2.580  0.00  0.00     0.078 C 
ATOM      3  C1  OXE d   1       0.729   2.315  -1.414  0.00  0.00    -0.078 A 
ATOM      4  C2  OXE d   1       1.329   2.909  -0.329  0.00  0.00    -0.078 A 
ATOM      5  C3  OXE d   1       1.631   2.146   0.795  0.00  0.00     0.003 A 
ATOM      6  C4  OXE d   1       1.472   0.755   0.771  0.00  0.00    -0.002 A 
ATOM      7  C5  OXE d   1       0.900   0.125  -0.339  0.00  0.00    -0.002 A 
ATOM      8  C6  OXE d   1       0.485   0.894  -1.421  0.00  0.00     0.003 A 
ENDROOT
TORSDOF 0
ENDMDL
