MODEL 1
REMARK minimizedAffinity -0.840755165
REMARK minimizedRMSD -1
REMARK  0 active torsions:
REMARK  status: ('A' for Active; 'I' for Inactive)
ROOT
ATOM      1  C2' OXE d   1       1.176   3.620   1.428  0.00  0.00     0.078 C 
ATOM      2  C1' OXE d   1       2.504   1.305   2.298  0.00  0.00     0.078 C 
ATOM      3  C1  OXE d   1       1.758   1.238   0.989  0.00  0.00    -0.078 A 
ATOM      4  C2  OXE d   1       1.073   2.362   0.594  0.00  0.00    -0.078 A 
ATOM      5  C3  OXE d   1       0.414   2.371  -0.632  0.00  0.00     0.003 A 
ATOM      6  C4  OXE d   1       0.315   1.200  -1.393  0.00  0.00    -0.002 A 
ATOM      7  C5  OXE d   1       0.972   0.033  -0.989  0.00  0.00    -0.002 A 
ATOM      8  C6  OXE d   1       1.732   0.048   0.176  0.00  0.00     0.003 A 
ENDROOT
TORSDOF 0
ENDMDL
