MODEL 1
REMARK minimizedAffinity 12.6251259
REMARK minimizedRMSD -1
REMARK  0 active torsions:
REMARK  status: ('A' for Active; 'I' for Inactive)
ROOT
ATOM      1  C2' OXE d   1       0.968  -0.788  -2.025  0.00  0.00     0.078 C 
ATOM      2  C1' OXE d   1       2.415   0.041   0.233  0.00  0.00     0.078 C 
ATOM      3  C1  OXE d   1       1.723   1.101  -0.588  0.00  0.00    -0.078 A 
ATOM      4  C2  OXE d   1       1.056   0.691  -1.717  0.00  0.00    -0.078 A 
ATOM      5  C3  OXE d   1       0.355   1.621  -2.480  0.00  0.00     0.003 A 
ATOM      6  C4  OXE d   1       0.450   2.988  -2.194  0.00  0.00    -0.002 A 
ATOM      7  C5  OXE d   1       1.157   3.431  -1.070  0.00  0.00    -0.002 A 
ATOM      8  C6  OXE d   1       1.762   2.499  -0.235  0.00  0.00     0.003 A 
ENDROOT
TORSDOF 0
ENDMDL
