MODEL 1
REMARK minimizedAffinity 1.11775517
REMARK minimizedRMSD -1
REMARK  0 active torsions:
REMARK  status: ('A' for Active; 'I' for Inactive)
ROOT
ATOM      1  C2' OXE d   1       1.598  -0.900   0.014  0.00  0.00     0.078 C 
ATOM      2  C1' OXE d   1       2.034   0.097  -2.573  0.00  0.00     0.078 C 
ATOM      3  C1  OXE d   1       1.506   1.051  -1.531  0.00  0.00    -0.078 A 
ATOM      4  C2  OXE d   1       1.251   0.543  -0.280  0.00  0.00    -0.078 A 
ATOM      5  C3  OXE d   1       0.815   1.393   0.733  0.00  0.00     0.003 A 
ATOM      6  C4  OXE d   1       0.488   2.724   0.449  0.00  0.00    -0.002 A 
ATOM      7  C5  OXE d   1       0.702   3.252  -0.828  0.00  0.00    -0.002 A 
ATOM      8  C6  OXE d   1       1.250   2.441  -1.817  0.00  0.00     0.003 A 
ENDROOT
TORSDOF 0
ENDMDL
