MODEL 1
REMARK minimizedAffinity 0.201885343
REMARK minimizedRMSD -1
REMARK  0 active torsions:
REMARK  status: ('A' for Active; 'I' for Inactive)
ROOT
ATOM      1  C2' OXE d   1       0.659   3.566  -1.972  0.00  0.00     0.078 C 
ATOM      2  C1' OXE d   1       1.067   3.531   0.805  0.00  0.00     0.078 C 
ATOM      3  C1  OXE d   1       1.137   2.217   0.067  0.00  0.00    -0.078 A 
ATOM      4  C2  OXE d   1       0.890   2.238  -1.284  0.00  0.00    -0.078 A 
ATOM      5  C3  OXE d   1       0.995   1.062  -2.022  0.00  0.00     0.003 A 
ATOM      6  C4  OXE d   1       1.199  -0.164  -1.377  0.00  0.00    -0.002 A 
ATOM      7  C5  OXE d   1       1.413  -0.212   0.005  0.00  0.00    -0.002 A 
ATOM      8  C6  OXE d   1       1.427   0.972   0.734  0.00  0.00     0.003 A 
ENDROOT
TORSDOF 0
ENDMDL
