MODEL 1
REMARK minimizedAffinity 0.175002798
REMARK minimizedRMSD -1
REMARK  0 active torsions:
REMARK  status: ('A' for Active; 'I' for Inactive)
ROOT
ATOM      1  C2' OXE d   1       0.807   3.550  -1.316  0.00  0.00     0.078 C 
ATOM      2  C1' OXE d   1       0.029   2.457   1.150  0.00  0.00     0.078 C 
ATOM      3  C1  OXE d   1       0.637   1.528   0.129  0.00  0.00    -0.078 A 
ATOM      4  C2  OXE d   1       0.972   2.062  -1.092  0.00  0.00    -0.078 A 
ATOM      5  C3  OXE d   1       1.587   1.261  -2.049  0.00  0.00     0.003 A 
ATOM      6  C4  OXE d   1       1.727  -0.116  -1.838  0.00  0.00    -0.002 A 
ATOM      7  C5  OXE d   1       1.355  -0.688  -0.616  0.00  0.00    -0.002 A 
ATOM      8  C6  OXE d   1       0.850   0.126   0.391  0.00  0.00     0.003 A 
ENDROOT
TORSDOF 0
ENDMDL
