MODEL 1
REMARK minimizedAffinity 5.23909998
REMARK minimizedRMSD -1
REMARK  0 active torsions:
REMARK  status: ('A' for Active; 'I' for Inactive)
ROOT
ATOM      1  C2' OXE d   1       1.122   1.114   1.852  0.00  0.00     0.078 C 
ATOM      2  C1' OXE d   1       1.474  -0.722  -0.242  0.00  0.00     0.078 C 
ATOM      3  C1  OXE d   1       1.309   0.733  -0.602  0.00  0.00    -0.078 A 
ATOM      4  C2  OXE d   1       1.090   1.619   0.426  0.00  0.00    -0.078 A 
ATOM      5  C3  OXE d   1       0.986   2.980   0.153  0.00  0.00     0.003 A 
ATOM      6  C4  OXE d   1       0.948   3.437  -1.169  0.00  0.00    -0.002 A 
ATOM      7  C5  OXE d   1       1.128   2.547  -2.234  0.00  0.00    -0.002 A 
ATOM      8  C6  OXE d   1       1.352   1.201  -1.966  0.00  0.00     0.003 A 
ENDROOT
TORSDOF 0
ENDMDL
