MODEL 1
REMARK minimizedAffinity -3.94020319
REMARK minimizedRMSD -1
REMARK  0 active torsions:
REMARK  status: ('A' for Active; 'I' for Inactive)
ROOT
ATOM      1  C2' OXE d   1       1.318   3.986  -1.687  0.00  0.00     0.078 C 
ATOM      2  C1' OXE d   1       0.931   3.761   1.084  0.00  0.00     0.078 C 
ATOM      3  C1  OXE d   1       0.972   2.489   0.274  0.00  0.00    -0.078 A 
ATOM      4  C2  OXE d   1       1.115   2.612  -1.088  0.00  0.00    -0.078 A 
ATOM      5  C3  OXE d   1       1.214   1.469  -1.876  0.00  0.00     0.003 A 
ATOM      6  C4  OXE d   1       1.015   0.201  -1.315  0.00  0.00    -0.002 A 
ATOM      7  C5  OXE d   1       0.828   0.057   0.064  0.00  0.00    -0.002 A 
ATOM      8  C6  OXE d   1       0.847   1.185   0.876  0.00  0.00     0.003 A 
ENDROOT
TORSDOF 0
ENDMDL
