MODEL 1
REMARK minimizedAffinity 1.21077287
REMARK minimizedRMSD -1
REMARK  0 active torsions:
REMARK  status: ('A' for Active; 'I' for Inactive)
ROOT
ATOM      1  C2' OXE d   1      -1.409   1.510   5.992  0.00  0.00     0.078 C 
ATOM      2  C1' OXE d   1      -3.281  -0.532   5.539  0.00  0.00     0.078 C 
ATOM      3  C1  OXE d   1      -3.079   0.491   4.450  0.00  0.00    -0.078 A 
ATOM      4  C2  OXE d   1      -2.195   1.513   4.699  0.00  0.00    -0.078 A 
ATOM      5  C3  OXE d   1      -1.931   2.453   3.707  0.00  0.00     0.003 A 
ATOM      6  C4  OXE d   1      -2.670   2.455   2.517  0.00  0.00    -0.002 A 
ATOM      7  C5  OXE d   1      -3.604   1.446   2.260  0.00  0.00    -0.002 A 
ATOM      8  C6  OXE d   1      -3.789   0.434   3.196  0.00  0.00     0.003 A 
ENDROOT
TORSDOF 0
ENDMDL
