MODEL 1
REMARK minimizedAffinity 1.77797699
REMARK minimizedRMSD -1
REMARK  0 active torsions:
REMARK  status: ('A' for Active; 'I' for Inactive)
ROOT
ATOM      1  C2' OXE d   1       0.450   2.710  -2.042  0.00  0.00     0.078 C 
ATOM      2  C1' OXE d   1       0.385  -0.095  -1.954  0.00  0.00     0.078 C 
ATOM      3  C1  OXE d   1       0.894   0.635  -0.736  0.00  0.00    -0.078 A 
ATOM      4  C2  OXE d   1       0.966   2.005  -0.805  0.00  0.00    -0.078 A 
ATOM      5  C3  OXE d   1       1.377   2.731   0.309  0.00  0.00     0.003 A 
ATOM      6  C4  OXE d   1       1.862   2.072   1.445  0.00  0.00    -0.002 A 
ATOM      7  C5  OXE d   1       1.835   0.675   1.521  0.00  0.00    -0.002 A 
ATOM      8  C6  OXE d   1       1.315  -0.055   0.458  0.00  0.00     0.003 A 
ENDROOT
TORSDOF 0
ENDMDL
