MODEL 1
REMARK minimizedAffinity 3.39834976
REMARK minimizedRMSD -1
REMARK  0 active torsions:
REMARK  status: ('A' for Active; 'I' for Inactive)
ROOT
ATOM      1  C2' OXE d   1       1.001   3.708  -1.456  0.00  0.00     0.078 C 
ATOM      2  C1' OXE d   1       0.978   2.395   1.025  0.00  0.00     0.078 C 
ATOM      3  C1  OXE d   1       1.066   1.546  -0.219  0.00  0.00    -0.078 A 
ATOM      4  C2  OXE d   1       1.030   2.195  -1.430  0.00  0.00    -0.078 A 
ATOM      5  C3  OXE d   1       1.163   1.464  -2.608  0.00  0.00     0.003 A 
ATOM      6  C4  OXE d   1       1.179   0.064  -2.575  0.00  0.00    -0.002 A 
ATOM      7  C5  OXE d   1       1.178  -0.618  -1.353  0.00  0.00    -0.002 A 
ATOM      8  C6  OXE d   1       1.164   0.109  -0.168  0.00  0.00     0.003 A 
ENDROOT
TORSDOF 0
ENDMDL
