MODEL 1
REMARK minimizedAffinity -4.81527185
REMARK minimizedRMSD -1
REMARK  0 active torsions:
REMARK  status: ('A' for Active; 'I' for Inactive)
ROOT
ATOM      1  C2' OXE d   1       0.630   0.954   1.959  0.00  0.00     0.078 C 
ATOM      2  C1' OXE d   1       0.619  -0.349  -0.527  0.00  0.00     0.078 C 
ATOM      3  C1  OXE d   1       0.818   1.146  -0.518  0.00  0.00    -0.078 A 
ATOM      4  C2  OXE d   1       0.775   1.781   0.699  0.00  0.00    -0.078 A 
ATOM      5  C3  OXE d   1       1.007   3.152   0.770  0.00  0.00     0.003 A 
ATOM      6  C4  OXE d   1       1.131   3.911  -0.400  0.00  0.00    -0.002 A 
ATOM      7  C5  OXE d   1       1.137   3.289  -1.653  0.00  0.00    -0.002 A 
ATOM      8  C6  OXE d   1       1.025   1.905  -1.727  0.00  0.00     0.003 A 
ENDROOT
TORSDOF 0
ENDMDL
