MODEL 1
REMARK minimizedAffinity 1.79850984
REMARK minimizedRMSD -1
REMARK  0 active torsions:
REMARK  status: ('A' for Active; 'I' for Inactive)
ROOT
ATOM      1  C2' OXE d   1       0.765   3.480  -1.528  0.00  0.00     0.078 C 
ATOM      2  C1' OXE d   1      -0.283   2.282   0.785  0.00  0.00     0.078 C 
ATOM      3  C1  OXE d   1       0.610   1.446  -0.098  0.00  0.00    -0.078 A 
ATOM      4  C2  OXE d   1       1.080   2.026  -1.251  0.00  0.00    -0.078 A 
ATOM      5  C3  OXE d   1       1.952   1.317  -2.073  0.00  0.00     0.003 A 
ATOM      6  C4  OXE d   1       2.230  -0.031  -1.816  0.00  0.00    -0.002 A 
ATOM      7  C5  OXE d   1       1.729  -0.653  -0.667  0.00  0.00    -0.002 A 
ATOM      8  C6  OXE d   1       0.954   0.083   0.222  0.00  0.00     0.003 A 
ENDROOT
TORSDOF 0
ENDMDL
