MODEL 1
REMARK minimizedAffinity 16.7274094
REMARK minimizedRMSD -1
REMARK  1 active torsions:
REMARK  status: ('A' for Active; 'I' for Inactive)
REMARK    1  A    between atoms: C1_2  and  C2_3 
ROOT
ATOM      1  C2  UNL d   1      -5.603  -3.724  -3.567  0.00  0.00    -0.076 A 
ATOM      2  C3  UNL d   1      -5.946  -3.208  -4.829  0.00  0.00     0.004 A 
ATOM      3  C4  UNL d   1      -5.583  -3.873  -5.999  0.00  0.00    -0.003 A 
ATOM      4  C5  UNL d   1      -4.871  -5.066  -5.926  0.00  0.00     0.000 A 
ATOM      5  C6  UNL d   1      -4.538  -5.601  -4.683  0.00  0.00     0.000 A 
ATOM      6  C7  UNL d   1      -4.910  -4.952  -3.493  0.00  0.00    -0.073 A 
ATOM      7  C8  UNL d   1      -4.519  -5.571  -2.179  0.00  0.00     0.078 C 
ENDROOT
BRANCH   1   8
ATOM      8  C1  UNL d   1      -6.000  -2.945  -2.334  0.00  0.00     0.053 C 
ATOM      9  C   UNL d   1      -5.953  -1.441  -2.554  0.00  0.00     0.018 C 
ENDBRANCH   1   8
TORSDOF 1
ENDMDL
