MODEL 1
REMARK minimizedAffinity 12.2469301
REMARK minimizedRMSD -1
REMARK  1 active torsions:
REMARK  status: ('A' for Active; 'I' for Inactive)
REMARK    1  A    between atoms: C1_2  and  C2_3 
ROOT
ATOM      1  C2  UNL d   1      -5.966  -2.103  -1.547  0.00  0.00    -0.076 A 
ATOM      2  C3  UNL d   1      -5.975  -3.471  -1.224  0.00  0.00     0.004 A 
ATOM      3  C4  UNL d   1      -5.983  -4.444  -2.221  0.00  0.00    -0.003 A 
ATOM      4  C5  UNL d   1      -5.981  -4.066  -3.559  0.00  0.00     0.000 A 
ATOM      5  C6  UNL d   1      -5.954  -2.713  -3.899  0.00  0.00     0.000 A 
ATOM      6  C7  UNL d   1      -5.929  -1.720  -2.905  0.00  0.00    -0.073 A 
ATOM      7  C8  UNL d   1      -5.907  -0.276  -3.328  0.00  0.00     0.078 C 
ENDROOT
BRANCH   1   8
ATOM      8  C1  UNL d   1      -5.985  -1.093  -0.423  0.00  0.00     0.053 C 
ATOM      9  C   UNL d   1      -4.692  -1.086   0.377  0.00  0.00     0.018 C 
ENDBRANCH   1   8
TORSDOF 1
ENDMDL
