MODEL 1
REMARK minimizedAffinity 12.7125292
REMARK minimizedRMSD -1
REMARK  1 active torsions:
REMARK  status: ('A' for Active; 'I' for Inactive)
REMARK    1  A    between atoms: C1_2  and  C2_3 
ROOT
ATOM      1  C2  UNL d   1      -4.837  -3.701  -0.543  0.00  0.00    -0.076 A 
ATOM      2  C3  UNL d   1      -4.617  -4.970  -1.106  0.00  0.00     0.004 A 
ATOM      3  C4  UNL d   1      -4.052  -6.000  -0.356  0.00  0.00    -0.003 A 
ATOM      4  C5  UNL d   1      -3.699  -5.778   0.971  0.00  0.00     0.000 A 
ATOM      5  C6  UNL d   1      -3.927  -4.530   1.551  0.00  0.00     0.000 A 
ATOM      6  C7  UNL d   1      -4.510  -3.486   0.813  0.00  0.00    -0.073 A 
ATOM      7  C8  UNL d   1      -4.728  -2.159   1.487  0.00  0.00     0.078 C 
ENDROOT
BRANCH   1   8
ATOM      8  C1  UNL d   1      -5.428  -2.615  -1.414  0.00  0.00     0.053 C 
ATOM      9  C   UNL d   1      -5.501  -3.018  -2.878  0.00  0.00     0.018 C 
ENDBRANCH   1   8
TORSDOF 1
ENDMDL
