MODEL 1
REMARK minimizedAffinity 14.7817211
REMARK minimizedRMSD -1
REMARK  1 active torsions:
REMARK  status: ('A' for Active; 'I' for Inactive)
REMARK    1  A    between atoms: C1_2  and  C2_3 
ROOT
ATOM      1  C2  UNL d   1       0.172   0.406  -4.137  0.00  0.00    -0.076 A 
ATOM      2  C3  UNL d   1      -0.488   1.347  -3.328  0.00  0.00     0.004 A 
ATOM      3  C4  UNL d   1       0.072   1.776  -2.125  0.00  0.00    -0.003 A 
ATOM      4  C5  UNL d   1       1.301   1.273  -1.714  0.00  0.00     0.000 A 
ATOM      5  C6  UNL d   1       1.978   0.353  -2.513  0.00  0.00     0.000 A 
ATOM      6  C7  UNL d   1       1.436  -0.079  -3.736  0.00  0.00    -0.073 A 
ATOM      7  C8  UNL d   1       2.206  -1.078  -4.555  0.00  0.00     0.078 C 
ENDROOT
BRANCH   1   8
ATOM      8  C1  UNL d   1      -0.496  -0.043  -5.417  0.00  0.00     0.053 C 
ATOM      9  C   UNL d   1      -1.619   0.888  -5.846  0.00  0.00     0.018 C 
ENDBRANCH   1   8
TORSDOF 1
ENDMDL
