MODEL 1
REMARK minimizedAffinity 17.8007736
REMARK minimizedRMSD -1
REMARK  1 active torsions:
REMARK  status: ('A' for Active; 'I' for Inactive)
REMARK    1  A    between atoms: C1_2  and  C2_3 
ROOT
ATOM      1  C2  UNL d   1      -0.471  -1.025  -5.263  0.00  0.00    -0.076 A 
ATOM      2  C3  UNL d   1      -0.096  -2.379  -5.217  0.00  0.00     0.004 A 
ATOM      3  C4  UNL d   1      -1.002  -3.386  -5.547  0.00  0.00    -0.003 A 
ATOM      4  C5  UNL d   1      -2.297  -3.054  -5.930  0.00  0.00     0.000 A 
ATOM      5  C6  UNL d   1      -2.681  -1.716  -5.999  0.00  0.00     0.000 A 
ATOM      6  C7  UNL d   1      -1.775  -0.688  -5.685  0.00  0.00    -0.073 A 
ATOM      7  C8  UNL d   1      -2.244   0.739  -5.770  0.00  0.00     0.078 C 
ENDROOT
BRANCH   1   8
ATOM      8  C1  UNL d   1       0.546   0.022  -4.868  0.00  0.00     0.053 C 
ATOM      9  C   UNL d   1       1.541  -0.492  -3.839  0.00  0.00     0.018 C 
ENDBRANCH   1   8
TORSDOF 1
ENDMDL
