MODEL 1
REMARK minimizedAffinity 15.6097136
REMARK minimizedRMSD -1
REMARK  1 active torsions:
REMARK  status: ('A' for Active; 'I' for Inactive)
REMARK    1  A    between atoms: C1_2  and  C2_3 
ROOT
ATOM      1  C2  UNL d   1      -4.664  -4.264  -1.376  0.00  0.00    -0.076 A 
ATOM      2  C3  UNL d   1      -4.659  -5.606  -1.796  0.00  0.00     0.004 A 
ATOM      3  C4  UNL d   1      -5.322  -5.996  -2.959  0.00  0.00    -0.003 A 
ATOM      4  C5  UNL d   1      -5.999  -5.051  -3.721  0.00  0.00     0.000 A 
ATOM      5  C6  UNL d   1      -6.000  -3.713  -3.329  0.00  0.00     0.000 A 
ATOM      6  C7  UNL d   1      -5.323  -3.300  -2.168  0.00  0.00    -0.073 A 
ATOM      7  C8  UNL d   1      -5.362  -1.845  -1.789  0.00  0.00     0.078 C 
ENDROOT
BRANCH   1   8
ATOM      8  C1  UNL d   1      -3.951  -3.905  -0.092  0.00  0.00     0.053 C 
ATOM      9  C   UNL d   1      -3.462  -5.130   0.665  0.00  0.00     0.018 C 
ENDBRANCH   1   8
TORSDOF 1
ENDMDL
