MODEL 1
REMARK minimizedAffinity 13.475522
REMARK minimizedRMSD -1
REMARK  1 active torsions:
REMARK  status: ('A' for Active; 'I' for Inactive)
REMARK    1  A    between atoms: C1_2  and  C2_3 
ROOT
ATOM      1  C2  UNL d   1       2.966   2.083  -3.309  0.00  0.00    -0.076 A 
ATOM      2  C3  UNL d   1       3.507   2.053  -4.606  0.00  0.00     0.004 A 
ATOM      3  C4  UNL d   1       4.067   3.195  -5.176  0.00  0.00    -0.003 A 
ATOM      4  C5  UNL d   1       4.096   4.385  -4.458  0.00  0.00     0.000 A 
ATOM      5  C6  UNL d   1       3.580   4.429  -3.163  0.00  0.00     0.000 A 
ATOM      6  C7  UNL d   1       3.026   3.282  -2.568  0.00  0.00    -0.073 A 
ATOM      7  C8  UNL d   1       2.478   3.387  -1.171  0.00  0.00     0.078 C 
ENDROOT
BRANCH   1   8
ATOM      8  C1  UNL d   1       2.348   0.820  -2.753  0.00  0.00     0.053 C 
ATOM      9  C   UNL d   1       2.223  -0.277  -3.799  0.00  0.00     0.018 C 
ENDBRANCH   1   8
TORSDOF 1
ENDMDL
