MODEL 1
REMARK minimizedAffinity 10.4326239
REMARK minimizedRMSD -1
REMARK  1 active torsions:
REMARK  status: ('A' for Active; 'I' for Inactive)
REMARK    1  A    between atoms: C1_2  and  C2_3 
ROOT
ATOM      1  C2  UNL d   1       1.838   1.417  -1.636  0.00  0.00    -0.076 A 
ATOM      2  C3  UNL d   1       2.629   1.058  -2.742  0.00  0.00     0.004 A 
ATOM      3  C4  UNL d   1       2.451  -0.167  -3.383  0.00  0.00    -0.003 A 
ATOM      4  C5  UNL d   1       1.480  -1.052  -2.929  0.00  0.00     0.000 A 
ATOM      5  C6  UNL d   1       0.676  -0.705  -1.844  0.00  0.00     0.000 A 
ATOM      6  C7  UNL d   1       0.830   0.533  -1.197  0.00  0.00    -0.073 A 
ATOM      7  C8  UNL d   1      -0.061   0.853  -0.028  0.00  0.00     0.078 C 
ENDROOT
BRANCH   1   8
ATOM      8  C1  UNL d   1       2.094   2.748  -0.965  0.00  0.00     0.053 C 
ATOM      9  C   UNL d   1       2.183   3.895  -1.959  0.00  0.00     0.018 C 
ENDBRANCH   1   8
TORSDOF 1
ENDMDL
