MODEL 1
REMARK minimizedAffinity 10.4252205
REMARK minimizedRMSD -1
REMARK  1 active torsions:
REMARK  status: ('A' for Active; 'I' for Inactive)
REMARK    1  A    between atoms: C1_2  and  C2_3 
ROOT
ATOM      1  C2  UNL d   1       2.194   0.906  -2.186  0.00  0.00    -0.076 A 
ATOM      2  C3  UNL d   1       2.955   0.386  -3.248  0.00  0.00     0.004 A 
ATOM      3  C4  UNL d   1       2.486  -0.682  -4.011  0.00  0.00    -0.003 A 
ATOM      4  C5  UNL d   1       1.247  -1.246  -3.726  0.00  0.00     0.000 A 
ATOM      5  C6  UNL d   1       0.472  -0.732  -2.688  0.00  0.00     0.000 A 
ATOM      6  C7  UNL d   1       0.923   0.355  -1.919  0.00  0.00    -0.073 A 
ATOM      7  C8  UNL d   1       0.048   0.866  -0.808  0.00  0.00     0.078 C 
ENDROOT
BRANCH   1   8
ATOM      8  C1  UNL d   1       2.767   2.046  -1.376  0.00  0.00     0.053 C 
ATOM      9  C   UNL d   1       2.147   3.387  -1.738  0.00  0.00     0.018 C 
ENDBRANCH   1   8
TORSDOF 1
ENDMDL
