MODEL 1
REMARK minimizedAffinity 6.33842421
REMARK minimizedRMSD -1
REMARK  0 active torsions:
REMARK  status: ('A' for Active; 'I' for Inactive)
ROOT
ATOM      1  C   UNL d   1       1.210   5.660  -5.725  0.00  0.00     0.020 A 
ATOM      2  C1  UNL d   1       0.920   4.472  -5.055  0.00  0.00     0.020 A 
ATOM      3  C2  UNL d   1       1.956   3.623  -4.660  0.00  0.00     0.034 A 
ATOM      4  C3  UNL d   1       3.287   3.960  -4.934  0.00  0.00     0.017 A 
ATOM      5  C4  UNL d   1       3.576   5.153  -5.606  0.00  0.00     0.017 A 
ATOM      6  C5  UNL d   1       2.535   6.000  -5.999  0.00  0.00     0.034 A 
ATOM      7 Cl   UNL d   1       5.193   5.638  -5.979  0.00  0.00    -0.070 Cl
ATOM      8 Cl1  UNL d   1       4.517   2.864  -4.416  0.00  0.00    -0.070 Cl
ENDROOT
TORSDOF 0
ENDMDL
