MODEL 1
REMARK minimizedAffinity 3.79377389
REMARK minimizedRMSD -1
REMARK  0 active torsions:
REMARK  status: ('A' for Active; 'I' for Inactive)
ROOT
ATOM      1  C   UNL d   1      -4.167   1.772  -1.426  0.00  0.00     0.020 A 
ATOM      2  C1  UNL d   1      -5.186   1.920  -2.366  0.00  0.00     0.020 A 
ATOM      3  C2  UNL d   1      -5.393   0.933  -3.332  0.00  0.00     0.034 A 
ATOM      4  C3  UNL d   1      -4.580  -0.205  -3.362  0.00  0.00     0.017 A 
ATOM      5  C4  UNL d   1      -3.557  -0.353  -2.418  0.00  0.00     0.017 A 
ATOM      6  C5  UNL d   1      -3.354   0.638  -1.452  0.00  0.00     0.034 A 
ATOM      7 Cl   UNL d   1      -2.512  -1.730  -2.390  0.00  0.00    -0.070 Cl
ATOM      8 Cl1  UNL d   1      -4.893  -1.385  -4.584  0.00  0.00    -0.070 Cl
ENDROOT
TORSDOF 0
ENDMDL
