MODEL 1
REMARK minimizedAffinity 4.56544352
REMARK minimizedRMSD -1
REMARK  0 active torsions:
REMARK  status: ('A' for Active; 'I' for Inactive)
ROOT
ATOM      1  C   UNL d   1       3.015  -1.638  -1.265  0.00  0.00     0.020 A 
ATOM      2  C1  UNL d   1       3.540  -1.016  -0.133  0.00  0.00     0.020 A 
ATOM      3  C2  UNL d   1       3.071  -1.364   1.135  0.00  0.00     0.034 A 
ATOM      4  C3  UNL d   1       2.075  -2.337   1.275  0.00  0.00     0.017 A 
ATOM      5  C4  UNL d   1       1.550  -2.961   0.139  0.00  0.00     0.017 A 
ATOM      6  C5  UNL d   1       2.022  -2.609  -1.129  0.00  0.00     0.034 A 
ATOM      7 Cl   UNL d   1       0.319  -4.172   0.232  0.00  0.00    -0.070 Cl
ATOM      8 Cl1  UNL d   1       1.544  -2.718   2.875  0.00  0.00    -0.070 Cl
ENDROOT
TORSDOF 0
ENDMDL
