MODEL 1
REMARK minimizedAffinity 4.39835787
REMARK minimizedRMSD -1
REMARK  0 active torsions:
REMARK  status: ('A' for Active; 'I' for Inactive)
ROOT
ATOM      1  C   UNL d   1       2.766   1.470   0.865  0.00  0.00     0.020 A 
ATOM      2  C1  UNL d   1       2.333   0.389   0.099  0.00  0.00     0.020 A 
ATOM      3  C2  UNL d   1       1.205   0.516  -0.714  0.00  0.00     0.034 A 
ATOM      4  C3  UNL d   1       0.507   1.728  -0.764  0.00  0.00     0.017 A 
ATOM      5  C4  UNL d   1       0.943   2.813   0.004  0.00  0.00     0.017 A 
ATOM      6  C5  UNL d   1       2.073   2.680   0.817  0.00  0.00     0.034 A 
ATOM      7 Cl   UNL d   1       0.133   4.340  -0.005  0.00  0.00    -0.070 Cl
ATOM      8 Cl1  UNL d   1      -0.879   1.815  -1.793  0.00  0.00    -0.070 Cl
ENDROOT
TORSDOF 0
ENDMDL
