MODEL 1
REMARK minimizedAffinity 1.72016418
REMARK minimizedRMSD -1
REMARK  0 active torsions:
REMARK  status: ('A' for Active; 'I' for Inactive)
ROOT
ATOM      1  C   UNL d   1      -3.161  -0.370  -3.219  0.00  0.00     0.020 A 
ATOM      2  C1  UNL d   1      -3.007   0.435  -4.347  0.00  0.00     0.020 A 
ATOM      3  C2  UNL d   1      -3.782   1.587  -4.494  0.00  0.00     0.034 A 
ATOM      4  C3  UNL d   1      -4.715   1.938  -3.512  0.00  0.00     0.017 A 
ATOM      5  C4  UNL d   1      -4.869   1.129  -2.380  0.00  0.00     0.017 A 
ATOM      6  C5  UNL d   1      -4.090  -0.023  -2.237  0.00  0.00     0.034 A 
ATOM      7 Cl   UNL d   1      -6.000   1.497  -1.125  0.00  0.00    -0.070 Cl
ATOM      8 Cl1  UNL d   1      -5.639   3.377  -3.758  0.00  0.00    -0.070 Cl
ENDROOT
TORSDOF 0
ENDMDL
