MODEL 1
REMARK minimizedAffinity 3.08882546
REMARK minimizedRMSD -1
REMARK  0 active torsions:
REMARK  status: ('A' for Active; 'I' for Inactive)
ROOT
ATOM      1  C   UNL d   1      -4.652   2.021  -5.173  0.00  0.00     0.020 A 
ATOM      2  C1  UNL d   1      -5.749   1.357  -4.627  0.00  0.00     0.020 A 
ATOM      3  C2  UNL d   1      -5.667   0.811  -3.344  0.00  0.00     0.034 A 
ATOM      4  C3  UNL d   1      -4.485   0.929  -2.603  0.00  0.00     0.017 A 
ATOM      5  C4  UNL d   1      -3.384   1.597  -3.153  0.00  0.00     0.017 A 
ATOM      6  C5  UNL d   1      -3.472   2.141  -4.438  0.00  0.00     0.034 A 
ATOM      7 Cl   UNL d   1      -1.892   1.782  -2.300  0.00  0.00    -0.070 Cl
ATOM      8 Cl1  UNL d   1      -4.453   0.231  -1.023  0.00  0.00    -0.070 Cl
ENDROOT
TORSDOF 0
ENDMDL
