MODEL 1
REMARK minimizedAffinity 0.670369267
REMARK minimizedRMSD -1
REMARK  0 active torsions:
REMARK  status: ('A' for Active; 'I' for Inactive)
ROOT
ATOM      1  C   UNL d   1      -3.220   0.095  -3.533  0.00  0.00     0.020 A 
ATOM      2  C1  UNL d   1      -4.575  -0.021  -3.844  0.00  0.00     0.020 A 
ATOM      3  C2  UNL d   1      -5.364   1.125  -3.964  0.00  0.00     0.034 A 
ATOM      4  C3  UNL d   1      -4.799   2.392  -3.774  0.00  0.00     0.017 A 
ATOM      5  C4  UNL d   1      -3.440   2.507  -3.462  0.00  0.00     0.017 A 
ATOM      6  C5  UNL d   1      -2.654   1.356  -3.343  0.00  0.00     0.034 A 
ATOM      7 Cl   UNL d   1      -2.672   4.035  -3.213  0.00  0.00    -0.070 Cl
ATOM      8 Cl1  UNL d   1      -5.834   3.766  -3.939  0.00  0.00    -0.070 Cl
ENDROOT
TORSDOF 0
ENDMDL
