MODEL 1
REMARK minimizedAffinity 1.56076121
REMARK minimizedRMSD -1
REMARK  0 active torsions:
REMARK  status: ('A' for Active; 'I' for Inactive)
ROOT
ATOM      1  C   UNL d   1      -4.243   3.996  -3.435  0.00  0.00     0.020 A 
ATOM      2  C1  UNL d   1      -5.597   3.660  -3.415  0.00  0.00     0.020 A 
ATOM      3  C2  UNL d   1      -6.000   2.365  -3.748  0.00  0.00     0.034 A 
ATOM      4  C3  UNL d   1      -5.049   1.401  -4.101  0.00  0.00     0.017 A 
ATOM      5  C4  UNL d   1      -3.691   1.739  -4.121  0.00  0.00     0.017 A 
ATOM      6  C5  UNL d   1      -3.293   3.037  -3.787  0.00  0.00     0.034 A 
ATOM      7 Cl   UNL d   1      -2.460   0.603  -4.547  0.00  0.00    -0.070 Cl
ATOM      8 Cl1  UNL d   1      -5.619  -0.180  -4.501  0.00  0.00    -0.070 Cl
ENDROOT
TORSDOF 0
ENDMDL
