MODEL 1
REMARK minimizedAffinity 3.41586804
REMARK minimizedRMSD -1
REMARK  0 active torsions:
REMARK  status: ('A' for Active; 'I' for Inactive)
ROOT
ATOM      1  C   UNL d   1       2.093   0.216  -0.386  0.00  0.00     0.020 A 
ATOM      2  C1  UNL d   1       1.564   1.065   0.585  0.00  0.00     0.020 A 
ATOM      3  C2  UNL d   1       2.406   1.927   1.292  0.00  0.00     0.034 A 
ATOM      4  C3  UNL d   1       3.780   1.941   1.029  0.00  0.00     0.017 A 
ATOM      5  C4  UNL d   1       4.310   1.088   0.053  0.00  0.00     0.017 A 
ATOM      6  C5  UNL d   1       3.463   0.228  -0.652  0.00  0.00     0.034 A 
ATOM      7 Cl   UNL d   1       5.995   1.050  -0.327  0.00  0.00    -0.070 Cl
ATOM      8 Cl1  UNL d   1       4.762   3.033   1.940  0.00  0.00    -0.070 Cl
ENDROOT
TORSDOF 0
ENDMDL
