MODEL 1
REMARK minimizedAffinity 7.15841961
REMARK minimizedRMSD -1
REMARK  0 active torsions:
REMARK  status: ('A' for Active; 'I' for Inactive)
ROOT
ATOM      1  C   UNL d   1       4.639   2.526  -0.114  0.00  0.00     0.020 A 
ATOM      2  C1  UNL d   1       4.850   1.675  -1.199  0.00  0.00     0.020 A 
ATOM      3  C2  UNL d   1       3.962   0.627  -1.446  0.00  0.00     0.034 A 
ATOM      4  C3  UNL d   1       2.859   0.425  -0.608  0.00  0.00     0.017 A 
ATOM      5  C4  UNL d   1       2.649   1.279   0.481  0.00  0.00     0.017 A 
ATOM      6  C5  UNL d   1       3.541   2.328   0.724  0.00  0.00     0.034 A 
ATOM      7 Cl   UNL d   1       1.311   1.094   1.559  0.00  0.00    -0.070 Cl
ATOM      8 Cl1  UNL d   1       1.801  -0.891  -0.974  0.00  0.00    -0.070 Cl
ENDROOT
TORSDOF 0
ENDMDL
