MODEL 1
REMARK minimizedAffinity -1.70124173
REMARK minimizedRMSD -1
REMARK  0 active torsions:
REMARK  status: ('A' for Active; 'I' for Inactive)
ROOT
ATOM      1  C   UNL d   1      -5.193  -0.366  -1.358  0.00  0.00     0.020 A 
ATOM      2  C1  UNL d   1      -5.943   0.747  -0.980  0.00  0.00     0.020 A 
ATOM      3  C2  UNL d   1      -5.995   1.869  -1.809  0.00  0.00     0.034 A 
ATOM      4  C3  UNL d   1      -5.296   1.881  -3.022  0.00  0.00     0.017 A 
ATOM      5  C4  UNL d   1      -4.543   0.763  -3.401  0.00  0.00     0.017 A 
ATOM      6  C5  UNL d   1      -4.495  -0.358  -2.567  0.00  0.00     0.034 A 
ATOM      7 Cl   UNL d   1      -3.654   0.703  -4.882  0.00  0.00    -0.070 Cl
ATOM      8 Cl1  UNL d   1      -5.405   3.302  -3.998  0.00  0.00    -0.070 Cl
ENDROOT
TORSDOF 0
ENDMDL
