MODEL 1
REMARK minimizedAffinity 7.36395693
REMARK minimizedRMSD -1
REMARK  0 active torsions:
REMARK  status: ('A' for Active; 'I' for Inactive)
ROOT
ATOM      1  C   UNL d   1      -3.643   2.298  -3.748  0.00  0.00     0.020 A 
ATOM      2  C1  UNL d   1      -3.098   1.132  -4.285  0.00  0.00     0.020 A 
ATOM      3  C2  UNL d   1      -3.444  -0.111  -3.752  0.00  0.00     0.034 A 
ATOM      4  C3  UNL d   1      -4.339  -0.191  -2.678  0.00  0.00     0.017 A 
ATOM      5  C4  UNL d   1      -4.885   0.979  -2.140  0.00  0.00     0.017 A 
ATOM      6  C5  UNL d   1      -4.535   2.221  -2.678  0.00  0.00     0.034 A 
ATOM      7 Cl   UNL d   1      -5.995   0.960  -0.815  0.00  0.00    -0.070 Cl
ATOM      8 Cl1  UNL d   1      -4.723  -1.762  -2.068  0.00  0.00    -0.070 Cl
ENDROOT
TORSDOF 0
ENDMDL
