MODEL 1
REMARK minimizedAffinity 1.45646048
REMARK minimizedRMSD -1
REMARK  0 active torsions:
REMARK  status: ('A' for Active; 'I' for Inactive)
ROOT
ATOM      1  C   UNL d   1      -5.795   1.542  -4.708  0.00  0.00     0.020 A 
ATOM      2  C1  UNL d   1      -4.623   0.917  -5.132  0.00  0.00     0.020 A 
ATOM      3  C2  UNL d   1      -3.440   1.087  -4.410  0.00  0.00     0.034 A 
ATOM      4  C3  UNL d   1      -3.426   1.886  -3.260  0.00  0.00     0.017 A 
ATOM      5  C4  UNL d   1      -4.603   2.513  -2.836  0.00  0.00     0.017 A 
ATOM      6  C5  UNL d   1      -5.785   2.339  -3.562  0.00  0.00     0.034 A 
ATOM      7 Cl   UNL d   1      -4.664   3.513  -1.427  0.00  0.00    -0.070 Cl
ATOM      8 Cl1  UNL d   1      -1.928   2.052  -2.416  0.00  0.00    -0.070 Cl
ENDROOT
TORSDOF 0
ENDMDL
