MODEL 1
REMARK minimizedAffinity -2.94246435
REMARK minimizedRMSD -1
REMARK  0 active torsions:
REMARK  status: ('A' for Active; 'I' for Inactive)
ROOT
ATOM      1  C1  BNZ d   1       5.079  -1.994  -5.148  0.00  0.00     0.000 A 
ATOM      2  C2  BNZ d   1       4.280  -2.712  -5.997  0.00  0.00     0.000 A 
ATOM      3  C3  BNZ d   1       4.312  -4.079  -6.000  0.00  0.00     0.000 A 
ATOM      4  C4  BNZ d   1       5.171  -4.723  -5.183  0.00  0.00     0.000 A 
ATOM      5  C5  BNZ d   1       5.989  -4.013  -4.328  0.00  0.00     0.000 A 
ATOM      6  C6  BNZ d   1       5.926  -2.639  -4.300  0.00  0.00     0.000 A 
ENDROOT
TORSDOF 0
ENDMDL
