MODEL 1
REMARK minimizedAffinity -2.68150258
REMARK minimizedRMSD -1
REMARK  0 active torsions:
REMARK  status: ('A' for Active; 'I' for Inactive)
ROOT
ATOM      1  C1  BNZ d   1       5.866  -5.257  -4.011  0.00  0.00     0.000 A 
ATOM      2  C2  BNZ d   1       4.750  -5.997  -3.727  0.00  0.00     0.000 A 
ATOM      3  C3  BNZ d   1       3.677  -5.999  -4.575  0.00  0.00     0.000 A 
ATOM      4  C4  BNZ d   1       3.707  -5.231  -5.683  0.00  0.00     0.000 A 
ATOM      5  C5  BNZ d   1       4.821  -4.472  -5.979  0.00  0.00     0.000 A 
ATOM      6  C6  BNZ d   1       5.914  -4.503  -5.143  0.00  0.00     0.000 A 
ENDROOT
TORSDOF 0
ENDMDL
