MODEL 1
REMARK minimizedAffinity -3.11447954
REMARK minimizedRMSD -1
REMARK  0 active torsions:
REMARK  status: ('A' for Active; 'I' for Inactive)
ROOT
ATOM      1  C1  BNZ d   1       5.032  -6.000  -3.937  0.00  0.00     0.000 A 
ATOM      2  C2  BNZ d   1       4.049  -5.998  -4.890  0.00  0.00     0.000 A 
ATOM      3  C3  BNZ d   1       4.028  -5.048  -5.872  0.00  0.00     0.000 A 
ATOM      4  C4  BNZ d   1       4.965  -4.079  -5.877  0.00  0.00     0.000 A 
ATOM      5  C5  BNZ d   1       5.958  -4.061  -4.918  0.00  0.00     0.000 A 
ATOM      6  C6  BNZ d   1       5.998  -5.042  -3.953  0.00  0.00     0.000 A 
ENDROOT
TORSDOF 0
ENDMDL
