MODEL 1
REMARK minimizedAffinity -2.68246436
REMARK minimizedRMSD -1
REMARK  0 active torsions:
REMARK  status: ('A' for Active; 'I' for Inactive)
ROOT
ATOM      1  C1  BNZ d   1       4.222  -3.775  -4.580  0.00  0.00     0.000 A 
ATOM      2  C2  BNZ d   1       3.307  -4.743  -4.899  0.00  0.00     0.000 A 
ATOM      3  C3  BNZ d   1       3.683  -5.862  -5.587  0.00  0.00     0.000 A 
ATOM      4  C4  BNZ d   1       4.963  -5.994  -5.990  0.00  0.00     0.000 A 
ATOM      5  C5  BNZ d   1       5.895  -5.023  -5.685  0.00  0.00     0.000 A 
ATOM      6  C6  BNZ d   1       5.522  -3.916  -4.958  0.00  0.00     0.000 A 
ENDROOT
TORSDOF 0
ENDMDL
