MODEL 1
REMARK minimizedAffinity -3.34077072
REMARK minimizedRMSD -1
REMARK  0 active torsions:
REMARK  status: ('A' for Active; 'I' for Inactive)
ROOT
ATOM      1  C1  BNZ d   1       5.997  -4.720  -4.340  0.00  0.00     0.000 A 
ATOM      2  C2  BNZ d   1       5.998  -3.381  -4.626  0.00  0.00     0.000 A 
ATOM      3  C3  BNZ d   1       4.846  -2.742  -4.990  0.00  0.00     0.000 A 
ATOM      4  C4  BNZ d   1       3.704  -3.450  -5.106  0.00  0.00     0.000 A 
ATOM      5  C5  BNZ d   1       3.689  -4.802  -4.831  0.00  0.00     0.000 A 
ATOM      6  C6  BNZ d   1       4.842  -5.434  -4.427  0.00  0.00     0.000 A 
ENDROOT
TORSDOF 0
ENDMDL
