MODEL 1
REMARK minimizedAffinity -3.13302422
REMARK minimizedRMSD -1
REMARK  0 active torsions:
REMARK  status: ('A' for Active; 'I' for Inactive)
ROOT
ATOM      1  C1  BNZ d   1       3.428  -3.514  -5.289  0.00  0.00     0.000 A 
ATOM      2  C2  BNZ d   1       3.801  -2.196  -5.297  0.00  0.00     0.000 A 
ATOM      3  C3  BNZ d   1       5.075  -1.831  -5.632  0.00  0.00     0.000 A 
ATOM      4  C4  BNZ d   1       5.984  -2.784  -5.919  0.00  0.00     0.000 A 
ATOM      5  C5  BNZ d   1       5.626  -4.118  -5.907  0.00  0.00     0.000 A 
ATOM      6  C6  BNZ d   1       4.333  -4.479  -5.607  0.00  0.00     0.000 A 
ENDROOT
TORSDOF 0
ENDMDL
