MODEL 1
REMARK minimizedAffinity -1.89648831
REMARK minimizedRMSD -1
REMARK  0 active torsions:
REMARK  status: ('A' for Active; 'I' for Inactive)
ROOT
ATOM      1  C1  BNZ d   1       5.966  -3.743  -5.436  0.00  0.00     0.000 A 
ATOM      2  C2  BNZ d   1       5.998  -5.091  -5.676  0.00  0.00     0.000 A 
ATOM      3  C3  BNZ d   1       4.913  -5.876  -5.403  0.00  0.00     0.000 A 
ATOM      4  C4  BNZ d   1       3.814  -5.321  -4.854  0.00  0.00     0.000 A 
ATOM      5  C5  BNZ d   1       3.769  -3.965  -4.598  0.00  0.00     0.000 A 
ATOM      6  C6  BNZ d   1       4.849  -3.171  -4.910  0.00  0.00     0.000 A 
ENDROOT
TORSDOF 0
ENDMDL
