MODEL 1
REMARK minimizedAffinity -3.59966087
REMARK minimizedRMSD -1
REMARK  0 active torsions:
REMARK  status: ('A' for Active; 'I' for Inactive)
ROOT
ATOM      1  C1  BNZ d   1       5.262  -2.871  -3.799  0.00  0.00     0.000 A 
ATOM      2  C2  BNZ d   1       4.549  -2.193  -4.751  0.00  0.00     0.000 A 
ATOM      3  C3  BNZ d   1       3.854  -2.866  -5.717  0.00  0.00     0.000 A 
ATOM      4  C4  BNZ d   1       3.906  -4.213  -5.754  0.00  0.00     0.000 A 
ATOM      5  C5  BNZ d   1       4.628  -4.911  -4.806  0.00  0.00     0.000 A 
ATOM      6  C6  BNZ d   1       5.294  -4.232  -3.812  0.00  0.00     0.000 A 
ENDROOT
TORSDOF 0
ENDMDL
