MODEL 1
REMARK minimizedAffinity -2.39791346
REMARK minimizedRMSD -1
REMARK  0 active torsions:
REMARK  status: ('A' for Active; 'I' for Inactive)
ROOT
ATOM      1  C1  BNZ d   1       4.144  -4.913  -4.005  0.00  0.00     0.000 A 
ATOM      2  C2  BNZ d   1       4.904  -3.782  -4.136  0.00  0.00     0.000 A 
ATOM      3  C3  BNZ d   1       5.816  -3.664  -5.147  0.00  0.00     0.000 A 
ATOM      4  C4  BNZ d   1       5.996  -4.693  -6.000  0.00  0.00     0.000 A 
ATOM      5  C5  BNZ d   1       5.244  -5.844  -5.875  0.00  0.00     0.000 A 
ATOM      6  C6  BNZ d   1       4.299  -5.943  -4.880  0.00  0.00     0.000 A 
ENDROOT
TORSDOF 0
ENDMDL
