MODEL 1
REMARK minimizedAffinity 2.84704781
REMARK minimizedRMSD -1
REMARK  0 active torsions:
REMARK  status: ('A' for Active; 'I' for Inactive)
ROOT
ATOM      1  C2' OXE d   1       5.994  -4.497  -4.881  0.00  0.00     0.078 C 
ATOM      2  C1' OXE d   1       3.433  -3.635  -5.642  0.00  0.00     0.078 C 
ATOM      3  C1  OXE d   1       4.090  -2.942  -4.475  0.00  0.00    -0.078 A 
ATOM      4  C2  OXE d   1       5.323  -3.402  -4.080  0.00  0.00    -0.078 A 
ATOM      5  C3  OXE d   1       5.998  -2.763  -3.043  0.00  0.00     0.003 A 
ATOM      6  C4  OXE d   1       5.366  -1.758  -2.300  0.00  0.00    -0.002 A 
ATOM      7  C5  OXE d   1       4.094  -1.302  -2.661  0.00  0.00    -0.002 A 
ATOM      8  C6  OXE d   1       3.461  -1.853  -3.769  0.00  0.00     0.003 A 
ENDROOT
TORSDOF 0
ENDMDL
