MODEL 1
REMARK minimizedAffinity 8.39626122
REMARK minimizedRMSD -1
REMARK  0 active torsions:
REMARK  status: ('A' for Active; 'I' for Inactive)
ROOT
ATOM      1  C2' OXE d   1      -1.929   4.613  -2.880  0.00  0.00     0.078 C 
ATOM      2  C1' OXE d   1      -2.378   2.025  -1.890  0.00  0.00     0.078 C 
ATOM      3  C1  OXE d   1      -1.027   2.648  -1.643  0.00  0.00    -0.078 A 
ATOM      4  C2  OXE d   1      -0.800   3.896  -2.171  0.00  0.00    -0.078 A 
ATOM      5  C3  OXE d   1       0.410   4.539  -1.927  0.00  0.00     0.003 A 
ATOM      6  C4  OXE d   1       1.453   3.865  -1.279  0.00  0.00    -0.002 A 
ATOM      7  C5  OXE d   1       1.256   2.578  -0.768  0.00  0.00    -0.002 A 
ATOM      8  C6  OXE d   1       0.012   1.973  -0.904  0.00  0.00     0.003 A 
ENDROOT
TORSDOF 0
ENDMDL
