MODEL 1
REMARK minimizedAffinity -3.29285407
REMARK minimizedRMSD -1
REMARK  0 active torsions:
REMARK  status: ('A' for Active; 'I' for Inactive)
ROOT
ATOM      1  C2' OXE d   1      -0.899   2.386  -1.364  0.00  0.00     0.078 C 
ATOM      2  C1' OXE d   1       0.877   4.418  -2.140  0.00  0.00     0.078 C 
ATOM      3  C1  OXE d   1       1.100   3.762  -0.800  0.00  0.00    -0.078 A 
ATOM      4  C2  OXE d   1       0.199   2.802  -0.408  0.00  0.00    -0.078 A 
ATOM      5  C3  OXE d   1       0.390   2.127   0.794  0.00  0.00     0.003 A 
ATOM      6  C4  OXE d   1       1.401   2.525   1.677  0.00  0.00    -0.002 A 
ATOM      7  C5  OXE d   1       2.306   3.528   1.315  0.00  0.00    -0.002 A 
ATOM      8  C6  OXE d   1       2.195   4.126   0.064  0.00  0.00     0.003 A 
ENDROOT
TORSDOF 0
ENDMDL
