MODEL 1
REMARK minimizedAffinity 2.34800339
REMARK minimizedRMSD -1
REMARK  0 active torsions:
REMARK  status: ('A' for Active; 'I' for Inactive)
ROOT
ATOM      1  C2' OXE d   1       0.004   1.125   1.112  0.00  0.00     0.078 C 
ATOM      2  C1' OXE d   1       2.043   2.853   1.972  0.00  0.00     0.078 C 
ATOM      3  C1  OXE d   1       1.458   3.082   0.600  0.00  0.00    -0.078 A 
ATOM      4  C2  OXE d   1       0.494   2.203   0.169  0.00  0.00    -0.078 A 
ATOM      5  C3  OXE d   1      -0.117   2.401  -1.065  0.00  0.00     0.003 A 
ATOM      6  C4  OXE d   1       0.348   3.395  -1.935  0.00  0.00    -0.002 A 
ATOM      7  C5  OXE d   1       1.357   4.276  -1.531  0.00  0.00    -0.002 A 
ATOM      8  C6  OXE d   1       1.892   4.160  -0.253  0.00  0.00     0.003 A 
ENDROOT
TORSDOF 0
ENDMDL
