MODEL 1
REMARK minimizedAffinity 6.03505278
REMARK minimizedRMSD -1
REMARK  0 active torsions:
REMARK  status: ('A' for Active; 'I' for Inactive)
ROOT
ATOM      1  C2' OXE d   1       3.394  -4.495   0.742  0.00  0.00     0.078 C 
ATOM      2  C1' OXE d   1       4.929  -2.684  -0.755  0.00  0.00     0.078 C 
ATOM      3  C1  OXE d   1       4.273  -3.826  -1.490  0.00  0.00    -0.078 A 
ATOM      4  C2  OXE d   1       3.563  -4.734  -0.742  0.00  0.00    -0.078 A 
ATOM      5  C3  OXE d   1       2.893  -5.776  -1.377  0.00  0.00     0.003 A 
ATOM      6  C4  OXE d   1       3.063  -5.996  -2.750  0.00  0.00    -0.002 A 
ATOM      7  C5  OXE d   1       3.815  -5.106  -3.523  0.00  0.00    -0.002 A 
ATOM      8  C6  OXE d   1       4.391  -3.995  -2.918  0.00  0.00     0.003 A 
ENDROOT
TORSDOF 0
ENDMDL
