MODEL 1
REMARK minimizedAffinity -1.5229187
REMARK minimizedRMSD -1
REMARK  0 active torsions:
REMARK  status: ('A' for Active; 'I' for Inactive)
ROOT
ATOM      1  C2' OXE d   1       4.907  -5.642  -0.724  0.00  0.00     0.078 C 
ATOM      2  C1' OXE d   1       4.101  -5.252  -3.385  0.00  0.00     0.078 C 
ATOM      3  C1  OXE d   1       4.133  -4.049  -2.476  0.00  0.00    -0.078 A 
ATOM      4  C2  OXE d   1       4.484  -4.257  -1.164  0.00  0.00    -0.078 A 
ATOM      5  C3  OXE d   1       4.582  -3.173  -0.296  0.00  0.00     0.003 A 
ATOM      6  C4  OXE d   1       4.180  -1.897  -0.708  0.00  0.00    -0.002 A 
ATOM      7  C5  OXE d   1       3.781  -1.670  -2.030  0.00  0.00    -0.002 A 
ATOM      8  C6  OXE d   1       3.793  -2.725  -2.936  0.00  0.00     0.003 A 
ENDROOT
TORSDOF 0
ENDMDL
