MODEL 1
REMARK minimizedAffinity 3.23084331
REMARK minimizedRMSD -1
REMARK  0 active torsions:
REMARK  status: ('A' for Active; 'I' for Inactive)
ROOT
ATOM      1  C2' OXE d   1       0.863  -5.790  -0.920  0.00  0.00     0.078 C 
ATOM      2  C1' OXE d   1       2.170  -3.884   0.672  0.00  0.00     0.078 C 
ATOM      3  C1  OXE d   1       2.817  -4.273  -0.634  0.00  0.00    -0.078 A 
ATOM      4  C2  OXE d   1       2.194  -5.241  -1.384  0.00  0.00    -0.078 A 
ATOM      5  C3  OXE d   1       2.719  -5.597  -2.623  0.00  0.00     0.003 A 
ATOM      6  C4  OXE d   1       3.956  -5.091  -3.040  0.00  0.00    -0.002 A 
ATOM      7  C5  OXE d   1       4.627  -4.134  -2.272  0.00  0.00    -0.002 A 
ATOM      8  C6  OXE d   1       4.052  -3.683  -1.090  0.00  0.00     0.003 A 
ENDROOT
TORSDOF 0
ENDMDL
