MODEL 1
REMARK minimizedAffinity 3.17242575
REMARK minimizedRMSD -1
REMARK  0 active torsions:
REMARK  status: ('A' for Active; 'I' for Inactive)
ROOT
ATOM      1  C2' OXE d   1      -0.078   1.837  -1.440  0.00  0.00     0.078 C 
ATOM      2  C1' OXE d   1       0.456   4.298  -0.199  0.00  0.00     0.078 C 
ATOM      3  C1  OXE d   1       0.385   3.071   0.674  0.00  0.00    -0.078 A 
ATOM      4  C2  OXE d   1       0.077   1.878   0.065  0.00  0.00    -0.078 A 
ATOM      5  C3  OXE d   1       0.053   0.706   0.816  0.00  0.00     0.003 A 
ATOM      6  C4  OXE d   1       0.188   0.754   2.209  0.00  0.00    -0.002 A 
ATOM      7  C5  OXE d   1       0.463   1.965   2.855  0.00  0.00    -0.002 A 
ATOM      8  C6  OXE d   1       0.606   3.123   2.098  0.00  0.00     0.003 A 
ENDROOT
TORSDOF 0
ENDMDL
