MODEL 1
REMARK minimizedAffinity 8.03888607
REMARK minimizedRMSD -1
REMARK  0 active torsions:
REMARK  status: ('A' for Active; 'I' for Inactive)
ROOT
ATOM      1  C   UNL d   1      -3.693   2.941   3.021  0.00  0.00     0.078 C 
ATOM      2  C1  UNL d   1      -4.492   1.737   3.418  0.00  0.00    -0.077 A 
ATOM      3  C2  UNL d   1      -5.127   0.942   2.456  0.00  0.00    -0.001 A 
ATOM      4  C3  UNL d   1      -5.876  -0.171   2.841  0.00  0.00     0.003 A 
ATOM      5  C4  UNL d   1      -5.998  -0.499   4.189  0.00  0.00    -0.005 A 
ATOM      6  C5  UNL d   1      -5.372   0.287   5.155  0.00  0.00     0.003 A 
ATOM      7  C6  UNL d   1      -4.623   1.400   4.772  0.00  0.00    -0.001 A 
ENDROOT
TORSDOF 0
ENDMDL
