MODEL 1
REMARK minimizedAffinity 7.48192787
REMARK minimizedRMSD -1
REMARK  0 active torsions:
REMARK  status: ('A' for Active; 'I' for Inactive)
ROOT
ATOM      1  C   UNL d   1       4.081   2.630  -1.135  0.00  0.00     0.078 C 
ATOM      2  C1  UNL d   1       3.313   1.883  -0.086  0.00  0.00    -0.077 A 
ATOM      3  C2  UNL d   1       2.038   2.304   0.311  0.00  0.00    -0.001 A 
ATOM      4  C3  UNL d   1       1.338   1.605   1.295  0.00  0.00     0.003 A 
ATOM      5  C4  UNL d   1       1.905   0.481   1.892  0.00  0.00    -0.005 A 
ATOM      6  C5  UNL d   1       3.174   0.055   1.505  0.00  0.00     0.003 A 
ATOM      7  C6  UNL d   1       3.875   0.753   0.521  0.00  0.00    -0.001 A 
ENDROOT
TORSDOF 0
ENDMDL
