MODEL 1
REMARK minimizedAffinity 7.09234381
REMARK minimizedRMSD -1
REMARK  0 active torsions:
REMARK  status: ('A' for Active; 'I' for Inactive)
ROOT
ATOM      1  C   UNL d   1      -4.689   1.853   3.250  0.00  0.00     0.078 C 
ATOM      2  C1  UNL d   1      -5.105   3.291   3.339  0.00  0.00    -0.077 A 
ATOM      3  C2  UNL d   1      -5.598   3.970   2.218  0.00  0.00    -0.001 A 
ATOM      4  C3  UNL d   1      -5.972   5.311   2.313  0.00  0.00     0.003 A 
ATOM      5  C4  UNL d   1      -5.856   5.985   3.527  0.00  0.00    -0.005 A 
ATOM      6  C5  UNL d   1      -5.365   5.319   4.648  0.00  0.00     0.003 A 
ATOM      7  C6  UNL d   1      -4.990   3.978   4.554  0.00  0.00    -0.001 A 
ENDROOT
TORSDOF 0
ENDMDL
