MODEL 1
REMARK minimizedAffinity 5.48586512
REMARK minimizedRMSD -1
REMARK  0 active torsions:
REMARK  status: ('A' for Active; 'I' for Inactive)
ROOT
ATOM      1  C   UNL d   1       3.367  -0.008   1.776  0.00  0.00     0.078 C 
ATOM      2  C1  UNL d   1       4.281  -0.394   0.652  0.00  0.00    -0.077 A 
ATOM      3  C2  UNL d   1       5.147  -1.488   0.769  0.00  0.00    -0.001 A 
ATOM      4  C3  UNL d   1       5.999  -1.830  -0.282  0.00  0.00     0.003 A 
ATOM      5  C4  UNL d   1       5.995  -1.082  -1.458  0.00  0.00    -0.005 A 
ATOM      6  C5  UNL d   1       5.138   0.010  -1.583  0.00  0.00     0.003 A 
ATOM      7  C6  UNL d   1       4.285   0.353  -0.533  0.00  0.00    -0.001 A 
ENDROOT
TORSDOF 0
ENDMDL
