MODEL 1
REMARK minimizedAffinity -1.77569592
REMARK minimizedRMSD -1
REMARK  0 active torsions:
REMARK  status: ('A' for Active; 'I' for Inactive)
ROOT
ATOM      1  C   UNL d   1      -4.607   0.390   2.671  0.00  0.00     0.078 C 
ATOM      2  C1  UNL d   1      -5.025   1.283   3.800  0.00  0.00    -0.077 A 
ATOM      3  C2  UNL d   1      -5.605   0.755   4.960  0.00  0.00    -0.001 A 
ATOM      4  C3  UNL d   1      -5.999   1.599   6.000  0.00  0.00     0.003 A 
ATOM      5  C4  UNL d   1      -5.818   2.976   5.889  0.00  0.00    -0.005 A 
ATOM      6  C5  UNL d   1      -5.244   3.511   4.738  0.00  0.00     0.003 A 
ATOM      7  C6  UNL d   1      -4.850   2.669   3.697  0.00  0.00    -0.001 A 
ENDROOT
TORSDOF 0
ENDMDL
