MODEL 1
REMARK minimizedAffinity 1.5036968
REMARK minimizedRMSD -1
REMARK  0 active torsions:
REMARK  status: ('A' for Active; 'I' for Inactive)
ROOT
ATOM      1  C   UNL d   1      -5.625   0.099   2.564  0.00  0.00     0.078 C 
ATOM      2  C1  UNL d   1      -5.620   1.105   3.677  0.00  0.00    -0.077 A 
ATOM      3  C2  UNL d   1      -6.000   0.745   4.976  0.00  0.00    -0.001 A 
ATOM      4  C3  UNL d   1      -6.000   1.693   6.000  0.00  0.00     0.003 A 
ATOM      5  C4  UNL d   1      -5.621   3.008   5.735  0.00  0.00    -0.005 A 
ATOM      6  C5  UNL d   1      -5.243   3.376   4.446  0.00  0.00     0.003 A 
ATOM      7  C6  UNL d   1      -5.243   2.429   3.420  0.00  0.00    -0.001 A 
ENDROOT
TORSDOF 0
ENDMDL
