MODEL 1
REMARK minimizedAffinity -2.35230255
REMARK minimizedRMSD -1
REMARK  0 active torsions:
REMARK  status: ('A' for Active; 'I' for Inactive)
ROOT
ATOM      1  C   UNL d   1      -5.265  -0.211   2.532  0.00  0.00     0.078 C 
ATOM      2  C1  UNL d   1      -5.257   0.687   3.734  0.00  0.00    -0.077 A 
ATOM      3  C2  UNL d   1      -4.508   1.870   3.744  0.00  0.00    -0.001 A 
ATOM      4  C3  UNL d   1      -4.502   2.691   4.873  0.00  0.00     0.003 A 
ATOM      5  C4  UNL d   1      -5.242   2.337   6.000  0.00  0.00    -0.005 A 
ATOM      6  C5  UNL d   1      -5.988   1.160   5.999  0.00  0.00     0.003 A 
ATOM      7  C6  UNL d   1      -5.995   0.338   4.872  0.00  0.00    -0.001 A 
ENDROOT
TORSDOF 0
ENDMDL
