MODEL 1
REMARK minimizedAffinity 10.105752
REMARK minimizedRMSD -1
REMARK  0 active torsions:
REMARK  status: ('A' for Active; 'I' for Inactive)
ROOT
ATOM      1  C   UNL d   1       2.947  -0.432   1.284  0.00  0.00     0.078 C 
ATOM      2  C1  UNL d   1       1.925   0.221   2.165  0.00  0.00    -0.077 A 
ATOM      3  C2  UNL d   1       1.462   1.515   1.898  0.00  0.00    -0.001 A 
ATOM      4  C3  UNL d   1       0.518   2.114   2.733  0.00  0.00     0.003 A 
ATOM      5  C4  UNL d   1       0.029   1.427   3.842  0.00  0.00    -0.005 A 
ATOM      6  C5  UNL d   1       0.484   0.140   4.118  0.00  0.00     0.003 A 
ATOM      7  C6  UNL d   1       1.429  -0.461   3.284  0.00  0.00    -0.001 A 
ENDROOT
TORSDOF 0
ENDMDL
