MODEL 1
REMARK minimizedAffinity 12.1761169
REMARK minimizedRMSD -1
REMARK  0 active torsions:
REMARK  status: ('A' for Active; 'I' for Inactive)
ROOT
ATOM      1  C   UNL d   1      -3.449  -6.000  -1.677  0.00  0.00     0.078 C 
ATOM      2  C1  UNL d   1      -2.652  -4.877  -2.271  0.00  0.00    -0.077 A 
ATOM      3  C2  UNL d   1      -3.071  -3.547  -2.139  0.00  0.00    -0.001 A 
ATOM      4  C3  UNL d   1      -2.324  -2.513  -2.706  0.00  0.00     0.003 A 
ATOM      5  C4  UNL d   1      -1.155  -2.798  -3.409  0.00  0.00    -0.005 A 
ATOM      6  C5  UNL d   1      -0.732  -4.118  -3.547  0.00  0.00     0.003 A 
ATOM      7  C6  UNL d   1      -1.477  -5.154  -2.981  0.00  0.00    -0.001 A 
ENDROOT
TORSDOF 0
ENDMDL
