MODEL 1
REMARK minimizedAffinity 13.2730017
REMARK minimizedRMSD -1
REMARK  0 active torsions:
REMARK  status: ('A' for Active; 'I' for Inactive)
ROOT
ATOM      1  C   UNL d   1      -4.149  -5.997  -1.705  0.00  0.00     0.078 C 
ATOM      2  C1  UNL d   1      -3.186  -5.138  -2.467  0.00  0.00    -0.077 A 
ATOM      3  C2  UNL d   1      -2.039  -5.686  -3.055  0.00  0.00    -0.001 A 
ATOM      4  C3  UNL d   1      -1.146  -4.873  -3.754  0.00  0.00     0.003 A 
ATOM      5  C4  UNL d   1      -1.389  -3.505  -3.870  0.00  0.00    -0.005 A 
ATOM      6  C5  UNL d   1      -2.525  -2.950  -3.286  0.00  0.00     0.003 A 
ATOM      7  C6  UNL d   1      -3.420  -3.762  -2.587  0.00  0.00    -0.001 A 
ENDROOT
TORSDOF 0
ENDMDL
