MODEL 1
REMARK minimizedAffinity 6.80189943
REMARK minimizedRMSD -1
REMARK  0 active torsions:
REMARK  status: ('A' for Active; 'I' for Inactive)
ROOT
ATOM      1  C   UNL d   1       5.997   5.878   5.957  0.00  0.00     0.078 C 
ATOM      2  C1  UNL d   1       5.352   5.345   4.712  0.00  0.00    -0.077 A 
ATOM      3  C2  UNL d   1       5.852   4.204   4.073  0.00  0.00    -0.001 A 
ATOM      4  C3  UNL d   1       5.248   3.724   2.910  0.00  0.00     0.003 A 
ATOM      5  C4  UNL d   1       4.142   4.381   2.375  0.00  0.00    -0.005 A 
ATOM      6  C5  UNL d   1       3.638   5.518   3.002  0.00  0.00     0.003 A 
ATOM      7  C6  UNL d   1       4.241   5.999   4.166  0.00  0.00    -0.001 A 
ENDROOT
TORSDOF 0
ENDMDL
