MODEL 1
REMARK minimizedAffinity 8.22785187
REMARK minimizedRMSD -1
REMARK  0 active torsions:
REMARK  status: ('A' for Active; 'I' for Inactive)
ROOT
ATOM      1  C   UNL d   1       3.169   2.417  -3.856  0.00  0.00     0.078 C 
ATOM      2  C1  UNL d   1       2.592   3.634  -4.515  0.00  0.00    -0.077 A 
ATOM      3  C2  UNL d   1       1.396   3.562  -5.241  0.00  0.00    -0.001 A 
ATOM      4  C3  UNL d   1       0.876   4.701  -5.858  0.00  0.00     0.003 A 
ATOM      5  C4  UNL d   1       1.544   5.920  -5.756  0.00  0.00    -0.005 A 
ATOM      6  C5  UNL d   1       2.735   6.000  -5.037  0.00  0.00     0.003 A 
ATOM      7  C6  UNL d   1       3.258   4.862  -4.420  0.00  0.00    -0.001 A 
ENDROOT
TORSDOF 0
ENDMDL
