MODEL 1
REMARK minimizedAffinity 6.40479946
REMARK minimizedRMSD -1
REMARK  0 active torsions:
REMARK  status: ('A' for Active; 'I' for Inactive)
ROOT
ATOM      1  C   UNL d   1      -5.133  -4.098  -2.595  0.00  0.00     0.078 C 
ATOM      2  C1  UNL d   1      -3.862  -3.303  -2.596  0.00  0.00    -0.077 A 
ATOM      3  C2  UNL d   1      -3.369  -2.730  -1.417  0.00  0.00    -0.001 A 
ATOM      4  C3  UNL d   1      -2.190  -1.983  -1.434  0.00  0.00     0.003 A 
ATOM      5  C4  UNL d   1      -1.494  -1.802  -2.628  0.00  0.00    -0.005 A 
ATOM      6  C5  UNL d   1      -1.978  -2.366  -3.806  0.00  0.00     0.003 A 
ATOM      7  C6  UNL d   1      -3.158  -3.113  -3.791  0.00  0.00    -0.001 A 
ENDROOT
TORSDOF 0
ENDMDL
