MODEL 1
REMARK minimizedAffinity 8.37068462
REMARK minimizedRMSD -1
REMARK  0 active torsions:
REMARK  status: ('A' for Active; 'I' for Inactive)
ROOT
ATOM      1  C   UNL d   1      -4.235   2.099   4.100  0.00  0.00     0.078 C 
ATOM      2  C1  UNL d   1      -4.803   3.448   4.422  0.00  0.00    -0.077 A 
ATOM      3  C2  UNL d   1      -4.702   3.984   5.712  0.00  0.00    -0.001 A 
ATOM      4  C3  UNL d   1      -5.244   5.238   6.000  0.00  0.00     0.003 A 
ATOM      5  C4  UNL d   1      -5.892   5.966   5.004  0.00  0.00    -0.005 A 
ATOM      6  C5  UNL d   1      -5.999   5.440   3.718  0.00  0.00     0.003 A 
ATOM      7  C6  UNL d   1      -5.458   4.186   3.428  0.00  0.00    -0.001 A 
ENDROOT
TORSDOF 0
ENDMDL
