MODEL 1
REMARK minimizedAffinity 4.48994827
REMARK minimizedRMSD -1
REMARK  0 active torsions:
REMARK  status: ('A' for Active; 'I' for Inactive)
ROOT
ATOM      1  C   UNL d   1      -0.762  -2.486  -0.373  0.00  0.00     0.078 C 
ATOM      2  C1  UNL d   1      -1.162  -3.712   0.391  0.00  0.00    -0.077 A 
ATOM      3  C2  UNL d   1      -0.363  -4.862   0.379  0.00  0.00    -0.001 A 
ATOM      4  C3  UNL d   1      -0.752  -6.000   1.088  0.00  0.00     0.003 A 
ATOM      5  C4  UNL d   1      -1.942  -5.999   1.812  0.00  0.00    -0.005 A 
ATOM      6  C5  UNL d   1      -2.745  -4.861   1.828  0.00  0.00     0.003 A 
ATOM      7  C6  UNL d   1      -2.357  -3.722   1.121  0.00  0.00    -0.001 A 
ENDROOT
TORSDOF 0
ENDMDL
