MODEL 1
REMARK minimizedAffinity 12.85359
REMARK minimizedRMSD -1
REMARK  0 active torsions:
REMARK  status: ('A' for Active; 'I' for Inactive)
ROOT
ATOM      1  C   UNL d   1      -2.224  -2.720  -2.514  0.00  0.00     0.078 C 
ATOM      2  C1  UNL d   1      -3.376  -3.673  -2.628  0.00  0.00    -0.077 A 
ATOM      3  C2  UNL d   1      -3.287  -4.976  -2.124  0.00  0.00    -0.001 A 
ATOM      4  C3  UNL d   1      -4.365  -5.855  -2.247  0.00  0.00     0.003 A 
ATOM      5  C4  UNL d   1      -5.538  -5.441  -2.874  0.00  0.00    -0.005 A 
ATOM      6  C5  UNL d   1      -5.635  -4.147  -3.380  0.00  0.00     0.003 A 
ATOM      7  C6  UNL d   1      -4.559  -3.266  -3.259  0.00  0.00    -0.001 A 
ENDROOT
TORSDOF 0
ENDMDL
