MODEL 1
REMARK minimizedAffinity 8.3771162
REMARK minimizedRMSD -1
REMARK  0 active torsions:
REMARK  status: ('A' for Active; 'I' for Inactive)
ROOT
ATOM      1  C   UNL d   1       1.436   1.784   1.953  0.00  0.00     0.078 C 
ATOM      2  C1  UNL d   1       2.611   0.896   1.670  0.00  0.00    -0.077 A 
ATOM      3  C2  UNL d   1       3.363   0.341   2.712  0.00  0.00    -0.001 A 
ATOM      4  C3  UNL d   1       4.460  -0.476   2.434  0.00  0.00     0.003 A 
ATOM      5  C4  UNL d   1       4.814  -0.746   1.113  0.00  0.00    -0.005 A 
ATOM      6  C5  UNL d   1       4.073  -0.197   0.069  0.00  0.00     0.003 A 
ATOM      7  C6  UNL d   1       2.976   0.621   0.346  0.00  0.00    -0.001 A 
ENDROOT
TORSDOF 0
ENDMDL
