MODEL 1
REMARK minimizedAffinity 11.7301636
REMARK minimizedRMSD -1
REMARK  0 active torsions:
REMARK  status: ('A' for Active; 'I' for Inactive)
ROOT
ATOM      1  C   UNL d   1       2.210  -1.957  -5.659  0.00  0.00     0.078 C 
ATOM      2  C1  UNL d   1       3.535  -1.262  -5.549  0.00  0.00    -0.077 A 
ATOM      3  C2  UNL d   1       4.729  -1.991  -5.499  0.00  0.00    -0.001 A 
ATOM      4  C3  UNL d   1       5.955  -1.332  -5.386  0.00  0.00     0.003 A 
ATOM      5  C4  UNL d   1       5.997   0.059  -5.321  0.00  0.00    -0.005 A 
ATOM      6  C5  UNL d   1       4.814   0.793  -5.368  0.00  0.00     0.003 A 
ATOM      7  C6  UNL d   1       3.588   0.135  -5.480  0.00  0.00    -0.001 A 
ENDROOT
TORSDOF 0
ENDMDL
