MODEL 1
REMARK minimizedAffinity 3.64999628
REMARK minimizedRMSD -1
REMARK  1 active torsions:
REMARK  status: ('A' for Active; 'I' for Inactive)
REMARK    1  A    between atoms: N_2  and  C1_3 
ROOT
ATOM      1  C1  UNL d   1       3.449  -5.194  -4.674  0.00  0.00     0.143 A 
ATOM      2  C2  UNL d   1       3.702  -5.228  -3.299  0.00  0.00    -0.057 A 
ATOM      3  C3  UNL d   1       4.969  -5.558  -2.801  0.00  0.00     0.033 A 
ATOM      4  C4  UNL d   1       6.000  -5.891  -3.673  0.00  0.00    -0.042 A 
ATOM      5  C5  UNL d   1       5.764  -5.889  -5.044  0.00  0.00     0.033 A 
ATOM      6  C6  UNL d   1       4.499  -5.551  -5.534  0.00  0.00    -0.057 A 
ENDROOT
BRANCH   1   7
ATOM      7  N   UNL d   1       2.186  -4.969  -5.227  0.00  0.00    -0.732 N 
ATOM      8  C   UNL d   1       1.525  -5.999  -6.000  0.00  0.00     0.284 C 
ATOM      9  H3  UNL d   1       1.569  -4.464  -4.595  0.00  0.00     0.395 HD
ENDBRANCH   1   7
TORSDOF 1
ENDMDL
