MODEL 1
REMARK minimizedAffinity -1.56520188
REMARK minimizedRMSD -1
REMARK  1 active torsions:
REMARK  status: ('A' for Active; 'I' for Inactive)
REMARK    1  A    between atoms: N_2  and  C1_3 
ROOT
ATOM      1  C1  UNL d   1       4.346  -5.112  -3.682  0.00  0.00     0.143 A 
ATOM      2  C2  UNL d   1       4.886  -5.620  -4.868  0.00  0.00    -0.057 A 
ATOM      3  C3  UNL d   1       4.080  -5.858  -5.989  0.00  0.00     0.033 A 
ATOM      4  C4  UNL d   1       2.711  -5.618  -5.932  0.00  0.00    -0.042 A 
ATOM      5  C5  UNL d   1       2.149  -5.136  -4.755  0.00  0.00     0.033 A 
ATOM      6  C6  UNL d   1       2.960  -4.895  -3.642  0.00  0.00    -0.057 A 
ENDROOT
BRANCH   1   7
ATOM      7  N   UNL d   1       5.078  -4.948  -2.503  0.00  0.00    -0.732 N 
ATOM      8  C   UNL d   1       5.987  -5.979  -2.050  0.00  0.00     0.284 C 
ATOM      9  H3  UNL d   1       5.435  -4.002  -2.396  0.00  0.00     0.395 HD
ENDBRANCH   1   7
TORSDOF 1
ENDMDL
