MODEL 1
REMARK minimizedAffinity 1.024845
REMARK minimizedRMSD -1
REMARK  1 active torsions:
REMARK  status: ('A' for Active; 'I' for Inactive)
REMARK    1  A    between atoms: N_2  and  C1_3 
ROOT
ATOM      1  C1  UNL d   1       4.094  -5.677  -3.221  0.00  0.00     0.143 A 
ATOM      2  C2  UNL d   1       5.112  -5.995  -4.127  0.00  0.00    -0.057 A 
ATOM      3  C3  UNL d   1       4.953  -5.785  -5.502  0.00  0.00     0.033 A 
ATOM      4  C4  UNL d   1       3.757  -5.277  -5.999  0.00  0.00    -0.042 A 
ATOM      5  C5  UNL d   1       2.723  -4.976  -5.120  0.00  0.00     0.033 A 
ATOM      6  C6  UNL d   1       2.891  -5.182  -3.748  0.00  0.00    -0.057 A 
ENDROOT
BRANCH   1   7
ATOM      7  N   UNL d   1       4.155  -5.955  -1.853  0.00  0.00    -0.732 N 
ATOM      8  C   UNL d   1       2.958  -5.926  -1.041  0.00  0.00     0.284 C 
ATOM      9  H3  UNL d   1       4.783  -6.727  -1.641  0.00  0.00     0.395 HD
ENDBRANCH   1   7
TORSDOF 1
ENDMDL
