MODEL 1
REMARK minimizedAffinity -0.501024425
REMARK minimizedRMSD -1
REMARK  1 active torsions:
REMARK  status: ('A' for Active; 'I' for Inactive)
REMARK    1  A    between atoms: N_2  and  C1_3 
ROOT
ATOM      1  C1  UNL d   1       3.776  -5.773  -3.179  0.00  0.00     0.143 A 
ATOM      2  C2  UNL d   1       2.725  -5.756  -4.103  0.00  0.00    -0.057 A 
ATOM      3  C3  UNL d   1       2.966  -5.845  -5.479  0.00  0.00     0.033 A 
ATOM      4  C4  UNL d   1       4.269  -5.922  -5.959  0.00  0.00    -0.042 A 
ATOM      5  C5  UNL d   1       5.330  -5.915  -5.061  0.00  0.00     0.033 A 
ATOM      6  C6  UNL d   1       5.083  -5.833  -3.688  0.00  0.00    -0.057 A 
ENDROOT
BRANCH   1   7
ATOM      7  N   UNL d   1       3.606  -5.589  -1.805  0.00  0.00    -0.732 N 
ATOM      8  C   UNL d   1       2.326  -5.842  -1.179  0.00  0.00     0.284 C 
ATOM      9  H3  UNL d   1       4.404  -5.920  -1.268  0.00  0.00     0.395 HD
ENDBRANCH   1   7
TORSDOF 1
ENDMDL
