MODEL 1
REMARK minimizedAffinity 1.72870374
REMARK minimizedRMSD -1
REMARK  1 active torsions:
REMARK  status: ('A' for Active; 'I' for Inactive)
REMARK    1  A    between atoms: N_2  and  C1_3 
ROOT
ATOM      1  C1  UNL d   1      -3.280   4.348  -5.217  0.00  0.00     0.143 A 
ATOM      2  C2  UNL d   1      -3.858   5.595  -5.478  0.00  0.00    -0.057 A 
ATOM      3  C3  UNL d   1      -5.203   5.708  -5.851  0.00  0.00     0.033 A 
ATOM      4  C4  UNL d   1      -5.988   4.570  -5.999  0.00  0.00    -0.042 A 
ATOM      5  C5  UNL d   1      -5.428   3.318  -5.769  0.00  0.00     0.033 A 
ATOM      6  C6  UNL d   1      -4.086   3.212  -5.390  0.00  0.00    -0.057 A 
ENDROOT
BRANCH   1   7
ATOM      7  N   UNL d   1      -1.924   4.162  -4.938  0.00  0.00    -0.732 N 
ATOM      8  C   UNL d   1      -1.504   3.541  -3.700  0.00  0.00     0.284 C 
ATOM      9  H3  UNL d   1      -1.397   3.860  -5.754  0.00  0.00     0.395 HD
ENDBRANCH   1   7
TORSDOF 1
ENDMDL
