MODEL 1
REMARK minimizedAffinity 0.148004115
REMARK minimizedRMSD -1
REMARK  1 active torsions:
REMARK  status: ('A' for Active; 'I' for Inactive)
REMARK    1  A    between atoms: N_2  and  C1_3 
ROOT
ATOM      1  C1  UNL d   1      -3.240   3.365  -5.416  0.00  0.00     0.143 A 
ATOM      2  C2  UNL d   1      -3.714   2.208  -4.788  0.00  0.00    -0.057 A 
ATOM      3  C3  UNL d   1      -5.078   1.892  -4.783  0.00  0.00     0.033 A 
ATOM      4  C4  UNL d   1      -5.998   2.744  -5.384  0.00  0.00    -0.042 A 
ATOM      5  C5  UNL d   1      -5.552   3.912  -5.993  0.00  0.00     0.033 A 
ATOM      6  C6  UNL d   1      -4.188   4.220  -6.000  0.00  0.00    -0.057 A 
ENDROOT
BRANCH   1   7
ATOM      7  N   UNL d   1      -1.908   3.785  -5.370  0.00  0.00    -0.732 N 
ATOM      8  C   UNL d   1      -1.151   3.701  -4.139  0.00  0.00     0.284 C 
ATOM      9  H3  UNL d   1      -1.386   3.512  -6.199  0.00  0.00     0.395 HD
ENDBRANCH   1   7
TORSDOF 1
ENDMDL
