MODEL 1
REMARK minimizedAffinity -1.64572895
REMARK minimizedRMSD -1
REMARK  1 active torsions:
REMARK  status: ('A' for Active; 'I' for Inactive)
REMARK    1  A    between atoms: N_2  and  C1_3 
ROOT
ATOM      1  C1  UNL d   1       3.593  -5.808  -5.320  0.00  0.00     0.143 A 
ATOM      2  C2  UNL d   1       4.824  -5.711  -5.977  0.00  0.00    -0.057 A 
ATOM      3  C3  UNL d   1       6.000  -5.418  -5.276  0.00  0.00     0.033 A 
ATOM      4  C4  UNL d   1       5.961  -5.188  -3.905  0.00  0.00    -0.042 A 
ATOM      5  C5  UNL d   1       4.744  -5.255  -3.235  0.00  0.00     0.033 A 
ATOM      6  C6  UNL d   1       3.574  -5.554  -3.940  0.00  0.00    -0.057 A 
ENDROOT
BRANCH   1   7
ATOM      7  N   UNL d   1       2.374  -5.999  -5.976  0.00  0.00    -0.732 N 
ATOM      8  C   UNL d   1       1.122  -5.780  -5.283  0.00  0.00     0.284 C 
ATOM      9  H3  UNL d   1       2.388  -5.649  -6.931  0.00  0.00     0.395 HD
ENDBRANCH   1   7
TORSDOF 1
ENDMDL
