MODEL 1
REMARK minimizedAffinity -3.28919554
REMARK minimizedRMSD -1
REMARK  1 active torsions:
REMARK  status: ('A' for Active; 'I' for Inactive)
REMARK    1  A    between atoms: N_2  and  C1_3 
ROOT
ATOM      1  C1  UNL d   1       3.332  -5.693  -4.073  0.00  0.00     0.143 A 
ATOM      2  C2  UNL d   1       3.621  -5.817  -2.710  0.00  0.00    -0.057 A 
ATOM      3  C3  UNL d   1       4.942  -5.891  -2.251  0.00  0.00     0.033 A 
ATOM      4  C4  UNL d   1       6.000  -5.870  -3.154  0.00  0.00    -0.042 A 
ATOM      5  C5  UNL d   1       5.735  -5.773  -4.516  0.00  0.00     0.033 A 
ATOM      6  C6  UNL d   1       4.414  -5.693  -4.967  0.00  0.00    -0.057 A 
ENDROOT
BRANCH   1   7
ATOM      7  N   UNL d   1       2.038  -5.714  -4.599  0.00  0.00    -0.732 N 
ATOM      8  C   UNL d   1       1.816  -6.000  -6.000  0.00  0.00     0.284 C 
ATOM      9  H3  UNL d   1       1.371  -6.161  -3.973  0.00  0.00     0.395 HD
ENDBRANCH   1   7
TORSDOF 1
ENDMDL
