MODEL 1
REMARK minimizedAffinity -0.901891768
REMARK minimizedRMSD -1
REMARK  1 active torsions:
REMARK  status: ('A' for Active; 'I' for Inactive)
REMARK    1  A    between atoms: N_2  and  C1_3 
ROOT
ATOM      1  C1  UNL d   1      -3.236   3.461  -5.744  0.00  0.00     0.143 A 
ATOM      2  C2  UNL d   1      -3.730   2.264  -5.213  0.00  0.00    -0.057 A 
ATOM      3  C3  UNL d   1      -5.099   2.079  -4.990  0.00  0.00     0.033 A 
ATOM      4  C4  UNL d   1      -6.000   3.102  -5.268  0.00  0.00    -0.042 A 
ATOM      5  C5  UNL d   1      -5.529   4.309  -5.773  0.00  0.00     0.033 A 
ATOM      6  C6  UNL d   1      -4.161   4.485  -6.000  0.00  0.00    -0.057 A 
ENDROOT
BRANCH   1   7
ATOM      7  N   UNL d   1      -1.876   3.742  -5.896  0.00  0.00    -0.732 N 
ATOM      8  C   UNL d   1      -0.922   3.335  -4.887  0.00  0.00     0.284 C 
ATOM      9  H3  UNL d   1      -1.556   3.603  -6.852  0.00  0.00     0.395 HD
ENDBRANCH   1   7
TORSDOF 1
ENDMDL
