MODEL 1
REMARK minimizedAffinity 1.6430397
REMARK minimizedRMSD -1
REMARK  1 active torsions:
REMARK  status: ('A' for Active; 'I' for Inactive)
REMARK    1  A    between atoms: N_2  and  C1_3 
ROOT
ATOM      1  C1  UNL d   1       1.082   2.694   1.469  0.00  0.00     0.143 A 
ATOM      2  C2  UNL d   1       0.776   1.735   0.497  0.00  0.00    -0.057 A 
ATOM      3  C3  UNL d   1       1.782   0.984  -0.124  0.00  0.00     0.033 A 
ATOM      4  C4  UNL d   1       3.118   1.201   0.196  0.00  0.00    -0.042 A 
ATOM      5  C5  UNL d   1       3.447   2.166   1.141  0.00  0.00     0.033 A 
ATOM      6  C6  UNL d   1       2.438   2.908   1.763  0.00  0.00    -0.057 A 
ENDROOT
BRANCH   1   7
ATOM      7  N   UNL d   1       0.136   3.540   2.051  0.00  0.00    -0.732 N 
ATOM      8  C   UNL d   1      -0.017   3.598   3.489  0.00  0.00     0.284 C 
ATOM      9  H3  UNL d   1       0.091   4.447   1.591  0.00  0.00     0.395 HD
ENDBRANCH   1   7
TORSDOF 1
ENDMDL
