MODEL 1
REMARK minimizedAffinity -3.31965661
REMARK minimizedRMSD -1
REMARK  1 active torsions:
REMARK  status: ('A' for Active; 'I' for Inactive)
REMARK    1  A    between atoms: N_2  and  C1_3 
ROOT
ATOM      1  C1  UNL d   1      -1.156   2.192  -4.891  0.00  0.00     0.143 A 
ATOM      2  C2  UNL d   1      -0.427   2.636  -5.999  0.00  0.00    -0.057 A 
ATOM      3  C3  UNL d   1       0.973   2.681  -5.977  0.00  0.00     0.033 A 
ATOM      4  C4  UNL d   1       1.668   2.309  -4.831  0.00  0.00    -0.042 A 
ATOM      5  C5  UNL d   1       0.963   1.888  -3.709  0.00  0.00     0.033 A 
ATOM      6  C6  UNL d   1      -0.434   1.839  -3.740  0.00  0.00    -0.057 A 
ENDROOT
BRANCH   1   7
ATOM      7  N   UNL d   1      -2.551   2.218  -4.817  0.00  0.00    -0.732 N 
ATOM      8  C   UNL d   1      -3.345   2.537  -5.984  0.00  0.00     0.284 C 
ATOM      9  H3  UNL d   1      -2.924   1.456  -4.256  0.00  0.00     0.395 HD
ENDBRANCH   1   7
TORSDOF 1
ENDMDL
