MODEL 1
REMARK minimizedAffinity -0.942016542
REMARK minimizedRMSD -1
REMARK  0 active torsions:
REMARK  status: ('A' for Active; 'I' for Inactive)
ROOT
ATOM      1  C   UNL d   1      -0.069  -0.781  -0.784  0.00  0.00     0.020 A 
ATOM      2  C1  UNL d   1      -0.826  -0.008   0.095  0.00  0.00     0.020 A 
ATOM      3  C2  UNL d   1      -0.281   1.150   0.653  0.00  0.00     0.034 A 
ATOM      4  C3  UNL d   1       1.025   1.539   0.332  0.00  0.00     0.017 A 
ATOM      5  C4  UNL d   1       1.784   0.762  -0.551  0.00  0.00     0.017 A 
ATOM      6  C5  UNL d   1       1.233  -0.397  -1.106  0.00  0.00     0.034 A 
ATOM      7 Cl   UNL d   1       3.402   1.177  -0.994  0.00  0.00    -0.070 Cl
ATOM      8 Cl1  UNL d   1       1.635   2.983   1.059  0.00  0.00    -0.070 Cl
ENDROOT
TORSDOF 0
ENDMDL
