MODEL 1
REMARK minimizedAffinity -3.00842881
REMARK minimizedRMSD -1
REMARK  0 active torsions:
REMARK  status: ('A' for Active; 'I' for Inactive)
ROOT
ATOM      1  C   UNL d   1      -1.362  -3.036   2.146  0.00  0.00     0.020 A 
ATOM      2  C1  UNL d   1      -1.516  -1.889   2.923  0.00  0.00     0.020 A 
ATOM      3  C2  UNL d   1      -1.254  -0.632   2.373  0.00  0.00     0.034 A 
ATOM      4  C3  UNL d   1      -0.835  -0.520   1.042  0.00  0.00     0.017 A 
ATOM      5  C4  UNL d   1      -0.681  -1.672   0.263  0.00  0.00     0.017 A 
ATOM      6  C5  UNL d   1      -0.945  -2.928   0.818  0.00  0.00     0.034 A 
ATOM      7 Cl   UNL d   1      -0.169  -1.613  -1.387  0.00  0.00    -0.070 Cl
ATOM      8 Cl1  UNL d   1      -0.529   1.066   0.428  0.00  0.00    -0.070 Cl
ENDROOT
TORSDOF 0
ENDMDL
