MODEL 1
REMARK minimizedAffinity -3.17105484
REMARK minimizedRMSD -1
REMARK  0 active torsions:
REMARK  status: ('A' for Active; 'I' for Inactive)
ROOT
ATOM      1  C   UNL d   1       0.216   1.602   1.226  0.00  0.00     0.020 A 
ATOM      2  C1  UNL d   1       1.516   1.720   0.734  0.00  0.00     0.020 A 
ATOM      3  C2  UNL d   1       2.108   0.648   0.063  0.00  0.00     0.034 A 
ATOM      4  C3  UNL d   1       1.401  -0.546  -0.120  0.00  0.00     0.017 A 
ATOM      5  C4  UNL d   1       0.097  -0.663   0.374  0.00  0.00     0.017 A 
ATOM      6  C5  UNL d   1      -0.492   0.413   1.046  0.00  0.00     0.034 A 
ATOM      7 Cl   UNL d   1      -0.839  -2.104   0.188  0.00  0.00    -0.070 Cl
ATOM      8 Cl1  UNL d   1       2.195  -1.830  -0.960  0.00  0.00    -0.070 Cl
ENDROOT
TORSDOF 0
ENDMDL
