MODEL 1
REMARK minimizedAffinity -3.49850821
REMARK minimizedRMSD -1
REMARK  0 active torsions:
REMARK  status: ('A' for Active; 'I' for Inactive)
ROOT
ATOM      1  C   UNL d   1       1.373   2.541   0.359  0.00  0.00     0.020 A 
ATOM      2  C1  UNL d   1       0.546   2.694   1.471  0.00  0.00     0.020 A 
ATOM      3  C2  UNL d   1      -0.244   1.628   1.906  0.00  0.00     0.034 A 
ATOM      4  C3  UNL d   1      -0.209   0.404   1.228  0.00  0.00     0.017 A 
ATOM      5  C4  UNL d   1       0.621   0.251   0.112  0.00  0.00     0.017 A 
ATOM      6  C5  UNL d   1       1.410   1.322  -0.319  0.00  0.00     0.034 A 
ATOM      7 Cl   UNL d   1       0.719  -1.229  -0.776  0.00  0.00    -0.070 Cl
ATOM      8 Cl1  UNL d   1      -1.212  -0.872   1.821  0.00  0.00    -0.070 Cl
ENDROOT
TORSDOF 0
ENDMDL
