MODEL 1
REMARK minimizedAffinity -3.28833199
REMARK minimizedRMSD -1
REMARK  0 active torsions:
REMARK  status: ('A' for Active; 'I' for Inactive)
ROOT
ATOM      1  C   UNL d   1       0.954  -1.214  -0.803  0.00  0.00     0.020 A 
ATOM      2  C1  UNL d   1       2.080  -0.413  -0.985  0.00  0.00     0.020 A 
ATOM      3  C2  UNL d   1       2.144   0.848  -0.388  0.00  0.00     0.034 A 
ATOM      4  C3  UNL d   1       1.079   1.311   0.393  0.00  0.00     0.017 A 
ATOM      5  C4  UNL d   1      -0.051   0.506   0.575  0.00  0.00     0.017 A 
ATOM      6  C5  UNL d   1      -0.109  -0.755  -0.025  0.00  0.00     0.034 A 
ATOM      7 Cl   UNL d   1      -1.404   1.009   1.526  0.00  0.00    -0.070 Cl
ATOM      8 Cl1  UNL d   1       1.226   2.881   1.102  0.00  0.00    -0.070 Cl
ENDROOT
TORSDOF 0
ENDMDL
