MODEL 1
REMARK minimizedAffinity -4.38089418
REMARK minimizedRMSD -1
REMARK  0 active torsions:
REMARK  status: ('A' for Active; 'I' for Inactive)
ROOT
ATOM      1  C   UNL d   1      -0.576   1.497   1.600  0.00  0.00     0.020 A 
ATOM      2  C1  UNL d   1       0.397   2.490   1.488  0.00  0.00     0.020 A 
ATOM      3  C2  UNL d   1       1.544   2.260   0.726  0.00  0.00     0.034 A 
ATOM      4  C3  UNL d   1       1.722   1.035   0.074  0.00  0.00     0.017 A 
ATOM      5  C4  UNL d   1       0.745   0.039   0.186  0.00  0.00     0.017 A 
ATOM      6  C5  UNL d   1      -0.402   0.275   0.950  0.00  0.00     0.034 A 
ATOM      7 Cl   UNL d   1       0.894  -1.498  -0.590  0.00  0.00    -0.070 Cl
ATOM      8 Cl1  UNL d   1       3.166   0.819  -0.851  0.00  0.00    -0.070 Cl
ENDROOT
TORSDOF 0
ENDMDL
