MODEL 1
REMARK minimizedAffinity -1.71079397
REMARK minimizedRMSD -1
REMARK  0 active torsions:
REMARK  status: ('A' for Active; 'I' for Inactive)
ROOT
ATOM      1  C   UNL d   1      -0.102  -5.099  -0.497  0.00  0.00     0.020 A 
ATOM      2  C1  UNL d   1      -1.231  -5.462  -1.232  0.00  0.00     0.020 A 
ATOM      3  C2  UNL d   1      -2.013  -4.479  -1.841  0.00  0.00     0.034 A 
ATOM      4  C3  UNL d   1      -1.669  -3.128  -1.717  0.00  0.00     0.017 A 
ATOM      5  C4  UNL d   1      -0.536  -2.765  -0.979  0.00  0.00     0.017 A 
ATOM      6  C5  UNL d   1       0.244  -3.753  -0.371  0.00  0.00     0.034 A 
ATOM      7 Cl   UNL d   1      -0.048  -1.119  -0.781  0.00  0.00    -0.070 Cl
ATOM      8 Cl1  UNL d   1      -2.682  -1.966  -2.497  0.00  0.00    -0.070 Cl
ENDROOT
TORSDOF 0
ENDMDL
