MODEL 1
REMARK minimizedAffinity -4.46783304
REMARK minimizedRMSD -1
REMARK  0 active torsions:
REMARK  status: ('A' for Active; 'I' for Inactive)
ROOT
ATOM      1  C   UNL d   1       0.723   2.537   1.162  0.00  0.00     0.020 A 
ATOM      2  C1  UNL d   1      -0.476   1.913   1.504  0.00  0.00     0.020 A 
ATOM      3  C2  UNL d   1      -0.711   0.592   1.114  0.00  0.00     0.034 A 
ATOM      4  C3  UNL d   1       0.254  -0.107   0.380  0.00  0.00     0.017 A 
ATOM      5  C4  UNL d   1       1.457   0.520   0.037  0.00  0.00     0.017 A 
ATOM      6  C5  UNL d   1       1.687   1.843   0.430  0.00  0.00     0.034 A 
ATOM      7 Cl   UNL d   1       2.695  -0.278  -0.866  0.00  0.00    -0.070 Cl
ATOM      8 Cl1  UNL d   1      -0.104  -1.737  -0.068  0.00  0.00    -0.070 Cl
ENDROOT
TORSDOF 0
ENDMDL
