MODEL 1
REMARK minimizedAffinity -2.26604009
REMARK minimizedRMSD -1
REMARK  0 active torsions:
REMARK  status: ('A' for Active; 'I' for Inactive)
ROOT
ATOM      1  C   UNL d   1       1.729   2.707   0.386  0.00  0.00     0.020 A 
ATOM      2  C1  UNL d   1       2.043   1.888  -0.699  0.00  0.00     0.020 A 
ATOM      3  C2  UNL d   1       1.348   0.693  -0.895  0.00  0.00     0.034 A 
ATOM      4  C3  UNL d   1       0.337   0.312  -0.006  0.00  0.00     0.017 A 
ATOM      5  C4  UNL d   1       0.022   1.134   1.082  0.00  0.00     0.017 A 
ATOM      6  C5  UNL d   1       0.721   2.330   1.274  0.00  0.00     0.034 A 
ATOM      7 Cl   UNL d   1      -1.213   0.732   2.222  0.00  0.00    -0.070 Cl
ATOM      8 Cl1  UNL d   1      -0.481  -1.179  -0.310  0.00  0.00    -0.070 Cl
ENDROOT
TORSDOF 0
ENDMDL
