MODEL 1
REMARK minimizedAffinity -2.94069743
REMARK minimizedRMSD -1
REMARK  0 active torsions:
REMARK  status: ('A' for Active; 'I' for Inactive)
ROOT
ATOM      1  C   UNL d   1      -2.924  -2.642  -2.638  0.00  0.00     0.020 A 
ATOM      2  C1  UNL d   1      -2.192  -1.678  -3.331  0.00  0.00     0.020 A 
ATOM      3  C2  UNL d   1      -1.065  -1.101  -2.743  0.00  0.00     0.034 A 
ATOM      4  C3  UNL d   1      -0.665  -1.488  -1.459  0.00  0.00     0.017 A 
ATOM      5  C4  UNL d   1      -1.400  -2.456  -0.764  0.00  0.00     0.017 A 
ATOM      6  C5  UNL d   1      -2.528  -3.030  -1.358  0.00  0.00     0.034 A 
ATOM      7 Cl   UNL d   1      -0.968  -2.984   0.824  0.00  0.00    -0.070 Cl
ATOM      8 Cl1  UNL d   1       0.740  -0.733  -0.793  0.00  0.00    -0.070 Cl
ENDROOT
TORSDOF 0
ENDMDL
