MODEL 1
REMARK minimizedAffinity -5.16745281
REMARK minimizedRMSD -1
REMARK  0 active torsions:
REMARK  status: ('A' for Active; 'I' for Inactive)
ROOT
ATOM      1  C   UNL d   1       2.887   1.846   0.188  0.00  0.00     0.020 A 
ATOM      2  C1  UNL d   1       2.193   2.566   1.159  0.00  0.00     0.020 A 
ATOM      3  C2  UNL d   1       0.904   2.175   1.529  0.00  0.00     0.034 A 
ATOM      4  C3  UNL d   1       0.306   1.062   0.927  0.00  0.00     0.017 A 
ATOM      5  C4  UNL d   1       1.004   0.341  -0.048  0.00  0.00     0.017 A 
ATOM      6  C5  UNL d   1       2.294   0.736  -0.414  0.00  0.00     0.034 A 
ATOM      7 Cl   UNL d   1       0.332  -1.044  -0.835  0.00  0.00    -0.070 Cl
ATOM      8 Cl1  UNL d   1      -1.290   0.636   1.433  0.00  0.00    -0.070 Cl
ENDROOT
TORSDOF 0
ENDMDL
