MODEL 1
REMARK minimizedAffinity 0.150680244
REMARK minimizedRMSD -1
REMARK  0 active torsions:
REMARK  status: ('A' for Active; 'I' for Inactive)
ROOT
ATOM      1  C   UNL d   1       0.016  -1.306  -1.187  0.00  0.00     0.020 A 
ATOM      2  C1  UNL d   1      -0.929  -0.362  -0.787  0.00  0.00     0.020 A 
ATOM      3  C2  UNL d   1      -0.519   0.915  -0.400  0.00  0.00     0.034 A 
ATOM      4  C3  UNL d   1       0.840   1.253  -0.412  0.00  0.00     0.017 A 
ATOM      5  C4  UNL d   1       1.787   0.304  -0.814  0.00  0.00     0.017 A 
ATOM      6  C5  UNL d   1       1.371  -0.974  -1.200  0.00  0.00     0.034 A 
ATOM      7 Cl   UNL d   1       3.481   0.646  -0.856  0.00  0.00    -0.070 Cl
ATOM      8 Cl1  UNL d   1       1.275   2.851   0.079  0.00  0.00    -0.070 Cl
ENDROOT
TORSDOF 0
ENDMDL
