MODEL 1
REMARK minimizedAffinity -4.51026058
REMARK minimizedRMSD -1
REMARK  0 active torsions:
REMARK  status: ('A' for Active; 'I' for Inactive)
ROOT
ATOM      1  C   UNL d   1      -0.147  -0.986   0.258  0.00  0.00     0.020 A 
ATOM      2  C1  UNL d   1      -0.653  -0.159   1.260  0.00  0.00     0.020 A 
ATOM      3  C2  UNL d   1      -0.053   1.075   1.516  0.00  0.00     0.034 A 
ATOM      4  C3  UNL d   1       1.057   1.487   0.770  0.00  0.00     0.017 A 
ATOM      5  C4  UNL d   1       1.565   0.656  -0.235  0.00  0.00     0.017 A 
ATOM      6  C5  UNL d   1       0.960  -0.579  -0.488  0.00  0.00     0.034 A 
ATOM      7 Cl   UNL d   1       2.933   1.095  -1.197  0.00  0.00    -0.070 Cl
ATOM      8 Cl1  UNL d   1       1.749   3.026   1.142  0.00  0.00    -0.070 Cl
ENDROOT
TORSDOF 0
ENDMDL
