MODEL 1
REMARK minimizedAffinity -2.71724248
REMARK minimizedRMSD -1
REMARK  0 active torsions:
REMARK  status: ('A' for Active; 'I' for Inactive)
ROOT
ATOM      1  C   UNL d   1      -1.776  -1.391  -3.386  0.00  0.00     0.020 A 
ATOM      2  C1  UNL d   1      -2.669  -2.203  -2.687  0.00  0.00     0.020 A 
ATOM      3  C2  UNL d   1      -2.325  -2.695  -1.427  0.00  0.00     0.034 A 
ATOM      4  C3  UNL d   1      -1.085  -2.377  -0.860  0.00  0.00     0.017 A 
ATOM      5  C4  UNL d   1      -0.190  -1.562  -1.562  0.00  0.00     0.017 A 
ATOM      6  C5  UNL d   1      -0.539  -1.071  -2.824  0.00  0.00     0.034 A 
ATOM      7 Cl   UNL d   1       1.358  -1.125  -0.929  0.00  0.00    -0.070 Cl
ATOM      8 Cl1  UNL d   1      -0.727  -3.020   0.703  0.00  0.00    -0.070 Cl
ENDROOT
TORSDOF 0
ENDMDL
