MODEL 1
REMARK minimizedAffinity -3.91600323
REMARK minimizedRMSD -1
REMARK  0 active torsions:
REMARK  status: ('A' for Active; 'I' for Inactive)
ROOT
ATOM      1  C   UNL d   1       1.279  -1.523  -1.065  0.00  0.00     0.020 A 
ATOM      2  C1  UNL d   1       2.361  -0.646  -1.125  0.00  0.00     0.020 A 
ATOM      3  C2  UNL d   1       2.269   0.618  -0.539  0.00  0.00     0.034 A 
ATOM      4  C3  UNL d   1       1.092   1.010   0.109  0.00  0.00     0.017 A 
ATOM      5  C4  UNL d   1       0.006   0.129   0.169  0.00  0.00     0.017 A 
ATOM      6  C5  UNL d   1       0.104  -1.136  -0.419  0.00  0.00     0.034 A 
ATOM      7 Cl   UNL d   1      -1.479   0.541   0.952  0.00  0.00    -0.070 Cl
ATOM      8 Cl1  UNL d   1       1.048   2.588   0.811  0.00  0.00    -0.070 Cl
ENDROOT
TORSDOF 0
ENDMDL
