MODEL 1
REMARK minimizedAffinity -2.18526006
REMARK minimizedRMSD -1
REMARK  0 active torsions:
REMARK  status: ('A' for Active; 'I' for Inactive)
ROOT
ATOM      1  C   UNL d   1       0.002   2.234   1.652  0.00  0.00     0.020 A 
ATOM      2  C1  UNL d   1       0.551   2.262   0.371  0.00  0.00     0.020 A 
ATOM      3  C2  UNL d   1       0.620   1.091  -0.385  0.00  0.00     0.034 A 
ATOM      4  C3  UNL d   1       0.139  -0.115   0.139  0.00  0.00     0.017 A 
ATOM      5  C4  UNL d   1      -0.412  -0.143   1.425  0.00  0.00     0.017 A 
ATOM      6  C5  UNL d   1      -0.479   1.034   2.178  0.00  0.00     0.034 A 
ATOM      7 Cl   UNL d   1      -1.027  -1.592   2.139  0.00  0.00    -0.070 Cl
ATOM      8 Cl1  UNL d   1       0.256  -1.525  -0.853  0.00  0.00    -0.070 Cl
ENDROOT
TORSDOF 0
ENDMDL
