MODEL 1
REMARK minimizedAffinity -3.47419143
REMARK minimizedRMSD -1
REMARK  0 active torsions:
REMARK  status: ('A' for Active; 'I' for Inactive)
ROOT
ATOM      1  C   UNL d   1      -0.674  -3.730   2.821  0.00  0.00     0.020 A 
ATOM      2  C1  UNL d   1      -1.348  -2.521   2.659  0.00  0.00     0.020 A 
ATOM      3  C2  UNL d   1      -2.154  -2.316   1.537  0.00  0.00     0.034 A 
ATOM      4  C3  UNL d   1      -2.288  -3.322   0.573  0.00  0.00     0.017 A 
ATOM      5  C4  UNL d   1      -1.611  -4.536   0.737  0.00  0.00     0.017 A 
ATOM      6  C5  UNL d   1      -0.806  -4.736   1.862  0.00  0.00     0.034 A 
ATOM      7 Cl   UNL d   1      -1.728  -5.824  -0.409  0.00  0.00    -0.070 Cl
ATOM      8 Cl1  UNL d   1      -3.302  -3.000  -0.789  0.00  0.00    -0.070 Cl
ENDROOT
TORSDOF 0
ENDMDL
