MODEL 1
REMARK minimizedAffinity -1.97403789
REMARK minimizedRMSD -1
REMARK  1 active torsions:
REMARK  status: ('A' for Active; 'I' for Inactive)
REMARK    1  A    between atoms: N_2  and  C1_3 
ROOT
ATOM      1  C1  UNL d   1       2.836  -0.456  -1.073  0.00  0.00     0.143 A 
ATOM      2  C2  UNL d   1       2.883  -1.747  -1.608  0.00  0.00    -0.057 A 
ATOM      3  C3  UNL d   1       3.922  -2.144  -2.458  0.00  0.00     0.033 A 
ATOM      4  C4  UNL d   1       4.921  -1.243  -2.812  0.00  0.00    -0.042 A 
ATOM      5  C5  UNL d   1       4.882   0.054  -2.311  0.00  0.00     0.033 A 
ATOM      6  C6  UNL d   1       3.845   0.442  -1.458  0.00  0.00    -0.057 A 
ENDROOT
BRANCH   1   7
ATOM      7  N   UNL d   1       1.777   0.029  -0.301  0.00  0.00    -0.732 N 
ATOM      8  C   UNL d   1       0.407  -0.153  -0.732  0.00  0.00     0.284 C 
ATOM      9  H3  UNL d   1       1.922  -0.119   0.695  0.00  0.00     0.395 HD
ENDBRANCH   1   7
TORSDOF 1
ENDMDL
