MODEL 1
REMARK minimizedAffinity -0.0201092754
REMARK minimizedRMSD -1
REMARK  1 active torsions:
REMARK  status: ('A' for Active; 'I' for Inactive)
REMARK    1  A    between atoms: N_2  and  C1_3 
ROOT
ATOM      1  C1  UNL d   1      -3.182   2.856   2.557  0.00  0.00     0.143 A 
ATOM      2  C2  UNL d   1      -1.973   2.784   3.257  0.00  0.00    -0.057 A 
ATOM      3  C3  UNL d   1      -1.045   3.831   3.212  0.00  0.00     0.033 A 
ATOM      4  C4  UNL d   1      -1.298   4.960   2.440  0.00  0.00    -0.042 A 
ATOM      5  C5  UNL d   1      -2.482   5.042   1.716  0.00  0.00     0.033 A 
ATOM      6  C6  UNL d   1      -3.408   3.996   1.770  0.00  0.00    -0.057 A 
ENDROOT
BRANCH   1   7
ATOM      7  N   UNL d   1      -4.101   1.807   2.483  0.00  0.00    -0.732 N 
ATOM      8  C   UNL d   1      -4.216   1.011   1.280  0.00  0.00     0.284 C 
ATOM      9  H3  UNL d   1      -4.145   1.266   3.344  0.00  0.00     0.395 HD
ENDBRANCH   1   7
TORSDOF 1
ENDMDL
