MODEL 1
REMARK minimizedAffinity 2.31368923
REMARK minimizedRMSD -1
REMARK  1 active torsions:
REMARK  status: ('A' for Active; 'I' for Inactive)
REMARK    1  A    between atoms: N_2  and  C1_3 
ROOT
ATOM      1  C1  UNL d   1       2.104   0.028  -0.801  0.00  0.00     0.143 A 
ATOM      2  C2  UNL d   1       0.760   0.330  -0.562  0.00  0.00    -0.057 A 
ATOM      3  C3  UNL d   1      -0.229  -0.659  -0.623  0.00  0.00     0.033 A 
ATOM      4  C4  UNL d   1       0.107  -1.967  -0.956  0.00  0.00    -0.042 A 
ATOM      5  C5  UNL d   1       1.434  -2.285  -1.223  0.00  0.00     0.033 A 
ATOM      6  C6  UNL d   1       2.418  -1.294  -1.153  0.00  0.00    -0.057 A 
ENDROOT
BRANCH   1   7
ATOM      7  N   UNL d   1       3.120   0.986  -0.852  0.00  0.00    -0.732 N 
ATOM      8  C   UNL d   1       4.416   0.658  -1.405  0.00  0.00     0.284 C 
ATOM      9  H3  UNL d   1       2.774   1.905  -1.120  0.00  0.00     0.395 HD
ENDBRANCH   1   7
TORSDOF 1
ENDMDL
