MODEL 1
REMARK minimizedAffinity 0.855414391
REMARK minimizedRMSD -1
REMARK  1 active torsions:
REMARK  status: ('A' for Active; 'I' for Inactive)
REMARK    1  A    between atoms: N_2  and  C1_3 
ROOT
ATOM      1  C1  UNL d   1       2.543  -0.515  -0.745  0.00  0.00     0.143 A 
ATOM      2  C2  UNL d   1       1.733   0.560  -0.364  0.00  0.00    -0.057 A 
ATOM      3  C3  UNL d   1       0.337   0.476  -0.426  0.00  0.00     0.033 A 
ATOM      4  C4  UNL d   1      -0.275  -0.680  -0.900  0.00  0.00    -0.042 A 
ATOM      5  C5  UNL d   1       0.510  -1.752  -1.307  0.00  0.00     0.033 A 
ATOM      6  C6  UNL d   1       1.903  -1.664  -1.236  0.00  0.00    -0.057 A 
ENDROOT
BRANCH   1   7
ATOM      7  N   UNL d   1       3.938  -0.458  -0.799  0.00  0.00    -0.732 N 
ATOM      8  C   UNL d   1       4.609   0.729  -1.282  0.00  0.00     0.284 C 
ATOM      9  H3  UNL d   1       4.376  -0.880   0.017  0.00  0.00     0.395 HD
ENDBRANCH   1   7
TORSDOF 1
ENDMDL
