MODEL 1
REMARK minimizedAffinity -2.59116459
REMARK minimizedRMSD -1
REMARK  1 active torsions:
REMARK  status: ('A' for Active; 'I' for Inactive)
REMARK    1  A    between atoms: N_2  and  C1_3 
ROOT
ATOM      1  C1  UNL d   1       0.005  -0.439  -0.280  0.00  0.00     0.143 A 
ATOM      2  C2  UNL d   1      -1.146   0.125  -0.840  0.00  0.00    -0.057 A 
ATOM      3  C3  UNL d   1      -1.501   1.455  -0.585  0.00  0.00     0.033 A 
ATOM      4  C4  UNL d   1      -0.723   2.239   0.261  0.00  0.00    -0.042 A 
ATOM      5  C5  UNL d   1       0.412   1.691   0.848  0.00  0.00     0.033 A 
ATOM      6  C6  UNL d   1       0.765   0.364   0.584  0.00  0.00    -0.057 A 
ENDROOT
BRANCH   1   7
ATOM      7  N   UNL d   1       0.357  -1.784  -0.417  0.00  0.00    -0.732 N 
ATOM      8  C   UNL d   1       1.687  -2.237  -0.071  0.00  0.00     0.284 C 
ATOM      9  H3  UNL d   1      -0.386  -2.413  -0.120  0.00  0.00     0.395 HD
ENDBRANCH   1   7
TORSDOF 1
ENDMDL
