MODEL 1
REMARK minimizedAffinity -3.0956378
REMARK minimizedRMSD -1
REMARK  0 active torsions:
REMARK  status: ('A' for Active; 'I' for Inactive)
ROOT
ATOM      1  O1  BZF d   1       2.570   2.593   1.634  0.00  0.00    -0.204 OA
ATOM      2  C2  BZF d   1       2.597   3.835   1.029  0.00  0.00     0.174 A 
ATOM      3  C3  BZF d   1       1.857   3.834  -0.099  0.00  0.00    -0.012 A 
ATOM      4  C3A BZF d   1       1.260   2.534  -0.156  0.00  0.00    -0.107 A 
ATOM      5  C4  BZF d   1       0.406   1.931  -1.034  0.00  0.00     0.055 A 
ATOM      6  C5  BZF d   1       0.072   0.628  -0.842  0.00  0.00    -0.016 A 
ATOM      7  C6  BZF d   1       0.578  -0.103   0.214  0.00  0.00     0.022 A 
ATOM      8  C7  BZF d   1       1.424   0.454   1.114  0.00  0.00     0.029 A 
ATOM      9  C7A BZF d   1       1.737   1.780   0.941  0.00  0.00     0.058 A 
ENDROOT
TORSDOF 0
ENDMDL
