MODEL 1
REMARK minimizedAffinity -4.38761616
REMARK minimizedRMSD -1
REMARK  0 active torsions:
REMARK  status: ('A' for Active; 'I' for Inactive)
ROOT
ATOM      1  O1  BZF d   1      -0.620  -2.488   0.838  0.00  0.00    -0.204 OA
ATOM      2  C2  BZF d   1       0.486  -3.038   0.218  0.00  0.00     0.174 A 
ATOM      3  C3  BZF d   1       1.204  -2.086  -0.411  0.00  0.00    -0.012 A 
ATOM      4  C3A BZF d   1       0.554  -0.852  -0.093  0.00  0.00    -0.107 A 
ATOM      5  C4  BZF d   1       0.806   0.452  -0.411  0.00  0.00     0.055 A 
ATOM      6  C5  BZF d   1      -0.063   1.412  -0.001  0.00  0.00    -0.016 A 
ATOM      7  C6  BZF d   1      -1.196   1.105   0.724  0.00  0.00     0.022 A 
ATOM      8  C7  BZF d   1      -1.486  -0.173   1.068  0.00  0.00     0.029 A 
ATOM      9  C7A BZF d   1      -0.592  -1.143   0.684  0.00  0.00     0.058 A 
ENDROOT
TORSDOF 0
ENDMDL
