MODEL 1
REMARK minimizedAffinity -2.38294959
REMARK minimizedRMSD -1
REMARK  0 active torsions:
REMARK  status: ('A' for Active; 'I' for Inactive)
ROOT
ATOM      1  O1  BZF d   1       0.396   2.071  -1.788  0.00  0.00    -0.204 OA
ATOM      2  C2  BZF d   1       0.170   2.855  -0.673  0.00  0.00     0.174 A 
ATOM      3  C3  BZF d   1       0.078   2.093   0.437  0.00  0.00    -0.012 A 
ATOM      4  C3A BZF d   1       0.350   0.758   0.000  0.00  0.00    -0.107 A 
ATOM      5  C4  BZF d   1       0.422  -0.444   0.644  0.00  0.00     0.055 A 
ATOM      6  C5  BZF d   1       0.635  -1.572  -0.084  0.00  0.00    -0.016 A 
ATOM      7  C6  BZF d   1       0.776  -1.535  -1.456  0.00  0.00     0.022 A 
ATOM      8  C7  BZF d   1       0.718  -0.365  -2.138  0.00  0.00     0.029 A 
ATOM      9  C7A BZF d   1       0.535   0.780  -1.402  0.00  0.00     0.058 A 
ENDROOT
TORSDOF 0
ENDMDL
