MODEL 1
REMARK minimizedAffinity -4.71912432
REMARK minimizedRMSD -1
REMARK  0 active torsions:
REMARK  status: ('A' for Active; 'I' for Inactive)
ROOT
ATOM      1  O1  BZF d   1      -1.198  -2.697   0.892  0.00  0.00    -0.204 OA
ATOM      2  C2  BZF d   1      -0.200  -3.537   0.436  0.00  0.00     0.174 A 
ATOM      3  C3  BZF d   1       0.742  -2.841  -0.233  0.00  0.00    -0.012 A 
ATOM      4  C3A BZF d   1       0.352  -1.469  -0.114  0.00  0.00    -0.107 A 
ATOM      5  C4  BZF d   1       0.896  -0.297  -0.556  0.00  0.00     0.055 A 
ATOM      6  C5  BZF d   1       0.229   0.866  -0.333  0.00  0.00    -0.016 A 
ATOM      7  C6  BZF d   1      -0.985   0.893   0.323  0.00  0.00     0.022 A 
ATOM      8  C7  BZF d   1      -1.561  -0.244   0.784  0.00  0.00     0.029 A 
ATOM      9  C7A BZF d   1      -0.873  -1.417   0.589  0.00  0.00     0.058 A 
ENDROOT
TORSDOF 0
ENDMDL
