MODEL 1
REMARK minimizedAffinity -3.35906672
REMARK minimizedRMSD -1
REMARK  0 active torsions:
REMARK  status: ('A' for Active; 'I' for Inactive)
ROOT
ATOM      1  O1  BZF d   1       1.458   0.700  -0.389  0.00  0.00    -0.204 OA
ATOM      2  C2  BZF d   1       0.771   1.882  -0.189  0.00  0.00     0.174 A 
ATOM      3  C3  BZF d   1      -0.441   1.645   0.353  0.00  0.00    -0.012 A 
ATOM      4  C3A BZF d   1      -0.479   0.234   0.587  0.00  0.00    -0.107 A 
ATOM      5  C4  BZF d   1      -1.414  -0.604   1.123  0.00  0.00     0.055 A 
ATOM      6  C5  BZF d   1      -1.171  -1.941   1.141  0.00  0.00    -0.016 A 
ATOM      7  C6  BZF d   1      -0.007  -2.474   0.627  0.00  0.00     0.022 A 
ATOM      8  C7  BZF d   1       0.953  -1.682   0.089  0.00  0.00     0.029 A 
ATOM      9  C7A BZF d   1       0.724  -0.328   0.100  0.00  0.00     0.058 A 
ENDROOT
TORSDOF 0
ENDMDL
