MODEL 1
REMARK minimizedAffinity -6.48679781
REMARK minimizedRMSD -1
REMARK  0 active torsions:
REMARK  status: ('A' for Active; 'I' for Inactive)
ROOT
ATOM      1  O1  BZF d   1       0.237   0.398  -1.373  0.00  0.00    -0.204 OA
ATOM      2  C2  BZF d   1      -0.216   1.108  -0.278  0.00  0.00     0.174 A 
ATOM      3  C3  BZF d   1      -0.511   0.278   0.743  0.00  0.00    -0.012 A 
ATOM      4  C3A BZF d   1      -0.136  -1.026   0.287  0.00  0.00    -0.107 A 
ATOM      5  C4  BZF d   1      -0.172  -2.266   0.858  0.00  0.00     0.055 A 
ATOM      6  C5  BZF d   1       0.198  -3.345   0.118  0.00  0.00    -0.016 A 
ATOM      7  C6  BZF d   1       0.604  -3.220  -1.194  0.00  0.00     0.022 A 
ATOM      8  C7  BZF d   1       0.661  -2.010  -1.802  0.00  0.00     0.029 A 
ATOM      9  C7A BZF d   1       0.319  -0.915  -1.047  0.00  0.00     0.058 A 
ENDROOT
TORSDOF 0
ENDMDL
