MODEL 1
REMARK minimizedAffinity -3.91405845
REMARK minimizedRMSD -1
REMARK  0 active torsions:
REMARK  status: ('A' for Active; 'I' for Inactive)
ROOT
ATOM      1  O1  BZF d   1      -0.650  -2.695   0.982  0.00  0.00    -0.204 OA
ATOM      2  C2  BZF d   1       0.211  -3.347   0.120  0.00  0.00     0.174 A 
ATOM      3  C3  BZF d   1       0.804  -2.472  -0.717  0.00  0.00    -0.012 A 
ATOM      4  C3A BZF d   1       0.351  -1.182  -0.295  0.00  0.00    -0.107 A 
ATOM      5  C4  BZF d   1       0.603   0.089  -0.727  0.00  0.00     0.055 A 
ATOM      6  C5  BZF d   1      -0.057   1.126  -0.147  0.00  0.00    -0.016 A 
ATOM      7  C6  BZF d   1      -0.977   0.929   0.861  0.00  0.00     0.022 A 
ATOM      8  C7  BZF d   1      -1.257  -0.313   1.326  0.00  0.00     0.029 A 
ATOM      9  C7A BZF d   1      -0.567  -1.361   0.765  0.00  0.00     0.058 A 
ENDROOT
TORSDOF 0
ENDMDL
