MODEL 1
REMARK minimizedAffinity -4.63346624
REMARK minimizedRMSD -1
REMARK  0 active torsions:
REMARK  status: ('A' for Active; 'I' for Inactive)
ROOT
ATOM      1  O1  BZF d   1       0.038   0.917  -1.317  0.00  0.00    -0.204 OA
ATOM      2  C2  BZF d   1       0.825   0.427  -2.341  0.00  0.00     0.174 A 
ATOM      3  C3  BZF d   1       1.184  -0.850  -2.100  0.00  0.00    -0.012 A 
ATOM      4  C3A BZF d   1       0.507  -1.210  -0.892  0.00  0.00    -0.107 A 
ATOM      5  C4  BZF d   1       0.453  -2.356  -0.151  0.00  0.00     0.055 A 
ATOM      6  C5  BZF d   1      -0.241  -2.355   1.017  0.00  0.00    -0.016 A 
ATOM      7  C6  BZF d   1      -0.888  -1.227   1.476  0.00  0.00     0.022 A 
ATOM      8  C7  BZF d   1      -0.867  -0.068   0.774  0.00  0.00     0.029 A 
ATOM      9  C7A BZF d   1      -0.194  -0.075  -0.423  0.00  0.00     0.058 A 
ENDROOT
TORSDOF 0
ENDMDL
