MODEL 1
REMARK minimizedAffinity -1.09306729
REMARK minimizedRMSD -1
REMARK  0 active torsions:
REMARK  status: ('A' for Active; 'I' for Inactive)
ROOT
ATOM      1  O1  BZF d   1      -1.178  -2.224   1.188  0.00  0.00    -0.204 OA
ATOM      2  C2  BZF d   1      -0.420  -3.178   0.536  0.00  0.00     0.174 A 
ATOM      3  C3  BZF d   1       0.455  -2.598  -0.310  0.00  0.00    -0.012 A 
ATOM      4  C3A BZF d   1       0.293  -1.190  -0.112  0.00  0.00    -0.107 A 
ATOM      5  C4  BZF d   1       0.895  -0.091  -0.655  0.00  0.00     0.055 A 
ATOM      6  C5  BZF d   1       0.456   1.145  -0.299  0.00  0.00    -0.016 A 
ATOM      7  C6  BZF d   1      -0.584   1.318   0.590  0.00  0.00     0.022 A 
ATOM      8  C7  BZF d   1      -1.209   0.258   1.158  0.00  0.00     0.029 A 
ATOM      9  C7A BZF d   1      -0.745  -0.992   0.826  0.00  0.00     0.058 A 
ENDROOT
TORSDOF 0
ENDMDL
