MODEL 1
REMARK minimizedAffinity -5.31779289
REMARK minimizedRMSD -1
REMARK  0 active torsions:
REMARK  status: ('A' for Active; 'I' for Inactive)
ROOT
ATOM      1  O1  BZF d   1       0.942   5.422   3.093  0.00  0.00    -0.204 OA
ATOM      2  C2  BZF d   1      -0.353   5.273   3.552  0.00  0.00     0.174 A 
ATOM      3  C3  BZF d   1      -1.025   4.374   2.804  0.00  0.00    -0.012 A 
ATOM      4  C3A BZF d   1      -0.064   3.866   1.874  0.00  0.00    -0.107 A 
ATOM      5  C4  BZF d   1      -0.123   2.932   0.878  0.00  0.00     0.055 A 
ATOM      6  C5  BZF d   1       0.974   2.721   0.105  0.00  0.00    -0.016 A 
ATOM      7  C6  BZF d   1       2.143   3.428   0.294  0.00  0.00     0.022 A 
ATOM      8  C7  BZF d   1       2.252   4.360   1.272  0.00  0.00     0.029 A 
ATOM      9  C7A BZF d   1       1.155   4.552   2.077  0.00  0.00     0.058 A 
ENDROOT
TORSDOF 0
ENDMDL
