MODEL 1
REMARK minimizedAffinity -3.2211349
REMARK minimizedRMSD -1
REMARK  0 active torsions:
REMARK  status: ('A' for Active; 'I' for Inactive)
ROOT
ATOM      1  O1  BZF d   1       0.240  -0.529  -2.082  0.00  0.00    -0.204 OA
ATOM      2  C2  BZF d   1       0.139   0.755  -1.583  0.00  0.00     0.174 A 
ATOM      3  C3  BZF d   1      -0.194   0.734  -0.276  0.00  0.00    -0.012 A 
ATOM      4  C3A BZF d   1      -0.219  -0.650   0.085  0.00  0.00    -0.107 A 
ATOM      5  C4  BZF d   1      -0.470  -1.312   1.253  0.00  0.00     0.055 A 
ATOM      6  C5  BZF d   1      -0.485  -2.671   1.252  0.00  0.00    -0.016 A 
ATOM      7  C6  BZF d   1      -0.258  -3.399   0.102  0.00  0.00     0.022 A 
ATOM      8  C7  BZF d   1       0.000  -2.787  -1.079  0.00  0.00     0.029 A 
ATOM      9  C7A BZF d   1       0.049  -1.414  -1.075  0.00  0.00     0.058 A 
ENDROOT
TORSDOF 0
ENDMDL
