MODEL 1
REMARK minimizedAffinity -4.25640106
REMARK minimizedRMSD -1
REMARK  0 active torsions:
REMARK  status: ('A' for Active; 'I' for Inactive)
ROOT
ATOM      1  O1  BZF d   1       1.494   0.454  -0.234  0.00  0.00    -0.204 OA
ATOM      2  C2  BZF d   1       0.202   0.093  -0.560  0.00  0.00     0.174 A 
ATOM      3  C3  BZF d   1      -0.660   1.092  -0.280  0.00  0.00    -0.012 A 
ATOM      4  C3A BZF d   1       0.157   2.178   0.169  0.00  0.00    -0.107 A 
ATOM      5  C4  BZF d   1      -0.117   3.452   0.578  0.00  0.00     0.055 A 
ATOM      6  C5  BZF d   1       0.900   4.236   1.022  0.00  0.00    -0.016 A 
ATOM      7  C6  BZF d   1       2.200   3.777   1.076  0.00  0.00     0.022 A 
ATOM      8  C7  BZF d   1       2.522   2.523   0.675  0.00  0.00     0.029 A 
ATOM      9  C7A BZF d   1       1.501   1.739   0.195  0.00  0.00     0.058 A 
ENDROOT
TORSDOF 0
ENDMDL
