MODEL 1
REMARK minimizedAffinity -5.21035385
REMARK minimizedRMSD -1
REMARK  0 active torsions:
REMARK  status: ('A' for Active; 'I' for Inactive)
ROOT
ATOM      1  O1  BZF d   1       0.021   0.506  -1.441  0.00  0.00    -0.204 OA
ATOM      2  C2  BZF d   1      -0.224   0.995  -0.173  0.00  0.00     0.174 A 
ATOM      3  C3  BZF d   1      -0.252  -0.007   0.729  0.00  0.00    -0.012 A 
ATOM      4  C3A BZF d   1       0.083  -1.186  -0.008  0.00  0.00    -0.107 A 
ATOM      5  C4  BZF d   1       0.233  -2.499   0.338  0.00  0.00     0.055 A 
ATOM      6  C5  BZF d   1       0.492  -3.413  -0.634  0.00  0.00    -0.016 A 
ATOM      7  C6  BZF d   1       0.603  -3.050  -1.961  0.00  0.00     0.022 A 
ATOM      8  C7  BZF d   1       0.467  -1.759  -2.352  0.00  0.00     0.029 A 
ATOM      9  C7A BZF d   1       0.238  -0.829  -1.368  0.00  0.00     0.058 A 
ENDROOT
TORSDOF 0
ENDMDL
