MODEL 1
REMARK minimizedAffinity -2.03251076
REMARK minimizedRMSD -1
REMARK  0 active torsions:
REMARK  status: ('A' for Active; 'I' for Inactive)
ROOT
ATOM      1  O1  BZF d   1       0.853  -2.612   1.028  0.00  0.00    -0.204 OA
ATOM      2  C2  BZF d   1      -0.284  -3.328   0.709  0.00  0.00     0.174 A 
ATOM      3  C3  BZF d   1      -1.301  -2.498   0.398  0.00  0.00    -0.012 A 
ATOM      4  C3A BZF d   1      -0.740  -1.183   0.442  0.00  0.00    -0.107 A 
ATOM      5  C4  BZF d   1      -1.248   0.063   0.211  0.00  0.00     0.055 A 
ATOM      6  C5  BZF d   1      -0.455   1.148   0.411  0.00  0.00    -0.016 A 
ATOM      7  C6  BZF d   1       0.849   1.024   0.845  0.00  0.00     0.022 A 
ATOM      8  C7  BZF d   1       1.399  -0.191   1.082  0.00  0.00     0.029 A 
ATOM      9  C7A BZF d   1       0.610  -1.291   0.850  0.00  0.00     0.058 A 
ENDROOT
TORSDOF 0
ENDMDL
