MODEL 1
REMARK minimizedAffinity -4.24198771
REMARK minimizedRMSD -1
REMARK  0 active torsions:
REMARK  status: ('A' for Active; 'I' for Inactive)
ROOT
ATOM      1  O1  BZF d   1      -1.428   0.831   0.143  0.00  0.00    -0.204 OA
ATOM      2  C2  BZF d   1      -0.528   1.619  -0.549  0.00  0.00     0.174 A 
ATOM      3  C3  BZF d   1       0.609   0.940  -0.799  0.00  0.00    -0.012 A 
ATOM      4  C3A BZF d   1       0.373  -0.383  -0.309  0.00  0.00    -0.107 A 
ATOM      5  C4  BZF d   1       1.124  -1.523  -0.284  0.00  0.00     0.055 A 
ATOM      6  C5  BZF d   1       0.628  -2.628   0.333  0.00  0.00    -0.016 A 
ATOM      7  C6  BZF d   1      -0.611  -2.626   0.939  0.00  0.00     0.022 A 
ATOM      8  C7  BZF d   1      -1.395  -1.521   0.935  0.00  0.00     0.029 A 
ATOM      9  C7A BZF d   1      -0.910  -0.413   0.284  0.00  0.00     0.058 A 
ENDROOT
TORSDOF 0
ENDMDL
