MODEL 1
REMARK minimizedAffinity -2.79242992
REMARK minimizedRMSD -1
REMARK  0 active torsions:
REMARK  status: ('A' for Active; 'I' for Inactive)
ROOT
ATOM      1  O1  BZF d   1       0.792   5.990   1.830  0.00  0.00    -0.204 OA
ATOM      2  C2  BZF d   1      -0.519   5.998   2.263  0.00  0.00     0.174 A 
ATOM      3  C3  BZF d   1      -1.143   4.853   1.921  0.00  0.00    -0.012 A 
ATOM      4  C3A BZF d   1      -0.134   4.042   1.312  0.00  0.00    -0.107 A 
ATOM      5  C4  BZF d   1      -0.134   2.784   0.780  0.00  0.00     0.055 A 
ATOM      6  C5  BZF d   1       1.000   2.313   0.198  0.00  0.00    -0.016 A 
ATOM      7  C6  BZF d   1       2.149   3.073   0.126  0.00  0.00     0.022 A 
ATOM      8  C7  BZF d   1       2.199   4.324   0.645  0.00  0.00     0.029 A 
ATOM      9  C7A BZF d   1       1.065   4.791   1.263  0.00  0.00     0.058 A 
ENDROOT
TORSDOF 0
ENDMDL
