MODEL 1
REMARK minimizedAffinity 6.13564587
REMARK minimizedRMSD -1
REMARK  0 active torsions:
REMARK  status: ('A' for Active; 'I' for Inactive)
ROOT
ATOM      1  C   UNL d   1       2.924   1.385   0.199  0.00  0.00     0.020 A 
ATOM      2  C1  UNL d   1       1.737   0.653   0.191  0.00  0.00     0.020 A 
ATOM      3  C2  UNL d   1       1.778  -0.743   0.215  0.00  0.00     0.034 A 
ATOM      4  C3  UNL d   1       3.007  -1.411   0.247  0.00  0.00     0.017 A 
ATOM      5  C4  UNL d   1       4.198  -0.675   0.255  0.00  0.00     0.017 A 
ATOM      6  C5  UNL d   1       4.151   0.722   0.231  0.00  0.00     0.034 A 
ATOM      7 Cl   UNL d   1       5.753  -1.428   0.295  0.00  0.00    -0.070 Cl
ATOM      8 Cl1  UNL d   1       2.983  -3.138   0.277  0.00  0.00    -0.070 Cl
ENDROOT
TORSDOF 0
ENDMDL
