MODEL 1
REMARK minimizedAffinity -0.904561698
REMARK minimizedRMSD -1
REMARK  0 active torsions:
REMARK  status: ('A' for Active; 'I' for Inactive)
ROOT
ATOM      1  C   UNL d   1      -5.747   0.611  -5.189  0.00  0.00     0.020 A 
ATOM      2  C1  UNL d   1      -4.639   0.883  -5.990  0.00  0.00     0.020 A 
ATOM      3  C2  UNL d   1      -3.456   0.162  -5.815  0.00  0.00     0.034 A 
ATOM      4  C3  UNL d   1      -3.379  -0.835  -4.836  0.00  0.00     0.017 A 
ATOM      5  C4  UNL d   1      -4.492  -1.108  -4.033  0.00  0.00     0.017 A 
ATOM      6  C5  UNL d   1      -5.674  -0.383  -4.213  0.00  0.00     0.034 A 
ATOM      7 Cl   UNL d   1      -4.473  -2.324  -2.804  0.00  0.00    -0.070 Cl
ATOM      8 Cl1  UNL d   1      -1.885  -1.688  -4.674  0.00  0.00    -0.070 Cl
ENDROOT
TORSDOF 0
ENDMDL
