MODEL 1
REMARK minimizedAffinity 8.36602306
REMARK minimizedRMSD -1
REMARK  0 active torsions:
REMARK  status: ('A' for Active; 'I' for Inactive)
ROOT
ATOM      1  C   UNL d   1      -4.823   0.523  -5.662  0.00  0.00     0.020 A 
ATOM      2  C1  UNL d   1      -4.597   1.898  -5.680  0.00  0.00     0.020 A 
ATOM      3  C2  UNL d   1      -3.888   2.504  -4.640  0.00  0.00     0.034 A 
ATOM      4  C3  UNL d   1      -3.402   1.733  -3.578  0.00  0.00     0.017 A 
ATOM      5  C4  UNL d   1      -3.629   0.352  -3.560  0.00  0.00     0.017 A 
ATOM      6  C5  UNL d   1      -4.340  -0.249  -4.604  0.00  0.00     0.034 A 
ATOM      7 Cl   UNL d   1      -3.061  -0.665  -2.283  0.00  0.00    -0.070 Cl
ATOM      8 Cl1  UNL d   1      -2.533   2.547  -2.326  0.00  0.00    -0.070 Cl
ENDROOT
TORSDOF 0
ENDMDL
