MODEL 1
REMARK minimizedAffinity 0.696407974
REMARK minimizedRMSD -1
REMARK  0 active torsions:
REMARK  status: ('A' for Active; 'I' for Inactive)
ROOT
ATOM      1  C   UNL d   1      -5.692   1.246  -5.649  0.00  0.00     0.020 A 
ATOM      2  C1  UNL d   1      -5.998   0.275  -4.696  0.00  0.00     0.020 A 
ATOM      3  C2  UNL d   1      -4.974  -0.453  -4.088  0.00  0.00     0.034 A 
ATOM      4  C3  UNL d   1      -3.638  -0.213  -4.432  0.00  0.00     0.017 A 
ATOM      5  C4  UNL d   1      -3.332   0.761  -5.389  0.00  0.00     0.017 A 
ATOM      6  C5  UNL d   1      -4.362   1.488  -5.995  0.00  0.00     0.034 A 
ATOM      7 Cl   UNL d   1      -1.709   1.114  -5.866  0.00  0.00    -0.070 Cl
ATOM      8 Cl1  UNL d   1      -2.423  -1.151  -3.640  0.00  0.00    -0.070 Cl
ENDROOT
TORSDOF 0
ENDMDL
