MODEL 1
REMARK minimizedAffinity -0.191453934
REMARK minimizedRMSD -1
REMARK  0 active torsions:
REMARK  status: ('A' for Active; 'I' for Inactive)
ROOT
ATOM      1  C   UNL d   1      -4.361  -1.288  -3.482  0.00  0.00     0.020 A 
ATOM      2  C1  UNL d   1      -3.963  -0.746  -2.261  0.00  0.00     0.020 A 
ATOM      3  C2  UNL d   1      -3.603   0.600  -2.178  0.00  0.00     0.034 A 
ATOM      4  C3  UNL d   1      -3.640   1.410  -3.320  0.00  0.00     0.017 A 
ATOM      5  C4  UNL d   1      -4.040   0.865  -4.545  0.00  0.00     0.017 A 
ATOM      6  C5  UNL d   1      -4.399  -0.484  -4.622  0.00  0.00     0.034 A 
ATOM      7 Cl   UNL d   1      -4.112   1.801  -5.996  0.00  0.00    -0.070 Cl
ATOM      8 Cl1  UNL d   1      -3.182   3.067  -3.145  0.00  0.00    -0.070 Cl
ENDROOT
TORSDOF 0
ENDMDL
