MODEL 1
REMARK minimizedAffinity -0.609745741
REMARK minimizedRMSD -1
REMARK  0 active torsions:
REMARK  status: ('A' for Active; 'I' for Inactive)
ROOT
ATOM      1  C   UNL d   1       2.607  -2.482   0.379  0.00  0.00     0.020 A 
ATOM      2  C1  UNL d   1       3.935  -2.900   0.457  0.00  0.00     0.020 A 
ATOM      3  C2  UNL d   1       4.967  -1.961   0.403  0.00  0.00     0.034 A 
ATOM      4  C3  UNL d   1       4.673  -0.599   0.270  0.00  0.00     0.017 A 
ATOM      5  C4  UNL d   1       3.340  -0.180   0.192  0.00  0.00     0.017 A 
ATOM      6  C5  UNL d   1       2.311  -1.125   0.247  0.00  0.00     0.034 A 
ATOM      7 Cl   UNL d   1       2.900   1.483   0.028  0.00  0.00    -0.070 Cl
ATOM      8 Cl1  UNL d   1       6.000   0.506   0.211  0.00  0.00    -0.070 Cl
ENDROOT
TORSDOF 0
ENDMDL
