MODEL 1
REMARK minimizedAffinity 0.604644835
REMARK minimizedRMSD -1
REMARK  0 active torsions:
REMARK  status: ('A' for Active; 'I' for Inactive)
ROOT
ATOM      1  C   UNL d   1       2.262  -2.472   0.401  0.00  0.00     0.020 A 
ATOM      2  C1  UNL d   1       3.524  -3.017   0.633  0.00  0.00     0.020 A 
ATOM      3  C2  UNL d   1       4.664  -2.224   0.485  0.00  0.00     0.034 A 
ATOM      4  C3  UNL d   1       4.545  -0.883   0.103  0.00  0.00     0.017 A 
ATOM      5  C4  UNL d   1       3.277  -0.337  -0.130  0.00  0.00     0.017 A 
ATOM      6  C5  UNL d   1       2.139  -1.135   0.020  0.00  0.00     0.034 A 
ATOM      7 Cl   UNL d   1       3.050   1.309  -0.603  0.00  0.00    -0.070 Cl
ATOM      8 Cl1  UNL d   1       5.997   0.038  -0.061  0.00  0.00    -0.070 Cl
ENDROOT
TORSDOF 0
ENDMDL
