MODEL 1
REMARK minimizedAffinity -2.0549643
REMARK minimizedRMSD -1
REMARK  2 active torsions:
REMARK  status: ('A' for Active; 'I' for Inactive)
REMARK    1  A    between atoms: C2'_3  and  C1'_4 
REMARK    2  A    between atoms: C1'_4  and  C1_5 
ROOT
ATOM      1  C1  I4B d   1       3.616  -0.647  -1.823  0.00  0.00    -0.075 A 
ATOM      2  C2  I4B d   1       3.642  -1.916  -1.302  0.00  0.00     0.003 A 
ATOM      3  C3  I4B d   1       4.835  -2.431  -0.738  0.00  0.00     0.002 A 
ATOM      4  C4  I4B d   1       5.983  -1.666  -0.763  0.00  0.00    -0.004 A 
ATOM      5  C5  I4B d   1       5.949  -0.371  -1.272  0.00  0.00     0.002 A 
ATOM      6  C6  I4B d   1       4.755   0.147  -1.794  0.00  0.00     0.003 A 
ENDROOT
BRANCH   1   7
ATOM      7  C1' I4B d   1       2.348  -0.147  -2.440  0.00  0.00     0.060 C 
BRANCH   7   8
ATOM      8  C2' I4B d   1       1.282  -0.126  -1.364  0.00  0.00    -0.013 C 
ATOM      9  C4' I4B d   1       1.172  -1.464  -0.680  0.00  0.00     0.013 C 
ATOM     10  C3' I4B d   1       1.632   0.955  -0.385  0.00  0.00     0.013 C 
ENDBRANCH   7   8
ENDBRANCH   1   7
TORSDOF 2
ENDMDL
