MODEL 1
REMARK minimizedAffinity 6.37851334
REMARK minimizedRMSD -1
REMARK  2 active torsions:
REMARK  status: ('A' for Active; 'I' for Inactive)
REMARK    1  A    between atoms: C2'_3  and  C1'_4 
REMARK    2  A    between atoms: C1'_4  and  C1_5 
ROOT
ATOM      1  C1  I4B d   1      -3.049   2.915  -5.956  0.00  0.00    -0.075 A 
ATOM      2  C2  I4B d   1      -2.104   3.910  -5.934  0.00  0.00     0.003 A 
ATOM      3  C3  I4B d   1      -2.500   5.270  -5.927  0.00  0.00     0.002 A 
ATOM      4  C4  I4B d   1      -3.841   5.587  -5.994  0.00  0.00    -0.004 A 
ATOM      5  C5  I4B d   1      -4.799   4.577  -5.993  0.00  0.00     0.002 A 
ATOM      6  C6  I4B d   1      -4.401   3.232  -5.962  0.00  0.00     0.003 A 
ENDROOT
BRANCH   1   7
ATOM      7  C1' I4B d   1      -2.595   1.490  -5.996  0.00  0.00     0.060 C 
BRANCH   7   8
ATOM      8  C2' I4B d   1      -2.206   1.085  -4.589  0.00  0.00    -0.013 C 
ATOM      9  C4' I4B d   1      -3.250   0.192  -3.971  0.00  0.00     0.013 C 
ATOM     10  C3' I4B d   1      -0.876   0.396  -4.656  0.00  0.00     0.013 C 
ENDBRANCH   7   8
ENDBRANCH   1   7
TORSDOF 2
ENDMDL
