MODEL 1
REMARK minimizedAffinity 16.5204525
REMARK minimizedRMSD -1
REMARK  2 active torsions:
REMARK  status: ('A' for Active; 'I' for Inactive)
REMARK    1  A    between atoms: C2'_3  and  C1'_4 
REMARK    2  A    between atoms: C1'_4  and  C1_5 
ROOT
ATOM      1  C1  I4B d   1       0.380  -2.653  -1.510  0.00  0.00    -0.075 A 
ATOM      2  C2  I4B d   1       0.173  -1.999  -0.321  0.00  0.00     0.003 A 
ATOM      3  C3  I4B d   1       0.766  -0.734  -0.091  0.00  0.00     0.002 A 
ATOM      4  C4  I4B d   1       1.594  -0.187  -1.050  0.00  0.00    -0.004 A 
ATOM      5  C5  I4B d   1       1.784  -0.841  -2.264  0.00  0.00     0.002 A 
ATOM      6  C6  I4B d   1       1.164  -2.077  -2.501  0.00  0.00     0.003 A 
ENDROOT
BRANCH   1   7
ATOM      7  C1' I4B d   1      -0.235  -4.003  -1.707  0.00  0.00     0.060 C 
BRANCH   7   8
ATOM      8  C2' I4B d   1      -0.779  -4.066  -3.119  0.00  0.00    -0.013 C 
ATOM      9  C4' I4B d   1      -0.793  -5.481  -3.635  0.00  0.00     0.013 C 
ATOM     10  C3' I4B d   1      -2.160  -3.480  -3.110  0.00  0.00     0.013 C 
ENDBRANCH   7   8
ENDBRANCH   1   7
TORSDOF 2
ENDMDL
