MODEL 1
REMARK minimizedAffinity 5.28615189
REMARK minimizedRMSD -1
REMARK  2 active torsions:
REMARK  status: ('A' for Active; 'I' for Inactive)
REMARK    1  A    between atoms: C2'_3  and  C1'_4 
REMARK    2  A    between atoms: C1'_4  and  C1_5 
ROOT
ATOM      1  C1  I4B d   1      -1.099  -2.881  -0.791  0.00  0.00    -0.075 A 
ATOM      2  C2  I4B d   1      -0.239  -1.818  -0.663  0.00  0.00     0.003 A 
ATOM      3  C3  I4B d   1       0.211  -1.417   0.618  0.00  0.00     0.002 A 
ATOM      4  C4  I4B d   1      -0.259  -2.069   1.740  0.00  0.00    -0.004 A 
ATOM      5  C5  I4B d   1      -1.113  -3.160   1.606  0.00  0.00     0.002 A 
ATOM      6  C6  I4B d   1      -1.526  -3.577   0.333  0.00  0.00     0.003 A 
ENDROOT
BRANCH   1   7
ATOM      7  C1' I4B d   1      -1.581  -3.257  -2.156  0.00  0.00     0.060 C 
BRANCH   7   8
ATOM      8  C2' I4B d   1      -0.510  -4.105  -2.811  0.00  0.00    -0.013 C 
ATOM      9  C4' I4B d   1      -0.985  -5.520  -3.018  0.00  0.00     0.013 C 
ATOM     10  C3' I4B d   1      -0.143  -3.462  -4.115  0.00  0.00     0.013 C 
ENDBRANCH   7   8
ENDBRANCH   1   7
TORSDOF 2
ENDMDL
