MODEL 1
REMARK minimizedAffinity 12.3665094
REMARK minimizedRMSD -1
REMARK  2 active torsions:
REMARK  status: ('A' for Active; 'I' for Inactive)
REMARK    1  A    between atoms: C2'_3  and  C1'_4 
REMARK    2  A    between atoms: C1'_4  and  C1_5 
ROOT
ATOM      1  C1  I4B d   1       1.142   1.450   3.427  0.00  0.00    -0.075 A 
ATOM      2  C2  I4B d   1       0.022   2.220   3.621  0.00  0.00     0.003 A 
ATOM      3  C3  I4B d   1      -0.327   2.655   4.922  0.00  0.00     0.002 A 
ATOM      4  C4  I4B d   1       0.438   2.256   6.000  0.00  0.00    -0.004 A 
ATOM      5  C5  I4B d   1       1.585   1.494   5.798  0.00  0.00     0.002 A 
ATOM      6  C6  I4B d   1       1.946   1.099   4.502  0.00  0.00     0.003 A 
ENDROOT
BRANCH   1   7
ATOM      7  C1' I4B d   1       1.463   0.981   2.043  0.00  0.00     0.060 C 
BRANCH   7   8
ATOM      8  C2' I4B d   1       2.841   1.497   1.683  0.00  0.00    -0.013 C 
ATOM      9  C4' I4B d   1       3.409   0.758   0.500  0.00  0.00     0.013 C 
ATOM     10  C3' I4B d   1       2.727   2.965   1.401  0.00  0.00     0.013 C 
ENDBRANCH   7   8
ENDBRANCH   1   7
TORSDOF 2
ENDMDL
