MODEL 1
REMARK minimizedAffinity 11.8637648
REMARK minimizedRMSD -1
REMARK  2 active torsions:
REMARK  status: ('A' for Active; 'I' for Inactive)
REMARK    1  A    between atoms: C2'_3  and  C1'_4 
REMARK    2  A    between atoms: C1'_4  and  C1_5 
ROOT
ATOM      1  C1  I4B d   1       1.465   3.468  -0.664  0.00  0.00    -0.075 A 
ATOM      2  C2  I4B d   1       0.959   3.012  -1.856  0.00  0.00     0.003 A 
ATOM      3  C3  I4B d   1       1.078   1.645  -2.205  0.00  0.00     0.002 A 
ATOM      4  C4  I4B d   1       1.752   0.785  -1.362  0.00  0.00    -0.004 A 
ATOM      5  C5  I4B d   1       2.245   1.244  -0.144  0.00  0.00     0.002 A 
ATOM      6  C6  I4B d   1       2.090   2.591   0.213  0.00  0.00     0.003 A 
ENDROOT
BRANCH   1   7
ATOM      7  C1' I4B d   1       1.350   4.924  -0.342  0.00  0.00     0.060 C 
BRANCH   7   8
ATOM      8  C2' I4B d   1       1.725   5.111   1.114  0.00  0.00    -0.013 C 
ATOM      9  C4' I4B d   1       2.933   5.999   1.256  0.00  0.00     0.013 C 
ATOM     10  C3' I4B d   1       0.540   5.691   1.826  0.00  0.00     0.013 C 
ENDBRANCH   7   8
ENDBRANCH   1   7
TORSDOF 2
ENDMDL
