MODEL 1
REMARK minimizedAffinity 25.5219612
REMARK minimizedRMSD -1
REMARK  2 active torsions:
REMARK  status: ('A' for Active; 'I' for Inactive)
REMARK    1  A    between atoms: C2'_3  and  C1'_4 
REMARK    2  A    between atoms: C1'_4  and  C1_5 
ROOT
ATOM      1  C1  I4B d   1      -3.607   0.861   4.139  0.00  0.00    -0.075 A 
ATOM      2  C2  I4B d   1      -2.886   1.057   2.988  0.00  0.00     0.003 A 
ATOM      3  C3  I4B d   1      -1.547   1.513   3.054  0.00  0.00     0.002 A 
ATOM      4  C4  I4B d   1      -0.989   1.806   4.282  0.00  0.00    -0.004 A 
ATOM      5  C5  I4B d   1      -1.714   1.585   5.449  0.00  0.00     0.002 A 
ATOM      6  C6  I4B d   1      -3.027   1.097   5.378  0.00  0.00     0.003 A 
ENDROOT
BRANCH   1   7
ATOM      7  C1' I4B d   1      -5.029   0.410   4.030  0.00  0.00     0.060 C 
BRANCH   7   8
ATOM      8  C2' I4B d   1      -5.030  -1.096   3.866  0.00  0.00    -0.013 C 
ATOM      9  C4' I4B d   1      -5.395  -1.785   5.155  0.00  0.00     0.013 C 
ATOM     10  C3' I4B d   1      -5.998  -1.442   2.774  0.00  0.00     0.013 C 
ENDBRANCH   7   8
ENDBRANCH   1   7
TORSDOF 2
ENDMDL
