MODEL 1
REMARK minimizedAffinity 21.7552052
REMARK minimizedRMSD -1
REMARK  2 active torsions:
REMARK  status: ('A' for Active; 'I' for Inactive)
REMARK    1  A    between atoms: C2'_3  and  C1'_4 
REMARK    2  A    between atoms: C1'_4  and  C1_5 
ROOT
ATOM      1  C1  I4B d   1       1.394  -0.294  -1.209  0.00  0.00    -0.075 A 
ATOM      2  C2  I4B d   1       1.579   0.775  -2.049  0.00  0.00     0.003 A 
ATOM      3  C3  I4B d   1       2.818   1.460  -2.070  0.00  0.00     0.002 A 
ATOM      4  C4  I4B d   1       3.821   1.076  -1.203  0.00  0.00    -0.004 A 
ATOM      5  C5  I4B d   1       3.640  -0.022  -0.368  0.00  0.00     0.002 A 
ATOM      6  C6  I4B d   1       2.424  -0.720  -0.379  0.00  0.00     0.003 A 
ENDROOT
BRANCH   1   7
ATOM      7  C1' I4B d   1       0.062  -0.974  -1.190  0.00  0.00     0.060 C 
BRANCH   7   8
ATOM      8  C2' I4B d   1       0.169  -2.186  -0.287  0.00  0.00    -0.013 C 
ATOM      9  C4' I4B d   1      -0.354  -1.886   1.093  0.00  0.00     0.013 C 
ATOM     10  C3' I4B d   1      -0.596  -3.307  -0.924  0.00  0.00     0.013 C 
ENDBRANCH   7   8
ENDBRANCH   1   7
TORSDOF 2
ENDMDL
