MODEL 1
REMARK minimizedAffinity 12.7086582
REMARK minimizedRMSD -1
REMARK  2 active torsions:
REMARK  status: ('A' for Active; 'I' for Inactive)
REMARK    1  A    between atoms: C2'_3  and  C1'_4 
REMARK    2  A    between atoms: C1'_4  and  C1_5 
ROOT
ATOM      1  C1  I4B d   1      -0.713  -2.264  -0.958  0.00  0.00    -0.075 A 
ATOM      2  C2  I4B d   1      -0.274  -3.396  -1.597  0.00  0.00     0.003 A 
ATOM      3  C3  I4B d   1      -1.010  -3.935  -2.680  0.00  0.00     0.002 A 
ATOM      4  C4  I4B d   1      -2.199  -3.342  -3.055  0.00  0.00    -0.004 A 
ATOM      5  C5  I4B d   1      -2.631  -2.181  -2.421  0.00  0.00     0.002 A 
ATOM      6  C6  I4B d   1      -1.877  -1.631  -1.373  0.00  0.00     0.003 A 
ENDROOT
BRANCH   1   7
ATOM      7  C1' I4B d   1       0.072  -1.741   0.203  0.00  0.00     0.060 C 
BRANCH   7   8
ATOM      8  C2' I4B d   1      -0.840  -1.722   1.413  0.00  0.00    -0.013 C 
ATOM      9  C4' I4B d   1      -1.253  -3.116   1.806  0.00  0.00     0.013 C 
ATOM     10  C3' I4B d   1      -0.112  -1.037   2.531  0.00  0.00     0.013 C 
ENDBRANCH   7   8
ENDBRANCH   1   7
TORSDOF 2
ENDMDL
