MODEL 1
REMARK minimizedAffinity -2.96562266
REMARK minimizedRMSD -1
REMARK  2 active torsions:
REMARK  status: ('A' for Active; 'I' for Inactive)
REMARK    1  A    between atoms: C2'_3  and  C1'_4 
REMARK    2  A    between atoms: C1'_4  and  C1_5 
ROOT
ATOM      1  C1  I4B d   1       0.997   0.019  -1.437  0.00  0.00    -0.075 A 
ATOM      2  C2  I4B d   1       0.952  -1.169  -2.122  0.00  0.00     0.003 A 
ATOM      3  C3  I4B d   1       0.344  -2.306  -1.538  0.00  0.00     0.002 A 
ATOM      4  C4  I4B d   1      -0.157  -2.225  -0.255  0.00  0.00    -0.004 A 
ATOM      5  C5  I4B d   1      -0.131  -1.013   0.429  0.00  0.00     0.002 A 
ATOM      6  C6  I4B d   1       0.438   0.120  -0.170  0.00  0.00     0.003 A 
ENDROOT
BRANCH   1   7
ATOM      7  C1' I4B d   1       1.676   1.192  -2.072  0.00  0.00     0.060 C 
BRANCH   7   8
ATOM      8  C2' I4B d   1       2.564   1.838  -1.028  0.00  0.00    -0.013 C 
ATOM      9  C4' I4B d   1       4.021   1.621  -1.343  0.00  0.00     0.013 C 
ATOM     10  C3' I4B d   1       2.233   3.299  -0.979  0.00  0.00     0.013 C 
ENDBRANCH   7   8
ENDBRANCH   1   7
TORSDOF 2
ENDMDL
