MODEL 1
REMARK minimizedAffinity -1.44963336
REMARK minimizedRMSD -1
REMARK  2 active torsions:
REMARK  status: ('A' for Active; 'I' for Inactive)
REMARK    1  A    between atoms: C2'_3  and  C1'_4 
REMARK    2  A    between atoms: C1'_4  and  C1_5 
ROOT
ATOM      1  C1  I4B d   1       0.663  -0.952  -0.577  0.00  0.00    -0.075 A 
ATOM      2  C2  I4B d   1      -0.050  -1.164   0.577  0.00  0.00     0.003 A 
ATOM      3  C3  I4B d   1      -0.374  -0.077   1.425  0.00  0.00     0.002 A 
ATOM      4  C4  I4B d   1       0.075   1.189   1.108  0.00  0.00    -0.004 A 
ATOM      5  C5  I4B d   1       0.777   1.406  -0.074  0.00  0.00     0.002 A 
ATOM      6  C6  I4B d   1       1.063   0.331  -0.928  0.00  0.00     0.003 A 
ENDROOT
BRANCH   1   7
ATOM      7  C1' I4B d   1       1.016  -2.127  -1.432  0.00  0.00     0.060 C 
BRANCH   7   8
ATOM      8  C2' I4B d   1       0.011  -2.200  -2.563  0.00  0.00    -0.013 C 
ATOM      9  C4' I4B d   1       0.215  -1.077  -3.547  0.00  0.00     0.013 C 
ATOM     10  C3' I4B d   1       0.159  -3.536  -3.228  0.00  0.00     0.013 C 
ENDBRANCH   7   8
ENDBRANCH   1   7
TORSDOF 2
ENDMDL
