MODEL 1
REMARK minimizedAffinity 4.75606823
REMARK minimizedRMSD -1
REMARK  2 active torsions:
REMARK  status: ('A' for Active; 'I' for Inactive)
REMARK    1  A    between atoms: C2'_3  and  C1'_4 
REMARK    2  A    between atoms: C1'_4  and  C1_5 
ROOT
ATOM      1  C1  I4B d   1      -5.209   1.559  -5.641  0.00  0.00    -0.075 A 
ATOM      2  C2  I4B d   1      -3.919   1.468  -5.183  0.00  0.00     0.003 A 
ATOM      3  C3  I4B d   1      -3.378   0.211  -4.818  0.00  0.00     0.002 A 
ATOM      4  C4  I4B d   1      -4.175  -0.914  -4.879  0.00  0.00    -0.004 A 
ATOM      5  C5  I4B d   1      -5.476  -0.823  -5.366  0.00  0.00     0.002 A 
ATOM      6  C6  I4B d   1      -5.993   0.419  -5.761  0.00  0.00     0.003 A 
ENDROOT
BRANCH   1   7
ATOM      7  C1' I4B d   1      -5.758   2.907  -5.986  0.00  0.00     0.060 C 
BRANCH   7   8
ATOM      8  C2' I4B d   1      -4.945   3.947  -5.243  0.00  0.00    -0.013 C 
ATOM      9  C4' I4B d   1      -3.501   3.916  -5.669  0.00  0.00     0.013 C 
ATOM     10  C3' I4B d   1      -5.559   5.290  -5.505  0.00  0.00     0.013 C 
ENDBRANCH   7   8
ENDBRANCH   1   7
TORSDOF 2
ENDMDL
