MODEL 1
REMARK minimizedAffinity -5.41707993
REMARK minimizedRMSD -1
REMARK  2 active torsions:
REMARK  status: ('A' for Active; 'I' for Inactive)
REMARK    1  A    between atoms: C2'_3  and  C1'_4 
REMARK    2  A    between atoms: C1'_4  and  C1_5 
ROOT
ATOM      1  C1  I4B d   1      -0.723  -1.118   0.754  0.00  0.00    -0.075 A 
ATOM      2  C2  I4B d   1      -1.212  -1.095  -0.529  0.00  0.00     0.003 A 
ATOM      3  C3  I4B d   1      -2.544  -1.498  -0.791  0.00  0.00     0.002 A 
ATOM      4  C4  I4B d   1      -3.330  -1.962   0.244  0.00  0.00    -0.004 A 
ATOM      5  C5  I4B d   1      -2.840  -1.963   1.547  0.00  0.00     0.002 A 
ATOM      6  C6  I4B d   1      -1.532  -1.527   1.806  0.00  0.00     0.003 A 
ENDROOT
BRANCH   1   7
ATOM      7  C1' I4B d   1       0.698  -0.716   0.990  0.00  0.00     0.060 C 
BRANCH   7   8
ATOM      8  C2' I4B d   1       1.300  -0.320  -0.343  0.00  0.00    -0.013 C 
ATOM      9  C4' I4B d   1       1.807   1.098  -0.313  0.00  0.00     0.013 C 
ATOM     10  C3' I4B d   1       2.405  -1.284  -0.657  0.00  0.00     0.013 C 
ENDBRANCH   7   8
ENDBRANCH   1   7
TORSDOF 2
ENDMDL
