MODEL 1
REMARK minimizedAffinity -0.429109901
REMARK minimizedRMSD -1
REMARK  2 active torsions:
REMARK  status: ('A' for Active; 'I' for Inactive)
REMARK    1  A    between atoms: C2'_3  and  C1'_4 
REMARK    2  A    between atoms: C1'_4  and  C1_5 
ROOT
ATOM      1  C1  I4B d   1       0.904  -1.615  -2.332  0.00  0.00    -0.075 A 
ATOM      2  C2  I4B d   1       0.449  -1.205  -1.104  0.00  0.00     0.003 A 
ATOM      3  C3  I4B d   1       0.336  -2.131  -0.039  0.00  0.00     0.002 A 
ATOM      4  C4  I4B d   1       0.640  -3.459  -0.258  0.00  0.00    -0.004 A 
ATOM      5  C5  I4B d   1       1.123  -3.869  -1.497  0.00  0.00     0.002 A 
ATOM      6  C6  I4B d   1       1.268  -2.940  -2.537  0.00  0.00     0.003 A 
ENDROOT
BRANCH   1   7
ATOM      7  C1' I4B d   1       0.979  -0.617  -3.443  0.00  0.00     0.060 C 
BRANCH   7   8
ATOM      8  C2' I4B d   1       2.442  -0.371  -3.752  0.00  0.00    -0.013 C 
ATOM      9  C4' I4B d   1       3.191   0.073  -2.523  0.00  0.00     0.013 C 
ATOM     10  C3' I4B d   1       3.018  -1.639  -4.308  0.00  0.00     0.013 C 
ENDBRANCH   7   8
ENDBRANCH   1   7
TORSDOF 2
ENDMDL
