MODEL 1
REMARK minimizedAffinity 2.8113153
REMARK minimizedRMSD -1
REMARK  0 active torsions:
REMARK  status: ('A' for Active; 'I' for Inactive)
ROOT
ATOM      1  C   UNL d   1      -3.553  -1.291   2.225  0.00  0.00    -0.002 A 
ATOM      2  C1  UNL d   1      -3.084  -0.565   3.311  0.00  0.00     0.010 A 
ATOM      3  C2  UNL d   1      -2.575   0.724   3.137  0.00  0.00     0.041 A 
ATOM      4  C3  UNL d   1      -2.548   1.277   1.842  0.00  0.00    -0.075 A 
ATOM      5  S   UNL d   1      -1.971   2.838   1.390  0.00  0.00     0.015 SA
ATOM      6  C4  UNL d   1      -2.334   2.578  -0.255  0.00  0.00     0.022 A 
ATOM      7  C5  UNL d   1      -2.882   1.336  -0.472  0.00  0.00     0.026 A 
ATOM      8  C6  UNL d   1      -3.015   0.566   0.733  0.00  0.00    -0.082 A 
ATOM      9  C7  UNL d   1      -3.524  -0.739   0.941  0.00  0.00     0.045 A 
ENDROOT
TORSDOF 0
ENDMDL
