MODEL 1
REMARK minimizedAffinity 14.9466515
REMARK minimizedRMSD -1
REMARK  0 active torsions:
REMARK  status: ('A' for Active; 'I' for Inactive)
ROOT
ATOM      1  C   UNL d   1      -3.570  -1.442   4.302  0.00  0.00    -0.002 A 
ATOM      2  C1  UNL d   1      -2.503  -0.570   4.462  0.00  0.00     0.010 A 
ATOM      3  C2  UNL d   1      -1.931   0.062   3.356  0.00  0.00     0.041 A 
ATOM      4  C3  UNL d   1      -2.457  -0.198   2.075  0.00  0.00    -0.075 A 
ATOM      5  S   UNL d   1      -1.918   0.463   0.576  0.00  0.00     0.015 SA
ATOM      6  C4  UNL d   1      -3.092  -0.397  -0.311  0.00  0.00     0.022 A 
ATOM      7  C5  UNL d   1      -3.885  -1.174   0.501  0.00  0.00     0.026 A 
ATOM      8  C6  UNL d   1      -3.532  -1.072   1.889  0.00  0.00    -0.082 A 
ATOM      9  C7  UNL d   1      -4.089  -1.698   3.030  0.00  0.00     0.045 A 
ENDROOT
TORSDOF 0
ENDMDL
