MODEL 1
REMARK minimizedAffinity 5.71154976
REMARK minimizedRMSD -1
REMARK  0 active torsions:
REMARK  status: ('A' for Active; 'I' for Inactive)
ROOT
ATOM      1  C   UNL d   1       4.615   2.963   2.881  0.00  0.00    -0.002 A 
ATOM      2  C1  UNL d   1       5.521   3.416   3.830  0.00  0.00     0.010 A 
ATOM      3  C2  UNL d   1       6.000   2.557   4.822  0.00  0.00     0.041 A 
ATOM      4  C3  UNL d   1       5.550   1.223   4.843  0.00  0.00    -0.075 A 
ATOM      5  S   UNL d   1       6.000  -0.009   5.963  0.00  0.00     0.015 SA
ATOM      6  C4  UNL d   1       5.001  -1.165   5.208  0.00  0.00     0.022 A 
ATOM      7  C5  UNL d   1       4.332  -0.641   4.126  0.00  0.00     0.026 A 
ATOM      8  C6  UNL d   1       4.638   0.743   3.898  0.00  0.00    -0.082 A 
ATOM      9  C7  UNL d   1       4.171   1.638   2.906  0.00  0.00     0.045 A 
ENDROOT
TORSDOF 0
ENDMDL
