MODEL 1
REMARK minimizedAffinity 11.9779577
REMARK minimizedRMSD -1
REMARK  0 active torsions:
REMARK  status: ('A' for Active; 'I' for Inactive)
ROOT
ATOM      1  C   UNL d   1       5.337  -1.204   3.676  0.00  0.00    -0.002 A 
ATOM      2  C1  UNL d   1       5.999  -0.513   4.681  0.00  0.00     0.010 A 
ATOM      3  C2  UNL d   1       5.972   0.883   4.720  0.00  0.00     0.041 A 
ATOM      4  C3  UNL d   1       5.259   1.579   3.724  0.00  0.00    -0.075 A 
ATOM      5  S   UNL d   1       5.086   3.287   3.572  0.00  0.00     0.015 SA
ATOM      6  C4  UNL d   1       4.129   3.140   2.169  0.00  0.00     0.022 A 
ATOM      7  C5  UNL d   1       3.936   1.827   1.812  0.00  0.00     0.026 A 
ATOM      8  C6  UNL d   1       4.584   0.905   2.702  0.00  0.00    -0.082 A 
ATOM      9  C7  UNL d   1       4.632  -0.510   2.689  0.00  0.00     0.045 A 
ENDROOT
TORSDOF 0
ENDMDL
