MODEL 1
REMARK minimizedAffinity 0.485304385
REMARK minimizedRMSD -1
REMARK  0 active torsions:
REMARK  status: ('A' for Active; 'I' for Inactive)
ROOT
ATOM      1  C   UNL d   1      -0.917  -4.101  -0.425  0.00  0.00    -0.002 A 
ATOM      2  C1  UNL d   1      -0.732  -4.895   0.698  0.00  0.00     0.010 A 
ATOM      3  C2  UNL d   1       0.289  -4.612   1.608  0.00  0.00     0.041 A 
ATOM      4  C3  UNL d   1       1.126  -3.505   1.369  0.00  0.00    -0.075 A 
ATOM      5  S   UNL d   1       2.441  -2.966   2.347  0.00  0.00     0.015 SA
ATOM      6  C4  UNL d   1       2.786  -1.668   1.298  0.00  0.00     0.022 A 
ATOM      7  C5  UNL d   1       1.930  -1.632   0.223  0.00  0.00     0.026 A 
ATOM      8  C6  UNL d   1       0.959  -2.689   0.247  0.00  0.00    -0.082 A 
ATOM      9  C7  UNL d   1      -0.084  -3.003  -0.658  0.00  0.00     0.045 A 
ENDROOT
TORSDOF 0
ENDMDL
