MODEL 1
REMARK minimizedAffinity 2.96884704
REMARK minimizedRMSD -1
REMARK  0 active torsions:
REMARK  status: ('A' for Active; 'I' for Inactive)
ROOT
ATOM      1  C   UNL d   1      -3.030  -0.507   0.979  0.00  0.00    -0.002 A 
ATOM      2  C1  UNL d   1      -2.506  -0.028   2.171  0.00  0.00     0.010 A 
ATOM      3  C2  UNL d   1      -2.417   1.345   2.407  0.00  0.00     0.041 A 
ATOM      4  C3  UNL d   1      -2.870   2.238   1.416  0.00  0.00    -0.075 A 
ATOM      5  S   UNL d   1      -2.860   3.961   1.486  0.00  0.00     0.015 SA
ATOM      6  C4  UNL d   1      -3.553   4.102  -0.065  0.00  0.00     0.022 A 
ATOM      7  C5  UNL d   1      -3.792   2.875  -0.636  0.00  0.00     0.026 A 
ATOM      8  C6  UNL d   1      -3.403   1.780   0.208  0.00  0.00    -0.082 A 
ATOM      9  C7  UNL d   1      -3.479   0.382  -0.002  0.00  0.00     0.045 A 
ENDROOT
TORSDOF 0
ENDMDL
