MODEL 1
REMARK minimizedAffinity 4.57457209
REMARK minimizedRMSD -1
REMARK  0 active torsions:
REMARK  status: ('A' for Active; 'I' for Inactive)
ROOT
ATOM      1  C   UNL d   1       4.864  -0.954   3.394  0.00  0.00    -0.002 A 
ATOM      2  C1  UNL d   1       5.598  -0.596   4.515  0.00  0.00     0.010 A 
ATOM      3  C2  UNL d   1       5.991   0.729   4.713  0.00  0.00     0.041 A 
ATOM      4  C3  UNL d   1       5.629   1.698   3.757  0.00  0.00    -0.075 A 
ATOM      5  S   UNL d   1       5.999   3.382   3.791  0.00  0.00     0.015 SA
ATOM      6  C4  UNL d   1       5.190   3.666   2.318  0.00  0.00     0.022 A 
ATOM      7  C5  UNL d   1       4.645   2.515   1.799  0.00  0.00     0.026 A 
ATOM      8  C6  UNL d   1       4.889   1.362   2.620  0.00  0.00    -0.082 A 
ATOM      9  C7  UNL d   1       4.506   0.010   2.447  0.00  0.00     0.045 A 
ENDROOT
TORSDOF 0
ENDMDL
