MODEL 1
REMARK minimizedAffinity 2.23470688
REMARK minimizedRMSD -1
REMARK  0 active torsions:
REMARK  status: ('A' for Active; 'I' for Inactive)
ROOT
ATOM      1  C   UNL d   1       2.492  -1.543   2.258  0.00  0.00    -0.002 A 
ATOM      2  C1  UNL d   1       2.997  -0.570   1.407  0.00  0.00     0.010 A 
ATOM      3  C2  UNL d   1       4.003   0.297   1.838  0.00  0.00     0.041 A 
ATOM      4  C3  UNL d   1       4.500   0.167   3.150  0.00  0.00    -0.075 A 
ATOM      5  S   UNL d   1       5.731   1.117   3.894  0.00  0.00     0.015 SA
ATOM      6  C4  UNL d   1       5.616   0.253   5.359  0.00  0.00     0.022 A 
ATOM      7  C5  UNL d   1       4.666  -0.739   5.299  0.00  0.00     0.026 A 
ATOM      8  C6  UNL d   1       4.007  -0.805   4.025  0.00  0.00    -0.082 A 
ATOM      9  C7  UNL d   1       2.986  -1.668   3.559  0.00  0.00     0.045 A 
ENDROOT
TORSDOF 0
ENDMDL
