MODEL 1
REMARK minimizedAffinity 6.0957098
REMARK minimizedRMSD -1
REMARK  0 active torsions:
REMARK  status: ('A' for Active; 'I' for Inactive)
ROOT
ATOM      1  C   UNL d   1      -2.791   5.573   0.495  0.00  0.00    -0.002 A 
ATOM      2  C1  UNL d   1      -4.059   5.124   0.836  0.00  0.00     0.010 A 
ATOM      3  C2  UNL d   1      -4.391   3.774   0.715  0.00  0.00     0.041 A 
ATOM      4  C3  UNL d   1      -3.416   2.872   0.242  0.00  0.00    -0.075 A 
ATOM      5  S   UNL d   1      -3.596   1.173   0.013  0.00  0.00     0.015 SA
ATOM      6  C4  UNL d   1      -1.994   1.003  -0.542  0.00  0.00     0.022 A 
ATOM      7  C5  UNL d   1      -1.324   2.203  -0.559  0.00  0.00     0.026 A 
ATOM      8  C6  UNL d   1      -2.132   3.300  -0.107  0.00  0.00    -0.082 A 
ATOM      9  C7  UNL d   1      -1.827   4.676   0.026  0.00  0.00     0.045 A 
ENDROOT
TORSDOF 0
ENDMDL
