MODEL 1
REMARK minimizedAffinity 0.961484671
REMARK minimizedRMSD -1
REMARK  0 active torsions:
REMARK  status: ('A' for Active; 'I' for Inactive)
ROOT
ATOM      1  C   UNL d   1      -3.305  -1.156   1.568  0.00  0.00    -0.002 A 
ATOM      2  C1  UNL d   1      -2.889  -0.486   2.709  0.00  0.00     0.010 A 
ATOM      3  C2  UNL d   1      -2.730   0.901   2.701  0.00  0.00     0.041 A 
ATOM      4  C3  UNL d   1      -3.002   1.610   1.515  0.00  0.00    -0.075 A 
ATOM      5  S   UNL d   1      -2.879   3.313   1.270  0.00  0.00     0.015 SA
ATOM      6  C4  UNL d   1      -3.377   3.191  -0.355  0.00  0.00     0.022 A 
ATOM      7  C5  UNL d   1      -3.635   1.890  -0.719  0.00  0.00     0.026 A 
ATOM      8  C6  UNL d   1      -3.424   0.958   0.353  0.00  0.00    -0.082 A 
ATOM      9  C7  UNL d   1      -3.574  -0.449   0.393  0.00  0.00     0.045 A 
ENDROOT
TORSDOF 0
ENDMDL
