MODEL 1
REMARK minimizedAffinity 2.03659105
REMARK minimizedRMSD -1
REMARK  0 active torsions:
REMARK  status: ('A' for Active; 'I' for Inactive)
ROOT
ATOM      1  C   UNL d   1       0.809  -4.272   1.010  0.00  0.00    -0.002 A 
ATOM      2  C1  UNL d   1      -0.520  -3.884   0.918  0.00  0.00     0.010 A 
ATOM      3  C2  UNL d   1      -0.949  -3.063  -0.127  0.00  0.00     0.041 A 
ATOM      4  C3  UNL d   1      -0.011  -2.636  -1.088  0.00  0.00    -0.075 A 
ATOM      5  S   UNL d   1      -0.308  -1.628  -2.454  0.00  0.00     0.015 SA
ATOM      6  C4  UNL d   1       1.322  -1.689  -2.948  0.00  0.00     0.022 A 
ATOM      7  C5  UNL d   1       2.088  -2.455  -2.102  0.00  0.00     0.026 A 
ATOM      8  C6  UNL d   1       1.333  -3.014  -1.016  0.00  0.00    -0.082 A 
ATOM      9  C7  UNL d   1       1.737  -3.846   0.056  0.00  0.00     0.045 A 
ENDROOT
TORSDOF 0
ENDMDL
