MODEL 1
REMARK minimizedAffinity 7.44889498
REMARK minimizedRMSD -1
REMARK  0 active torsions:
REMARK  status: ('A' for Active; 'I' for Inactive)
ROOT
ATOM      1  C   UNL d   1      -4.438   0.385   4.811  0.00  0.00     0.077 C 
ATOM      2  C1  UNL d   1      -3.693   0.361   3.510  0.00  0.00    -0.074 A 
ATOM      3  C2  UNL d   1      -4.376   0.316   2.291  0.00  0.00    -0.005 A 
ATOM      4  C3  UNL d   1      -3.670   0.303   1.088  0.00  0.00     0.006 A 
ATOM      5  C4  UNL d   1      -2.275   0.336   1.093  0.00  0.00    -0.005 A 
ATOM      6  C5  UNL d   1      -1.574   0.383   2.302  0.00  0.00    -0.074 A 
ATOM      7  C6  UNL d   1      -0.075   0.429   2.324  0.00  0.00     0.077 C 
ATOM      8  C7  UNL d   1      -2.291   0.402   3.506  0.00  0.00    -0.001 A 
ENDROOT
TORSDOF 0
ENDMDL
