MODEL 1
REMARK minimizedAffinity 4.33354139
REMARK minimizedRMSD -1
REMARK  0 active torsions:
REMARK  status: ('A' for Active; 'I' for Inactive)
ROOT
ATOM      1  C   UNL d   1       0.687   2.180   3.646  0.00  0.00     0.077 C 
ATOM      2  C1  UNL d   1      -0.542   1.502   3.118  0.00  0.00    -0.074 A 
ATOM      3  C2  UNL d   1      -0.748   1.356   1.742  0.00  0.00    -0.005 A 
ATOM      4  C3  UNL d   1      -1.892   0.716   1.266  0.00  0.00     0.006 A 
ATOM      5  C4  UNL d   1      -2.840   0.216   2.159  0.00  0.00    -0.005 A 
ATOM      6  C5  UNL d   1      -2.651   0.351   3.538  0.00  0.00    -0.074 A 
ATOM      7  C6  UNL d   1      -3.656  -0.189   4.511  0.00  0.00     0.077 C 
ATOM      8  C7  UNL d   1      -1.496   0.990   4.009  0.00  0.00    -0.001 A 
ENDROOT
TORSDOF 0
ENDMDL
