MODEL 1
REMARK minimizedAffinity 13.8189831
REMARK minimizedRMSD -1
REMARK  0 active torsions:
REMARK  status: ('A' for Active; 'I' for Inactive)
ROOT
ATOM      1  C   UNL d   1      -0.974  -4.361  -5.970  0.00  0.00     0.077 C 
ATOM      2  C1  UNL d   1      -2.077  -3.345  -5.987  0.00  0.00    -0.074 A 
ATOM      3  C2  UNL d   1      -3.419  -3.741  -5.988  0.00  0.00    -0.005 A 
ATOM      4  C3  UNL d   1      -4.434  -2.785  -5.993  0.00  0.00     0.006 A 
ATOM      5  C4  UNL d   1      -4.120  -1.426  -5.999  0.00  0.00    -0.005 A 
ATOM      6  C5  UNL d   1      -2.784  -1.011  -5.998  0.00  0.00    -0.074 A 
ATOM      7  C6  UNL d   1      -2.429   0.446  -5.994  0.00  0.00     0.077 C 
ATOM      8  C7  UNL d   1      -1.769  -1.977  -5.985  0.00  0.00    -0.001 A 
ENDROOT
TORSDOF 0
ENDMDL
