MODEL 1
REMARK minimizedAffinity 2.99563384
REMARK minimizedRMSD -1
REMARK  0 active torsions:
REMARK  status: ('A' for Active; 'I' for Inactive)
ROOT
ATOM      1  C   UNL d   1      -2.315  -0.504  -5.999  0.00  0.00     0.077 C 
ATOM      2  C1  UNL d   1      -2.590  -1.978  -5.992  0.00  0.00    -0.074 A 
ATOM      3  C2  UNL d   1      -3.901  -2.465  -5.996  0.00  0.00    -0.005 A 
ATOM      4  C3  UNL d   1      -4.141  -3.839  -5.998  0.00  0.00     0.006 A 
ATOM      5  C4  UNL d   1      -3.074  -4.739  -5.996  0.00  0.00    -0.005 A 
ATOM      6  C5  UNL d   1      -1.756  -4.270  -5.992  0.00  0.00    -0.074 A 
ATOM      7  C6  UNL d   1      -0.598  -5.223  -5.999  0.00  0.00     0.077 C 
ATOM      8  C7  UNL d   1      -1.523  -2.888  -5.997  0.00  0.00    -0.001 A 
ENDROOT
TORSDOF 0
ENDMDL
