MODEL 1
REMARK minimizedAffinity 2.14964628
REMARK minimizedRMSD -1
REMARK  0 active torsions:
REMARK  status: ('A' for Active; 'I' for Inactive)
ROOT
ATOM      1  C   UNL d   1      -5.974  -2.883  -5.972  0.00  0.00     0.077 C 
ATOM      2  C1  UNL d   1      -4.479  -3.002  -5.974  0.00  0.00    -0.074 A 
ATOM      3  C2  UNL d   1      -3.857  -4.255  -5.987  0.00  0.00    -0.005 A 
ATOM      4  C3  UNL d   1      -2.466  -4.349  -5.999  0.00  0.00     0.006 A 
ATOM      5  C4  UNL d   1      -1.683  -3.194  -5.999  0.00  0.00    -0.005 A 
ATOM      6  C5  UNL d   1      -2.287  -1.933  -5.987  0.00  0.00    -0.074 A 
ATOM      7  C6  UNL d   1      -1.460  -0.681  -5.997  0.00  0.00     0.077 C 
ATOM      8  C7  UNL d   1      -3.685  -1.846  -5.982  0.00  0.00    -0.001 A 
ENDROOT
TORSDOF 0
ENDMDL
