MODEL 1
REMARK minimizedAffinity 12.5462446
REMARK minimizedRMSD -1
REMARK  0 active torsions:
REMARK  status: ('A' for Active; 'I' for Inactive)
ROOT
ATOM      1  C   UNL d   1      -2.899   5.531   3.226  0.00  0.00     0.077 C 
ATOM      2  C1  UNL d   1      -3.967   5.051   4.163  0.00  0.00    -0.074 A 
ATOM      3  C2  UNL d   1      -4.522   5.907   5.120  0.00  0.00    -0.005 A 
ATOM      4  C3  UNL d   1      -5.522   5.450   5.978  0.00  0.00     0.006 A 
ATOM      5  C4  UNL d   1      -5.977   4.134   5.888  0.00  0.00    -0.005 A 
ATOM      6  C5  UNL d   1      -5.435   3.263   4.936  0.00  0.00    -0.074 A 
ATOM      7  C6  UNL d   1      -5.919   1.849   4.820  0.00  0.00     0.077 C 
ATOM      8  C7  UNL d   1      -4.435   3.733   4.073  0.00  0.00    -0.001 A 
ENDROOT
TORSDOF 0
ENDMDL
