MODEL 1
REMARK minimizedAffinity 5.94430304
REMARK minimizedRMSD -1
REMARK  0 active torsions:
REMARK  status: ('A' for Active; 'I' for Inactive)
ROOT
ATOM      1  C   UNL d   1      -6.000   3.065   5.971  0.00  0.00     0.077 C 
ATOM      2  C1  UNL d   1      -5.663   1.807   5.226  0.00  0.00    -0.074 A 
ATOM      3  C2  UNL d   1      -5.416   1.831   3.850  0.00  0.00    -0.005 A 
ATOM      4  C3  UNL d   1      -5.094   0.654   3.173  0.00  0.00     0.006 A 
ATOM      5  C4  UNL d   1      -5.017  -0.555   3.864  0.00  0.00    -0.005 A 
ATOM      6  C5  UNL d   1      -5.260  -0.598   5.240  0.00  0.00    -0.074 A 
ATOM      7  C6  UNL d   1      -5.171  -1.889   6.000  0.00  0.00     0.077 C 
ATOM      8  C7  UNL d   1      -5.575   0.589   5.915  0.00  0.00    -0.001 A 
ENDROOT
TORSDOF 0
ENDMDL
