MODEL 1
REMARK minimizedAffinity 7.72604895
REMARK minimizedRMSD -1
REMARK  0 active torsions:
REMARK  status: ('A' for Active; 'I' for Inactive)
ROOT
ATOM      1  C   UNL d   1       0.765  -5.999   4.027  0.00  0.00     0.077 C 
ATOM      2  C1  UNL d   1       1.808  -5.606   3.024  0.00  0.00    -0.074 A 
ATOM      3  C2  UNL d   1       1.468  -4.871   1.884  0.00  0.00    -0.005 A 
ATOM      4  C3  UNL d   1       2.451  -4.504   0.964  0.00  0.00     0.006 A 
ATOM      5  C4  UNL d   1       3.781  -4.869   1.175  0.00  0.00    -0.005 A 
ATOM      6  C5  UNL d   1       4.140  -5.603   2.309  0.00  0.00    -0.074 A 
ATOM      7  C6  UNL d   1       5.567  -5.995   2.556  0.00  0.00     0.077 C 
ATOM      8  C7  UNL d   1       3.148  -5.962   3.232  0.00  0.00    -0.001 A 
ENDROOT
TORSDOF 0
ENDMDL
