MODEL 1
REMARK minimizedAffinity 3.2281189
REMARK minimizedRMSD -1
REMARK  0 active torsions:
REMARK  status: ('A' for Active; 'I' for Inactive)
ROOT
ATOM      1  C   UNL d   1       4.531   0.394  -5.998  0.00  0.00     0.077 C 
ATOM      2  C1  UNL d   1       3.402  -0.046  -5.115  0.00  0.00    -0.074 A 
ATOM      3  C2  UNL d   1       3.422   0.209  -3.740  0.00  0.00    -0.005 A 
ATOM      4  C3  UNL d   1       2.360  -0.198  -2.933  0.00  0.00     0.006 A 
ATOM      5  C4  UNL d   1       1.268  -0.863  -3.491  0.00  0.00    -0.005 A 
ATOM      6  C5  UNL d   1       1.229  -1.126  -4.864  0.00  0.00    -0.074 A 
ATOM      7  C6  UNL d   1       0.058  -1.831  -5.482  0.00  0.00     0.077 C 
ATOM      8  C7  UNL d   1       2.297  -0.708  -5.670  0.00  0.00    -0.001 A 
ENDROOT
TORSDOF 0
ENDMDL
