MODEL 1
REMARK minimizedAffinity 9.56723595
REMARK minimizedRMSD -1
REMARK  0 active torsions:
REMARK  status: ('A' for Active; 'I' for Inactive)
ROOT
ATOM      1  C   UNL d   1      -1.400   1.049   1.884  0.00  0.00     0.077 C 
ATOM      2  C1  UNL d   1      -2.269  -0.051   1.351  0.00  0.00    -0.074 A 
ATOM      3  C2  UNL d   1      -3.633   0.156   1.126  0.00  0.00    -0.005 A 
ATOM      4  C3  UNL d   1      -4.427  -0.874   0.621  0.00  0.00     0.006 A 
ATOM      5  C4  UNL d   1      -3.865  -2.119   0.337  0.00  0.00    -0.005 A 
ATOM      6  C5  UNL d   1      -2.502  -2.344   0.555  0.00  0.00    -0.074 A 
ATOM      7  C6  UNL d   1      -1.880  -3.674   0.245  0.00  0.00     0.077 C 
ATOM      8  C7  UNL d   1      -1.710  -1.302   1.056  0.00  0.00    -0.001 A 
ENDROOT
TORSDOF 0
ENDMDL
