MODEL 1
REMARK minimizedAffinity 8.50706863
REMARK minimizedRMSD -1
REMARK  0 active torsions:
REMARK  status: ('A' for Active; 'I' for Inactive)
ROOT
ATOM      1  C   UNL d   1       5.378  -1.231   2.298  0.00  0.00     0.077 C 
ATOM      2  C1  UNL d   1       5.600  -1.963   3.588  0.00  0.00    -0.074 A 
ATOM      3  C2  UNL d   1       5.739  -1.268   4.794  0.00  0.00    -0.005 A 
ATOM      4  C3  UNL d   1       5.935  -1.963   5.987  0.00  0.00     0.006 A 
ATOM      5  C4  UNL d   1       5.993  -3.357   5.987  0.00  0.00    -0.005 A 
ATOM      6  C5  UNL d   1       5.855  -4.069   4.791  0.00  0.00    -0.074 A 
ATOM      7  C6  UNL d   1       5.905  -5.568   4.775  0.00  0.00     0.077 C 
ATOM      8  C7  UNL d   1       5.652  -3.364   3.597  0.00  0.00    -0.001 A 
ENDROOT
TORSDOF 0
ENDMDL
