MODEL 1
REMARK minimizedAffinity 14.9579906
REMARK minimizedRMSD -1
REMARK  0 active torsions:
REMARK  status: ('A' for Active; 'I' for Inactive)
ROOT
ATOM      1  C   UNL d   1      -4.612  -3.318  -5.997  0.00  0.00     0.077 C 
ATOM      2  C1  UNL d   1      -3.424  -2.401  -6.000  0.00  0.00    -0.074 A 
ATOM      3  C2  UNL d   1      -3.589  -1.012  -5.995  0.00  0.00    -0.005 A 
ATOM      4  C3  UNL d   1      -2.475  -0.173  -5.987  0.00  0.00     0.006 A 
ATOM      5  C4  UNL d   1      -1.188  -0.712  -5.986  0.00  0.00    -0.005 A 
ATOM      6  C5  UNL d   1      -1.004  -2.099  -5.990  0.00  0.00    -0.074 A 
ATOM      7  C6  UNL d   1       0.372  -2.695  -5.978  0.00  0.00     0.077 C 
ATOM      8  C7  UNL d   1      -2.128  -2.936  -5.990  0.00  0.00    -0.001 A 
ENDROOT
TORSDOF 0
ENDMDL
