MODEL 1
REMARK minimizedAffinity 5.55485773
REMARK minimizedRMSD -1
REMARK  0 active torsions:
REMARK  status: ('A' for Active; 'I' for Inactive)
ROOT
ATOM      1  C   UNL d   1      -1.581   0.578   2.082  0.00  0.00     0.077 C 
ATOM      2  C1  UNL d   1      -2.765  -0.027   1.388  0.00  0.00    -0.074 A 
ATOM      3  C2  UNL d   1      -2.869  -1.411   1.219  0.00  0.00    -0.005 A 
ATOM      4  C3  UNL d   1      -3.981  -1.960   0.579  0.00  0.00     0.006 A 
ATOM      5  C4  UNL d   1      -4.998  -1.131   0.103  0.00  0.00    -0.005 A 
ATOM      6  C5  UNL d   1      -4.911   0.255   0.264  0.00  0.00    -0.074 A 
ATOM      7  C6  UNL d   1      -6.000   1.159  -0.233  0.00  0.00     0.077 C 
ATOM      8  C7  UNL d   1      -3.795   0.798   0.914  0.00  0.00    -0.001 A 
ENDROOT
TORSDOF 0
ENDMDL
