MODEL 1
REMARK minimizedAffinity 3.73229146
REMARK minimizedRMSD -1
REMARK  0 active torsions:
REMARK  status: ('A' for Active; 'I' for Inactive)
ROOT
ATOM      1  C   UNL d   1      -5.254   0.403   3.924  0.00  0.00     0.077 C 
ATOM      2  C1  UNL d   1      -4.089   0.418   2.979  0.00  0.00    -0.074 A 
ATOM      3  C2  UNL d   1      -4.287   0.404   1.594  0.00  0.00    -0.005 A 
ATOM      4  C3  UNL d   1      -3.194   0.428   0.728  0.00  0.00     0.006 A 
ATOM      5  C4  UNL d   1      -1.895   0.466   1.236  0.00  0.00    -0.005 A 
ATOM      6  C5  UNL d   1      -1.678   0.481   2.618  0.00  0.00    -0.074 A 
ATOM      7  C6  UNL d   1      -0.289   0.532   3.181  0.00  0.00     0.077 C 
ATOM      8  C7  UNL d   1      -2.782   0.464   3.482  0.00  0.00    -0.001 A 
ENDROOT
TORSDOF 0
ENDMDL
