MODEL 1
REMARK minimizedAffinity 11.0280371
REMARK minimizedRMSD -1
REMARK  0 active torsions:
REMARK  status: ('A' for Active; 'I' for Inactive)
ROOT
ATOM      1  C   UNL d   1      -5.131   0.503   4.627  0.00  0.00     0.077 C 
ATOM      2  C1  UNL d   1      -4.581   0.345   3.240  0.00  0.00    -0.074 A 
ATOM      3  C2  UNL d   1      -3.578   1.195   2.764  0.00  0.00    -0.005 A 
ATOM      4  C3  UNL d   1      -3.070   1.031   1.475  0.00  0.00     0.006 A 
ATOM      5  C4  UNL d   1      -3.559   0.016   0.651  0.00  0.00    -0.005 A 
ATOM      6  C5  UNL d   1      -4.562  -0.844   1.111  0.00  0.00    -0.074 A 
ATOM      7  C6  UNL d   1      -5.092  -1.945   0.242  0.00  0.00     0.077 C 
ATOM      8  C7  UNL d   1      -5.062  -0.676   2.409  0.00  0.00    -0.001 A 
ENDROOT
TORSDOF 0
ENDMDL
