MODEL 1
REMARK minimizedAffinity 11.0276651
REMARK minimizedRMSD -1
REMARK  0 active torsions:
REMARK  status: ('A' for Active; 'I' for Inactive)
ROOT
ATOM      1  C   UNL d   1      -5.411   1.498   4.966  0.00  0.00     0.077 C 
ATOM      2  C1  UNL d   1      -4.880   0.989   3.658  0.00  0.00    -0.074 A 
ATOM      3  C2  UNL d   1      -5.683   0.224   2.806  0.00  0.00    -0.005 A 
ATOM      4  C3  UNL d   1      -5.178  -0.234   1.588  0.00  0.00     0.006 A 
ATOM      5  C4  UNL d   1      -3.869   0.068   1.212  0.00  0.00    -0.005 A 
ATOM      6  C5  UNL d   1      -3.052   0.832   2.052  0.00  0.00    -0.074 A 
ATOM      7  C6  UNL d   1      -1.645   1.173   1.658  0.00  0.00     0.077 C 
ATOM      8  C7  UNL d   1      -3.568   1.294   3.270  0.00  0.00    -0.001 A 
ENDROOT
TORSDOF 0
ENDMDL
