MODEL 1
REMARK minimizedAffinity 2.63638282
REMARK minimizedRMSD -1
REMARK  0 active torsions:
REMARK  status: ('A' for Active; 'I' for Inactive)
ROOT
ATOM      1  C   UNL d   1      -2.465   1.877   3.150  0.00  0.00     0.077 C 
ATOM      2  C1  UNL d   1      -0.979   1.827   3.347  0.00  0.00    -0.074 A 
ATOM      3  C2  UNL d   1      -0.340   2.709   4.224  0.00  0.00    -0.005 A 
ATOM      4  C3  UNL d   1       1.041   2.645   4.403  0.00  0.00     0.006 A 
ATOM      5  C4  UNL d   1       1.797   1.700   3.709  0.00  0.00    -0.005 A 
ATOM      6  C5  UNL d   1       1.175   0.809   2.828  0.00  0.00    -0.074 A 
ATOM      7  C6  UNL d   1       1.971  -0.220   2.081  0.00  0.00     0.077 C 
ATOM      8  C7  UNL d   1      -0.214   0.875   2.658  0.00  0.00    -0.001 A 
ENDROOT
TORSDOF 0
ENDMDL
