MODEL 1
REMARK minimizedAffinity -4.43063307
REMARK minimizedRMSD -1
REMARK  0 active torsions:
REMARK  status: ('A' for Active; 'I' for Inactive)
ROOT
ATOM      1  N1  IND d   1      -0.564  -0.933   0.447  0.00  0.00    -0.196 N 
ATOM      2  C2  IND d   1       0.670  -1.418   0.116  0.00  0.00     0.054 A 
ATOM      3  C3  IND d   1       1.507  -0.403  -0.196  0.00  0.00    -0.031 A 
ATOM      4  C4  IND d   1       1.090   2.137  -0.135  0.00  0.00     0.051 A 
ATOM      5  C5  IND d   1       0.106   3.062   0.070  0.00  0.00    -0.031 A 
ATOM      6  C6  IND d   1      -1.178   2.696   0.421  0.00  0.00     0.015 A 
ATOM      7  C7  IND d   1      -1.523   1.385   0.591  0.00  0.00    -0.016 A 
ATOM      8  C8  IND d   1      -0.528   0.443   0.377  0.00  0.00    -0.047 A 
ATOM      9  C9  IND d   1       0.766   0.806  -0.020  0.00  0.00    -0.096 A 
ATOM     10  HN1 IND d   1      -1.249  -1.407   0.661  0.00  0.00     0.298 HD
ENDROOT
TORSDOF 0
ENDMDL
