MODEL 1
REMARK minimizedAffinity -4.30115891
REMARK minimizedRMSD -1
REMARK  0 active torsions:
REMARK  status: ('A' for Active; 'I' for Inactive)
ROOT
ATOM      1  N1  IND d   1       0.364   3.770   0.356  0.00  0.00    -0.196 N 
ATOM      2  C2  IND d   1       1.435   3.525  -0.458  0.00  0.00     0.054 A 
ATOM      3  C3  IND d   1       1.374   2.268  -0.951  0.00  0.00    -0.031 A 
ATOM      4  C4  IND d   1      -0.445   0.474  -0.635  0.00  0.00     0.051 A 
ATOM      5  C5  IND d   1      -1.600   0.220   0.050  0.00  0.00    -0.031 A 
ATOM      6  C6  IND d   1      -2.172   1.156   0.888  0.00  0.00     0.015 A 
ATOM      7  C7  IND d   1      -1.614   2.391   1.062  0.00  0.00    -0.016 A 
ATOM      8  C8  IND d   1      -0.438   2.650   0.373  0.00  0.00    -0.047 A 
ATOM      9  C9  IND d   1       0.170   1.689  -0.445  0.00  0.00    -0.096 A 
ATOM     10  HN1 IND d   1       0.216   4.500   0.784  0.00  0.00     0.298 HD
ENDROOT
TORSDOF 0
ENDMDL
