MODEL 1
REMARK minimizedAffinity -2.55251265
REMARK minimizedRMSD -1
REMARK  0 active torsions:
REMARK  status: ('A' for Active; 'I' for Inactive)
ROOT
ATOM      1  N1  IND d   1       1.051  -0.413  -0.744  0.00  0.00    -0.196 N 
ATOM      2  C2  IND d   1       0.600  -1.660  -0.413  0.00  0.00     0.054 A 
ATOM      3  C3  IND d   1      -0.415  -1.573   0.475  0.00  0.00    -0.031 A 
ATOM      4  C4  IND d   1      -1.567   0.516   1.443  0.00  0.00     0.051 A 
ATOM      5  C5  IND d   1      -1.483   1.880   1.465  0.00  0.00    -0.031 A 
ATOM      6  C6  IND d   1      -0.532   2.563   0.735  0.00  0.00     0.015 A 
ATOM      7  C7  IND d   1       0.367   1.906  -0.057  0.00  0.00    -0.016 A 
ATOM      8  C8  IND d   1       0.288   0.520  -0.076  0.00  0.00    -0.047 A 
ATOM      9  C9  IND d   1      -0.647  -0.181   0.696  0.00  0.00    -0.096 A 
ATOM     10  HN1 IND d   1       1.701  -0.240  -1.279  0.00  0.00     0.298 HD
ENDROOT
TORSDOF 0
ENDMDL
