MODEL 1
REMARK minimizedAffinity -1.50738311
REMARK minimizedRMSD -1
REMARK  0 active torsions:
REMARK  status: ('A' for Active; 'I' for Inactive)
ROOT
ATOM      1  N1  IND d   1       2.346   0.009   0.502  0.00  0.00    -0.196 N 
ATOM      2  C2  IND d   1       2.144  -1.343   0.478  0.00  0.00     0.054 A 
ATOM      3  C3  IND d   1       0.831  -1.619   0.307  0.00  0.00    -0.031 A 
ATOM      4  C4  IND d   1      -1.145  -0.009  -0.058  0.00  0.00     0.051 A 
ATOM      5  C5  IND d   1      -1.461   1.320  -0.080  0.00  0.00    -0.031 A 
ATOM      6  C6  IND d   1      -0.505   2.300   0.092  0.00  0.00     0.015 A 
ATOM      7  C7  IND d   1       0.811   1.986   0.282  0.00  0.00    -0.016 A 
ATOM      8  C8  IND d   1       1.135   0.637   0.311  0.00  0.00    -0.047 A 
ATOM      9  C9  IND d   1       0.163  -0.363   0.180  0.00  0.00    -0.096 A 
ATOM     10  HN1 IND d   1       3.103   0.401   0.617  0.00  0.00     0.298 HD
ENDROOT
TORSDOF 0
ENDMDL
