MODEL 1
REMARK minimizedAffinity -2.94747424
REMARK minimizedRMSD -1
REMARK  0 active torsions:
REMARK  status: ('A' for Active; 'I' for Inactive)
ROOT
ATOM      1  N1  IND d   1       1.048  -0.636   0.701  0.00  0.00    -0.196 N 
ATOM      2  C2  IND d   1       0.145  -1.518   0.174  0.00  0.00     0.054 A 
ATOM      3  C3  IND d   1      -1.002  -0.880  -0.148  0.00  0.00    -0.031 A 
ATOM      4  C4  IND d   1      -1.582   1.623   0.010  0.00  0.00     0.051 A 
ATOM      5  C5  IND d   1      -1.092   2.816   0.462  0.00  0.00    -0.031 A 
ATOM      6  C6  IND d   1       0.163   2.922   1.025  0.00  0.00     0.015 A 
ATOM      7  C7  IND d   1       0.983   1.835   1.148  0.00  0.00    -0.016 A 
ATOM      8  C8  IND d   1       0.485   0.621   0.697  0.00  0.00    -0.047 A 
ATOM      9  C9  IND d   1      -0.804   0.500   0.163  0.00  0.00    -0.096 A 
ATOM     10  HN1 IND d   1       1.834  -0.834   0.986  0.00  0.00     0.298 HD
ENDROOT
TORSDOF 0
ENDMDL
