MODEL 1
REMARK minimizedAffinity -4.39828205
REMARK minimizedRMSD -1
REMARK  0 active torsions:
REMARK  status: ('A' for Active; 'I' for Inactive)
ROOT
ATOM      1  N1  IND d   1      -0.255  -0.297   1.002  0.00  0.00    -0.196 N 
ATOM      2  C2  IND d   1      -1.507   0.034   1.439  0.00  0.00     0.054 A 
ATOM      3  C3  IND d   1      -1.807   1.305   1.090  0.00  0.00    -0.031 A 
ATOM      4  C4  IND d   1      -0.432   2.990  -0.288  0.00  0.00     0.051 A 
ATOM      5  C5  IND d   1       0.791   3.158  -0.875  0.00  0.00    -0.031 A 
ATOM      6  C6  IND d   1       1.746   2.162  -0.869  0.00  0.00     0.015 A 
ATOM      7  C7  IND d   1       1.508   0.951  -0.282  0.00  0.00    -0.016 A 
ATOM      8  C8  IND d   1       0.270   0.780   0.321  0.00  0.00    -0.047 A 
ATOM      9  C9  IND d   1      -0.687   1.802   0.355  0.00  0.00    -0.096 A 
ATOM     10  HN1 IND d   1       0.139  -1.050   1.131  0.00  0.00     0.298 HD
ENDROOT
TORSDOF 0
ENDMDL
