MODEL 1
REMARK minimizedAffinity 0.573974252
REMARK minimizedRMSD -1
REMARK  0 active torsions:
REMARK  status: ('A' for Active; 'I' for Inactive)
ROOT
ATOM      1  N1  IND d   1       0.150  -0.233   0.405  0.00  0.00    -0.196 N 
ATOM      2  C2  IND d   1      -0.717  -0.830   1.277  0.00  0.00     0.054 A 
ATOM      3  C3  IND d   1      -1.438   0.103   1.938  0.00  0.00    -0.031 A 
ATOM      4  C4  IND d   1      -1.430   2.664   1.674  0.00  0.00     0.051 A 
ATOM      5  C5  IND d   1      -0.781   3.679   1.027  0.00  0.00    -0.031 A 
ATOM      6  C6  IND d   1       0.230   3.436   0.120  0.00  0.00     0.015 A 
ATOM      7  C7  IND d   1       0.623   2.164  -0.185  0.00  0.00    -0.016 A 
ATOM      8  C8  IND d   1      -0.028   1.131   0.475  0.00  0.00    -0.047 A 
ATOM      9  C9  IND d   1      -1.026   1.373   1.429  0.00  0.00    -0.096 A 
ATOM     10  HN1 IND d   1       0.712  -0.641  -0.102  0.00  0.00     0.298 HD
ENDROOT
TORSDOF 0
ENDMDL
