MODEL 1
REMARK minimizedAffinity -3.98985362
REMARK minimizedRMSD -1
REMARK  0 active torsions:
REMARK  status: ('A' for Active; 'I' for Inactive)
ROOT
ATOM      1  N1  IND d   1      -0.729   1.996  -0.133  0.00  0.00    -0.196 N 
ATOM      2  C2  IND d   1       0.160   3.031  -0.223  0.00  0.00     0.054 A 
ATOM      3  C3  IND d   1       1.417   2.592   0.015  0.00  0.00    -0.031 A 
ATOM      4  C4  IND d   1       2.256   0.202   0.472  0.00  0.00     0.051 A 
ATOM      5  C5  IND d   1       1.812  -1.073   0.685  0.00  0.00    -0.031 A 
ATOM      6  C6  IND d   1       0.472  -1.397   0.633  0.00  0.00     0.015 A 
ATOM      7  C7  IND d   1      -0.478  -0.456   0.353  0.00  0.00    -0.016 A 
ATOM      8  C8  IND d   1      -0.032   0.841   0.143  0.00  0.00    -0.047 A 
ATOM      9  C9  IND d   1       1.323   1.184   0.236  0.00  0.00    -0.096 A 
ATOM     10  HN1 IND d   1      -1.581   2.057  -0.232  0.00  0.00     0.298 HD
ENDROOT
TORSDOF 0
ENDMDL
