MODEL 1
REMARK minimizedAffinity -2.26595402
REMARK minimizedRMSD -1
REMARK  0 active torsions:
REMARK  status: ('A' for Active; 'I' for Inactive)
ROOT
ATOM      1  N1  IND d   1       0.247  -0.129  -1.397  0.00  0.00    -0.196 N 
ATOM      2  C2  IND d   1      -0.360  -1.277  -0.970  0.00  0.00     0.054 A 
ATOM      3  C3  IND d   1      -0.998  -1.063   0.203  0.00  0.00    -0.031 A 
ATOM      4  C4  IND d   1      -1.261   1.117   1.548  0.00  0.00     0.051 A 
ATOM      5  C5  IND d   1      -0.852   2.421   1.577  0.00  0.00    -0.031 A 
ATOM      6  C6  IND d   1      -0.042   2.953   0.594  0.00  0.00     0.015 A 
ATOM      7  C7  IND d   1       0.382   2.200  -0.464  0.00  0.00    -0.016 A 
ATOM      8  C8  IND d   1      -0.025   0.874  -0.493  0.00  0.00    -0.047 A 
ATOM      9  C9  IND d   1      -0.812   0.317   0.523  0.00  0.00    -0.096 A 
ATOM     10  HN1 IND d   1       0.720  -0.047  -2.111  0.00  0.00     0.298 HD
ENDROOT
TORSDOF 0
ENDMDL
