MODEL 1
REMARK minimizedAffinity -2.94424796
REMARK minimizedRMSD -1
REMARK  0 active torsions:
REMARK  status: ('A' for Active; 'I' for Inactive)
ROOT
ATOM      1  N1  IND d   1      -1.336   2.854   1.664  0.00  0.00    -0.196 N 
ATOM      2  C2  IND d   1      -0.369   3.665   1.139  0.00  0.00     0.054 A 
ATOM      3  C3  IND d   1       0.513   2.939   0.416  0.00  0.00    -0.031 A 
ATOM      4  C4  IND d   1       0.506   0.422  -0.124  0.00  0.00     0.051 A 
ATOM      5  C5  IND d   1      -0.156  -0.739   0.162  0.00  0.00    -0.031 A 
ATOM      6  C6  IND d   1      -1.269  -0.762   0.977  0.00  0.00     0.015 A 
ATOM      7  C7  IND d   1      -1.771   0.382   1.530  0.00  0.00    -0.016 A 
ATOM      8  C8  IND d   1      -1.097   1.562   1.248  0.00  0.00    -0.047 A 
ATOM      9  C9  IND d   1       0.058   1.586   0.456  0.00  0.00    -0.096 A 
ATOM     10  HN1 IND d   1      -1.984   3.107   2.169  0.00  0.00     0.298 HD
ENDROOT
TORSDOF 0
ENDMDL
