MODEL 1
REMARK minimizedAffinity -4.94639874
REMARK minimizedRMSD -1
REMARK  0 active torsions:
REMARK  status: ('A' for Active; 'I' for Inactive)
ROOT
ATOM      1  N1  IND d   1       2.124  -0.194   0.578  0.00  0.00    -0.196 N 
ATOM      2  C2  IND d   1       1.278  -1.202   0.207  0.00  0.00     0.054 A 
ATOM      3  C3  IND d   1       0.046  -0.710  -0.053  0.00  0.00    -0.031 A 
ATOM      4  C4  IND d   1      -0.779   1.728  -0.036  0.00  0.00     0.051 A 
ATOM      5  C5  IND d   1      -0.380   2.998   0.275  0.00  0.00    -0.031 A 
ATOM      6  C6  IND d   1       0.901   3.275   0.708  0.00  0.00     0.015 A 
ATOM      7  C7  IND d   1       1.838   2.289   0.837  0.00  0.00    -0.016 A 
ATOM      8  C8  IND d   1       1.434   0.997   0.529  0.00  0.00    -0.047 A 
ATOM      9  C9  IND d   1       0.124   0.704   0.130  0.00  0.00    -0.096 A 
ATOM     10  HN1 IND d   1       2.949  -0.289   0.803  0.00  0.00     0.298 HD
ENDROOT
TORSDOF 0
ENDMDL
