MODEL 1
REMARK minimizedAffinity -2.71555662
REMARK minimizedRMSD -1
REMARK  0 active torsions:
REMARK  status: ('A' for Active; 'I' for Inactive)
ROOT
ATOM      1  N1  IND d   1       0.792   0.264  -1.229  0.00  0.00    -0.196 N 
ATOM      2  C2  IND d   1       0.048  -0.880  -1.302  0.00  0.00     0.054 A 
ATOM      3  C3  IND d   1      -0.983  -0.826  -0.429  0.00  0.00    -0.031 A 
ATOM      4  C4  IND d   1      -1.698   1.083   1.142  0.00  0.00     0.051 A 
ATOM      5  C5  IND d   1      -1.309   2.315   1.587  0.00  0.00    -0.031 A 
ATOM      6  C6  IND d   1      -0.177   2.940   1.104  0.00  0.00     0.015 A 
ATOM      7  C7  IND d   1       0.604   2.359   0.146  0.00  0.00    -0.016 A 
ATOM      8  C8  IND d   1       0.215   1.105  -0.303  0.00  0.00    -0.047 A 
ATOM      9  C9  IND d   1      -0.909   0.447   0.214  0.00  0.00    -0.096 A 
ATOM     10  HN1 IND d   1       1.502   0.431  -1.685  0.00  0.00     0.298 HD
ENDROOT
TORSDOF 0
ENDMDL
