MODEL 1
REMARK minimizedAffinity -2.6178863
REMARK minimizedRMSD -1
REMARK  0 active torsions:
REMARK  status: ('A' for Active; 'I' for Inactive)
ROOT
ATOM      1  N1  IND d   1      -1.461   0.045   1.680  0.00  0.00    -0.196 N 
ATOM      2  C2  IND d   1      -1.059  -1.125   1.099  0.00  0.00     0.054 A 
ATOM      3  C3  IND d   1      -0.186  -0.877   0.096  0.00  0.00    -0.031 A 
ATOM      4  C4  IND d   1       0.800   1.365  -0.696  0.00  0.00     0.051 A 
ATOM      5  C5  IND d   1       0.706   2.714  -0.496  0.00  0.00    -0.031 A 
ATOM      6  C6  IND d   1      -0.129   3.252   0.461  0.00  0.00     0.015 A 
ATOM      7  C7  IND d   1      -0.897   2.458   1.265  0.00  0.00    -0.016 A 
ATOM      8  C8  IND d   1      -0.810   1.089   1.059  0.00  0.00    -0.047 A 
ATOM      9  C9  IND d   1       0.004   0.538   0.061  0.00  0.00    -0.096 A 
ATOM     10  HN1 IND d   1      -2.026   0.117   2.324  0.00  0.00     0.298 HD
ENDROOT
TORSDOF 0
ENDMDL
