MODEL 1
REMARK minimizedAffinity -0.948602617
REMARK minimizedRMSD -1
REMARK  0 active torsions:
REMARK  status: ('A' for Active; 'I' for Inactive)
ROOT
ATOM      1  N1  IND d   1       0.858  -0.836   0.497  0.00  0.00    -0.196 N 
ATOM      2  C2  IND d   1       2.121  -0.313   0.502  0.00  0.00     0.054 A 
ATOM      3  C3  IND d   1       2.072   1.035   0.597  0.00  0.00    -0.031 A 
ATOM      4  C4  IND d   1       0.032   2.583   0.857  0.00  0.00     0.051 A 
ATOM      5  C5  IND d   1      -1.335   2.571   0.867  0.00  0.00    -0.031 A 
ATOM      6  C6  IND d   1      -2.055   1.399   0.756  0.00  0.00     0.015 A 
ATOM      7  C7  IND d   1      -1.432   0.189   0.640  0.00  0.00    -0.016 A 
ATOM      8  C8  IND d   1      -0.044   0.198   0.622  0.00  0.00    -0.047 A 
ATOM      9  C9  IND d   1       0.691   1.388   0.692  0.00  0.00    -0.096 A 
ATOM     10  HN1 IND d   1       0.661  -1.670   0.428  0.00  0.00     0.298 HD
ENDROOT
TORSDOF 0
ENDMDL
