MODEL 1
REMARK minimizedAffinity -3.65142155
REMARK minimizedRMSD -1
REMARK  0 active torsions:
REMARK  status: ('A' for Active; 'I' for Inactive)
ROOT
ATOM      1  N1  IND d   1      -0.310  -1.906   0.825  0.00  0.00    -0.196 N 
ATOM      2  C2  IND d   1      -1.448  -1.372   0.289  0.00  0.00     0.054 A 
ATOM      3  C3  IND d   1      -1.214  -0.117  -0.157  0.00  0.00    -0.031 A 
ATOM      4  C4  IND d   1       0.986   1.219  -0.202  0.00  0.00     0.051 A 
ATOM      5  C5  IND d   1       2.288   1.164   0.208  0.00  0.00    -0.031 A 
ATOM      6  C6  IND d   1       2.802   0.059   0.856  0.00  0.00     0.015 A 
ATOM      7  C7  IND d   1       2.033  -1.041   1.109  0.00  0.00    -0.016 A 
ATOM      8  C8  IND d   1       0.708  -0.986   0.699  0.00  0.00    -0.047 A 
ATOM      9  C9  IND d   1       0.169   0.149   0.079  0.00  0.00    -0.096 A 
ATOM     10  HN1 IND d   1      -0.241  -2.686   1.181  0.00  0.00     0.298 HD
ENDROOT
TORSDOF 0
ENDMDL
