MODEL 1
REMARK minimizedAffinity 1.10741723
REMARK minimizedRMSD -1
REMARK  2 active torsions:
REMARK  status: ('A' for Active; 'I' for Inactive)
REMARK    1  A    between atoms: C1_2  and  C2_3 
REMARK    2  A    between atoms: C2_3  and  C3_4 
ROOT
ATOM      1  C3  UNL d   1      -4.791   0.618   1.022  0.00  0.00    -0.075 A 
ATOM      2  C4  UNL d   1      -5.934   1.055   1.707  0.00  0.00     0.002 A 
ATOM      3  C5  UNL d   1      -5.976   2.330   2.273  0.00  0.00     0.002 A 
ATOM      4  C6  UNL d   1      -4.876   3.177   2.171  0.00  0.00    -0.004 A 
ATOM      5  C7  UNL d   1      -3.729   2.747   1.507  0.00  0.00     0.002 A 
ATOM      6  C8  UNL d   1      -3.685   1.474   0.936  0.00  0.00     0.002 A 
ENDROOT
BRANCH   1   7
ATOM      7  C2  UNL d   1      -4.750  -0.749   0.382  0.00  0.00     0.056 C 
BRANCH   7   8
ATOM      8  C1  UNL d   1      -5.999  -1.092  -0.437  0.00  0.00     0.007 C 
ATOM      9  C   UNL d   1      -6.000  -0.462  -1.823  0.00  0.00     0.009 C 
ENDBRANCH   7   8
ENDBRANCH   1   7
TORSDOF 2
ENDMDL
