MODEL 1
REMARK minimizedAffinity 7.95011806
REMARK minimizedRMSD -1
REMARK  2 active torsions:
REMARK  status: ('A' for Active; 'I' for Inactive)
REMARK    1  A    between atoms: C1_2  and  C2_3 
REMARK    2  A    between atoms: C2_3  and  C3_4 
ROOT
ATOM      1  C3  UNL d   1      -3.444  -0.587   0.370  0.00  0.00    -0.075 A 
ATOM      2  C4  UNL d   1      -4.364  -1.262  -0.445  0.00  0.00     0.002 A 
ATOM      3  C5  UNL d   1      -5.632  -0.728  -0.674  0.00  0.00     0.002 A 
ATOM      4  C6  UNL d   1      -5.999   0.481  -0.086  0.00  0.00    -0.004 A 
ATOM      5  C7  UNL d   1      -5.099   1.152   0.738  0.00  0.00     0.002 A 
ATOM      6  C8  UNL d   1      -3.828   0.622   0.966  0.00  0.00     0.002 A 
ENDROOT
BRANCH   1   7
ATOM      7  C2  UNL d   1      -2.059  -1.145   0.598  0.00  0.00     0.056 C 
BRANCH   7   8
ATOM      8  C1  UNL d   1      -0.931  -0.139   0.345  0.00  0.00     0.007 C 
ATOM      9  C   UNL d   1      -0.017  -0.539  -0.805  0.00  0.00     0.009 C 
ENDBRANCH   7   8
ENDBRANCH   1   7
TORSDOF 2
ENDMDL
