MODEL 1
REMARK minimizedAffinity 9.2365942
REMARK minimizedRMSD -1
REMARK  2 active torsions:
REMARK  status: ('A' for Active; 'I' for Inactive)
REMARK    1  A    between atoms: C1_2  and  C2_3 
REMARK    2  A    between atoms: C2_3  and  C3_4 
ROOT
ATOM      1  C3  UNL d   1       1.604  -0.483  -0.614  0.00  0.00    -0.075 A 
ATOM      2  C4  UNL d   1       0.778   0.650  -0.569  0.00  0.00     0.002 A 
ATOM      3  C5  UNL d   1      -0.577   0.552  -0.891  0.00  0.00     0.002 A 
ATOM      4  C6  UNL d   1      -1.119  -0.674  -1.269  0.00  0.00    -0.004 A 
ATOM      5  C7  UNL d   1      -0.304  -1.803  -1.332  0.00  0.00     0.002 A 
ATOM      6  C8  UNL d   1       1.050  -1.709  -1.007  0.00  0.00     0.002 A 
ENDROOT
BRANCH   1   7
ATOM      7  C2  UNL d   1       3.063  -0.390  -0.239  0.00  0.00     0.056 C 
BRANCH   7   8
ATOM      8  C1  UNL d   1       3.360  -0.770   1.216  0.00  0.00     0.007 C 
ATOM      9  C   UNL d   1       2.236  -0.399   2.174  0.00  0.00     0.009 C 
ENDBRANCH   7   8
ENDBRANCH   1   7
TORSDOF 2
ENDMDL
