MODEL 1
REMARK minimizedAffinity 0.0823990479
REMARK minimizedRMSD -1
REMARK  2 active torsions:
REMARK  status: ('A' for Active; 'I' for Inactive)
REMARK    1  A    between atoms: C1_2  and  C2_3 
REMARK    2  A    between atoms: C2_3  and  C3_4 
ROOT
ATOM      1  C3  UNL d   1       0.524  -2.972   5.998  0.00  0.00    -0.075 A 
ATOM      2  C4  UNL d   1       1.901  -3.239   6.000  0.00  0.00     0.002 A 
ATOM      3  C5  UNL d   1       2.369  -4.553   5.979  0.00  0.00     0.002 A 
ATOM      4  C6  UNL d   1       1.468  -5.616   5.968  0.00  0.00    -0.004 A 
ATOM      5  C7  UNL d   1       0.098  -5.363   5.983  0.00  0.00     0.002 A 
ATOM      6  C8  UNL d   1      -0.373  -4.049   5.999  0.00  0.00     0.002 A 
ENDROOT
BRANCH   1   7
ATOM      7  C2  UNL d   1       0.012  -1.552   5.990  0.00  0.00     0.056 C 
BRANCH   7   8
ATOM      8  C1  UNL d   1       1.115  -0.492   5.905  0.00  0.00     0.007 C 
ATOM      9  C   UNL d   1       0.586   0.934   5.997  0.00  0.00     0.009 C 
ENDBRANCH   7   8
ENDBRANCH   1   7
TORSDOF 2
ENDMDL
