MODEL 1
REMARK minimizedAffinity 4.11249018
REMARK minimizedRMSD -1
REMARK  2 active torsions:
REMARK  status: ('A' for Active; 'I' for Inactive)
REMARK    1  A    between atoms: C1_2  and  C2_3 
REMARK    2  A    between atoms: C2_3  and  C3_4 
ROOT
ATOM      1  C3  UNL d   1       1.175  -1.879  -0.594  0.00  0.00    -0.075 A 
ATOM      2  C4  UNL d   1       1.911  -0.708  -0.826  0.00  0.00     0.002 A 
ATOM      3  C5  UNL d   1       2.720  -0.170   0.174  0.00  0.00     0.002 A 
ATOM      4  C6  UNL d   1       2.795  -0.787   1.421  0.00  0.00    -0.004 A 
ATOM      5  C7  UNL d   1       2.055  -1.941   1.669  0.00  0.00     0.002 A 
ATOM      6  C8  UNL d   1       1.248  -2.485   0.668  0.00  0.00     0.002 A 
ENDROOT
BRANCH   1   7
ATOM      7  C2  UNL d   1       0.320  -2.483  -1.682  0.00  0.00     0.056 C 
BRANCH   7   8
ATOM      8  C1  UNL d   1      -0.948  -3.173  -1.169  0.00  0.00     0.007 C 
ATOM      9  C   UNL d   1      -0.868  -4.693  -1.225  0.00  0.00     0.009 C 
ENDBRANCH   7   8
ENDBRANCH   1   7
TORSDOF 2
ENDMDL
