MODEL 1
REMARK minimizedAffinity 1.58451641
REMARK minimizedRMSD -1
REMARK  2 active torsions:
REMARK  status: ('A' for Active; 'I' for Inactive)
REMARK    1  A    between atoms: C1_2  and  C2_3 
REMARK    2  A    between atoms: C2_3  and  C3_4 
ROOT
ATOM      1  C3  UNL d   1       0.935   0.180  -0.292  0.00  0.00    -0.075 A 
ATOM      2  C4  UNL d   1       1.090   0.535   1.056  0.00  0.00     0.002 A 
ATOM      3  C5  UNL d   1       2.121  -0.013   1.819  0.00  0.00     0.002 A 
ATOM      4  C6  UNL d   1       3.003  -0.928   1.249  0.00  0.00    -0.004 A 
ATOM      5  C7  UNL d   1       2.849  -1.301  -0.085  0.00  0.00     0.002 A 
ATOM      6  C8  UNL d   1       1.821  -0.751  -0.852  0.00  0.00     0.002 A 
ENDROOT
BRANCH   1   7
ATOM      7  C2  UNL d   1      -0.161   0.792  -1.132  0.00  0.00     0.056 C 
BRANCH   7   8
ATOM      8  C1  UNL d   1      -1.126  -0.231  -1.739  0.00  0.00     0.007 C 
ATOM      9  C   UNL d   1      -2.503  -0.218  -1.089  0.00  0.00     0.009 C 
ENDBRANCH   7   8
ENDBRANCH   1   7
TORSDOF 2
ENDMDL
