MODEL 1
REMARK minimizedAffinity 1.39644182
REMARK minimizedRMSD -1
REMARK  2 active torsions:
REMARK  status: ('A' for Active; 'I' for Inactive)
REMARK    1  A    between atoms: C1_2  and  C2_3 
REMARK    2  A    between atoms: C2_3  and  C3_4 
ROOT
ATOM      1  C3  UNL d   1       0.248  -3.052   5.982  0.00  0.00    -0.075 A 
ATOM      2  C4  UNL d   1      -0.932  -3.809   5.961  0.00  0.00     0.002 A 
ATOM      3  C5  UNL d   1      -0.879  -5.203   5.973  0.00  0.00     0.002 A 
ATOM      4  C6  UNL d   1       0.351  -5.857   5.995  0.00  0.00    -0.004 A 
ATOM      5  C7  UNL d   1       1.530  -5.114   5.999  0.00  0.00     0.002 A 
ATOM      6  C8  UNL d   1       1.480  -3.719   5.992  0.00  0.00     0.002 A 
ENDROOT
BRANCH   1   7
ATOM      7  C2  UNL d   1       0.197  -1.543   6.000  0.00  0.00     0.056 C 
BRANCH   7   8
ATOM      8  C1  UNL d   1       1.564  -0.870   5.833  0.00  0.00     0.007 C 
ATOM      9  C   UNL d   1       1.513   0.643   5.997  0.00  0.00     0.009 C 
ENDBRANCH   7   8
ENDBRANCH   1   7
TORSDOF 2
ENDMDL
