MODEL 1
REMARK minimizedAffinity 13.929677
REMARK minimizedRMSD -1
REMARK  1 active torsions:
REMARK  status: ('A' for Active; 'I' for Inactive)
REMARK    1  A    between atoms: C1_2  and  C2_3 
ROOT
ATOM      1  C2  UNL d   1       5.896   1.717   0.930  0.00  0.00    -0.073 A 
ATOM      2  C3  UNL d   1       5.984   0.733   1.921  0.00  0.00    -0.002 A 
ATOM      3  C4  UNL d   1       5.970  -0.619   1.575  0.00  0.00     0.004 A 
ATOM      4  C5  UNL d   1       5.875  -1.000   0.236  0.00  0.00    -0.004 A 
ATOM      5  C6  UNL d   1       5.798  -0.030  -0.769  0.00  0.00    -0.075 A 
ATOM      6  C7  UNL d   1       5.693  -0.423  -2.213  0.00  0.00     0.076 C 
ATOM      7  C8  UNL d   1       5.810   1.325  -0.413  0.00  0.00     0.001 A 
ENDROOT
BRANCH   1   8
ATOM      8  C1  UNL d   1       5.917   3.178   1.299  0.00  0.00     0.053 C 
ATOM      9  C   UNL d   1       5.976   3.385   2.804  0.00  0.00     0.018 C 
ENDBRANCH   1   8
TORSDOF 1
ENDMDL
