MODEL 1
REMARK minimizedAffinity 13.3658819
REMARK minimizedRMSD -1
REMARK  1 active torsions:
REMARK  status: ('A' for Active; 'I' for Inactive)
REMARK    1  A    between atoms: C1_2  and  C2_3 
ROOT
ATOM      1  C2  UNL d   1       2.126  -3.699   1.508  0.00  0.00    -0.073 A 
ATOM      2  C3  UNL d   1       2.538  -2.863   0.464  0.00  0.00    -0.002 A 
ATOM      3  C4  UNL d   1       1.967  -1.599   0.306  0.00  0.00     0.004 A 
ATOM      4  C5  UNL d   1       0.986  -1.156   1.193  0.00  0.00    -0.004 A 
ATOM      5  C6  UNL d   1       0.571  -1.972   2.250  0.00  0.00    -0.075 A 
ATOM      6  C7  UNL d   1      -0.485  -1.511   3.212  0.00  0.00     0.076 C 
ATOM      7  C8  UNL d   1       1.146  -3.241   2.400  0.00  0.00     0.001 A 
ENDROOT
BRANCH   1   8
ATOM      8  C1  UNL d   1       2.744  -5.061   1.686  0.00  0.00     0.053 C 
ATOM      9  C   UNL d   1       3.450  -5.537   0.426  0.00  0.00     0.018 C 
ENDBRANCH   1   8
TORSDOF 1
ENDMDL
