MODEL 1
REMARK minimizedAffinity 12.0092211
REMARK minimizedRMSD -1
REMARK  1 active torsions:
REMARK  status: ('A' for Active; 'I' for Inactive)
REMARK    1  A    between atoms: C1_2  and  C2_3 
ROOT
ATOM      1  C2  UNL d   1      -1.513  -0.888   2.730  0.00  0.00    -0.073 A 
ATOM      2  C3  UNL d   1      -1.039  -0.358   3.936  0.00  0.00    -0.002 A 
ATOM      3  C4  UNL d   1       0.286  -0.563   4.323  0.00  0.00     0.004 A 
ATOM      4  C5  UNL d   1       1.152  -1.291   3.507  0.00  0.00    -0.004 A 
ATOM      5  C6  UNL d   1       0.700  -1.817   2.292  0.00  0.00    -0.075 A 
ATOM      6  C7  UNL d   1       1.618  -2.605   1.404  0.00  0.00     0.076 C 
ATOM      7  C8  UNL d   1      -0.632  -1.610   1.912  0.00  0.00     0.001 A 
ENDROOT
BRANCH   1   8
ATOM      8  C1  UNL d   1      -2.941  -0.664   2.305  0.00  0.00     0.053 C 
ATOM      9  C   UNL d   1      -3.488   0.658   2.819  0.00  0.00     0.018 C 
ENDBRANCH   1   8
TORSDOF 1
ENDMDL
