MODEL 1
REMARK minimizedAffinity 3.62158895
REMARK minimizedRMSD -1
REMARK  1 active torsions:
REMARK  status: ('A' for Active; 'I' for Inactive)
REMARK    1  A    between atoms: C1_2  and  C2_3 
ROOT
ATOM      1  C2  UNL d   1      -1.271   0.854  -2.408  0.00  0.00    -0.073 A 
ATOM      2  C3  UNL d   1      -1.546   2.121  -1.881  0.00  0.00    -0.002 A 
ATOM      3  C4  UNL d   1      -1.430   3.258  -2.681  0.00  0.00     0.004 A 
ATOM      4  C5  UNL d   1      -1.046   3.140  -4.017  0.00  0.00    -0.004 A 
ATOM      5  C6  UNL d   1      -0.779   1.881  -4.566  0.00  0.00    -0.075 A 
ATOM      6  C7  UNL d   1      -0.362   1.737  -6.000  0.00  0.00     0.076 C 
ATOM      7  C8  UNL d   1      -0.895   0.744  -3.754  0.00  0.00     0.001 A 
ENDROOT
BRANCH   1   8
ATOM      8  C1  UNL d   1      -1.401  -0.377  -1.549  0.00  0.00     0.053 C 
ATOM      9  C   UNL d   1      -0.046  -0.943  -1.156  0.00  0.00     0.018 C 
ENDBRANCH   1   8
TORSDOF 1
ENDMDL
