MODEL 1
REMARK minimizedAffinity 9.8786993
REMARK minimizedRMSD -1
REMARK  1 active torsions:
REMARK  status: ('A' for Active; 'I' for Inactive)
REMARK    1  A    between atoms: C1_2  and  C2_3 
ROOT
ATOM      1  C2  UNL d   1       2.976  -3.220   2.734  0.00  0.00    -0.073 A 
ATOM      2  C3  UNL d   1       2.363  -4.146   1.882  0.00  0.00    -0.002 A 
ATOM      3  C4  UNL d   1       1.076  -3.912   1.396  0.00  0.00     0.004 A 
ATOM      4  C5  UNL d   1       0.392  -2.750   1.750  0.00  0.00    -0.004 A 
ATOM      5  C6  UNL d   1       0.992  -1.807   2.591  0.00  0.00    -0.075 A 
ATOM      6  C7  UNL d   1       0.269  -0.552   2.984  0.00  0.00     0.076 C 
ATOM      7  C8  UNL d   1       2.284  -2.050   3.077  0.00  0.00     0.001 A 
ENDROOT
BRANCH   1   8
ATOM      8  C1  UNL d   1       4.368  -3.465   3.256  0.00  0.00     0.053 C 
ATOM      9  C   UNL d   1       4.490  -3.128   4.734  0.00  0.00     0.018 C 
ENDBRANCH   1   8
TORSDOF 1
ENDMDL
