MODEL 1
REMARK minimizedAffinity 0.0553125739
REMARK minimizedRMSD -1
REMARK  1 active torsions:
REMARK  status: ('A' for Active; 'I' for Inactive)
REMARK    1  A    between atoms: C1_2  and  C2_3 
ROOT
ATOM      1  C2  UNL d   1       2.497   1.494   0.277  0.00  0.00    -0.073 A 
ATOM      2  C3  UNL d   1       2.254   0.116   0.250  0.00  0.00    -0.002 A 
ATOM      3  C4  UNL d   1       1.203  -0.400  -0.508  0.00  0.00     0.004 A 
ATOM      4  C5  UNL d   1       0.389   0.454  -1.252  0.00  0.00    -0.004 A 
ATOM      5  C6  UNL d   1       0.623   1.833  -1.248  0.00  0.00    -0.075 A 
ATOM      6  C7  UNL d   1      -0.245   2.766  -2.041  0.00  0.00     0.076 C 
ATOM      7  C8  UNL d   1       1.679   2.344  -0.481  0.00  0.00     0.001 A 
ENDROOT
BRANCH   1   8
ATOM      8  C1  UNL d   1       3.635   2.055   1.090  0.00  0.00     0.053 C 
ATOM      9  C   UNL d   1       4.964   1.412   0.729  0.00  0.00     0.018 C 
ENDBRANCH   1   8
TORSDOF 1
ENDMDL
