MODEL 1
REMARK minimizedAffinity 3.48323083
REMARK minimizedRMSD -1
REMARK  1 active torsions:
REMARK  status: ('A' for Active; 'I' for Inactive)
REMARK    1  A    between atoms: C1_2  and  C2_3 
ROOT
ATOM      1  C2  UNL d   1       2.353  -4.221   1.227  0.00  0.00    -0.073 A 
ATOM      2  C3  UNL d   1       3.186  -3.298   0.583  0.00  0.00    -0.002 A 
ATOM      3  C4  UNL d   1       2.970  -1.928   0.735  0.00  0.00     0.004 A 
ATOM      4  C5  UNL d   1       1.926  -1.466   1.536  0.00  0.00    -0.004 A 
ATOM      5  C6  UNL d   1       1.091  -2.372   2.198  0.00  0.00    -0.075 A 
ATOM      6  C7  UNL d   1      -0.038  -1.892   3.062  0.00  0.00     0.076 C 
ATOM      7  C8  UNL d   1       1.312  -3.747   2.038  0.00  0.00     0.001 A 
ENDROOT
BRANCH   1   8
ATOM      8  C1  UNL d   1       2.587  -5.701   1.072  0.00  0.00     0.053 C 
ATOM      9  C   UNL d   1       3.849  -5.999   0.279  0.00  0.00     0.018 C 
ENDBRANCH   1   8
TORSDOF 1
ENDMDL
