MODEL 1
REMARK minimizedAffinity -3.77336574
REMARK minimizedRMSD -1
REMARK  1 active torsions:
REMARK  status: ('A' for Active; 'I' for Inactive)
REMARK    1  A    between atoms: N_2  and  C1_3 
ROOT
ATOM      1  C1  UNL d   1       1.973   0.382  -0.031  0.00  0.00     0.143 A 
ATOM      2  C2  UNL d   1       0.777  -0.123   0.492  0.00  0.00    -0.057 A 
ATOM      3  C3  UNL d   1       0.519  -1.499   0.517  0.00  0.00     0.033 A 
ATOM      4  C4  UNL d   1       1.443  -2.395  -0.009  0.00  0.00    -0.042 A 
ATOM      5  C5  UNL d   1       2.627  -1.915  -0.557  0.00  0.00     0.033 A 
ATOM      6  C6  UNL d   1       2.882  -0.540  -0.572  0.00  0.00    -0.057 A 
ENDROOT
BRANCH   1   7
ATOM      7  N   UNL d   1       2.246   1.744  -0.173  0.00  0.00    -0.732 N 
ATOM      8  C   UNL d   1       1.176   2.718  -0.137  0.00  0.00     0.284 C 
ATOM      9  H3  UNL d   1       3.083   2.028   0.331  0.00  0.00     0.395 HD
ENDBRANCH   1   7
TORSDOF 1
ENDMDL
