MODEL 1
REMARK minimizedAffinity -4.06667757
REMARK minimizedRMSD -1
REMARK  1 active torsions:
REMARK  status: ('A' for Active; 'I' for Inactive)
REMARK    1  A    between atoms: N_2  and  C1_3 
ROOT
ATOM      1  C1  UNL d   1       0.799  -0.929  -0.741  0.00  0.00     0.143 A 
ATOM      2  C2  UNL d   1       0.422  -0.375   0.487  0.00  0.00    -0.057 A 
ATOM      3  C3  UNL d   1       1.300  -0.362   1.578  0.00  0.00     0.033 A 
ATOM      4  C4  UNL d   1       2.564  -0.933   1.468  0.00  0.00    -0.042 A 
ATOM      5  C5  UNL d   1       2.950  -1.512   0.264  0.00  0.00     0.033 A 
ATOM      6  C6  UNL d   1       2.071  -1.515  -0.823  0.00  0.00    -0.057 A 
ENDROOT
BRANCH   1   7
ATOM      7  N   UNL d   1      -0.064  -1.060  -1.832  0.00  0.00    -0.732 N 
ATOM      8  C   UNL d   1      -0.911   0.041  -2.238  0.00  0.00     0.284 C 
ATOM      9  H3  UNL d   1       0.363  -1.563  -2.606  0.00  0.00     0.395 HD
ENDBRANCH   1   7
TORSDOF 1
ENDMDL
