MODEL 1
REMARK minimizedAffinity -3.03287816
REMARK minimizedRMSD -1
REMARK  1 active torsions:
REMARK  status: ('A' for Active; 'I' for Inactive)
REMARK    1  A    between atoms: N_2  and  C1_3 
ROOT
ATOM      1  C1  UNL d   1      -0.701  -0.281  -1.653  0.00  0.00     0.143 A 
ATOM      2  C2  UNL d   1      -0.548   0.668  -0.637  0.00  0.00    -0.057 A 
ATOM      3  C3  UNL d   1       0.433   0.522   0.351  0.00  0.00     0.033 A 
ATOM      4  C4  UNL d   1       1.263  -0.595   0.357  0.00  0.00    -0.042 A 
ATOM      5  C5  UNL d   1       1.112  -1.563  -0.629  0.00  0.00     0.033 A 
ATOM      6  C6  UNL d   1       0.135  -1.409  -1.617  0.00  0.00    -0.057 A 
ENDROOT
BRANCH   1   7
ATOM      7  N   UNL d   1      -1.722  -0.243  -2.606  0.00  0.00    -0.732 N 
ATOM      8  C   UNL d   1      -1.502  -0.753  -3.942  0.00  0.00     0.284 C 
ATOM      9  H3  UNL d   1      -2.629  -0.482  -2.213  0.00  0.00     0.395 HD
ENDBRANCH   1   7
TORSDOF 1
ENDMDL
