MODEL 1
REMARK minimizedAffinity -2.72413778
REMARK minimizedRMSD -1
REMARK  1 active torsions:
REMARK  status: ('A' for Active; 'I' for Inactive)
REMARK    1  A    between atoms: N_2  and  C1_3 
ROOT
ATOM      1  C1  UNL d   1       1.012  -0.359  -0.118  0.00  0.00     0.143 A 
ATOM      2  C2  UNL d   1       1.536   0.651   0.695  0.00  0.00    -0.057 A 
ATOM      3  C3  UNL d   1       2.890   0.669   1.049  0.00  0.00     0.033 A 
ATOM      4  C4  UNL d   1       3.741  -0.343   0.617  0.00  0.00    -0.042 A 
ATOM      5  C5  UNL d   1       3.237  -1.371  -0.171  0.00  0.00     0.033 A 
ATOM      6  C6  UNL d   1       1.885  -1.380  -0.527  0.00  0.00    -0.057 A 
ENDROOT
BRANCH   1   7
ATOM      7  N   UNL d   1      -0.346  -0.487  -0.423  0.00  0.00    -0.732 N 
ATOM      8  C   UNL d   1      -0.778  -1.307  -1.534  0.00  0.00     0.284 C 
ATOM      9  H3  UNL d   1      -0.924  -0.575   0.409  0.00  0.00     0.395 HD
ENDBRANCH   1   7
TORSDOF 1
ENDMDL
