MODEL 1
REMARK minimizedAffinity -1.48499858
REMARK minimizedRMSD -1
REMARK  1 active torsions:
REMARK  status: ('A' for Active; 'I' for Inactive)
REMARK    1  A    between atoms: N_2  and  C1_3 
ROOT
ATOM      1  C1  UNL d   1       1.360  -0.528  -0.346  0.00  0.00     0.143 A 
ATOM      2  C2  UNL d   1       1.159   0.857  -0.363  0.00  0.00    -0.057 A 
ATOM      3  C3  UNL d   1       1.806   1.696   0.552  0.00  0.00     0.033 A 
ATOM      4  C4  UNL d   1       2.645   1.160   1.523  0.00  0.00    -0.042 A 
ATOM      5  C5  UNL d   1       2.840  -0.215   1.576  0.00  0.00     0.033 A 
ATOM      6  C6  UNL d   1       2.196  -1.048   0.655  0.00  0.00    -0.057 A 
ENDROOT
BRANCH   1   7
ATOM      7  N   UNL d   1       0.670  -1.424  -1.165  0.00  0.00    -0.732 N 
ATOM      8  C   UNL d   1      -0.109  -0.947  -2.288  0.00  0.00     0.284 C 
ATOM      9  H3  UNL d   1       1.208  -2.265  -1.360  0.00  0.00     0.395 HD
ENDBRANCH   1   7
TORSDOF 1
ENDMDL
