MODEL 1
REMARK minimizedAffinity -3.39149642
REMARK minimizedRMSD -1
REMARK  3 active torsions:
REMARK  status: ('A' for Active; 'I' for Inactive)
REMARK    1  A    between atoms: C3'_2  and  C2'_3 
REMARK    2  A    between atoms: C2'_3  and  C1'_4 
REMARK    3  A    between atoms: C1'_4  and  C1_5 
ROOT
ATOM      1  C1  N4B d   1      -2.263   0.195  -2.471  0.00  0.00    -0.075 A 
ATOM      2  C2  N4B d   1      -2.768   1.472  -2.143  0.00  0.00     0.002 A 
ATOM      3  C3  N4B d   1      -3.098   2.358  -3.140  0.00  0.00     0.002 A 
ATOM      4  C4  N4B d   1      -2.913   1.997  -4.466  0.00  0.00    -0.004 A 
ATOM      5  C5  N4B d   1      -2.449   0.752  -4.776  0.00  0.00     0.002 A 
ATOM      6  C6  N4B d   1      -2.117  -0.149  -3.784  0.00  0.00     0.002 A 
ENDROOT
BRANCH   1   7
ATOM      7  C1' N4B d   1      -1.808  -0.774  -1.415  0.00  0.00     0.057 C 
BRANCH   7   8
ATOM      8  C2' N4B d   1      -0.554  -1.494  -1.903  0.00  0.00     0.009 C 
BRANCH   8   9
ATOM      9  C3' N4B d   1      -0.804  -2.974  -2.138  0.00  0.00     0.004 C 
ATOM     10  C4' N4B d   1       0.150  -3.851  -1.383  0.00  0.00     0.003 C 
ENDBRANCH   8   9
ENDBRANCH   7   8
ENDBRANCH   1   7
TORSDOF 3
ENDMDL
