MODEL 1
REMARK minimizedAffinity -0.58708483
REMARK minimizedRMSD -1
REMARK  3 active torsions:
REMARK  status: ('A' for Active; 'I' for Inactive)
REMARK    1  A    between atoms: C3'_2  and  C2'_3 
REMARK    2  A    between atoms: C2'_3  and  C1'_4 
REMARK    3  A    between atoms: C1'_4  and  C1_5 
ROOT
ATOM      1  C1  N4B d   1      -0.280   0.476  -1.562  0.00  0.00    -0.075 A 
ATOM      2  C2  N4B d   1      -0.719  -0.833  -1.268  0.00  0.00     0.002 A 
ATOM      3  C3  N4B d   1      -1.014  -1.704  -2.289  0.00  0.00     0.002 A 
ATOM      4  C4  N4B d   1      -0.896  -1.283  -3.605  0.00  0.00    -0.004 A 
ATOM      5  C5  N4B d   1      -0.447  -0.025  -3.881  0.00  0.00     0.002 A 
ATOM      6  C6  N4B d   1      -0.143   0.860  -2.865  0.00  0.00     0.002 A 
ENDROOT
BRANCH   1   7
ATOM      7  C1' N4B d   1      -0.028   1.491  -0.481  0.00  0.00     0.057 C 
BRANCH   7   8
ATOM      8  C2' N4B d   1      -0.050   2.889  -1.091  0.00  0.00     0.009 C 
BRANCH   8   9
ATOM      9  C3' N4B d   1       0.453   3.942  -0.117  0.00  0.00     0.004 C 
ATOM     10  C4' N4B d   1       0.837   5.223  -0.795  0.00  0.00     0.003 C 
ENDBRANCH   8   9
ENDBRANCH   7   8
ENDBRANCH   1   7
TORSDOF 3
ENDMDL
