MODEL 1
REMARK minimizedAffinity 4.61230421
REMARK minimizedRMSD -1
REMARK  3 active torsions:
REMARK  status: ('A' for Active; 'I' for Inactive)
REMARK    1  A    between atoms: C3'_2  and  C2'_3 
REMARK    2  A    between atoms: C2'_3  and  C1'_4 
REMARK    3  A    between atoms: C1'_4  and  C1_5 
ROOT
ATOM      1  C1  N4B d   1       0.587   1.507  -0.818  0.00  0.00    -0.075 A 
ATOM      2  C2  N4B d   1      -0.412   2.434  -1.187  0.00  0.00     0.002 A 
ATOM      3  C3  N4B d   1      -0.839   3.379  -0.286  0.00  0.00     0.002 A 
ATOM      4  C4  N4B d   1      -0.296   3.404   0.990  0.00  0.00    -0.004 A 
ATOM      5  C5  N4B d   1       0.687   2.521   1.330  0.00  0.00     0.002 A 
ATOM      6  C6  N4B d   1       1.128   1.568   0.434  0.00  0.00     0.002 A 
ENDROOT
BRANCH   1   7
ATOM      7  C1' N4B d   1       1.024   0.401  -1.740  0.00  0.00     0.057 C 
BRANCH   7   8
ATOM      8  C2' N4B d   1       1.030  -0.918  -0.973  0.00  0.00     0.009 C 
BRANCH   8   9
ATOM      9  C3' N4B d   1       0.139  -1.960  -1.627  0.00  0.00     0.004 C 
ATOM     10  C4' N4B d   1       0.343  -3.334  -1.063  0.00  0.00     0.003 C 
ENDBRANCH   8   9
ENDBRANCH   7   8
ENDBRANCH   1   7
TORSDOF 3
ENDMDL
