MODEL 1
REMARK minimizedAffinity -2.62916946
REMARK minimizedRMSD -1
REMARK  3 active torsions:
REMARK  status: ('A' for Active; 'I' for Inactive)
REMARK    1  A    between atoms: C3'_2  and  C2'_3 
REMARK    2  A    between atoms: C2'_3  and  C1'_4 
REMARK    3  A    between atoms: C1'_4  and  C1_5 
ROOT
ATOM      1  C1  N4B d   1      -4.571   1.615  -5.292  0.00  0.00    -0.075 A 
ATOM      2  C2  N4B d   1      -5.137   0.376  -5.665  0.00  0.00     0.002 A 
ATOM      3  C3  N4B d   1      -4.323  -0.677  -6.000  0.00  0.00     0.002 A 
ATOM      4  C4  N4B d   1      -2.946  -0.512  -5.987  0.00  0.00    -0.004 A 
ATOM      5  C5  N4B d   1      -2.407   0.680  -5.600  0.00  0.00     0.002 A 
ATOM      6  C6  N4B d   1      -3.213   1.747  -5.257  0.00  0.00     0.002 A 
ENDROOT
BRANCH   1   7
ATOM      7  C1' N4B d   1      -5.421   2.821  -5.000  0.00  0.00     0.057 C 
BRANCH   7   8
ATOM      8  C2' N4B d   1      -5.988   2.706  -3.588  0.00  0.00     0.009 C 
BRANCH   8   9
ATOM      9  C3' N4B d   1      -5.978   1.271  -3.088  0.00  0.00     0.004 C 
ATOM     10  C4' N4B d   1      -5.994   1.178  -1.591  0.00  0.00     0.003 C 
ENDBRANCH   8   9
ENDBRANCH   7   8
ENDBRANCH   1   7
TORSDOF 3
ENDMDL
