MODEL 1
REMARK minimizedAffinity 3.56939292
REMARK minimizedRMSD -1
REMARK  3 active torsions:
REMARK  status: ('A' for Active; 'I' for Inactive)
REMARK    1  A    between atoms: C3'_2  and  C2'_3 
REMARK    2  A    between atoms: C2'_3  and  C1'_4 
REMARK    3  A    between atoms: C1'_4  and  C1_5 
ROOT
ATOM      1  C1  N4B d   1      -1.710   4.652  -1.569  0.00  0.00    -0.075 A 
ATOM      2  C2  N4B d   1      -1.292   3.504  -0.861  0.00  0.00     0.002 A 
ATOM      3  C3  N4B d   1      -0.034   3.456  -0.312  0.00  0.00     0.002 A 
ATOM      4  C4  N4B d   1       0.826   4.532  -0.473  0.00  0.00    -0.004 A 
ATOM      5  C5  N4B d   1       0.406   5.647  -1.136  0.00  0.00     0.002 A 
ATOM      6  C6  N4B d   1      -0.857   5.711  -1.690  0.00  0.00     0.002 A 
ENDROOT
BRANCH   1   7
ATOM      7  C1' N4B d   1      -3.044   4.717  -2.261  0.00  0.00     0.057 C 
BRANCH   7   8
ATOM      8  C2' N4B d   1      -3.242   3.448  -3.085  0.00  0.00     0.009 C 
BRANCH   8   9
ATOM      9  C3' N4B d   1      -4.702   3.226  -3.444  0.00  0.00     0.004 C 
ATOM     10  C4' N4B d   1      -5.551   2.904  -2.251  0.00  0.00     0.003 C 
ENDBRANCH   8   9
ENDBRANCH   7   8
ENDBRANCH   1   7
TORSDOF 3
ENDMDL
