MODEL 1
REMARK minimizedAffinity 5.75600243
REMARK minimizedRMSD -1
REMARK  3 active torsions:
REMARK  status: ('A' for Active; 'I' for Inactive)
REMARK    1  A    between atoms: C3'_2  and  C2'_3 
REMARK    2  A    between atoms: C2'_3  and  C1'_4 
REMARK    3  A    between atoms: C1'_4  and  C1_5 
ROOT
ATOM      1  C1  N4B d   1      -0.084   2.193  -0.989  0.00  0.00    -0.075 A 
ATOM      2  C2  N4B d   1       0.473   3.019   0.012  0.00  0.00     0.002 A 
ATOM      3  C3  N4B d   1      -0.216   4.123   0.452  0.00  0.00     0.002 A 
ATOM      4  C4  N4B d   1      -1.448   4.429  -0.105  0.00  0.00    -0.004 A 
ATOM      5  C5  N4B d   1      -1.990   3.612  -1.053  0.00  0.00     0.002 A 
ATOM      6  C6  N4B d   1      -1.311   2.497  -1.502  0.00  0.00     0.002 A 
ENDROOT
BRANCH   1   7
ATOM      7  C1' N4B d   1       0.669   1.024  -1.563  0.00  0.00     0.057 C 
BRANCH   7   8
ATOM      8  C2' N4B d   1      -0.206  -0.223  -1.484  0.00  0.00     0.009 C 
BRANCH   8   9
ATOM      9  C3' N4B d   1       0.562  -1.481  -1.854  0.00  0.00     0.004 C 
ATOM     10  C4' N4B d   1      -0.287  -2.716  -1.801  0.00  0.00     0.003 C 
ENDBRANCH   8   9
ENDBRANCH   7   8
ENDBRANCH   1   7
TORSDOF 3
ENDMDL
