MODEL 1
REMARK minimizedAffinity -4.25454473
REMARK minimizedRMSD -1
REMARK  2 active torsions:
REMARK  status: ('A' for Active; 'I' for Inactive)
REMARK    1  A    between atoms: C2'_3  and  C1'_4 
REMARK    2  A    between atoms: C1'_4  and  C1_5 
ROOT
ATOM      1  C1  I4B d   1       0.282   0.404   1.133  0.00  0.00    -0.075 A 
ATOM      2  C2  I4B d   1      -0.700   0.418   0.175  0.00  0.00     0.003 A 
ATOM      3  C3  I4B d   1      -1.652   1.465   0.145  0.00  0.00     0.002 A 
ATOM      4  C4  I4B d   1      -1.617   2.444   1.117  0.00  0.00    -0.004 A 
ATOM      5  C5  I4B d   1      -0.606   2.440   2.075  0.00  0.00     0.002 A 
ATOM      6  C6  I4B d   1       0.357   1.421   2.076  0.00  0.00     0.003 A 
ENDROOT
BRANCH   1   7
ATOM      7  C1' I4B d   1       1.252  -0.735   1.155  0.00  0.00     0.060 C 
BRANCH   7   8
ATOM      8  C2' I4B d   1       2.358  -0.388   2.132  0.00  0.00    -0.013 C 
ATOM      9  C4' I4B d   1       2.192  -1.133   3.430  0.00  0.00     0.013 C 
ATOM     10  C3' I4B d   1       3.669  -0.717   1.482  0.00  0.00     0.013 C 
ENDBRANCH   7   8
ENDBRANCH   1   7
TORSDOF 2
ENDMDL
