MODEL 1
REMARK minimizedAffinity -2.19104743
REMARK minimizedRMSD -1
REMARK  2 active torsions:
REMARK  status: ('A' for Active; 'I' for Inactive)
REMARK    1  A    between atoms: C2'_3  and  C1'_4 
REMARK    2  A    between atoms: C1'_4  and  C1_5 
ROOT
ATOM      1  C1  I4B d   1       0.363  -0.937  -0.801  0.00  0.00    -0.075 A 
ATOM      2  C2  I4B d   1       0.332  -0.153  -1.927  0.00  0.00     0.003 A 
ATOM      3  C3  I4B d   1      -0.256   1.134  -1.884  0.00  0.00     0.002 A 
ATOM      4  C4  I4B d   1      -0.842   1.575  -0.715  0.00  0.00    -0.004 A 
ATOM      5  C5  I4B d   1      -0.790   0.788   0.432  0.00  0.00     0.002 A 
ATOM      6  C6  I4B d   1      -0.173  -0.470   0.393  0.00  0.00     0.003 A 
ENDROOT
BRANCH   1   7
ATOM      7  C1' I4B d   1       0.962  -2.304  -0.890  0.00  0.00     0.060 C 
BRANCH   7   8
ATOM      8  C2' I4B d   1      -0.171  -3.309  -0.928  0.00  0.00    -0.013 C 
ATOM      9  C4' I4B d   1      -0.809  -3.360  -2.292  0.00  0.00     0.013 C 
ATOM     10  C3' I4B d   1       0.383  -4.647  -0.539  0.00  0.00     0.013 C 
ENDBRANCH   7   8
ENDBRANCH   1   7
TORSDOF 2
ENDMDL
