MODEL 1
REMARK minimizedAffinity -1.71917081
REMARK minimizedRMSD -1
REMARK  0 active torsions:
REMARK  status: ('A' for Active; 'I' for Inactive)
ROOT
ATOM      1  C   UNL d   1      -2.267  -0.475  -2.668  0.00  0.00     0.124 A 
ATOM      2  C1  UNL d   1      -2.488   0.117  -1.432  0.00  0.00     0.062 A 
ATOM      3  C2  UNL d   1      -1.453   0.213  -0.507  0.00  0.00     0.162 A 
ATOM      4  C3  UNL d   1      -0.186  -0.283  -0.814  0.00  0.00    -0.034 A 
ATOM      5  C4  UNL d   1       0.028  -0.878  -2.059  0.00  0.00     0.162 A 
ATOM      6  C5  UNL d   1      -1.009  -0.971  -2.980  0.00  0.00     0.062 A 
ATOM      7  F   UNL d   1      -0.794  -1.543  -4.174  0.00  0.00    -0.097 F 
ATOM      8  F1  UNL d   1       1.234  -1.365  -2.387  0.00  0.00    -0.096 F 
ATOM      9  I   UNL d   1       1.364  -0.142   0.567  0.00  0.00    -0.060 I 
ATOM     10  F2  UNL d   1      -1.696   0.789   0.680  0.00  0.00    -0.096 F 
ATOM     11  F3  UNL d   1      -3.703   0.597  -1.128  0.00  0.00    -0.097 F 
ATOM     12  F4  UNL d   1      -3.265  -0.567  -3.557  0.00  0.00    -0.092 F 
ENDROOT
TORSDOF 0
ENDMDL
