MODEL 1
REMARK minimizedAffinity 3.74286032
REMARK minimizedRMSD -1
REMARK  0 active torsions:
REMARK  status: ('A' for Active; 'I' for Inactive)
ROOT
ATOM      1  C   UNL d   1      -1.154  -1.921  -0.039  0.00  0.00     0.124 A 
ATOM      2  C1  UNL d   1      -0.486  -2.664   0.925  0.00  0.00     0.062 A 
ATOM      3  C2  UNL d   1       0.567  -2.099   1.638  0.00  0.00     0.162 A 
ATOM      4  C3  UNL d   1       0.960  -0.784   1.391  0.00  0.00    -0.034 A 
ATOM      5  C4  UNL d   1       0.285  -0.043   0.420  0.00  0.00     0.162 A 
ATOM      6  C5  UNL d   1      -0.768  -0.612  -0.290  0.00  0.00     0.062 A 
ATOM      7  F   UNL d   1      -1.411   0.108  -1.221  0.00  0.00    -0.097 F 
ATOM      8  F1  UNL d   1       0.636   1.224   0.157  0.00  0.00    -0.096 F 
ATOM      9  I   UNL d   1       2.535   0.063   2.456  0.00  0.00    -0.060 I 
ATOM     10  F2  UNL d   1       1.194  -2.841   2.564  0.00  0.00    -0.096 F 
ATOM     11  F3  UNL d   1      -0.857  -3.929   1.170  0.00  0.00    -0.097 F 
ATOM     12  F4  UNL d   1      -2.167  -2.466  -0.724  0.00  0.00    -0.092 F 
ENDROOT
TORSDOF 0
ENDMDL
