MODEL 1
REMARK minimizedAffinity -3.25311852
REMARK minimizedRMSD -1
REMARK  0 active torsions:
REMARK  status: ('A' for Active; 'I' for Inactive)
ROOT
ATOM      1  C   UNL d   1       2.841  -1.142   1.266  0.00  0.00     0.124 A 
ATOM      2  C1  UNL d   1       2.679  -0.048   0.427  0.00  0.00     0.062 A 
ATOM      3  C2  UNL d   1       1.404   0.368   0.057  0.00  0.00     0.162 A 
ATOM      4  C3  UNL d   1       0.279  -0.308   0.528  0.00  0.00    -0.034 A 
ATOM      5  C4  UNL d   1       0.449  -1.408   1.371  0.00  0.00     0.162 A 
ATOM      6  C5  UNL d   1       1.726  -1.820   1.737  0.00  0.00     0.062 A 
ATOM      7  F   UNL d   1       1.880  -2.877   2.548  0.00  0.00    -0.097 F 
ATOM      8  F1  UNL d   1      -0.611  -2.081   1.842  0.00  0.00    -0.096 F 
ATOM      9  I   UNL d   1      -1.631   0.312  -0.022  0.00  0.00    -0.060 I 
ATOM     10  F2  UNL d   1       1.278   1.428  -0.755  0.00  0.00    -0.096 F 
ATOM     11  F3  UNL d   1       3.755   0.608  -0.031  0.00  0.00    -0.097 F 
ATOM     12  F4  UNL d   1       4.069  -1.541   1.619  0.00  0.00    -0.092 F 
ENDROOT
TORSDOF 0
ENDMDL
