MODEL 1
REMARK minimizedAffinity -4.16409111
REMARK minimizedRMSD -1
REMARK  0 active torsions:
REMARK  status: ('A' for Active; 'I' for Inactive)
ROOT
ATOM      1  C   UNL d   1      -1.629  -0.641  -1.803  0.00  0.00     0.124 A 
ATOM      2  C1  UNL d   1      -1.666  -0.389  -0.439  0.00  0.00     0.062 A 
ATOM      3  C2  UNL d   1      -0.520   0.037   0.226  0.00  0.00     0.162 A 
ATOM      4  C3  UNL d   1       0.674   0.215  -0.473  0.00  0.00    -0.034 A 
ATOM      5  C4  UNL d   1       0.704  -0.041  -1.845  0.00  0.00     0.162 A 
ATOM      6  C5  UNL d   1      -0.444  -0.467  -2.505  0.00  0.00     0.062 A 
ATOM      7  F   UNL d   1      -0.406  -0.710  -3.823  0.00  0.00    -0.097 F 
ATOM      8  F1  UNL d   1       1.835   0.120  -2.548  0.00  0.00    -0.096 F 
ATOM      9  I   UNL d   1       2.390   0.852   0.517  0.00  0.00    -0.060 I 
ATOM     10  F2  UNL d   1      -0.585   0.273   1.545  0.00  0.00    -0.096 F 
ATOM     11  F3  UNL d   1      -2.809  -0.557   0.242  0.00  0.00    -0.097 F 
ATOM     12  F4  UNL d   1      -2.733  -1.052  -2.440  0.00  0.00    -0.092 F 
ENDROOT
TORSDOF 0
ENDMDL
