MODEL 1
REMARK minimizedAffinity -1.7991662
REMARK minimizedRMSD -1
REMARK  0 active torsions:
REMARK  status: ('A' for Active; 'I' for Inactive)
ROOT
ATOM      1  C   UNL d   1       1.514   1.278   0.160  0.00  0.00     0.124 A 
ATOM      2  C1  UNL d   1       2.585   0.569   0.687  0.00  0.00     0.062 A 
ATOM      3  C2  UNL d   1       2.375  -0.659   1.306  0.00  0.00     0.162 A 
ATOM      4  C3  UNL d   1       1.088  -1.189   1.401  0.00  0.00    -0.034 A 
ATOM      5  C4  UNL d   1       0.015  -0.470   0.869  0.00  0.00     0.162 A 
ATOM      6  C5  UNL d   1       0.231   0.757   0.252  0.00  0.00     0.062 A 
ATOM      7  F   UNL d   1      -0.806   1.440  -0.257  0.00  0.00    -0.097 F 
ATOM      8  F1  UNL d   1      -1.235  -0.950   0.943  0.00  0.00    -0.096 F 
ATOM      9  I   UNL d   1       0.769  -3.026   2.325  0.00  0.00    -0.060 I 
ATOM     10  F2  UNL d   1       3.428  -1.322   1.807  0.00  0.00    -0.096 F 
ATOM     11  F3  UNL d   1       3.825   1.071   0.601  0.00  0.00    -0.097 F 
ATOM     12  F4  UNL d   1       1.719   2.460  -0.434  0.00  0.00    -0.092 F 
ENDROOT
TORSDOF 0
ENDMDL
