MODEL 1
REMARK minimizedAffinity -3.29479194
REMARK minimizedRMSD -1
REMARK  0 active torsions:
REMARK  status: ('A' for Active; 'I' for Inactive)
ROOT
ATOM      1  C   UNL d   1       1.292  -1.019   0.717  0.00  0.00     0.124 A 
ATOM      2  C1  UNL d   1       2.323  -0.112   0.925  0.00  0.00     0.062 A 
ATOM      3  C2  UNL d   1       2.075   1.256   0.858  0.00  0.00     0.162 A 
ATOM      4  C3  UNL d   1       0.791   1.726   0.583  0.00  0.00    -0.034 A 
ATOM      5  C4  UNL d   1      -0.240   0.808   0.374  0.00  0.00     0.162 A 
ATOM      6  C5  UNL d   1       0.013  -0.559   0.442  0.00  0.00     0.062 A 
ATOM      7  F   UNL d   1      -0.984  -1.433   0.241  0.00  0.00    -0.097 F 
ATOM      8  F1  UNL d   1      -1.486   1.225   0.108  0.00  0.00    -0.096 F 
ATOM      9  I   UNL d   1       0.416   3.770   0.482  0.00  0.00    -0.060 I 
ATOM     10  F2  UNL d   1       3.089   2.109   1.062  0.00  0.00    -0.096 F 
ATOM     11  F3  UNL d   1       3.560  -0.555   1.189  0.00  0.00    -0.097 F 
ATOM     12  F4  UNL d   1       1.534  -2.335   0.781  0.00  0.00    -0.092 F 
ENDROOT
TORSDOF 0
ENDMDL
