MODEL 1
REMARK minimizedAffinity 5.60970688
REMARK minimizedRMSD -1
REMARK  0 active torsions:
REMARK  status: ('A' for Active; 'I' for Inactive)
ROOT
ATOM      1  C   UNL d   1      -0.956  -1.345   0.657  0.00  0.00     0.124 A 
ATOM      2  C1  UNL d   1      -0.606  -0.112   0.125  0.00  0.00     0.062 A 
ATOM      3  C2  UNL d   1      -1.403   0.483  -0.848  0.00  0.00     0.162 A 
ATOM      4  C3  UNL d   1      -2.561  -0.154  -1.295  0.00  0.00    -0.034 A 
ATOM      5  C4  UNL d   1      -2.907  -1.394  -0.756  0.00  0.00     0.162 A 
ATOM      6  C5  UNL d   1      -2.106  -1.985   0.216  0.00  0.00     0.062 A 
ATOM      7  F   UNL d   1      -2.447  -3.176   0.730  0.00  0.00    -0.097 F 
ATOM      8  F1  UNL d   1      -4.013  -2.034  -1.163  0.00  0.00    -0.096 F 
ATOM      9  I   UNL d   1      -3.757   0.732  -2.750  0.00  0.00    -0.060 I 
ATOM     10  F2  UNL d   1      -1.040   1.675  -1.345  0.00  0.00    -0.096 F 
ATOM     11  F3  UNL d   1       0.505   0.508   0.548  0.00  0.00    -0.097 F 
ATOM     12  F4  UNL d   1      -0.186  -1.915   1.592  0.00  0.00    -0.092 F 
ENDROOT
TORSDOF 0
ENDMDL
