MODEL 1
REMARK minimizedAffinity 17.2836819
REMARK minimizedRMSD -1
REMARK  2 active torsions:
REMARK  status: ('A' for Active; 'I' for Inactive)
REMARK    1  A    between atoms: C2'_3  and  C1'_4 
REMARK    2  A    between atoms: C1'_4  and  C1_5 
ROOT
ATOM      1  C1  I4B d   1       1.525  -0.019   4.084  0.00  0.00    -0.075 A 
ATOM      2  C2  I4B d   1       1.276   0.924   5.050  0.00  0.00     0.003 A 
ATOM      3  C3  I4B d   1       0.160   1.788   4.932  0.00  0.00     0.002 A 
ATOM      4  C4  I4B d   1      -0.646   1.708   3.815  0.00  0.00    -0.004 A 
ATOM      5  C5  I4B d   1      -0.405   0.736   2.848  0.00  0.00     0.002 A 
ATOM      6  C6  I4B d   1       0.680  -0.141   2.989  0.00  0.00     0.003 A 
ENDROOT
BRANCH   1   7
ATOM      7  C1' I4B d   1       2.731  -0.893   4.223  0.00  0.00     0.060 C 
BRANCH   7   8
ATOM      8  C2' I4B d   1       3.834  -0.068   4.856  0.00  0.00    -0.013 C 
ATOM      9  C4' I4B d   1       4.988  -0.937   5.283  0.00  0.00     0.013 C 
ATOM     10  C3' I4B d   1       4.273   0.962   3.858  0.00  0.00     0.013 C 
ENDBRANCH   7   8
ENDBRANCH   1   7
TORSDOF 2
ENDMDL
