MODEL 1
REMARK minimizedAffinity 16.9792194
REMARK minimizedRMSD -1
REMARK  2 active torsions:
REMARK  status: ('A' for Active; 'I' for Inactive)
REMARK    1  A    between atoms: C2'_3  and  C1'_4 
REMARK    2  A    between atoms: C1'_4  and  C1_5 
ROOT
ATOM      1  C1  I4B d   1       5.175   3.566   2.510  0.00  0.00    -0.075 A 
ATOM      2  C2  I4B d   1       6.000   2.474   2.616  0.00  0.00     0.003 A 
ATOM      3  C3  I4B d   1       5.541   1.293   3.248  0.00  0.00     0.002 A 
ATOM      4  C4  I4B d   1       4.277   1.264   3.801  0.00  0.00    -0.004 A 
ATOM      5  C5  I4B d   1       3.434   2.364   3.672  0.00  0.00     0.002 A 
ATOM      6  C6  I4B d   1       3.881   3.518   3.012  0.00  0.00     0.003 A 
ENDROOT
BRANCH   1   7
ATOM      7  C1' I4B d   1       5.702   4.808   1.865  0.00  0.00     0.060 C 
BRANCH   7   8
ATOM      8  C2' I4B d   1       5.258   5.992   2.700  0.00  0.00    -0.013 C 
ATOM      9  C4' I4B d   1       3.763   6.000   2.882  0.00  0.00     0.013 C 
ATOM     10  C3' I4B d   1       5.964   5.918   4.021  0.00  0.00     0.013 C 
ENDBRANCH   7   8
ENDBRANCH   1   7
TORSDOF 2
ENDMDL
