MODEL 1
REMARK minimizedAffinity 19.9284401
REMARK minimizedRMSD -1
REMARK  2 active torsions:
REMARK  status: ('A' for Active; 'I' for Inactive)
REMARK    1  A    between atoms: C2'_3  and  C1'_4 
REMARK    2  A    between atoms: C1'_4  and  C1_5 
ROOT
ATOM      1  C1  I4B d   1      -0.934   0.322   2.920  0.00  0.00    -0.075 A 
ATOM      2  C2  I4B d   1      -0.685   1.063   4.048  0.00  0.00     0.003 A 
ATOM      3  C3  I4B d   1       0.609   1.073   4.623  0.00  0.00     0.002 A 
ATOM      4  C4  I4B d   1       1.604   0.294   4.070  0.00  0.00    -0.004 A 
ATOM      5  C5  I4B d   1       1.356  -0.439   2.913  0.00  0.00     0.002 A 
ATOM      6  C6  I4B d   1       0.082  -0.415   2.326  0.00  0.00     0.003 A 
ENDROOT
BRANCH   1   7
ATOM      7  C1' I4B d   1      -2.320   0.308   2.358  0.00  0.00     0.060 C 
BRANCH   7   8
ATOM      8  C2' I4B d   1      -2.951  -1.025   2.703  0.00  0.00    -0.013 C 
ATOM      9  C4' I4B d   1      -4.251  -0.839   3.440  0.00  0.00     0.013 C 
ATOM     10  C3' I4B d   1      -3.155  -1.786   1.427  0.00  0.00     0.013 C 
ENDBRANCH   7   8
ENDBRANCH   1   7
TORSDOF 2
ENDMDL
