MODEL 1
REMARK minimizedAffinity 16.53368
REMARK minimizedRMSD -1
REMARK  2 active torsions:
REMARK  status: ('A' for Active; 'I' for Inactive)
REMARK    1  A    between atoms: C2'_3  and  C1'_4 
REMARK    2  A    between atoms: C1'_4  and  C1_5 
ROOT
ATOM      1  C1  I4B d   1      -0.614  -0.254   2.563  0.00  0.00    -0.075 A 
ATOM      2  C2  I4B d   1       0.416   0.132   1.742  0.00  0.00     0.003 A 
ATOM      3  C3  I4B d   1       1.758  -0.119   2.117  0.00  0.00     0.002 A 
ATOM      4  C4  I4B d   1       2.025  -0.709   3.335  0.00  0.00    -0.004 A 
ATOM      5  C5  I4B d   1       0.978  -1.120   4.156  0.00  0.00     0.002 A 
ATOM      6  C6  I4B d   1      -0.350  -0.903   3.762  0.00  0.00     0.003 A 
ENDROOT
BRANCH   1   7
ATOM      7  C1' I4B d   1      -2.019   0.057   2.152  0.00  0.00     0.060 C 
BRANCH   7   8
ATOM      8  C2' I4B d   1      -2.802  -1.241   2.149  0.00  0.00    -0.013 C 
ATOM      9  C4' I4B d   1      -3.962  -1.179   3.107  0.00  0.00     0.013 C 
ATOM     10  C3' I4B d   1      -3.270  -1.496   0.747  0.00  0.00     0.013 C 
ENDBRANCH   7   8
ENDBRANCH   1   7
TORSDOF 2
ENDMDL
