MODEL 1
REMARK minimizedAffinity 10.698987
REMARK minimizedRMSD -1
REMARK  2 active torsions:
REMARK  status: ('A' for Active; 'I' for Inactive)
REMARK    1  A    between atoms: C2'_3  and  C1'_4 
REMARK    2  A    between atoms: C1'_4  and  C1_5 
ROOT
ATOM      1  C1  I4B d   1      -0.913  -0.477   2.949  0.00  0.00    -0.075 A 
ATOM      2  C2  I4B d   1      -0.568  -1.691   3.490  0.00  0.00     0.003 A 
ATOM      3  C3  I4B d   1       0.783  -1.972   3.805  0.00  0.00     0.002 A 
ATOM      4  C4  I4B d   1       1.757  -1.037   3.519  0.00  0.00    -0.004 A 
ATOM      5  C5  I4B d   1       1.402   0.201   2.992  0.00  0.00     0.002 A 
ATOM      6  C6  I4B d   1       0.057   0.488   2.717  0.00  0.00     0.003 A 
ENDROOT
BRANCH   1   7
ATOM      7  C1' I4B d   1      -2.346  -0.226   2.598  0.00  0.00     0.060 C 
BRANCH   7   8
ATOM      8  C2' I4B d   1      -3.045  -1.567   2.503  0.00  0.00    -0.013 C 
ATOM      9  C4' I4B d   1      -4.208  -1.644   3.457  0.00  0.00     0.013 C 
ATOM     10  C3' I4B d   1      -3.495  -1.755   1.085  0.00  0.00     0.013 C 
ENDBRANCH   7   8
ENDBRANCH   1   7
TORSDOF 2
ENDMDL
