MODEL 1
REMARK minimizedAffinity 11.106616
REMARK minimizedRMSD -1
REMARK  2 active torsions:
REMARK  status: ('A' for Active; 'I' for Inactive)
REMARK    1  A    between atoms: C2'_3  and  C1'_4 
REMARK    2  A    between atoms: C1'_4  and  C1_5 
ROOT
ATOM      1  C1  I4B d   1       0.378   0.496   3.713  0.00  0.00    -0.075 A 
ATOM      2  C2  I4B d   1       1.325  -0.141   4.476  0.00  0.00     0.003 A 
ATOM      3  C3  I4B d   1       1.675  -1.485   4.201  0.00  0.00     0.002 A 
ATOM      4  C4  I4B d   1       1.023  -2.165   3.193  0.00  0.00    -0.004 A 
ATOM      5  C5  I4B d   1       0.079  -1.511   2.406  0.00  0.00     0.002 A 
ATOM      6  C6  I4B d   1      -0.237  -0.168   2.659  0.00  0.00     0.003 A 
ENDROOT
BRANCH   1   7
ATOM      7  C1' I4B d   1       0.008   1.905   4.052  0.00  0.00     0.060 C 
BRANCH   7   8
ATOM      8  C2' I4B d   1       0.043   2.047   5.560  0.00  0.00    -0.013 C 
ATOM      9  C4' I4B d   1       1.202   2.902   6.000  0.00  0.00     0.013 C 
ATOM     10  C3' I4B d   1      -1.263   2.638   6.000  0.00  0.00     0.013 C 
ENDBRANCH   7   8
ENDBRANCH   1   7
TORSDOF 2
ENDMDL
