MODEL 1
REMARK minimizedAffinity 13.9719229
REMARK minimizedRMSD -1
REMARK  2 active torsions:
REMARK  status: ('A' for Active; 'I' for Inactive)
REMARK    1  A    between atoms: C2'_3  and  C1'_4 
REMARK    2  A    between atoms: C1'_4  and  C1_5 
ROOT
ATOM      1  C1  I4B d   1       2.742   0.281   3.479  0.00  0.00    -0.075 A 
ATOM      2  C2  I4B d   1       2.484  -1.065   3.410  0.00  0.00     0.003 A 
ATOM      3  C3  I4B d   1       1.168  -1.527   3.161  0.00  0.00     0.002 A 
ATOM      4  C4  I4B d   1       0.140  -0.616   3.038  0.00  0.00    -0.004 A 
ATOM      5  C5  I4B d   1       0.407   0.750   3.086  0.00  0.00     0.002 A 
ATOM      6  C6  I4B d   1       1.718   1.202   3.296  0.00  0.00     0.003 A 
ENDROOT
BRANCH   1   7
ATOM      7  C1' I4B d   1       4.136   0.733   3.777  0.00  0.00     0.060 C 
BRANCH   7   8
ATOM      8  C2' I4B d   1       4.552   1.708   2.694  0.00  0.00    -0.013 C 
ATOM      9  C4' I4B d   1       5.260   2.902   3.277  0.00  0.00     0.013 C 
ATOM     10  C3' I4B d   1       5.432   0.976   1.725  0.00  0.00     0.013 C 
ENDBRANCH   7   8
ENDBRANCH   1   7
TORSDOF 2
ENDMDL
