MODEL 1
REMARK minimizedAffinity 11.2093163
REMARK minimizedRMSD -1
REMARK  2 active torsions:
REMARK  status: ('A' for Active; 'I' for Inactive)
REMARK    1  A    between atoms: C2'_3  and  C1'_4 
REMARK    2  A    between atoms: C1'_4  and  C1_5 
ROOT
ATOM      1  C1  I4B d   1       0.885   0.834   3.566  0.00  0.00    -0.075 A 
ATOM      2  C2  I4B d   1       0.688   1.409   4.797  0.00  0.00     0.003 A 
ATOM      3  C3  I4B d   1      -0.297   2.412   4.965  0.00  0.00     0.002 A 
ATOM      4  C4  I4B d   1      -1.022   2.843   3.873  0.00  0.00    -0.004 A 
ATOM      5  C5  I4B d   1      -0.837   2.243   2.631  0.00  0.00     0.002 A 
ATOM      6  C6  I4B d   1       0.114   1.224   2.478  0.00  0.00     0.003 A 
ENDROOT
BRANCH   1   7
ATOM      7  C1' I4B d   1       1.956  -0.199   3.416  0.00  0.00     0.060 C 
BRANCH   7   8
ATOM      8  C2' I4B d   1       1.289  -1.518   3.082  0.00  0.00    -0.013 C 
ATOM      9  C4' I4B d   1       1.328  -2.461   4.255  0.00  0.00     0.013 C 
ATOM     10  C3' I4B d   1      -0.122  -1.230   2.665  0.00  0.00     0.013 C 
ENDBRANCH   7   8
ENDBRANCH   1   7
TORSDOF 2
ENDMDL
