MODEL 1
REMARK minimizedAffinity 3.90775919
REMARK minimizedRMSD -1
REMARK  1 active torsions:
REMARK  status: ('A' for Active; 'I' for Inactive)
REMARK    1  A    between atoms: C1_2  and  C2_3 
ROOT
ATOM      1  C2  UNL d   1      -2.327  -1.420   2.333  0.00  0.00    -0.081 A 
ATOM      2  C3  UNL d   1      -2.055  -2.670   1.763  0.00  0.00     0.006 A 
ATOM      3  C4  UNL d   1      -1.968  -2.812   0.376  0.00  0.00     0.002 A 
ATOM      4  C5  UNL d   1      -2.143  -1.707  -0.463  0.00  0.00    -0.080 A 
ATOM      5  C6  UNL d   1      -2.022  -1.840  -1.952  0.00  0.00     0.076 C 
ATOM      6  C7  UNL d   1      -2.432  -0.461   0.105  0.00  0.00     0.002 A 
ATOM      7  C8  UNL d   1      -2.520  -0.319   1.491  0.00  0.00     0.006 A 
ENDROOT
BRANCH   1   8
ATOM      8  C1  UNL d   1      -2.358  -1.250   3.830  0.00  0.00     0.054 C 
ATOM      9  C   UNL d   1      -1.479  -0.089   4.274  0.00  0.00     0.018 C 
ENDBRANCH   1   8
TORSDOF 1
ENDMDL
