MODEL 1
REMARK minimizedAffinity 3.4505794
REMARK minimizedRMSD -1
REMARK  1 active torsions:
REMARK  status: ('A' for Active; 'I' for Inactive)
REMARK    1  A    between atoms: C1_2  and  C2_3 
ROOT
ATOM      1  C2  UNL d   1      -4.986  -0.600   0.006  0.00  0.00    -0.081 A 
ATOM      2  C3  UNL d   1      -4.576  -1.771   0.656  0.00  0.00     0.006 A 
ATOM      3  C4  UNL d   1      -3.684  -1.710   1.730  0.00  0.00     0.002 A 
ATOM      4  C5  UNL d   1      -3.194  -0.478   2.176  0.00  0.00    -0.080 A 
ATOM      5  C6  UNL d   1      -2.261  -0.395   3.347  0.00  0.00     0.076 C 
ATOM      6  C7  UNL d   1      -3.590   0.691   1.516  0.00  0.00     0.002 A 
ATOM      7  C8  UNL d   1      -4.481   0.630   0.442  0.00  0.00     0.006 A 
ENDROOT
BRANCH   1   8
ATOM      8  C1  UNL d   1      -5.997  -0.657  -1.110  0.00  0.00     0.054 C 
ATOM      9  C   UNL d   1      -5.992  -2.018  -1.793  0.00  0.00     0.018 C 
ENDBRANCH   1   8
TORSDOF 1
ENDMDL
