MODEL 1
REMARK minimizedAffinity 12.5906181
REMARK minimizedRMSD -1
REMARK  1 active torsions:
REMARK  status: ('A' for Active; 'I' for Inactive)
REMARK    1  A    between atoms: C1_2  and  C2_3 
ROOT
ATOM      1  C2  UNL d   1      -1.272  -4.621  -0.348  0.00  0.00    -0.081 A 
ATOM      2  C3  UNL d   1      -1.487  -3.644  -1.327  0.00  0.00     0.006 A 
ATOM      3  C4  UNL d   1      -1.918  -2.364  -0.969  0.00  0.00     0.002 A 
ATOM      4  C5  UNL d   1      -2.133  -2.039   0.375  0.00  0.00    -0.080 A 
ATOM      5  C6  UNL d   1      -2.567  -0.660   0.776  0.00  0.00     0.076 C 
ATOM      6  C7  UNL d   1      -1.936  -3.020   1.352  0.00  0.00     0.002 A 
ATOM      7  C8  UNL d   1      -1.505  -4.300   0.994  0.00  0.00     0.006 A 
ENDROOT
BRANCH   1   8
ATOM      8  C1  UNL d   1      -0.745  -5.982  -0.725  0.00  0.00     0.054 C 
ATOM      9  C   UNL d   1       0.777  -6.000  -0.747  0.00  0.00     0.018 C 
ENDBRANCH   1   8
TORSDOF 1
ENDMDL
