MODEL 1
REMARK minimizedAffinity 5.98776436
REMARK minimizedRMSD -1
REMARK  1 active torsions:
REMARK  status: ('A' for Active; 'I' for Inactive)
REMARK    1  A    between atoms: C1_2  and  C2_3 
ROOT
ATOM      1  C2  UNL d   1      -1.876  -3.346  -0.006  0.00  0.00    -0.081 A 
ATOM      2  C3  UNL d   1      -2.409  -3.094   1.264  0.00  0.00     0.006 A 
ATOM      3  C4  UNL d   1      -3.163  -1.942   1.501  0.00  0.00     0.002 A 
ATOM      4  C5  UNL d   1      -3.404  -1.028   0.470  0.00  0.00    -0.080 A 
ATOM      5  C6  UNL d   1      -4.237   0.197   0.703  0.00  0.00     0.076 C 
ATOM      6  C7  UNL d   1      -2.858  -1.270  -0.795  0.00  0.00     0.002 A 
ATOM      7  C8  UNL d   1      -2.103  -2.421  -1.032  0.00  0.00     0.006 A 
ENDROOT
BRANCH   1   8
ATOM      8  C1  UNL d   1      -1.117  -4.619  -0.281  0.00  0.00     0.054 C 
ATOM      9  C   UNL d   1      -2.025  -5.836  -0.182  0.00  0.00     0.018 C 
ENDBRANCH   1   8
TORSDOF 1
ENDMDL
