MODEL 1
REMARK minimizedAffinity 16.5530949
REMARK minimizedRMSD -1
REMARK  1 active torsions:
REMARK  status: ('A' for Active; 'I' for Inactive)
REMARK    1  A    between atoms: C1_2  and  C2_3 
ROOT
ATOM      1  C2  UNL d   1      -4.664   2.170  -1.248  0.00  0.00    -0.081 A 
ATOM      2  C3  UNL d   1      -4.617   2.376   0.137  0.00  0.00     0.006 A 
ATOM      3  C4  UNL d   1      -4.371   1.308   1.003  0.00  0.00     0.002 A 
ATOM      4  C5  UNL d   1      -4.161   0.020   0.500  0.00  0.00    -0.080 A 
ATOM      5  C6  UNL d   1      -3.866  -1.130   1.418  0.00  0.00     0.076 C 
ATOM      6  C7  UNL d   1      -4.225  -0.189  -0.881  0.00  0.00     0.002 A 
ATOM      7  C8  UNL d   1      -4.472   0.878  -1.748  0.00  0.00     0.006 A 
ENDROOT
BRANCH   1   8
ATOM      8  C1  UNL d   1      -4.865   3.330  -2.188  0.00  0.00     0.054 C 
ATOM      9  C   UNL d   1      -5.735   2.938  -3.374  0.00  0.00     0.018 C 
ENDBRANCH   1   8
TORSDOF 1
ENDMDL
