MODEL 1
REMARK minimizedAffinity 20.4866066
REMARK minimizedRMSD -1
REMARK  1 active torsions:
REMARK  status: ('A' for Active; 'I' for Inactive)
REMARK    1  A    between atoms: C1_2  and  C2_3 
ROOT
ATOM      1  C2  UNL d   1       0.544  -1.122   4.490  0.00  0.00    -0.081 A 
ATOM      2  C3  UNL d   1       1.500  -1.287   5.499  0.00  0.00     0.006 A 
ATOM      3  C4  UNL d   1       1.790  -2.559   5.999  0.00  0.00     0.002 A 
ATOM      4  C5  UNL d   1       1.135  -3.687   5.492  0.00  0.00    -0.080 A 
ATOM      5  C6  UNL d   1       1.459  -5.061   5.998  0.00  0.00     0.076 C 
ATOM      6  C7  UNL d   1       0.167  -3.520   4.496  0.00  0.00     0.002 A 
ATOM      7  C8  UNL d   1      -0.123  -2.248   3.997  0.00  0.00     0.006 A 
ENDROOT
BRANCH   1   8
ATOM      8  C1  UNL d   1       0.276   0.241   3.904  0.00  0.00     0.054 C 
ATOM      9  C   UNL d   1       0.516   1.340   4.929  0.00  0.00     0.018 C 
ENDBRANCH   1   8
TORSDOF 1
ENDMDL
