MODEL 1
REMARK minimizedAffinity 17.4406261
REMARK minimizedRMSD -1
REMARK  1 active torsions:
REMARK  status: ('A' for Active; 'I' for Inactive)
REMARK    1  A    between atoms: C1_2  and  C2_3 
ROOT
ATOM      1  C2  UNL d   1      -3.947  -0.567  -0.327  0.00  0.00    -0.081 A 
ATOM      2  C3  UNL d   1      -3.366  -0.748  -1.589  0.00  0.00     0.006 A 
ATOM      3  C4  UNL d   1      -2.034  -0.392  -1.812  0.00  0.00     0.002 A 
ATOM      4  C5  UNL d   1      -1.259   0.143  -0.778  0.00  0.00    -0.080 A 
ATOM      5  C6  UNL d   1       0.181   0.500  -0.997  0.00  0.00     0.076 C 
ATOM      6  C7  UNL d   1      -1.844   0.340   0.477  0.00  0.00     0.002 A 
ATOM      7  C8  UNL d   1      -3.176  -0.015   0.702  0.00  0.00     0.006 A 
ENDROOT
BRANCH   1   8
ATOM      8  C1  UNL d   1      -5.364  -1.009  -0.066  0.00  0.00     0.054 C 
ATOM      9  C   UNL d   1      -6.000  -1.599  -1.317  0.00  0.00     0.018 C 
ENDBRANCH   1   8
TORSDOF 1
ENDMDL
