MODEL 1
REMARK minimizedAffinity 14.9411077
REMARK minimizedRMSD -1
REMARK  1 active torsions:
REMARK  status: ('A' for Active; 'I' for Inactive)
REMARK    1  A    between atoms: C1_2  and  C2_3 
ROOT
ATOM      1  C2  UNL d   1      -4.138   1.425  -0.567  0.00  0.00    -0.081 A 
ATOM      2  C3  UNL d   1      -4.645   1.053  -1.819  0.00  0.00     0.006 A 
ATOM      3  C4  UNL d   1      -5.259   1.998  -2.644  0.00  0.00     0.002 A 
ATOM      4  C5  UNL d   1      -5.370   3.332  -2.235  0.00  0.00    -0.080 A 
ATOM      5  C6  UNL d   1      -6.000   4.362  -3.124  0.00  0.00     0.076 C 
ATOM      6  C7  UNL d   1      -4.879   3.700  -0.978  0.00  0.00     0.002 A 
ATOM      7  C8  UNL d   1      -4.266   2.755  -0.152  0.00  0.00     0.006 A 
ENDROOT
BRANCH   1   8
ATOM      8  C1  UNL d   1      -3.418   0.422   0.297  0.00  0.00     0.054 C 
ATOM      9  C   UNL d   1      -4.375  -0.630   0.839  0.00  0.00     0.018 C 
ENDBRANCH   1   8
TORSDOF 1
ENDMDL
