MODEL 1
REMARK minimizedAffinity 16.1072655
REMARK minimizedRMSD -1
REMARK  1 active torsions:
REMARK  status: ('A' for Active; 'I' for Inactive)
REMARK    1  A    between atoms: C1_2  and  C2_3 
ROOT
ATOM      1  C2  UNL d   1       4.915   0.927   0.183  0.00  0.00    -0.081 A 
ATOM      2  C3  UNL d   1       4.567  -0.215   0.916  0.00  0.00     0.006 A 
ATOM      3  C4  UNL d   1       4.927  -0.330   2.260  0.00  0.00     0.002 A 
ATOM      4  C5  UNL d   1       5.634   0.696   2.896  0.00  0.00    -0.080 A 
ATOM      5  C6  UNL d   1       6.000   0.598   4.348  0.00  0.00     0.076 C 
ATOM      6  C7  UNL d   1       5.997   1.829   2.160  0.00  0.00     0.002 A 
ATOM      7  C8  UNL d   1       5.638   1.944   0.815  0.00  0.00     0.006 A 
ENDROOT
BRANCH   1   8
ATOM      8  C1  UNL d   1       4.472   1.082  -1.250  0.00  0.00     0.054 C 
ATOM      9  C   UNL d   1       5.311   2.123  -1.978  0.00  0.00     0.018 C 
ENDBRANCH   1   8
TORSDOF 1
ENDMDL
