MODEL 1
REMARK minimizedAffinity -2.84392834
REMARK minimizedRMSD -1
REMARK  0 active torsions:
REMARK  status: ('A' for Active; 'I' for Inactive)
ROOT
ATOM      1  C   UNL d   1       0.945   5.997   5.982  0.00  0.00     0.077 C 
ATOM      2  C1  UNL d   1      -0.343   5.616   5.314  0.00  0.00    -0.074 A 
ATOM      3  C2  UNL d   1      -0.344   4.938   4.090  0.00  0.00    -0.005 A 
ATOM      4  C3  UNL d   1      -1.549   4.581   3.485  0.00  0.00     0.006 A 
ATOM      5  C4  UNL d   1      -2.763   4.898   4.095  0.00  0.00    -0.005 A 
ATOM      6  C5  UNL d   1      -2.781   5.575   5.319  0.00  0.00    -0.074 A 
ATOM      7  C6  UNL d   1      -4.077   5.915   5.994  0.00  0.00     0.077 C 
ATOM      8  C7  UNL d   1      -1.566   5.924   5.925  0.00  0.00    -0.001 A 
ENDROOT
TORSDOF 0
ENDMDL
