MODEL 1
REMARK minimizedAffinity -0.814386547
REMARK minimizedRMSD -1
REMARK  0 active torsions:
REMARK  status: ('A' for Active; 'I' for Inactive)
ROOT
ATOM      1  C   UNL d   1       1.961   5.649   5.278  0.00  0.00     0.077 C 
ATOM      2  C1  UNL d   1       0.550   5.373   4.852  0.00  0.00    -0.074 A 
ATOM      3  C2  UNL d   1       0.003   5.998   3.726  0.00  0.00    -0.005 A 
ATOM      4  C3  UNL d   1      -1.307   5.723   3.336  0.00  0.00     0.006 A 
ATOM      5  C4  UNL d   1      -2.084   4.823   4.067  0.00  0.00    -0.005 A 
ATOM      6  C5  UNL d   1      -1.554   4.189   5.195  0.00  0.00    -0.074 A 
ATOM      7  C6  UNL d   1      -2.372   3.211   5.986  0.00  0.00     0.077 C 
ATOM      8  C7  UNL d   1      -0.234   4.464   5.576  0.00  0.00    -0.001 A 
ENDROOT
TORSDOF 0
ENDMDL
