MODEL 1
REMARK minimizedAffinity 2.65173912
REMARK minimizedRMSD -1
REMARK  0 active torsions:
REMARK  status: ('A' for Active; 'I' for Inactive)
ROOT
ATOM      1  C   UNL d   1      -2.932   1.950   5.951  0.00  0.00     0.077 C 
ATOM      2  C1  UNL d   1      -2.436   3.365   5.960  0.00  0.00    -0.074 A 
ATOM      3  C2  UNL d   1      -3.331   4.440   5.981  0.00  0.00    -0.005 A 
ATOM      4  C3  UNL d   1      -2.854   5.751   5.998  0.00  0.00     0.006 A 
ATOM      5  C4  UNL d   1      -1.481   6.000   5.995  0.00  0.00    -0.005 A 
ATOM      6  C5  UNL d   1      -0.572   4.938   5.975  0.00  0.00    -0.074 A 
ATOM      7  C6  UNL d   1       0.907   5.187   5.980  0.00  0.00     0.077 C 
ATOM      8  C7  UNL d   1      -1.058   3.623   5.964  0.00  0.00    -0.001 A 
ENDROOT
TORSDOF 0
ENDMDL
