MODEL 1
REMARK minimizedAffinity -2.52308345
REMARK minimizedRMSD -1
REMARK  0 active torsions:
REMARK  status: ('A' for Active; 'I' for Inactive)
ROOT
ATOM      1  C   UNL d   1       0.986   4.519   5.288  0.00  0.00     0.077 C 
ATOM      2  C1  UNL d   1       2.471   4.733   5.305  0.00  0.00    -0.074 A 
ATOM      3  C2  UNL d   1       3.032   5.819   5.985  0.00  0.00    -0.005 A 
ATOM      4  C3  UNL d   1       4.415   6.000   6.000  0.00  0.00     0.006 A 
ATOM      5  C4  UNL d   1       5.249   5.099   5.337  0.00  0.00    -0.005 A 
ATOM      6  C5  UNL d   1       4.706   4.007   4.653  0.00  0.00    -0.074 A 
ATOM      7  C6  UNL d   1       5.588   3.023   3.943  0.00  0.00     0.077 C 
ATOM      8  C7  UNL d   1       3.316   3.828   4.648  0.00  0.00    -0.001 A 
ENDROOT
TORSDOF 0
ENDMDL
