MODEL 1
REMARK minimizedAffinity -2.00418353
REMARK minimizedRMSD -1
REMARK  0 active torsions:
REMARK  status: ('A' for Active; 'I' for Inactive)
ROOT
ATOM      1  C   UNL d   1      -5.348   2.619   3.371  0.00  0.00     0.077 C 
ATOM      2  C1  UNL d   1      -4.131   2.953   4.183  0.00  0.00    -0.074 A 
ATOM      3  C2  UNL d   1      -3.744   2.149   5.260  0.00  0.00    -0.005 A 
ATOM      4  C3  UNL d   1      -2.604   2.466   5.999  0.00  0.00     0.006 A 
ATOM      5  C4  UNL d   1      -1.843   3.588   5.670  0.00  0.00    -0.005 A 
ATOM      6  C5  UNL d   1      -2.215   4.403   4.596  0.00  0.00    -0.074 A 
ATOM      7  C6  UNL d   1      -1.402   5.607   4.223  0.00  0.00     0.077 C 
ATOM      8  C7  UNL d   1      -3.357   4.074   3.854  0.00  0.00    -0.001 A 
ENDROOT
TORSDOF 0
ENDMDL
