MODEL 1
REMARK minimizedAffinity 11.9433031
REMARK minimizedRMSD -1
REMARK  1 active torsions:
REMARK  status: ('A' for Active; 'I' for Inactive)
REMARK    1  A    between atoms: C1_2  and  C2_3 
ROOT
ATOM      1  C2  UNL d   1       1.683  -2.678   2.332  0.00  0.00    -0.081 A 
ATOM      2  C3  UNL d   1       1.818  -1.424   2.940  0.00  0.00     0.006 A 
ATOM      3  C4  UNL d   1       0.690  -0.654   3.234  0.00  0.00     0.002 A 
ATOM      4  C5  UNL d   1      -0.591  -1.128   2.932  0.00  0.00    -0.080 A 
ATOM      5  C6  UNL d   1      -1.811  -0.324   3.270  0.00  0.00     0.076 C 
ATOM      6  C7  UNL d   1      -0.725  -2.373   2.308  0.00  0.00     0.002 A 
ATOM      7  C8  UNL d   1       0.402  -3.143   2.013  0.00  0.00     0.006 A 
ENDROOT
BRANCH   1   8
ATOM      8  C1  UNL d   1       2.893  -3.539   2.073  0.00  0.00     0.054 C 
ATOM      9  C   UNL d   1       3.894  -3.444   3.215  0.00  0.00     0.018 C 
ENDBRANCH   1   8
TORSDOF 1
ENDMDL
