MODEL 1
REMARK minimizedAffinity 3.00029421
REMARK minimizedRMSD -1
REMARK  1 active torsions:
REMARK  status: ('A' for Active; 'I' for Inactive)
REMARK    1  A    between atoms: C1_2  and  C2_3 
ROOT
ATOM      1  C2  UNL d   1       4.966   1.211   1.064  0.00  0.00    -0.081 A 
ATOM      2  C3  UNL d   1       5.350   2.281   1.882  0.00  0.00     0.006 A 
ATOM      3  C4  UNL d   1       4.396   2.986   2.620  0.00  0.00     0.002 A 
ATOM      4  C5  UNL d   1       3.045   2.628   2.559  0.00  0.00    -0.080 A 
ATOM      5  C6  UNL d   1       2.015   3.358   3.369  0.00  0.00     0.076 C 
ATOM      6  C7  UNL d   1       2.659   1.571   1.728  0.00  0.00     0.002 A 
ATOM      7  C8  UNL d   1       3.612   0.866   0.989  0.00  0.00     0.006 A 
ENDROOT
BRANCH   1   8
ATOM      8  C1  UNL d   1       6.000   0.408   0.317  0.00  0.00     0.054 C 
ATOM      9  C   UNL d   1       6.000  -1.047   0.765  0.00  0.00     0.018 C 
ENDBRANCH   1   8
TORSDOF 1
ENDMDL
