MODEL 1
REMARK minimizedAffinity 0.311197042
REMARK minimizedRMSD -1
REMARK  1 active torsions:
REMARK  status: ('A' for Active; 'I' for Inactive)
REMARK    1  A    between atoms: C1_2  and  C2_3 
ROOT
ATOM      1  C2  UNL d   1       2.057   0.934  -0.181  0.00  0.00    -0.081 A 
ATOM      2  C3  UNL d   1       2.373   2.219   0.277  0.00  0.00     0.006 A 
ATOM      3  C4  UNL d   1       3.644   2.498   0.785  0.00  0.00     0.002 A 
ATOM      4  C5  UNL d   1       4.622   1.499   0.837  0.00  0.00    -0.080 A 
ATOM      5  C6  UNL d   1       5.999   1.792   1.352  0.00  0.00     0.076 C 
ATOM      6  C7  UNL d   1       4.301   0.210   0.396  0.00  0.00     0.002 A 
ATOM      7  C8  UNL d   1       3.030  -0.069  -0.112  0.00  0.00     0.006 A 
ENDROOT
BRANCH   1   8
ATOM      8  C1  UNL d   1       0.708   0.647  -0.790  0.00  0.00     0.054 C 
ATOM      9  C   UNL d   1       0.420  -0.847  -0.817  0.00  0.00     0.018 C 
ENDBRANCH   1   8
TORSDOF 1
ENDMDL
