MODEL 1
REMARK minimizedAffinity -1.29660928
REMARK minimizedRMSD -1
REMARK  1 active torsions:
REMARK  status: ('A' for Active; 'I' for Inactive)
REMARK    1  A    between atoms: C1_2  and  C2_3 
ROOT
ATOM      1  C2  UNL d   1       3.168  -4.380   2.912  0.00  0.00    -0.081 A 
ATOM      2  C3  UNL d   1       4.062  -3.421   3.404  0.00  0.00     0.006 A 
ATOM      3  C4  UNL d   1       4.971  -3.751   4.412  0.00  0.00     0.002 A 
ATOM      4  C5  UNL d   1       5.007  -5.046   4.939  0.00  0.00    -0.080 A 
ATOM      5  C6  UNL d   1       5.999  -5.422   6.000  0.00  0.00     0.076 C 
ATOM      6  C7  UNL d   1       4.102  -6.000   4.460  0.00  0.00     0.002 A 
ATOM      7  C8  UNL d   1       3.193  -5.670   3.453  0.00  0.00     0.006 A 
ENDROOT
BRANCH   1   8
ATOM      8  C1  UNL d   1       2.231  -4.045   1.780  0.00  0.00     0.054 C 
ATOM      9  C   UNL d   1       1.586  -2.681   1.981  0.00  0.00     0.018 C 
ENDBRANCH   1   8
TORSDOF 1
ENDMDL
