MODEL 1
REMARK minimizedAffinity 3.67268491
REMARK minimizedRMSD -1
REMARK  1 active torsions:
REMARK  status: ('A' for Active; 'I' for Inactive)
REMARK    1  A    between atoms: C1_2  and  C2_3 
ROOT
ATOM      1  C2  UNL d   1      -1.962   1.653  -2.245  0.00  0.00    -0.081 A 
ATOM      2  C3  UNL d   1      -3.293   1.955  -2.561  0.00  0.00     0.006 A 
ATOM      3  C4  UNL d   1      -3.628   3.196  -3.107  0.00  0.00     0.002 A 
ATOM      4  C5  UNL d   1      -2.638   4.154  -3.353  0.00  0.00    -0.080 A 
ATOM      5  C6  UNL d   1      -2.979   5.479  -3.966  0.00  0.00     0.076 C 
ATOM      6  C7  UNL d   1      -1.311   3.859  -3.021  0.00  0.00     0.002 A 
ATOM      7  C8  UNL d   1      -0.976   2.618  -2.475  0.00  0.00     0.006 A 
ENDROOT
BRANCH   1   8
ATOM      8  C1  UNL d   1      -1.590   0.292  -1.717  0.00  0.00     0.054 C 
ATOM      9  C   UNL d   1      -2.695  -0.723  -1.974  0.00  0.00     0.018 C 
ENDBRANCH   1   8
TORSDOF 1
ENDMDL
