MODEL 1
REMARK minimizedAffinity -5.27565145
REMARK minimizedRMSD -1
REMARK  1 active torsions:
REMARK  status: ('A' for Active; 'I' for Inactive)
REMARK    1  A    between atoms: C1_2  and  C2_3 
ROOT
ATOM      1  C2  UNL d   1      -0.446   0.405  -0.718  0.00  0.00    -0.081 A 
ATOM      2  C3  UNL d   1       0.340  -0.747  -0.593  0.00  0.00     0.006 A 
ATOM      3  C4  UNL d   1       1.590  -0.823  -1.213  0.00  0.00     0.002 A 
ATOM      4  C5  UNL d   1       2.078   0.254  -1.960  0.00  0.00    -0.080 A 
ATOM      5  C6  UNL d   1       3.430   0.198  -2.605  0.00  0.00     0.076 C 
ATOM      6  C7  UNL d   1       1.285   1.399  -2.099  0.00  0.00     0.002 A 
ATOM      7  C8  UNL d   1       0.036   1.475  -1.480  0.00  0.00     0.006 A 
ENDROOT
BRANCH   1   8
ATOM      8  C1  UNL d   1      -1.765   0.515   0.003  0.00  0.00     0.054 C 
ATOM      9  C   UNL d   1      -1.568   0.885   1.466  0.00  0.00     0.018 C 
ENDBRANCH   1   8
TORSDOF 1
ENDMDL
