MODEL 1
REMARK minimizedAffinity -4.51609945
REMARK minimizedRMSD -1
REMARK  1 active torsions:
REMARK  status: ('A' for Active; 'I' for Inactive)
REMARK    1  A    between atoms: C1_2  and  C2_3 
ROOT
ATOM      1  C2  UNL d   1       1.353   0.555  -0.910  0.00  0.00    -0.081 A 
ATOM      2  C3  UNL d   1       1.558   0.008   0.362  0.00  0.00     0.006 A 
ATOM      3  C4  UNL d   1       0.553   0.068   1.330  0.00  0.00     0.002 A 
ATOM      4  C5  UNL d   1      -0.676   0.669   1.040  0.00  0.00    -0.080 A 
ATOM      5  C6  UNL d   1      -1.775   0.714   2.061  0.00  0.00     0.076 C 
ATOM      6  C7  UNL d   1      -0.876   1.232  -0.225  0.00  0.00     0.002 A 
ATOM      7  C8  UNL d   1       0.129   1.172  -1.193  0.00  0.00     0.006 A 
ENDROOT
BRANCH   1   8
ATOM      8  C1  UNL d   1       2.411   0.435  -1.977  0.00  0.00     0.054 C 
ATOM      9  C   UNL d   1       2.516  -0.993  -2.493  0.00  0.00     0.018 C 
ENDBRANCH   1   8
TORSDOF 1
ENDMDL
