MODEL 1
REMARK minimizedAffinity -3.47496486
REMARK minimizedRMSD -1
REMARK  1 active torsions:
REMARK  status: ('A' for Active; 'I' for Inactive)
REMARK    1  A    between atoms: C1_2  and  C2_3 
ROOT
ATOM      1  C2  UNL d   1      -1.183   0.449   0.346  0.00  0.00    -0.081 A 
ATOM      2  C3  UNL d   1      -0.485   1.151  -0.645  0.00  0.00     0.006 A 
ATOM      3  C4  UNL d   1       0.609   0.568  -1.288  0.00  0.00     0.002 A 
ATOM      4  C5  UNL d   1       1.019  -0.728  -0.956  0.00  0.00    -0.080 A 
ATOM      5  C6  UNL d   1       2.174  -1.377  -1.660  0.00  0.00     0.076 C 
ATOM      6  C7  UNL d   1       0.333  -1.422   0.046  0.00  0.00     0.002 A 
ATOM      7  C8  UNL d   1      -0.761  -0.840   0.690  0.00  0.00     0.006 A 
ENDROOT
BRANCH   1   8
ATOM      8  C1  UNL d   1      -2.403   1.050   0.996  0.00  0.00     0.054 C 
ATOM      9  C   UNL d   1      -2.848   0.233   2.201  0.00  0.00     0.018 C 
ENDBRANCH   1   8
TORSDOF 1
ENDMDL
