MODEL 1
REMARK minimizedAffinity -1.49758708
REMARK minimizedRMSD -1
REMARK  1 active torsions:
REMARK  status: ('A' for Active; 'I' for Inactive)
REMARK    1  A    between atoms: C1_2  and  C2_3 
ROOT
ATOM      1  C2  UNL d   1      -1.268   0.382   1.245  0.00  0.00    -0.081 A 
ATOM      2  C3  UNL d   1      -0.210  -0.390   1.740  0.00  0.00     0.006 A 
ATOM      3  C4  UNL d   1       0.594  -1.130   0.870  0.00  0.00     0.002 A 
ATOM      4  C5  UNL d   1       0.359  -1.104  -0.509  0.00  0.00    -0.080 A 
ATOM      5  C6  UNL d   1       1.234  -1.870  -1.456  0.00  0.00     0.076 C 
ATOM      6  C7  UNL d   1      -0.709  -0.347  -1.002  0.00  0.00     0.002 A 
ATOM      7  C8  UNL d   1      -1.513   0.393  -0.132  0.00  0.00     0.006 A 
ENDROOT
BRANCH   1   8
ATOM      8  C1  UNL d   1      -2.097   1.232   2.174  0.00  0.00     0.054 C 
ATOM      9  C   UNL d   1      -1.969   0.763   3.616  0.00  0.00     0.018 C 
ENDBRANCH   1   8
TORSDOF 1
ENDMDL
