MODEL 1
REMARK minimizedAffinity -4.57299566
REMARK minimizedRMSD -1
REMARK  1 active torsions:
REMARK  status: ('A' for Active; 'I' for Inactive)
REMARK    1  A    between atoms: C1_2  and  C2_3 
ROOT
ATOM      1  C2  UNL d   1       0.351  -0.931   0.512  0.00  0.00    -0.081 A 
ATOM      2  C3  UNL d   1       0.795  -0.702   1.820  0.00  0.00     0.006 A 
ATOM      3  C4  UNL d   1       0.226   0.313   2.593  0.00  0.00     0.002 A 
ATOM      4  C5  UNL d   1      -0.800   1.109   2.075  0.00  0.00    -0.080 A 
ATOM      5  C6  UNL d   1      -1.441   2.182   2.905  0.00  0.00     0.076 C 
ATOM      6  C7  UNL d   1      -1.232   0.892   0.762  0.00  0.00     0.002 A 
ATOM      7  C8  UNL d   1      -0.663  -0.122  -0.012  0.00  0.00     0.006 A 
ENDROOT
BRANCH   1   8
ATOM      8  C1  UNL d   1       0.918  -2.067  -0.302  0.00  0.00     0.054 C 
ATOM      9  C   UNL d   1       2.234  -1.674  -0.958  0.00  0.00     0.018 C 
ENDBRANCH   1   8
TORSDOF 1
ENDMDL
