MODEL 1
REMARK minimizedAffinity -1.84275198
REMARK minimizedRMSD -1
REMARK  1 active torsions:
REMARK  status: ('A' for Active; 'I' for Inactive)
REMARK    1  A    between atoms: C1_2  and  C2_3 
ROOT
ATOM      1  C2  UNL d   1      -1.019   0.159   1.003  0.00  0.00    -0.081 A 
ATOM      2  C3  UNL d   1      -0.827   0.572  -0.321  0.00  0.00     0.006 A 
ATOM      3  C4  UNL d   1       0.122  -0.058  -1.130  0.00  0.00     0.002 A 
ATOM      4  C5  UNL d   1       0.889  -1.116  -0.631  0.00  0.00    -0.080 A 
ATOM      5  C6  UNL d   1       1.890  -1.820  -1.498  0.00  0.00     0.076 C 
ATOM      6  C7  UNL d   1       0.710  -1.518   0.697  0.00  0.00     0.002 A 
ATOM      7  C8  UNL d   1      -0.238  -0.888   1.506  0.00  0.00     0.006 A 
ENDROOT
BRANCH   1   8
ATOM      8  C1  UNL d   1      -2.086   0.793   1.857  0.00  0.00     0.054 C 
ATOM      9  C   UNL d   1      -2.641  -0.195   2.873  0.00  0.00     0.018 C 
ENDBRANCH   1   8
TORSDOF 1
ENDMDL
