MODEL 1
REMARK minimizedAffinity -4.93624067
REMARK minimizedRMSD -1
REMARK  1 active torsions:
REMARK  status: ('A' for Active; 'I' for Inactive)
REMARK    1  A    between atoms: C1_2  and  C2_3 
ROOT
ATOM      1  C2  UNL d   1      -1.224   0.724   1.027  0.00  0.00    -0.081 A 
ATOM      2  C3  UNL d   1      -1.037   1.199  -0.277  0.00  0.00     0.006 A 
ATOM      3  C4  UNL d   1       0.088   0.822  -1.014  0.00  0.00     0.002 A 
ATOM      4  C5  UNL d   1       1.041  -0.041  -0.462  0.00  0.00    -0.080 A 
ATOM      5  C6  UNL d   1       2.239  -0.477  -1.252  0.00  0.00     0.076 C 
ATOM      6  C7  UNL d   1       0.864  -0.501   0.848  0.00  0.00     0.002 A 
ATOM      7  C8  UNL d   1      -0.261  -0.124   1.585  0.00  0.00     0.006 A 
ENDROOT
BRANCH   1   8
ATOM      8  C1  UNL d   1      -2.469   1.077   1.800  0.00  0.00     0.054 C 
ATOM      9  C   UNL d   1      -2.127   1.703   3.144  0.00  0.00     0.018 C 
ENDBRANCH   1   8
TORSDOF 1
ENDMDL
