MODEL 1
REMARK minimizedAffinity -4.65956116
REMARK minimizedRMSD -1
REMARK  1 active torsions:
REMARK  status: ('A' for Active; 'I' for Inactive)
REMARK    1  A    between atoms: C1_2  and  C2_3 
ROOT
ATOM      1  C2  UNL d   1       2.012   0.426  -1.643  0.00  0.00    -0.081 A 
ATOM      2  C3  UNL d   1       2.977  -0.400  -1.053  0.00  0.00     0.006 A 
ATOM      3  C4  UNL d   1       2.738  -0.993   0.189  0.00  0.00     0.002 A 
ATOM      4  C5  UNL d   1       1.529  -0.777   0.858  0.00  0.00    -0.080 A 
ATOM      5  C6  UNL d   1       1.247  -1.432   2.177  0.00  0.00     0.076 C 
ATOM      6  C7  UNL d   1       0.572   0.062   0.277  0.00  0.00     0.002 A 
ATOM      7  C8  UNL d   1       0.810   0.656  -0.965  0.00  0.00     0.006 A 
ENDROOT
BRANCH   1   8
ATOM      8  C1  UNL d   1       2.241   1.015  -3.011  0.00  0.00     0.054 C 
ATOM      9  C   UNL d   1       1.237   2.119  -3.313  0.00  0.00     0.018 C 
ENDBRANCH   1   8
TORSDOF 1
ENDMDL
