MODEL 1
REMARK minimizedAffinity -0.765009642
REMARK minimizedRMSD -1
REMARK  1 active torsions:
REMARK  status: ('A' for Active; 'I' for Inactive)
REMARK    1  A    between atoms: C1_2  and  C2_3 
ROOT
ATOM      1  C2  UNL d   1       0.997  -0.675  -1.299  0.00  0.00    -0.081 A 
ATOM      2  C3  UNL d   1       0.183   0.446  -1.502  0.00  0.00     0.006 A 
ATOM      3  C4  UNL d   1      -0.746   0.831  -0.532  0.00  0.00     0.002 A 
ATOM      4  C5  UNL d   1      -0.872   0.106   0.658  0.00  0.00    -0.080 A 
ATOM      5  C6  UNL d   1      -1.845   0.526   1.719  0.00  0.00     0.076 C 
ATOM      6  C7  UNL d   1      -0.071  -1.024   0.853  0.00  0.00     0.002 A 
ATOM      7  C8  UNL d   1       0.858  -1.410  -0.116  0.00  0.00     0.006 A 
ENDROOT
BRANCH   1   8
ATOM      8  C1  UNL d   1       2.046  -1.055  -2.313  0.00  0.00     0.054 C 
ATOM      9  C   UNL d   1       2.205   0.025  -3.374  0.00  0.00     0.018 C 
ENDBRANCH   1   8
TORSDOF 1
ENDMDL
