MODEL 1
REMARK minimizedAffinity -3.96851182
REMARK minimizedRMSD -1
REMARK  1 active torsions:
REMARK  status: ('A' for Active; 'I' for Inactive)
REMARK    1  A    between atoms: C1_2  and  C2_3 
ROOT
ATOM      1  C2  UNL d   1      -0.938   0.042   1.304  0.00  0.00    -0.081 A 
ATOM      2  C3  UNL d   1      -0.829   0.657   0.050  0.00  0.00     0.006 A 
ATOM      3  C4  UNL d   1       0.025   0.133  -0.923  0.00  0.00     0.002 A 
ATOM      4  C5  UNL d   1       0.777  -1.018  -0.663  0.00  0.00    -0.080 A 
ATOM      5  C6  UNL d   1       1.674  -1.607  -1.711  0.00  0.00     0.076 C 
ATOM      6  C7  UNL d   1       0.681  -1.622   0.595  0.00  0.00     0.002 A 
ATOM      7  C8  UNL d   1      -0.172  -1.098   1.569  0.00  0.00     0.006 A 
ENDROOT
BRANCH   1   8
ATOM      8  C1  UNL d   1      -1.906   0.567   2.333  0.00  0.00     0.054 C 
ATOM      9  C   UNL d   1      -1.527   1.970   2.784  0.00  0.00     0.018 C 
ENDBRANCH   1   8
TORSDOF 1
ENDMDL
