MODEL 1
REMARK minimizedAffinity -5.08622265
REMARK minimizedRMSD -1
REMARK  1 active torsions:
REMARK  status: ('A' for Active; 'I' for Inactive)
REMARK    1  A    between atoms: C1_2  and  C2_3 
ROOT
ATOM      1  C2  UNL d   1       0.668  -0.255  -0.905  0.00  0.00    -0.081 A 
ATOM      2  C3  UNL d   1      -0.596   0.288  -1.167  0.00  0.00     0.006 A 
ATOM      3  C4  UNL d   1      -1.442   0.652  -0.117  0.00  0.00     0.002 A 
ATOM      4  C5  UNL d   1      -1.036   0.487   1.211  0.00  0.00    -0.080 A 
ATOM      5  C6  UNL d   1      -1.922   0.902   2.348  0.00  0.00     0.076 C 
ATOM      6  C7  UNL d   1       0.220  -0.071   1.474  0.00  0.00     0.002 A 
ATOM      7  C8  UNL d   1       1.066  -0.436   0.424  0.00  0.00     0.006 A 
ENDROOT
BRANCH   1   8
ATOM      8  C1  UNL d   1       1.609  -0.588  -2.035  0.00  0.00     0.054 C 
ATOM      9  C   UNL d   1       1.762   0.585  -2.992  0.00  0.00     0.018 C 
ENDBRANCH   1   8
TORSDOF 1
ENDMDL
