MODEL 1
REMARK minimizedAffinity -5.11531878
REMARK minimizedRMSD -1
REMARK  1 active torsions:
REMARK  status: ('A' for Active; 'I' for Inactive)
REMARK    1  A    between atoms: C1_2  and  C2_3 
ROOT
ATOM      1  C2  UNL d   1      -0.899   1.139   1.646  0.00  0.00    -0.081 A 
ATOM      2  C3  UNL d   1      -1.287   1.146   0.300  0.00  0.00     0.006 A 
ATOM      3  C4  UNL d   1      -0.586   0.392  -0.643  0.00  0.00     0.002 A 
ATOM      4  C5  UNL d   1       0.510  -0.388  -0.256  0.00  0.00    -0.080 A 
ATOM      5  C6  UNL d   1       1.253  -1.226  -1.254  0.00  0.00     0.076 C 
ATOM      6  C7  UNL d   1       0.908  -0.381   1.085  0.00  0.00     0.002 A 
ATOM      7  C8  UNL d   1       0.208   0.374   2.028  0.00  0.00     0.006 A 
ENDROOT
BRANCH   1   8
ATOM      8  C1  UNL d   1      -1.692   1.901   2.676  0.00  0.00     0.054 C 
ATOM      9  C   UNL d   1      -2.868   1.081   3.186  0.00  0.00     0.018 C 
ENDBRANCH   1   8
TORSDOF 1
ENDMDL
