MODEL 1
REMARK minimizedAffinity -3.41147661
REMARK minimizedRMSD -1
REMARK  3 active torsions:
REMARK  status: ('A' for Active; 'I' for Inactive)
REMARK    1  A    between atoms: C3'_2  and  C2'_3 
REMARK    2  A    between atoms: C2'_3  and  C1'_4 
REMARK    3  A    between atoms: C1'_4  and  C1_5 
ROOT
ATOM      1  C1  N4B d   1       1.400  -0.207   0.583  0.00  0.00    -0.075 A 
ATOM      2  C2  N4B d   1       1.595   1.190   0.517  0.00  0.00     0.002 A 
ATOM      3  C3  N4B d   1       0.567   2.009   0.119  0.00  0.00     0.002 A 
ATOM      4  C4  N4B d   1      -0.654   1.454  -0.236  0.00  0.00    -0.004 A 
ATOM      5  C5  N4B d   1      -0.842   0.106  -0.145  0.00  0.00     0.002 A 
ATOM      6  C6  N4B d   1       0.181  -0.729   0.257  0.00  0.00     0.002 A 
ENDROOT
BRANCH   1   7
ATOM      7  C1' N4B d   1       2.519  -1.150   0.930  0.00  0.00     0.057 C 
BRANCH   7   8
ATOM      8  C2' N4B d   1       3.437  -1.305  -0.279  0.00  0.00     0.009 C 
BRANCH   8   9
ATOM      9  C3' N4B d   1       2.754  -2.037  -1.421  0.00  0.00     0.004 C 
ATOM     10  C4' N4B d   1       3.463  -1.861  -2.731  0.00  0.00     0.003 C 
ENDBRANCH   8   9
ENDBRANCH   7   8
ENDBRANCH   1   7
TORSDOF 3
ENDMDL
