MODEL 1
REMARK minimizedAffinity -6.57685328
REMARK minimizedRMSD -1
REMARK  3 active torsions:
REMARK  status: ('A' for Active; 'I' for Inactive)
REMARK    1  A    between atoms: C3'_2  and  C2'_3 
REMARK    2  A    between atoms: C2'_3  and  C1'_4 
REMARK    3  A    between atoms: C1'_4  and  C1_5 
ROOT
ATOM      1  C1  N4B d   1       3.229  -0.055   0.265  0.00  0.00    -0.075 A 
ATOM      2  C2  N4B d   1       4.009  -0.008  -0.911  0.00  0.00     0.002 A 
ATOM      3  C3  N4B d   1       4.684   1.141  -1.242  0.00  0.00     0.002 A 
ATOM      4  C4  N4B d   1       4.580   2.257  -0.425  0.00  0.00    -0.004 A 
ATOM      5  C5  N4B d   1       3.845   2.195   0.723  0.00  0.00     0.002 A 
ATOM      6  C6  N4B d   1       3.164   1.045   1.069  0.00  0.00     0.002 A 
ENDROOT
BRANCH   1   7
ATOM      7  C1' N4B d   1       2.404  -1.261   0.623  0.00  0.00     0.057 C 
BRANCH   7   8
ATOM      8  C2' N4B d   1       1.063  -0.801   1.186  0.00  0.00     0.009 C 
BRANCH   8   9
ATOM      9  C3' N4B d   1      -0.029  -0.805   0.130  0.00  0.00     0.004 C 
ATOM     10  C4' N4B d   1      -0.876   0.432   0.166  0.00  0.00     0.003 C 
ENDBRANCH   8   9
ENDBRANCH   7   8
ENDBRANCH   1   7
TORSDOF 3
ENDMDL
