MODEL 1
REMARK minimizedAffinity -5.71332932
REMARK minimizedRMSD -1
REMARK  3 active torsions:
REMARK  status: ('A' for Active; 'I' for Inactive)
REMARK    1  A    between atoms: C3'_2  and  C2'_3 
REMARK    2  A    between atoms: C2'_3  and  C1'_4 
REMARK    3  A    between atoms: C1'_4  and  C1_5 
ROOT
ATOM      1  C1  N4B d   1       0.540   0.698   0.132  0.00  0.00    -0.075 A 
ATOM      2  C2  N4B d   1       0.679  -0.694  -0.057  0.00  0.00     0.002 A 
ATOM      3  C3  N4B d   1       1.929  -1.260  -0.102  0.00  0.00     0.002 A 
ATOM      4  C4  N4B d   1       3.051  -0.453   0.019  0.00  0.00    -0.004 A 
ATOM      5  C5  N4B d   1       2.908   0.887   0.227  0.00  0.00     0.002 A 
ATOM      6  C6  N4B d   1       1.657   1.469   0.279  0.00  0.00     0.002 A 
ENDROOT
BRANCH   1   7
ATOM      7  C1' N4B d   1      -0.804   1.374   0.103  0.00  0.00     0.057 C 
BRANCH   7   8
ATOM      8  C2' N4B d   1      -1.889   0.321  -0.107  0.00  0.00     0.009 C 
BRANCH   8   9
ATOM      9  C3' N4B d   1      -3.283   0.921  -0.036  0.00  0.00     0.004 C 
ATOM     10  C4' N4B d   1      -3.897   0.804   1.327  0.00  0.00     0.003 C 
ENDBRANCH   8   9
ENDBRANCH   7   8
ENDBRANCH   1   7
TORSDOF 3
ENDMDL
