MODEL 1
REMARK minimizedAffinity -5.7378273
REMARK minimizedRMSD -1
REMARK  3 active torsions:
REMARK  status: ('A' for Active; 'I' for Inactive)
REMARK    1  A    between atoms: C3'_2  and  C2'_3 
REMARK    2  A    between atoms: C2'_3  and  C1'_4 
REMARK    3  A    between atoms: C1'_4  and  C1_5 
ROOT
ATOM      1  C1  N4B d   1       0.788   0.382   0.055  0.00  0.00    -0.075 A 
ATOM      2  C2  N4B d   1       0.885  -1.020   0.195  0.00  0.00     0.002 A 
ATOM      3  C3  N4B d   1       2.083  -1.595   0.540  0.00  0.00     0.002 A 
ATOM      4  C4  N4B d   1       3.198  -0.793   0.732  0.00  0.00    -0.004 A 
ATOM      5  C5  N4B d   1       3.090   0.563   0.620  0.00  0.00     0.002 A 
ATOM      6  C6  N4B d   1       1.891   1.154   0.277  0.00  0.00     0.002 A 
ENDROOT
BRANCH   1   7
ATOM      7  C1' N4B d   1      -0.480   1.048  -0.405  0.00  0.00     0.057 C 
BRANCH   7   8
ATOM      8  C2' N4B d   1      -1.677   0.304   0.179  0.00  0.00     0.009 C 
BRANCH   8   9
ATOM      9  C3' N4B d   1      -2.423   1.142   1.203  0.00  0.00     0.004 C 
ATOM     10  C4' N4B d   1      -3.706   0.506   1.650  0.00  0.00     0.003 C 
ENDBRANCH   8   9
ENDBRANCH   7   8
ENDBRANCH   1   7
TORSDOF 3
ENDMDL
