MODEL 1
REMARK minimizedAffinity 0.809897423
REMARK minimizedRMSD -1
REMARK  0 active torsions:
REMARK  status: ('A' for Active; 'I' for Inactive)
ROOT
ATOM      1  C   UNL d   1      -4.550  -5.999   0.501  0.00  0.00    -0.002 A 
ATOM      2  C1  UNL d   1      -5.452  -5.045   0.051  0.00  0.00     0.010 A 
ATOM      3  C2  UNL d   1      -5.952  -4.074   0.921  0.00  0.00     0.041 A 
ATOM      4  C3  UNL d   1      -5.523  -4.076   2.263  0.00  0.00    -0.075 A 
ATOM      5  S   UNL d   1      -6.000  -2.982   3.508  0.00  0.00     0.015 SA
ATOM      6  C4  UNL d   1      -5.016  -3.755   4.666  0.00  0.00     0.022 A 
ATOM      7  C5  UNL d   1      -4.335  -4.823   4.133  0.00  0.00     0.026 A 
ATOM      8  C6  UNL d   1      -4.615  -5.026   2.740  0.00  0.00    -0.082 A 
ATOM      9  C7  UNL d   1      -4.128  -5.998   1.833  0.00  0.00     0.045 A 
ENDROOT
TORSDOF 0
ENDMDL
