MODEL 1
REMARK minimizedAffinity 13.5052509
REMARK minimizedRMSD -1
REMARK  0 active torsions:
REMARK  status: ('A' for Active; 'I' for Inactive)
ROOT
ATOM      1  C   UNL d   1       2.034  -2.411  -2.594  0.00  0.00    -0.002 A 
ATOM      2  C1  UNL d   1       2.594  -2.672  -1.352  0.00  0.00     0.010 A 
ATOM      3  C2  UNL d   1       3.007  -1.625  -0.525  0.00  0.00     0.041 A 
ATOM      4  C3  UNL d   1       2.844  -0.299  -0.971  0.00  0.00    -0.075 A 
ATOM      5  S   UNL d   1       3.275   1.142  -0.129  0.00  0.00     0.015 SA
ATOM      6  C4  UNL d   1       2.724   2.138  -1.398  0.00  0.00     0.022 A 
ATOM      7  C5  UNL d   1       2.221   1.406  -2.446  0.00  0.00     0.026 A 
ATOM      8  C6  UNL d   1       2.281  -0.011  -2.218  0.00  0.00    -0.082 A 
ATOM      9  C7  UNL d   1       1.873  -1.094  -3.033  0.00  0.00     0.045 A 
ENDROOT
TORSDOF 0
ENDMDL
