MODEL 1
REMARK minimizedAffinity 12.5993032
REMARK minimizedRMSD -1
REMARK  0 active torsions:
REMARK  status: ('A' for Active; 'I' for Inactive)
ROOT
ATOM      1  C   UNL d   1       5.987  -4.924  -2.947  0.00  0.00    -0.002 A 
ATOM      2  C1  UNL d   1       6.000  -4.502  -4.269  0.00  0.00     0.010 A 
ATOM      3  C2  UNL d   1       4.834  -4.030  -4.876  0.00  0.00     0.041 A 
ATOM      4  C3  UNL d   1       3.644  -3.987  -4.124  0.00  0.00    -0.075 A 
ATOM      5  S   UNL d   1       2.096  -3.446  -4.658  0.00  0.00     0.015 SA
ATOM      6  C4  UNL d   1       1.381  -3.762  -3.143  0.00  0.00     0.022 A 
ATOM      7  C5  UNL d   1       2.286  -4.268  -2.241  0.00  0.00     0.026 A 
ATOM      8  C6  UNL d   1       3.606  -4.405  -2.791  0.00  0.00    -0.082 A 
ATOM      9  C7  UNL d   1       4.804  -4.879  -2.205  0.00  0.00     0.045 A 
ENDROOT
TORSDOF 0
ENDMDL
