MODEL 1
REMARK minimizedAffinity 3.65807819
REMARK minimizedRMSD -1
REMARK  0 active torsions:
REMARK  status: ('A' for Active; 'I' for Inactive)
ROOT
ATOM      1  C   UNL d   1       2.401  -0.868  -1.335  0.00  0.00    -0.002 A 
ATOM      2  C1  UNL d   1       3.210  -1.054  -0.223  0.00  0.00     0.010 A 
ATOM      3  C2  UNL d   1       3.850  -2.275  -0.007  0.00  0.00     0.041 A 
ATOM      4  C3  UNL d   1       3.665  -3.316  -0.938  0.00  0.00    -0.075 A 
ATOM      5  S   UNL d   1       4.350  -4.897  -0.880  0.00  0.00     0.015 SA
ATOM      6  C4  UNL d   1       3.586  -5.363  -2.331  0.00  0.00     0.022 A 
ATOM      7  C5  UNL d   1       2.823  -4.349  -2.860  0.00  0.00     0.026 A 
ATOM      8  C6  UNL d   1       2.856  -3.153  -2.066  0.00  0.00    -0.082 A 
ATOM      9  C7  UNL d   1       2.219  -1.903  -2.256  0.00  0.00     0.045 A 
ENDROOT
TORSDOF 0
ENDMDL
