MODEL 1
REMARK minimizedAffinity 4.16706705
REMARK minimizedRMSD -1
REMARK  0 active torsions:
REMARK  status: ('A' for Active; 'I' for Inactive)
ROOT
ATOM      1  C   UNL d   1       1.886  -3.787  -3.413  0.00  0.00    -0.002 A 
ATOM      2  C1  UNL d   1       3.048  -4.141  -4.085  0.00  0.00     0.010 A 
ATOM      3  C2  UNL d   1       4.203  -4.480  -3.376  0.00  0.00     0.041 A 
ATOM      4  C3  UNL d   1       4.169  -4.459  -1.968  0.00  0.00    -0.075 A 
ATOM      5  S   UNL d   1       5.462  -4.836  -0.892  0.00  0.00     0.015 SA
ATOM      6  C4  UNL d   1       4.502  -4.538   0.485  0.00  0.00     0.022 A 
ATOM      7  C5  UNL d   1       3.224  -4.158   0.150  0.00  0.00     0.026 A 
ATOM      8  C6  UNL d   1       3.011  -4.107  -1.269  0.00  0.00    -0.082 A 
ATOM      9  C7  UNL d   1       1.857  -3.767  -2.016  0.00  0.00     0.045 A 
ENDROOT
TORSDOF 0
ENDMDL
