MODEL 1
REMARK minimizedAffinity 16.6056976
REMARK minimizedRMSD -1
REMARK  0 active torsions:
REMARK  status: ('A' for Active; 'I' for Inactive)
ROOT
ATOM      1  C   UNL d   1      -3.395   1.384   3.384  0.00  0.00    -0.002 A 
ATOM      2  C1  UNL d   1      -2.560   1.106   2.312  0.00  0.00     0.010 A 
ATOM      3  C2  UNL d   1      -1.172   1.131   2.467  0.00  0.00     0.041 A 
ATOM      4  C3  UNL d   1      -0.633   1.441   3.731  0.00  0.00    -0.075 A 
ATOM      5  S   UNL d   1       1.035   1.529   4.156  0.00  0.00     0.015 SA
ATOM      6  C4  UNL d   1       0.679   1.938   5.772  0.00  0.00     0.022 A 
ATOM      7  C5  UNL d   1      -0.675   2.010   5.999  0.00  0.00     0.026 A 
ATOM      8  C6  UNL d   1      -1.454   1.724   4.826  0.00  0.00    -0.082 A 
ATOM      9  C7  UNL d   1      -2.856   1.692   4.637  0.00  0.00     0.045 A 
ENDROOT
TORSDOF 0
ENDMDL
