MODEL 1
REMARK minimizedAffinity 12.6451607
REMARK minimizedRMSD -1
REMARK  0 active torsions:
REMARK  status: ('A' for Active; 'I' for Inactive)
ROOT
ATOM      1  C   UNL d   1      -3.465   0.335   2.327  0.00  0.00    -0.002 A 
ATOM      2  C1  UNL d   1      -4.095   1.105   3.293  0.00  0.00     0.010 A 
ATOM      3  C2  UNL d   1      -3.364   1.665   4.343  0.00  0.00     0.041 A 
ATOM      4  C3  UNL d   1      -1.976   1.437   4.404  0.00  0.00    -0.075 A 
ATOM      5  S   UNL d   1      -0.877   2.022   5.597  0.00  0.00     0.015 SA
ATOM      6  C4  UNL d   1       0.454   1.265   4.851  0.00  0.00     0.022 A 
ATOM      7  C5  UNL d   1       0.088   0.577   3.718  0.00  0.00     0.026 A 
ATOM      8  C6  UNL d   1      -1.318   0.665   3.442  0.00  0.00    -0.082 A 
ATOM      9  C7  UNL d   1      -2.087   0.111   2.390  0.00  0.00     0.045 A 
ENDROOT
TORSDOF 0
ENDMDL
