MODEL 1
REMARK minimizedAffinity 12.9498863
REMARK minimizedRMSD -1
REMARK  0 active torsions:
REMARK  status: ('A' for Active; 'I' for Inactive)
ROOT
ATOM      1  C   UNL d   1       1.222   1.601   4.926  0.00  0.00    -0.002 A 
ATOM      2  C1  UNL d   1       0.524   2.136   6.000  0.00  0.00     0.010 A 
ATOM      3  C2  UNL d   1      -0.857   2.329   5.924  0.00  0.00     0.041 A 
ATOM      4  C3  UNL d   1      -1.531   1.969   4.741  0.00  0.00    -0.075 A 
ATOM      5  S   UNL d   1      -3.220   2.114   4.422  0.00  0.00     0.015 SA
ATOM      6  C4  UNL d   1      -3.054   1.468   2.853  0.00  0.00     0.022 A 
ATOM      7  C5  UNL d   1      -1.750   1.144   2.564  0.00  0.00     0.026 A 
ATOM      8  C6  UNL d   1      -0.851   1.427   3.647  0.00  0.00    -0.082 A 
ATOM      9  C7  UNL d   1       0.549   1.246   3.754  0.00  0.00     0.045 A 
ENDROOT
TORSDOF 0
ENDMDL
