MODEL 1
REMARK minimizedAffinity 5.83819628
REMARK minimizedRMSD -1
REMARK  3 active torsions:
REMARK  status: ('A' for Active; 'I' for Inactive)
REMARK    1  A    between atoms: C3'_2  and  C2'_3 
REMARK    2  A    between atoms: C2'_3  and  C1'_4 
REMARK    3  A    between atoms: C1'_4  and  C1_5 
ROOT
ATOM      1  C1  N4B d   1      -1.576   2.181   2.375  0.00  0.00    -0.075 A 
ATOM      2  C2  N4B d   1      -1.690   0.821   2.012  0.00  0.00     0.002 A 
ATOM      3  C3  N4B d   1      -0.587   0.135   1.565  0.00  0.00     0.002 A 
ATOM      4  C4  N4B d   1       0.630   0.790   1.455  0.00  0.00    -0.004 A 
ATOM      5  C5  N4B d   1       0.738   2.097   1.832  0.00  0.00     0.002 A 
ATOM      6  C6  N4B d   1      -0.361   2.798   2.287  0.00  0.00     0.002 A 
ENDROOT
BRANCH   1   7
ATOM      7  C1' N4B d   1      -2.771   2.996   2.788  0.00  0.00     0.057 C 
BRANCH   7   8
ATOM      8  C2' N4B d   1      -3.593   2.203   3.799  0.00  0.00     0.009 C 
BRANCH   8   9
ATOM      9  C3' N4B d   1      -4.696   3.043   4.419  0.00  0.00     0.004 C 
ATOM     10  C4' N4B d   1      -5.009   2.641   5.830  0.00  0.00     0.003 C 
ENDBRANCH   8   9
ENDBRANCH   7   8
ENDBRANCH   1   7
TORSDOF 3
ENDMDL
