MODEL 1
REMARK minimizedAffinity 9.57248306
REMARK minimizedRMSD -1
REMARK  3 active torsions:
REMARK  status: ('A' for Active; 'I' for Inactive)
REMARK    1  A    between atoms: C3'_2  and  C2'_3 
REMARK    2  A    between atoms: C2'_3  and  C1'_4 
REMARK    3  A    between atoms: C1'_4  and  C1_5 
ROOT
ATOM      1  C1  N4B d   1       2.287   0.180  -0.508  0.00  0.00    -0.075 A 
ATOM      2  C2  N4B d   1       2.761  -1.041  -1.036  0.00  0.00     0.002 A 
ATOM      3  C3  N4B d   1       3.286  -1.083  -2.304  0.00  0.00     0.002 A 
ATOM      4  C4  N4B d   1       3.330   0.074  -3.067  0.00  0.00    -0.004 A 
ATOM      5  C5  N4B d   1       2.894   1.254  -2.541  0.00  0.00     0.002 A 
ATOM      6  C6  N4B d   1       2.367   1.313  -1.266  0.00  0.00     0.002 A 
ENDROOT
BRANCH   1   7
ATOM      7  C1' N4B d   1       1.626   0.259   0.840  0.00  0.00     0.057 C 
BRANCH   7   8
ATOM      8  C2' N4B d   1       1.172   1.694   1.092  0.00  0.00     0.009 C 
BRANCH   8   9
ATOM      9  C3' N4B d   1      -0.148   1.749   1.841  0.00  0.00     0.004 C 
ATOM     10  C4' N4B d   1      -1.273   2.272   0.998  0.00  0.00     0.003 C 
ENDBRANCH   8   9
ENDBRANCH   7   8
ENDBRANCH   1   7
TORSDOF 3
ENDMDL
