MODEL 1
REMARK minimizedAffinity 1.7613821
REMARK minimizedRMSD -1
REMARK  3 active torsions:
REMARK  status: ('A' for Active; 'I' for Inactive)
REMARK    1  A    between atoms: C3'_2  and  C2'_3 
REMARK    2  A    between atoms: C2'_3  and  C1'_4 
REMARK    3  A    between atoms: C1'_4  and  C1_5 
ROOT
ATOM      1  C1  N4B d   1       1.045   0.709   0.844  0.00  0.00    -0.075 A 
ATOM      2  C2  N4B d   1      -0.209   1.358   0.833  0.00  0.00     0.002 A 
ATOM      3  C3  N4B d   1      -1.264   0.825   1.533  0.00  0.00     0.002 A 
ATOM      4  C4  N4B d   1      -1.094  -0.360   2.232  0.00  0.00    -0.004 A 
ATOM      5  C5  N4B d   1       0.127  -0.967   2.259  0.00  0.00     0.002 A 
ATOM      6  C6  N4B d   1       1.197  -0.441   1.564  0.00  0.00     0.002 A 
ENDROOT
BRANCH   1   7
ATOM      7  C1' N4B d   1       2.204   1.207   0.025  0.00  0.00     0.057 C 
BRANCH   7   8
ATOM      8  C2' N4B d   1       2.958   0.013  -0.554  0.00  0.00     0.009 C 
BRANCH   8   9
ATOM      9  C3' N4B d   1       3.404   0.263  -1.984  0.00  0.00     0.004 C 
ATOM     10  C4' N4B d   1       3.045   1.634  -2.474  0.00  0.00     0.003 C 
ENDBRANCH   8   9
ENDBRANCH   7   8
ENDBRANCH   1   7
TORSDOF 3
ENDMDL
