MODEL 1
REMARK minimizedAffinity 1.07025278
REMARK minimizedRMSD -1
REMARK  3 active torsions:
REMARK  status: ('A' for Active; 'I' for Inactive)
REMARK    1  A    between atoms: C3'_2  and  C2'_3 
REMARK    2  A    between atoms: C2'_3  and  C1'_4 
REMARK    3  A    between atoms: C1'_4  and  C1_5 
ROOT
ATOM      1  C1  N4B d   1       0.831   1.433   1.021  0.00  0.00    -0.075 A 
ATOM      2  C2  N4B d   1       0.268   2.717   1.196  0.00  0.00     0.002 A 
ATOM      3  C3  N4B d   1      -1.010   2.845   1.682  0.00  0.00     0.002 A 
ATOM      4  C4  N4B d   1      -1.747   1.710   1.982  0.00  0.00    -0.004 A 
ATOM      5  C5  N4B d   1      -1.187   0.475   1.835  0.00  0.00     0.002 A 
ATOM      6  C6  N4B d   1       0.098   0.330   1.350  0.00  0.00     0.002 A 
ENDROOT
BRANCH   1   7
ATOM      7  C1' N4B d   1       2.192   1.240   0.411  0.00  0.00     0.057 C 
BRANCH   7   8
ATOM      8  C2' N4B d   1       2.986   0.252   1.261  0.00  0.00     0.009 C 
BRANCH   8   9
ATOM      9  C3' N4B d   1       3.752  -0.745   0.409  0.00  0.00     0.004 C 
ATOM     10  C4' N4B d   1       3.080  -1.024  -0.903  0.00  0.00     0.003 C 
ENDBRANCH   8   9
ENDBRANCH   7   8
ENDBRANCH   1   7
TORSDOF 3
ENDMDL
