MODEL 1
REMARK minimizedAffinity 3.28291726
REMARK minimizedRMSD -1
REMARK  3 active torsions:
REMARK  status: ('A' for Active; 'I' for Inactive)
REMARK    1  A    between atoms: C3'_2  and  C2'_3 
REMARK    2  A    between atoms: C2'_3  and  C1'_4 
REMARK    3  A    between atoms: C1'_4  and  C1_5 
ROOT
ATOM      1  C1  N4B d   1       1.552   0.415   0.909  0.00  0.00    -0.075 A 
ATOM      2  C2  N4B d   1       1.256   1.792   1.012  0.00  0.00     0.002 A 
ATOM      3  C3  N4B d   1      -0.044   2.205   1.172  0.00  0.00     0.002 A 
ATOM      4  C4  N4B d   1      -1.062   1.264   1.212  0.00  0.00    -0.004 A 
ATOM      5  C5  N4B d   1      -0.765  -0.065   1.137  0.00  0.00     0.002 A 
ATOM      6  C6  N4B d   1       0.537  -0.495   0.981  0.00  0.00     0.002 A 
ENDROOT
BRANCH   1   7
ATOM      7  C1' N4B d   1       2.949  -0.080   0.648  0.00  0.00     0.057 C 
BRANCH   7   8
ATOM      8  C2' N4B d   1       3.040  -0.588  -0.788  0.00  0.00     0.009 C 
BRANCH   8   9
ATOM      9  C3' N4B d   1       3.476   0.503  -1.750  0.00  0.00     0.004 C 
ATOM     10  C4' N4B d   1       2.332   1.350  -2.225  0.00  0.00     0.003 C 
ENDBRANCH   8   9
ENDBRANCH   7   8
ENDBRANCH   1   7
TORSDOF 3
ENDMDL
