MODEL 1
REMARK minimizedAffinity -4.94667435
REMARK minimizedRMSD -1
REMARK  0 active torsions:
REMARK  status: ('A' for Active; 'I' for Inactive)
ROOT
ATOM      1  C   UNL d   1       3.012  -2.258   2.244  0.00  0.00     0.023 A 
ATOM      2  C1  UNL d   1       3.423  -1.261   1.359  0.00  0.00     0.003 A 
ATOM      3  C2  UNL d   1       2.484  -0.391   0.800  0.00  0.00     0.048 A 
ATOM      4  C3  UNL d   1       1.136  -0.523   1.132  0.00  0.00     0.023 A 
ATOM      5  C4  UNL d   1       0.720  -1.519   2.017  0.00  0.00     0.048 A 
ATOM      6  C5  UNL d   1       1.662  -2.387   2.572  0.00  0.00     0.003 A 
ATOM      7  I   UNL d   1      -0.263   0.771   0.302  0.00  0.00    -0.146 I 
ENDROOT
TORSDOF 0
ENDMDL
