MODEL 1
REMARK minimizedAffinity 2.54374599
REMARK minimizedRMSD -1
REMARK  0 active torsions:
REMARK  status: ('A' for Active; 'I' for Inactive)
ROOT
ATOM      1  C   UNL d   1      -2.029   4.804   1.931  0.00  0.00     0.023 A 
ATOM      2  C1  UNL d   1      -0.740   4.845   1.399  0.00  0.00     0.003 A 
ATOM      3  C2  UNL d   1      -0.160   3.686   0.879  0.00  0.00     0.048 A 
ATOM      4  C3  UNL d   1      -0.876   2.489   0.894  0.00  0.00     0.023 A 
ATOM      5  C4  UNL d   1      -2.166   2.443   1.424  0.00  0.00     0.048 A 
ATOM      6  C5  UNL d   1      -2.741   3.605   1.943  0.00  0.00     0.003 A 
ATOM      7  I   UNL d   1      -0.016   0.762   0.121  0.00  0.00    -0.146 I 
ENDROOT
TORSDOF 0
ENDMDL
