MODEL 1
REMARK minimizedAffinity -4.67648268
REMARK minimizedRMSD -1
REMARK  0 active torsions:
REMARK  status: ('A' for Active; 'I' for Inactive)
ROOT
ATOM      1  C   UNL d   1       2.740  -0.166   1.186  0.00  0.00     0.023 A 
ATOM      2  C1  UNL d   1       2.037  -1.361   1.027  0.00  0.00     0.003 A 
ATOM      3  C2  UNL d   1       0.805  -1.365   0.370  0.00  0.00     0.048 A 
ATOM      4  C3  UNL d   1       0.282  -0.172  -0.128  0.00  0.00     0.023 A 
ATOM      5  C4  UNL d   1       0.982   1.025   0.028  0.00  0.00     0.048 A 
ATOM      6  C5  UNL d   1       2.213   1.025   0.687  0.00  0.00     0.003 A 
ATOM      7  I   UNL d   1      -1.551  -0.176  -1.107  0.00  0.00    -0.146 I 
ENDROOT
TORSDOF 0
ENDMDL
