MODEL 1
REMARK minimizedAffinity -3.76191592
REMARK minimizedRMSD -1
REMARK  0 active torsions:
REMARK  status: ('A' for Active; 'I' for Inactive)
ROOT
ATOM      1  C   UNL d   1       3.631  -0.770   1.149  0.00  0.00     0.023 A 
ATOM      2  C1  UNL d   1       2.914   0.346   1.582  0.00  0.00     0.003 A 
ATOM      3  C2  UNL d   1       1.621   0.574   1.105  0.00  0.00     0.048 A 
ATOM      4  C3  UNL d   1       1.052  -0.318   0.197  0.00  0.00     0.023 A 
ATOM      5  C4  UNL d   1       1.765  -1.436  -0.238  0.00  0.00     0.048 A 
ATOM      6  C5  UNL d   1       3.058  -1.659   0.241  0.00  0.00     0.003 A 
ATOM      7  I   UNL d   1      -0.872   0.020  -0.513  0.00  0.00    -0.146 I 
ENDROOT
TORSDOF 0
ENDMDL
