MODEL 1
REMARK minimizedAffinity -0.341644436
REMARK minimizedRMSD -1
REMARK  0 active torsions:
REMARK  status: ('A' for Active; 'I' for Inactive)
ROOT
ATOM      1  C   UNL d   1       0.924  -1.137  -0.387  0.00  0.00     0.023 A 
ATOM      2  C1  UNL d   1       0.469   0.182  -0.369  0.00  0.00     0.003 A 
ATOM      3  C2  UNL d   1       0.975   1.083   0.571  0.00  0.00     0.048 A 
ATOM      4  C3  UNL d   1       1.936   0.660   1.488  0.00  0.00     0.023 A 
ATOM      5  C4  UNL d   1       2.395  -0.658   1.473  0.00  0.00     0.048 A 
ATOM      6  C5  UNL d   1       1.886  -1.556   0.533  0.00  0.00     0.003 A 
ATOM      7  I   UNL d   1       2.690   2.000   2.886  0.00  0.00    -0.146 I 
ENDROOT
TORSDOF 0
ENDMDL
