MODEL 1
REMARK minimizedAffinity -2.02849245
REMARK minimizedRMSD -1
REMARK  0 active torsions:
REMARK  status: ('A' for Active; 'I' for Inactive)
ROOT
ATOM      1  C   UNL d   1       1.738  -2.279   0.660  0.00  0.00     0.023 A 
ATOM      2  C1  UNL d   1       2.384  -1.072   0.391  0.00  0.00     0.003 A 
ATOM      3  C2  UNL d   1       1.648   0.113   0.312  0.00  0.00     0.048 A 
ATOM      4  C3  UNL d   1       0.267   0.083   0.505  0.00  0.00     0.023 A 
ATOM      5  C4  UNL d   1      -0.383  -1.122   0.776  0.00  0.00     0.048 A 
ATOM      6  C5  UNL d   1       0.357  -2.304   0.853  0.00  0.00     0.003 A 
ATOM      7  I   UNL d   1      -0.829   1.845   0.389  0.00  0.00    -0.146 I 
ENDROOT
TORSDOF 0
ENDMDL
