MODEL 1
REMARK minimizedAffinity -3.79348874
REMARK minimizedRMSD -1
REMARK  0 active torsions:
REMARK  status: ('A' for Active; 'I' for Inactive)
ROOT
ATOM      1  C   UNL d   1       2.342  -1.225   0.697  0.00  0.00     0.023 A 
ATOM      2  C1  UNL d   1       2.948  -0.011   1.019  0.00  0.00     0.003 A 
ATOM      3  C2  UNL d   1       2.194   1.164   1.041  0.00  0.00     0.048 A 
ATOM      4  C3  UNL d   1       0.833   1.117   0.741  0.00  0.00     0.023 A 
ATOM      5  C4  UNL d   1       0.222  -0.095   0.418  0.00  0.00     0.048 A 
ATOM      6  C5  UNL d   1       0.980  -1.267   0.397  0.00  0.00     0.003 A 
ATOM      7  I   UNL d   1      -0.292   2.865   0.773  0.00  0.00    -0.146 I 
ENDROOT
TORSDOF 0
ENDMDL
