MODEL 1
REMARK minimizedAffinity 7.74792433
REMARK minimizedRMSD -1
REMARK  1 active torsions:
REMARK  status: ('A' for Active; 'I' for Inactive)
REMARK    1  A    between atoms: N_2  and  C1_3 
ROOT
ATOM      1  C1  UNL d   1      -0.558  -3.262  -1.540  0.00  0.00     0.143 A 
ATOM      2  C2  UNL d   1       0.333  -4.337  -1.449  0.00  0.00    -0.057 A 
ATOM      3  C3  UNL d   1       1.490  -4.257  -0.664  0.00  0.00     0.033 A 
ATOM      4  C4  UNL d   1       1.792  -3.086   0.023  0.00  0.00    -0.042 A 
ATOM      5  C5  UNL d   1       0.934  -1.996  -0.073  0.00  0.00     0.033 A 
ATOM      6  C6  UNL d   1      -0.223  -2.084  -0.853  0.00  0.00    -0.057 A 
ENDROOT
BRANCH   1   7
ATOM      7  N   UNL d   1      -1.673  -3.245  -2.381  0.00  0.00    -0.732 N 
ATOM      8  C   UNL d   1      -1.524  -2.984  -3.797  0.00  0.00     0.284 C 
ATOM      9  H3  UNL d   1      -2.336  -3.984  -2.162  0.00  0.00     0.395 HD
ENDBRANCH   1   7
TORSDOF 1
ENDMDL
