MODEL 1
REMARK minimizedAffinity -2.89144039
REMARK minimizedRMSD -1
REMARK  1 active torsions:
REMARK  status: ('A' for Active; 'I' for Inactive)
REMARK    1  A    between atoms: N_2  and  C1_3 
ROOT
ATOM      1  C1  UNL d   1      -5.987   3.274  -2.534  0.00  0.00     0.143 A 
ATOM      2  C2  UNL d   1      -5.936   4.193  -3.588  0.00  0.00    -0.057 A 
ATOM      3  C3  UNL d   1      -5.945   3.768  -4.922  0.00  0.00     0.033 A 
ATOM      4  C4  UNL d   1      -5.975   2.412  -5.226  0.00  0.00    -0.042 A 
ATOM      5  C5  UNL d   1      -6.000   1.480  -4.195  0.00  0.00     0.033 A 
ATOM      6  C6  UNL d   1      -5.998   1.910  -2.865  0.00  0.00    -0.057 A 
ENDROOT
BRANCH   1   7
ATOM      7  N   UNL d   1      -5.882   3.629  -1.187  0.00  0.00    -0.732 N 
ATOM      8  C   UNL d   1      -5.905   2.616  -0.154  0.00  0.00     0.284 C 
ATOM      9  H3  UNL d   1      -5.197   4.365  -1.031  0.00  0.00     0.395 HD
ENDBRANCH   1   7
TORSDOF 1
ENDMDL
