MODEL 1
REMARK minimizedAffinity 4.66379833
REMARK minimizedRMSD -1
REMARK  1 active torsions:
REMARK  status: ('A' for Active; 'I' for Inactive)
REMARK    1  A    between atoms: N_2  and  C1_3 
ROOT
ATOM      1  C1  UNL d   1      -0.292   3.602  -1.218  0.00  0.00     0.143 A 
ATOM      2  C2  UNL d   1       0.410   4.809  -1.125  0.00  0.00    -0.057 A 
ATOM      3  C3  UNL d   1      -0.122   6.000  -1.633  0.00  0.00     0.033 A 
ATOM      4  C4  UNL d   1      -1.358   6.000  -2.271  0.00  0.00    -0.042 A 
ATOM      5  C5  UNL d   1      -2.063   4.808  -2.397  0.00  0.00     0.033 A 
ATOM      6  C6  UNL d   1      -1.529   3.623  -1.882  0.00  0.00    -0.057 A 
ENDROOT
BRANCH   1   7
ATOM      7  N   UNL d   1       0.227   2.367  -0.821  0.00  0.00    -0.732 N 
ATOM      8  C   UNL d   1       0.017   1.878   0.524  0.00  0.00     0.284 C 
ATOM      9  H3  UNL d   1       0.131   1.656  -1.542  0.00  0.00     0.395 HD
ENDBRANCH   1   7
TORSDOF 1
ENDMDL
