MODEL 1
REMARK minimizedAffinity 9.33980846
REMARK minimizedRMSD -1
REMARK  1 active torsions:
REMARK  status: ('A' for Active; 'I' for Inactive)
REMARK    1  A    between atoms: N_2  and  C1_3 
ROOT
ATOM      1  C1  UNL d   1      -0.160   3.841  -0.021  0.00  0.00     0.143 A 
ATOM      2  C2  UNL d   1      -0.395   5.173   0.334  0.00  0.00    -0.057 A 
ATOM      3  C3  UNL d   1      -1.214   5.999  -0.446  0.00  0.00     0.033 A 
ATOM      4  C4  UNL d   1      -1.791   5.513  -1.614  0.00  0.00    -0.042 A 
ATOM      5  C5  UNL d   1      -1.552   4.199  -2.000  0.00  0.00     0.033 A 
ATOM      6  C6  UNL d   1      -0.739   3.377  -1.213  0.00  0.00    -0.057 A 
ENDROOT
BRANCH   1   7
ATOM      7  N   UNL d   1       0.723   2.998   0.659  0.00  0.00    -0.732 N 
ATOM      8  C   UNL d   1       0.380   2.467   1.960  0.00  0.00     0.284 C 
ATOM      9  H3  UNL d   1       1.172   2.326   0.041  0.00  0.00     0.395 HD
ENDBRANCH   1   7
TORSDOF 1
ENDMDL
