MODEL 1
REMARK minimizedAffinity -2.79402137
REMARK minimizedRMSD -1
REMARK  1 active torsions:
REMARK  status: ('A' for Active; 'I' for Inactive)
REMARK    1  A    between atoms: N_2  and  C1_3 
ROOT
ATOM      1  C1  UNL d   1      -5.961   3.830  -4.060  0.00  0.00     0.143 A 
ATOM      2  C2  UNL d   1      -5.962   2.486  -3.671  0.00  0.00    -0.057 A 
ATOM      3  C3  UNL d   1      -5.995   2.120  -2.320  0.00  0.00     0.033 A 
ATOM      4  C4  UNL d   1      -6.000   3.097  -1.329  0.00  0.00    -0.042 A 
ATOM      5  C5  UNL d   1      -5.974   4.439  -1.691  0.00  0.00     0.033 A 
ATOM      6  C6  UNL d   1      -5.947   4.797  -3.043  0.00  0.00    -0.057 A 
ENDROOT
BRANCH   1   7
ATOM      7  N   UNL d   1      -5.828   4.257  -5.383  0.00  0.00    -0.732 N 
ATOM      8  C   UNL d   1      -4.523   4.353  -5.999  0.00  0.00     0.284 C 
ATOM      9  H3  UNL d   1      -6.547   3.870  -5.990  0.00  0.00     0.395 HD
ENDBRANCH   1   7
TORSDOF 1
ENDMDL
