MODEL 1
REMARK minimizedAffinity 8.8784771
REMARK minimizedRMSD -1
REMARK  3 active torsions:
REMARK  status: ('A' for Active; 'I' for Inactive)
REMARK    1  A    between atoms: C3'_2  and  C2'_3 
REMARK    2  A    between atoms: C2'_3  and  C1'_4 
REMARK    3  A    between atoms: C1'_4  and  C1_5 
ROOT
ATOM      1  C1  N4B d   1      -3.511  -4.814  -1.948  0.00  0.00    -0.075 A 
ATOM      2  C2  N4B d   1      -3.630  -3.435  -2.227  0.00  0.00     0.002 A 
ATOM      3  C3  N4B d   1      -2.715  -2.818  -3.044  0.00  0.00     0.002 A 
ATOM      4  C4  N4B d   1      -1.666  -3.552  -3.576  0.00  0.00    -0.004 A 
ATOM      5  C5  N4B d   1      -1.573  -4.889  -3.323  0.00  0.00     0.002 A 
ATOM      6  C6  N4B d   1      -2.488  -5.524  -2.507  0.00  0.00     0.002 A 
ENDROOT
BRANCH   1   7
ATOM      7  C1' N4B d   1      -4.438  -5.514  -0.992  0.00  0.00     0.057 C 
BRANCH   7   8
ATOM      8  C2' N4B d   1      -4.265  -4.916   0.401  0.00  0.00     0.009 C 
BRANCH   8   9
ATOM      9  C3' N4B d   1      -4.548  -5.932   1.494  0.00  0.00     0.004 C 
ATOM     10  C4' N4B d   1      -6.000  -5.999   1.863  0.00  0.00     0.003 C 
ENDBRANCH   8   9
ENDBRANCH   7   8
ENDBRANCH   1   7
TORSDOF 3
ENDMDL
