MODEL 1
REMARK minimizedAffinity 10.1586285
REMARK minimizedRMSD -1
REMARK  3 active torsions:
REMARK  status: ('A' for Active; 'I' for Inactive)
REMARK    1  A    between atoms: C3'_2  and  C2'_3 
REMARK    2  A    between atoms: C2'_3  and  C1'_4 
REMARK    3  A    between atoms: C1'_4  and  C1_5 
ROOT
ATOM      1  C1  N4B d   1       3.599  -0.148   1.675  0.00  0.00    -0.075 A 
ATOM      2  C2  N4B d   1       2.747   0.925   1.333  0.00  0.00     0.002 A 
ATOM      3  C3  N4B d   1       2.830   1.499   0.088  0.00  0.00     0.002 A 
ATOM      4  C4  N4B d   1       3.767   1.031  -0.821  0.00  0.00    -0.004 A 
ATOM      5  C5  N4B d   1       4.569  -0.023  -0.492  0.00  0.00     0.002 A 
ATOM      6  C6  N4B d   1       4.493  -0.612   0.754  0.00  0.00     0.002 A 
ENDROOT
BRANCH   1   7
ATOM      7  C1' N4B d   1       3.603  -0.752   3.053  0.00  0.00     0.057 C 
BRANCH   7   8
ATOM      8  C2' N4B d   1       4.900  -0.373   3.761  0.00  0.00     0.009 C 
BRANCH   8   9
ATOM      9  C3' N4B d   1       4.822  -0.616   5.259  0.00  0.00     0.004 C 
ATOM     10  C4' N4B d   1       6.000  -0.057   6.000  0.00  0.00     0.003 C 
ENDBRANCH   8   9
ENDBRANCH   7   8
ENDBRANCH   1   7
TORSDOF 3
ENDMDL
