MODEL 1
REMARK minimizedAffinity 10.1828413
REMARK minimizedRMSD -1
REMARK  3 active torsions:
REMARK  status: ('A' for Active; 'I' for Inactive)
REMARK    1  A    between atoms: C3'_2  and  C2'_3 
REMARK    2  A    between atoms: C2'_3  and  C1'_4 
REMARK    3  A    between atoms: C1'_4  and  C1_5 
ROOT
ATOM      1  C1  N4B d   1      -2.207  -3.110  -3.003  0.00  0.00    -0.075 A 
ATOM      2  C2  N4B d   1      -1.896  -2.065  -3.900  0.00  0.00     0.002 A 
ATOM      3  C3  N4B d   1      -1.040  -2.293  -4.950  0.00  0.00     0.002 A 
ATOM      4  C4  N4B d   1      -0.471  -3.547  -5.110  0.00  0.00    -0.004 A 
ATOM      5  C5  N4B d   1      -0.796  -4.558  -4.254  0.00  0.00     0.002 A 
ATOM      6  C6  N4B d   1      -1.658  -4.345  -3.197  0.00  0.00     0.002 A 
ENDROOT
BRANCH   1   7
ATOM      7  C1' N4B d   1      -3.070  -2.886  -1.791  0.00  0.00     0.057 C 
BRANCH   7   8
ATOM      8  C2' N4B d   1      -2.315  -2.013  -0.793  0.00  0.00     0.009 C 
BRANCH   8   9
ATOM      9  C3' N4B d   1      -2.623  -2.396   0.644  0.00  0.00     0.004 C 
ATOM     10  C4' N4B d   1      -1.395  -2.466   1.502  0.00  0.00     0.003 C 
ENDBRANCH   8   9
ENDBRANCH   7   8
ENDBRANCH   1   7
TORSDOF 3
ENDMDL
