MODEL 1
REMARK minimizedAffinity 9.19543266
REMARK minimizedRMSD -1
REMARK  3 active torsions:
REMARK  status: ('A' for Active; 'I' for Inactive)
REMARK    1  A    between atoms: C3'_2  and  C2'_3 
REMARK    2  A    between atoms: C2'_3  and  C1'_4 
REMARK    3  A    between atoms: C1'_4  and  C1_5 
ROOT
ATOM      1  C1  N4B d   1       3.435   0.979   0.685  0.00  0.00    -0.075 A 
ATOM      2  C2  N4B d   1       4.094   1.620  -0.387  0.00  0.00     0.002 A 
ATOM      3  C3  N4B d   1       5.364   1.234  -0.742  0.00  0.00     0.002 A 
ATOM      4  C4  N4B d   1       5.998   0.227  -0.030  0.00  0.00    -0.004 A 
ATOM      5  C5  N4B d   1       5.345  -0.404   0.988  0.00  0.00     0.002 A 
ATOM      6  C6  N4B d   1       4.068  -0.030   1.353  0.00  0.00     0.002 A 
ENDROOT
BRANCH   1   7
ATOM      7  C1' N4B d   1       2.081   1.424   1.165  0.00  0.00     0.057 C 
BRANCH   7   8
ATOM      8  C2' N4B d   1       1.236   0.196   1.489  0.00  0.00     0.009 C 
BRANCH   8   9
ATOM      9  C3' N4B d   1       0.373   0.408   2.721  0.00  0.00     0.004 C 
ATOM     10  C4' N4B d   1      -0.605  -0.706   2.944  0.00  0.00     0.003 C 
ENDBRANCH   8   9
ENDBRANCH   7   8
ENDBRANCH   1   7
TORSDOF 3
ENDMDL
