MODEL 1
REMARK minimizedAffinity 13.1668291
REMARK minimizedRMSD -1
REMARK  3 active torsions:
REMARK  status: ('A' for Active; 'I' for Inactive)
REMARK    1  A    between atoms: C3'_2  and  C2'_3 
REMARK    2  A    between atoms: C2'_3  and  C1'_4 
REMARK    3  A    between atoms: C1'_4  and  C1_5 
ROOT
ATOM      1  C1  N4B d   1      -3.457  -3.874  -2.911  0.00  0.00    -0.075 A 
ATOM      2  C2  N4B d   1      -4.705  -3.549  -3.487  0.00  0.00     0.002 A 
ATOM      3  C3  N4B d   1      -5.733  -4.460  -3.457  0.00  0.00     0.002 A 
ATOM      4  C4  N4B d   1      -5.530  -5.703  -2.876  0.00  0.00    -0.004 A 
ATOM      5  C5  N4B d   1      -4.330  -5.999  -2.300  0.00  0.00     0.002 A 
ATOM      6  C6  N4B d   1      -3.290  -5.092  -2.319  0.00  0.00     0.002 A 
ENDROOT
BRANCH   1   7
ATOM      7  C1' N4B d   1      -2.278  -2.943  -2.995  0.00  0.00     0.057 C 
BRANCH   7   8
ATOM      8  C2' N4B d   1      -0.991  -3.762  -2.960  0.00  0.00     0.009 C 
BRANCH   8   9
ATOM      9  C3' N4B d   1      -0.367  -3.900  -4.338  0.00  0.00     0.004 C 
ATOM     10  C4' N4B d   1       0.379  -5.189  -4.511  0.00  0.00     0.003 C 
ENDBRANCH   8   9
ENDBRANCH   7   8
ENDBRANCH   1   7
TORSDOF 3
ENDMDL
