MODEL 1
REMARK minimizedAffinity 19.8301926
REMARK minimizedRMSD -1
REMARK  3 active torsions:
REMARK  status: ('A' for Active; 'I' for Inactive)
REMARK    1  A    between atoms: C3'_2  and  C2'_3 
REMARK    2  A    between atoms: C2'_3  and  C1'_4 
REMARK    3  A    between atoms: C1'_4  and  C1_5 
ROOT
ATOM      1  C1  N4B d   1      -3.642  -3.757  -2.323  0.00  0.00    -0.075 A 
ATOM      2  C2  N4B d   1      -3.503  -5.082  -1.854  0.00  0.00     0.002 A 
ATOM      3  C3  N4B d   1      -4.503  -5.997  -2.074  0.00  0.00     0.002 A 
ATOM      4  C4  N4B d   1      -5.654  -5.607  -2.742  0.00  0.00    -0.004 A 
ATOM      5  C5  N4B d   1      -5.770  -4.332  -3.215  0.00  0.00     0.002 A 
ATOM      6  C6  N4B d   1      -4.771  -3.403  -3.004  0.00  0.00     0.002 A 
ENDROOT
BRANCH   1   7
ATOM      7  C1' N4B d   1      -2.613  -2.699  -2.031  0.00  0.00     0.057 C 
BRANCH   7   8
ATOM      8  C2' N4B d   1      -2.654  -2.358  -0.545  0.00  0.00     0.009 C 
BRANCH   8   9
ATOM      9  C3' N4B d   1      -1.284  -2.471   0.102  0.00  0.00     0.004 C 
ATOM     10  C4' N4B d   1      -1.339  -3.063   1.479  0.00  0.00     0.003 C 
ENDBRANCH   8   9
ENDBRANCH   7   8
ENDBRANCH   1   7
TORSDOF 3
ENDMDL
