MODEL 1
REMARK minimizedAffinity 15.3990755
REMARK minimizedRMSD -1
REMARK  3 active torsions:
REMARK  status: ('A' for Active; 'I' for Inactive)
REMARK    1  A    between atoms: C3'_2  and  C2'_3 
REMARK    2  A    between atoms: C2'_3  and  C1'_4 
REMARK    3  A    between atoms: C1'_4  and  C1_5 
ROOT
ATOM      1  C1  N4B d   1       3.116   1.924  -0.749  0.00  0.00    -0.075 A 
ATOM      2  C2  N4B d   1       3.673   0.628  -0.686  0.00  0.00     0.002 A 
ATOM      3  C3  N4B d   1       3.240  -0.259   0.269  0.00  0.00     0.002 A 
ATOM      4  C4  N4B d   1       2.269   0.132   1.179  0.00  0.00    -0.004 A 
ATOM      5  C5  N4B d   1       1.719   1.377   1.095  0.00  0.00     0.002 A 
ATOM      6  C6  N4B d   1       2.141   2.278   0.138  0.00  0.00     0.002 A 
ENDROOT
BRANCH   1   7
ATOM      7  C1' N4B d   1       3.618   2.957  -1.721  0.00  0.00     0.057 C 
BRANCH   7   8
ATOM      8  C2' N4B d   1       2.904   2.776  -3.057  0.00  0.00     0.009 C 
BRANCH   8   9
ATOM      9  C3' N4B d   1       1.799   3.799  -3.254  0.00  0.00     0.004 C 
ATOM     10  C4' N4B d   1       1.908   4.529  -4.560  0.00  0.00     0.003 C 
ENDBRANCH   8   9
ENDBRANCH   7   8
ENDBRANCH   1   7
TORSDOF 3
ENDMDL
