MODEL 1
REMARK minimizedAffinity 14.5408888
REMARK minimizedRMSD -1
REMARK  3 active torsions:
REMARK  status: ('A' for Active; 'I' for Inactive)
REMARK    1  A    between atoms: C3'_2  and  C2'_3 
REMARK    2  A    between atoms: C2'_3  and  C1'_4 
REMARK    3  A    between atoms: C1'_4  and  C1_5 
ROOT
ATOM      1  C1  N4B d   1      -4.973   3.408   3.965  0.00  0.00    -0.075 A 
ATOM      2  C2  N4B d   1      -5.497   3.818   2.719  0.00  0.00     0.002 A 
ATOM      3  C3  N4B d   1      -5.996   5.088   2.568  0.00  0.00     0.002 A 
ATOM      4  C4  N4B d   1      -5.999   5.957   3.649  0.00  0.00    -0.004 A 
ATOM      5  C5  N4B d   1      -5.468   5.562   4.842  0.00  0.00     0.002 A 
ATOM      6  C6  N4B d   1      -4.959   4.290   5.007  0.00  0.00     0.002 A 
ENDROOT
BRANCH   1   7
ATOM      7  C1' N4B d   1      -4.495   2.002   4.202  0.00  0.00     0.057 C 
BRANCH   7   8
ATOM      8  C2' N4B d   1      -3.255   1.744   3.351  0.00  0.00     0.009 C 
BRANCH   8   9
ATOM      9  C3' N4B d   1      -2.065   2.564   3.818  0.00  0.00     0.004 C 
ATOM     10  C4' N4B d   1      -0.761   1.842   3.652  0.00  0.00     0.003 C 
ENDBRANCH   8   9
ENDBRANCH   7   8
ENDBRANCH   1   7
TORSDOF 3
ENDMDL
