MODEL 1
REMARK minimizedAffinity 18.5323582
REMARK minimizedRMSD -1
REMARK  3 active torsions:
REMARK  status: ('A' for Active; 'I' for Inactive)
REMARK    1  A    between atoms: C3'_2  and  C2'_3 
REMARK    2  A    between atoms: C2'_3  and  C1'_4 
REMARK    3  A    between atoms: C1'_4  and  C1_5 
ROOT
ATOM      1  C1  N4B d   1       3.873   0.514   0.864  0.00  0.00    -0.075 A 
ATOM      2  C2  N4B d   1       4.952  -0.393   0.952  0.00  0.00     0.002 A 
ATOM      3  C3  N4B d   1       6.000  -0.300   0.069  0.00  0.00     0.002 A 
ATOM      4  C4  N4B d   1       5.981   0.674  -0.917  0.00  0.00    -0.004 A 
ATOM      5  C5  N4B d   1       4.947   1.562  -0.980  0.00  0.00     0.002 A 
ATOM      6  C6  N4B d   1       3.889   1.483  -0.097  0.00  0.00     0.002 A 
ENDROOT
BRANCH   1   7
ATOM      7  C1' N4B d   1       2.664   0.398   1.752  0.00  0.00     0.057 C 
BRANCH   7   8
ATOM      8  C2' N4B d   1       1.936   1.739   1.784  0.00  0.00     0.009 C 
BRANCH   8   9
ATOM      9  C3' N4B d   1       0.879   1.786   2.874  0.00  0.00     0.004 C 
ATOM     10  C4' N4B d   1      -0.023   2.978   2.757  0.00  0.00     0.003 C 
ENDBRANCH   8   9
ENDBRANCH   7   8
ENDBRANCH   1   7
TORSDOF 3
ENDMDL
