MODEL 1
REMARK minimizedAffinity 1.16333771
REMARK minimizedRMSD -1
REMARK  1 active torsions:
REMARK  status: ('A' for Active; 'I' for Inactive)
REMARK    1  A    between atoms: C1_2  and  C2_3 
ROOT
ATOM      1  C2  UNL d   1       1.370   1.031  -2.270  0.00  0.00    -0.076 A 
ATOM      2  C3  UNL d   1       0.847   0.474  -1.090  0.00  0.00     0.004 A 
ATOM      3  C4  UNL d   1       1.042  -0.872  -0.784  0.00  0.00    -0.003 A 
ATOM      4  C5  UNL d   1       1.765  -1.682  -1.652  0.00  0.00     0.000 A 
ATOM      5  C6  UNL d   1       2.307  -1.143  -2.818  0.00  0.00     0.000 A 
ATOM      6  C7  UNL d   1       2.133   0.216  -3.134  0.00  0.00    -0.073 A 
ATOM      7  C8  UNL d   1       2.734   0.743  -4.408  0.00  0.00     0.078 C 
ENDROOT
BRANCH   1   8
ATOM      8  C1  UNL d   1       1.103   2.490  -2.563  0.00  0.00     0.053 C 
ATOM      9  C   UNL d   1       1.892   3.421  -1.655  0.00  0.00     0.018 C 
ENDBRANCH   1   8
TORSDOF 1
ENDMDL
