MODEL 1
REMARK minimizedAffinity -1.11012578
REMARK minimizedRMSD -1
REMARK  1 active torsions:
REMARK  status: ('A' for Active; 'I' for Inactive)
REMARK    1  A    between atoms: C1_2  and  C2_3 
ROOT
ATOM      1  C2  UNL d   1       1.701  -0.659  -3.141  0.00  0.00    -0.076 A 
ATOM      2  C3  UNL d   1       2.016  -1.077  -1.836  0.00  0.00     0.004 A 
ATOM      3  C4  UNL d   1       1.877  -2.411  -1.457  0.00  0.00    -0.003 A 
ATOM      4  C5  UNL d   1       1.421  -3.349  -2.376  0.00  0.00     0.000 A 
ATOM      5  C6  UNL d   1       1.121  -2.955  -3.680  0.00  0.00     0.000 A 
ATOM      6  C7  UNL d   1       1.271  -1.617  -4.083  0.00  0.00    -0.073 A 
ATOM      7  C8  UNL d   1       0.927  -1.247  -5.500  0.00  0.00     0.078 C 
ENDROOT
BRANCH   1   8
ATOM      8  C1  UNL d   1       1.846   0.806  -3.487  0.00  0.00     0.053 C 
ATOM      9  C   UNL d   1       1.053   1.707  -2.553  0.00  0.00     0.018 C 
ENDBRANCH   1   8
TORSDOF 1
ENDMDL
