MODEL 1
REMARK minimizedAffinity 1.49458814
REMARK minimizedRMSD -1
REMARK  1 active torsions:
REMARK  status: ('A' for Active; 'I' for Inactive)
REMARK    1  A    between atoms: C1_2  and  C2_3 
ROOT
ATOM      1  C2  UNL d   1       2.858   1.926  -4.117  0.00  0.00    -0.076 A 
ATOM      2  C3  UNL d   1       3.269   0.691  -3.588  0.00  0.00     0.004 A 
ATOM      3  C4  UNL d   1       2.579   0.097  -2.532  0.00  0.00    -0.003 A 
ATOM      4  C5  UNL d   1       1.465   0.728  -1.990  0.00  0.00     0.000 A 
ATOM      5  C6  UNL d   1       1.033   1.946  -2.514  0.00  0.00     0.000 A 
ATOM      6  C7  UNL d   1       1.708   2.551  -3.588  0.00  0.00    -0.073 A 
ATOM      7  C8  UNL d   1       1.201   3.867  -4.110  0.00  0.00     0.078 C 
ENDROOT
BRANCH   1   8
ATOM      8  C1  UNL d   1       3.662   2.535  -5.243  0.00  0.00     0.053 C 
ATOM      9  C   UNL d   1       4.488   1.503  -5.994  0.00  0.00     0.018 C 
ENDBRANCH   1   8
TORSDOF 1
ENDMDL
