MODEL 1
REMARK minimizedAffinity 4.78149843
REMARK minimizedRMSD -1
REMARK  1 active torsions:
REMARK  status: ('A' for Active; 'I' for Inactive)
REMARK    1  A    between atoms: C1_2  and  C2_3 
ROOT
ATOM      1  C2  UNL d   1       5.155  -2.534   5.371  0.00  0.00    -0.076 A 
ATOM      2  C3  UNL d   1       5.991  -3.552   5.861  0.00  0.00     0.004 A 
ATOM      3  C4  UNL d   1       5.525  -4.859   5.998  0.00  0.00    -0.003 A 
ATOM      4  C5  UNL d   1       4.216  -5.169   5.647  0.00  0.00     0.000 A 
ATOM      5  C6  UNL d   1       3.378  -4.175   5.142  0.00  0.00     0.000 A 
ATOM      6  C7  UNL d   1       3.837  -2.856   4.982  0.00  0.00    -0.073 A 
ATOM      7  C8  UNL d   1       2.888  -1.823   4.438  0.00  0.00     0.078 C 
ENDROOT
BRANCH   1   8
ATOM      8  C1  UNL d   1       5.706  -1.130   5.269  0.00  0.00     0.053 C 
ATOM      9  C   UNL d   1       5.665  -0.589   3.849  0.00  0.00     0.018 C 
ENDBRANCH   1   8
TORSDOF 1
ENDMDL
