MODEL 1
REMARK minimizedAffinity -0.566120803
REMARK minimizedRMSD -1
REMARK  1 active torsions:
REMARK  status: ('A' for Active; 'I' for Inactive)
REMARK    1  A    between atoms: C1_2  and  C2_3 
ROOT
ATOM      1  C2  UNL d   1       4.836  -3.781   5.532  0.00  0.00    -0.076 A 
ATOM      2  C3  UNL d   1       5.871  -2.929   5.956  0.00  0.00     0.004 A 
ATOM      3  C4  UNL d   1       5.883  -1.582   5.597  0.00  0.00    -0.003 A 
ATOM      4  C5  UNL d   1       4.861  -1.065   4.809  0.00  0.00     0.000 A 
ATOM      5  C6  UNL d   1       3.817  -1.892   4.395  0.00  0.00     0.000 A 
ATOM      6  C7  UNL d   1       3.781  -3.248   4.761  0.00  0.00    -0.073 A 
ATOM      7  C8  UNL d   1       2.635  -4.096   4.280  0.00  0.00     0.078 C 
ENDROOT
BRANCH   1   8
ATOM      8  C1  UNL d   1       4.890  -5.239   5.929  0.00  0.00     0.053 C 
ATOM      9  C   UNL d   1       5.999  -5.997   5.215  0.00  0.00     0.018 C 
ENDBRANCH   1   8
TORSDOF 1
ENDMDL
