MODEL 1
REMARK minimizedAffinity 9.69511604
REMARK minimizedRMSD -1
REMARK  1 active torsions:
REMARK  status: ('A' for Active; 'I' for Inactive)
REMARK    1  A    between atoms: C1_2  and  C2_3 
ROOT
ATOM      1  C2  UNL d   1       3.722   2.233   3.410  0.00  0.00    -0.076 A 
ATOM      2  C3  UNL d   1       3.285   1.116   4.143  0.00  0.00     0.004 A 
ATOM      3  C4  UNL d   1       4.192   0.304   4.822  0.00  0.00    -0.003 A 
ATOM      4  C5  UNL d   1       5.551   0.598   4.781  0.00  0.00     0.000 A 
ATOM      5  C6  UNL d   1       6.000   1.713   4.074  0.00  0.00     0.000 A 
ATOM      6  C7  UNL d   1       5.097   2.551   3.397  0.00  0.00    -0.073 A 
ATOM      7  C8  UNL d   1       5.637   3.736   2.645  0.00  0.00     0.078 C 
ENDROOT
BRANCH   1   8
ATOM      8  C1  UNL d   1       2.695   3.061   2.671  0.00  0.00     0.053 C 
ATOM      9  C   UNL d   1       2.586   2.678   1.203  0.00  0.00     0.018 C 
ENDBRANCH   1   8
TORSDOF 1
ENDMDL
