MODEL 1
REMARK minimizedAffinity 0.279956877
REMARK minimizedRMSD -1
REMARK  1 active torsions:
REMARK  status: ('A' for Active; 'I' for Inactive)
REMARK    1  A    between atoms: C1_2  and  C2_3 
ROOT
ATOM      1  C2  UNL d   1       1.578   1.693  -1.746  0.00  0.00    -0.076 A 
ATOM      2  C3  UNL d   1       1.206   1.013  -0.574  0.00  0.00     0.004 A 
ATOM      3  C4  UNL d   1       1.337  -0.371  -0.475  0.00  0.00    -0.003 A 
ATOM      4  C5  UNL d   1       1.843  -1.098  -1.547  0.00  0.00     0.000 A 
ATOM      5  C6  UNL d   1       2.235  -0.437  -2.711  0.00  0.00     0.000 A 
ATOM      6  C7  UNL d   1       2.125   0.960  -2.821  0.00  0.00    -0.073 A 
ATOM      7  C8  UNL d   1       2.556   1.619  -4.102  0.00  0.00     0.078 C 
ENDROOT
BRANCH   1   8
ATOM      8  C1  UNL d   1       1.388   3.192  -1.805  0.00  0.00     0.053 C 
ATOM      9  C   UNL d   1       1.823   3.886  -0.523  0.00  0.00     0.018 C 
ENDBRANCH   1   8
TORSDOF 1
ENDMDL
