MODEL 1
REMARK minimizedAffinity 1.94810963
REMARK minimizedRMSD -1
REMARK  1 active torsions:
REMARK  status: ('A' for Active; 'I' for Inactive)
REMARK    1  A    between atoms: C1_2  and  C2_3 
ROOT
ATOM      1  C2  UNL d   1      -4.237   5.958   3.340  0.00  0.00    -0.076 A 
ATOM      2  C3  UNL d   1      -4.999   5.960   4.522  0.00  0.00     0.004 A 
ATOM      3  C4  UNL d   1      -4.384   5.955   5.772  0.00  0.00    -0.003 A 
ATOM      4  C5  UNL d   1      -2.996   5.948   5.862  0.00  0.00     0.000 A 
ATOM      5  C6  UNL d   1      -2.224   5.964   4.701  0.00  0.00     0.000 A 
ATOM      6  C7  UNL d   1      -2.829   5.986   3.432  0.00  0.00    -0.073 A 
ATOM      7  C8  UNL d   1      -1.948   5.996   2.213  0.00  0.00     0.078 C 
ENDROOT
BRANCH   1   8
ATOM      8  C1  UNL d   1      -4.960   5.937   2.012  0.00  0.00     0.053 C 
ATOM      9  C   UNL d   1      -5.710   4.635   1.778  0.00  0.00     0.018 C 
ENDBRANCH   1   8
TORSDOF 1
ENDMDL
