MODEL 1
REMARK minimizedAffinity 1.02082431
REMARK minimizedRMSD -1
REMARK  1 active torsions:
REMARK  status: ('A' for Active; 'I' for Inactive)
REMARK    1  A    between atoms: C1_2  and  C2_3 
ROOT
ATOM      1  C2  UNL d   1       1.784   3.130  -3.534  0.00  0.00    -0.076 A 
ATOM      2  C3  UNL d   1       1.754   2.175  -2.504  0.00  0.00     0.004 A 
ATOM      3  C4  UNL d   1       1.318   0.873  -2.745  0.00  0.00    -0.003 A 
ATOM      4  C5  UNL d   1       0.905   0.505  -4.020  0.00  0.00     0.000 A 
ATOM      5  C6  UNL d   1       0.944   1.435  -5.059  0.00  0.00     0.000 A 
ATOM      6  C7  UNL d   1       1.397   2.747  -4.836  0.00  0.00    -0.073 A 
ATOM      7  C8  UNL d   1       1.413   3.711  -5.991  0.00  0.00     0.078 C 
ENDROOT
BRANCH   1   8
ATOM      8  C1  UNL d   1       2.241   4.534  -3.208  0.00  0.00     0.053 C 
ATOM      9  C   UNL d   1       3.730   4.733  -3.448  0.00  0.00     0.018 C 
ENDBRANCH   1   8
TORSDOF 1
ENDMDL
