MODEL 1
REMARK minimizedAffinity 6.19393587
REMARK minimizedRMSD -1
REMARK  1 active torsions:
REMARK  status: ('A' for Active; 'I' for Inactive)
REMARK    1  A    between atoms: C1_2  and  C2_3 
ROOT
ATOM      1  C2  UNL d   1       4.752  -3.654   5.496  0.00  0.00    -0.076 A 
ATOM      2  C3  UNL d   1       5.796  -2.858   5.999  0.00  0.00     0.004 A 
ATOM      3  C4  UNL d   1       5.965  -1.543   5.569  0.00  0.00    -0.003 A 
ATOM      4  C5  UNL d   1       5.094  -1.003   4.630  0.00  0.00     0.000 A 
ATOM      5  C6  UNL d   1       4.042  -1.773   4.134  0.00  0.00     0.000 A 
ATOM      6  C7  UNL d   1       3.847  -3.095   4.569  0.00  0.00    -0.073 A 
ATOM      7  C8  UNL d   1       2.700  -3.881   3.996  0.00  0.00     0.078 C 
ENDROOT
BRANCH   1   8
ATOM      8  C1  UNL d   1       4.634  -5.082   5.979  0.00  0.00     0.053 C 
ATOM      9  C   UNL d   1       5.946  -5.844   5.873  0.00  0.00     0.018 C 
ENDBRANCH   1   8
TORSDOF 1
ENDMDL
