MODEL 1
REMARK minimizedAffinity 3.65116358
REMARK minimizedRMSD -1
REMARK  1 active torsions:
REMARK  status: ('A' for Active; 'I' for Inactive)
REMARK    1  A    between atoms: C1_2  and  C2_3 
ROOT
ATOM      1  C2  UNL d   1      -3.403   5.974   3.301  0.00  0.00    -0.076 A 
ATOM      2  C3  UNL d   1      -2.612   5.956   4.463  0.00  0.00     0.004 A 
ATOM      3  C4  UNL d   1      -3.196   5.969   5.728  0.00  0.00    -0.003 A 
ATOM      4  C5  UNL d   1      -4.581   5.999   5.852  0.00  0.00     0.000 A 
ATOM      5  C6  UNL d   1      -5.381   5.999   4.710  0.00  0.00     0.000 A 
ATOM      6  C7  UNL d   1      -4.808   5.970   3.427  0.00  0.00    -0.073 A 
ATOM      7  C8  UNL d   1      -5.719   5.977   2.230  0.00  0.00     0.078 C 
ENDROOT
BRANCH   1   8
ATOM      8  C1  UNL d   1      -2.713   5.986   1.955  0.00  0.00     0.053 C 
ATOM      9  C   UNL d   1      -2.684   4.613   1.303  0.00  0.00     0.018 C 
ENDBRANCH   1   8
TORSDOF 1
ENDMDL
