MODEL 1
REMARK minimizedAffinity -4.19074869
REMARK minimizedRMSD -1
REMARK  0 active torsions:
REMARK  status: ('A' for Active; 'I' for Inactive)
ROOT
ATOM      1  C1  DEN d   1       0.698  -0.166  -0.870  0.00  0.00     0.130 A 
ATOM      2  C2  DEN d   1      -0.071   0.609  -1.840  0.00  0.00    -0.031 A 
ATOM      3  C3  DEN d   1      -0.914   1.566  -1.095  0.00  0.00     0.027 A 
ATOM      4  C4  DEN d   1      -1.100   1.924   1.452  0.00  0.00     0.027 A 
ATOM      5  C5  DEN d   1      -0.651   1.494   2.682  0.00  0.00    -0.003 A 
ATOM      6  C6  DEN d   1       0.246   0.467   2.814  0.00  0.00     0.001 A 
ATOM      7  C7  DEN d   1       0.757  -0.136   1.695  0.00  0.00     0.017 A 
ATOM      8  C8  DEN d   1       0.304   0.287   0.452  0.00  0.00    -0.094 A 
ATOM      9  C9  DEN d   1      -0.594   1.335   0.339  0.00  0.00    -0.072 A 
ENDROOT
TORSDOF 0
ENDMDL
