MODEL 1
REMARK minimizedAffinity -5.51427507
REMARK minimizedRMSD -1
REMARK  0 active torsions:
REMARK  status: ('A' for Active; 'I' for Inactive)
ROOT
ATOM      1  C1  DEN d   1      -1.216   1.224   1.104  0.00  0.00     0.130 A 
ATOM      2  C2  DEN d   1      -1.156   2.617   0.670  0.00  0.00    -0.031 A 
ATOM      3  C3  DEN d   1      -0.901   2.631  -0.785  0.00  0.00     0.027 A 
ATOM      4  C4  DEN d   1      -0.603   0.641  -2.399  0.00  0.00     0.027 A 
ATOM      5  C5  DEN d   1      -0.560  -0.732  -2.492  0.00  0.00    -0.003 A 
ATOM      6  C6  DEN d   1      -0.699  -1.543  -1.396  0.00  0.00     0.001 A 
ATOM      7  C7  DEN d   1      -0.931  -0.987  -0.166  0.00  0.00     0.017 A 
ATOM      8  C8  DEN d   1      -0.968   0.397  -0.063  0.00  0.00    -0.094 A 
ATOM      9  C9  DEN d   1      -0.838   1.199  -1.184  0.00  0.00    -0.072 A 
ENDROOT
TORSDOF 0
ENDMDL
