MODEL 1
REMARK minimizedAffinity 0.036825832
REMARK minimizedRMSD -1
REMARK  0 active torsions:
REMARK  status: ('A' for Active; 'I' for Inactive)
ROOT
ATOM      1  C1  DEN d   1       0.330   0.499  -1.308  0.00  0.00     0.130 A 
ATOM      2  C2  DEN d   1      -0.329  -0.756  -1.658  0.00  0.00    -0.031 A 
ATOM      3  C3  DEN d   1      -0.584  -1.501  -0.409  0.00  0.00     0.027 A 
ATOM      4  C4  DEN d   1      -0.030  -0.835   2.020  0.00  0.00     0.027 A 
ATOM      5  C5  DEN d   1       0.541   0.133   2.816  0.00  0.00    -0.003 A 
ATOM      6  C6  DEN d   1       1.107   1.266   2.295  0.00  0.00     0.001 A 
ATOM      7  C7  DEN d   1       1.075   1.481   0.942  0.00  0.00     0.017 A 
ATOM      8  C8  DEN d   1       0.508   0.505   0.133  0.00  0.00    -0.094 A 
ATOM      9  C9  DEN d   1      -0.070  -0.628   0.679  0.00  0.00    -0.072 A 
ENDROOT
TORSDOF 0
ENDMDL
