MODEL 1
REMARK minimizedAffinity -3.82492805
REMARK minimizedRMSD -1
REMARK  0 active torsions:
REMARK  status: ('A' for Active; 'I' for Inactive)
ROOT
ATOM      1  C1  DEN d   1       0.066   2.341  -1.696  0.00  0.00     0.130 A 
ATOM      2  C2  DEN d   1       0.304   1.060  -2.355  0.00  0.00    -0.031 A 
ATOM      3  C3  DEN d   1       0.648   0.069  -1.316  0.00  0.00     0.027 A 
ATOM      4  C4  DEN d   1       0.830   0.390   1.236  0.00  0.00     0.027 A 
ATOM      5  C5  DEN d   1       0.729   1.303   2.263  0.00  0.00    -0.003 A 
ATOM      6  C6  DEN d   1       0.436   2.623   2.040  0.00  0.00     0.001 A 
ATOM      7  C7  DEN d   1       0.189   3.057   0.765  0.00  0.00     0.017 A 
ATOM      8  C8  DEN d   1       0.296   2.144  -0.276  0.00  0.00    -0.094 A 
ATOM      9  C9  DEN d   1       0.581   0.812  -0.029  0.00  0.00    -0.072 A 
ENDROOT
TORSDOF 0
ENDMDL
