MODEL 1
REMARK minimizedAffinity -5.0819459
REMARK minimizedRMSD -1
REMARK  0 active torsions:
REMARK  status: ('A' for Active; 'I' for Inactive)
ROOT
ATOM      1  C1  DEN d   1       0.059   0.375  -1.413  0.00  0.00     0.130 A 
ATOM      2  C2  DEN d   1       0.531  -1.007  -1.428  0.00  0.00    -0.031 A 
ATOM      3  C3  DEN d   1       0.742  -1.432  -0.029  0.00  0.00     0.027 A 
ATOM      4  C4  DEN d   1       0.381  -0.093   2.145  0.00  0.00     0.027 A 
ATOM      5  C5  DEN d   1       0.000   1.125   2.664  0.00  0.00    -0.003 A 
ATOM      6  C6  DEN d   1      -0.353   2.180   1.865  0.00  0.00     0.001 A 
ATOM      7  C7  DEN d   1      -0.375   2.024   0.504  0.00  0.00     0.017 A 
ATOM      8  C8  DEN d   1       0.015   0.801  -0.026  0.00  0.00    -0.094 A 
ATOM      9  C9  DEN d   1       0.356  -0.257   0.799  0.00  0.00    -0.072 A 
ENDROOT
TORSDOF 0
ENDMDL
