MODEL 1
REMARK minimizedAffinity -5.30413342
REMARK minimizedRMSD -1
REMARK  0 active torsions:
REMARK  status: ('A' for Active; 'I' for Inactive)
ROOT
ATOM      1  C1  DEN d   1       0.075   1.663   2.278  0.00  0.00     0.130 A 
ATOM      2  C2  DEN d   1       1.025   0.821   3.000  0.00  0.00    -0.031 A 
ATOM      3  C3  DEN d   1       1.414  -0.293   2.112  0.00  0.00     0.027 A 
ATOM      4  C4  DEN d   1       0.647  -0.790  -0.299  0.00  0.00     0.027 A 
ATOM      5  C5  DEN d   1      -0.161  -0.365  -1.331  0.00  0.00    -0.003 A 
ATOM      6  C6  DEN d   1      -0.966   0.738  -1.220  0.00  0.00     0.001 A 
ATOM      7  C7  DEN d   1      -0.947   1.480  -0.069  0.00  0.00     0.017 A 
ATOM      8  C8  DEN d   1      -0.140   1.053   0.978  0.00  0.00    -0.094 A 
ATOM      9  C9  DEN d   1       0.675  -0.058   0.843  0.00  0.00    -0.072 A 
ENDROOT
TORSDOF 0
ENDMDL
