MODEL 1
REMARK minimizedAffinity -5.43170404
REMARK minimizedRMSD -1
REMARK  0 active torsions:
REMARK  status: ('A' for Active; 'I' for Inactive)
ROOT
ATOM      1  C1  DEN d   1      -0.835   2.396   1.600  0.00  0.00     0.130 A 
ATOM      2  C2  DEN d   1      -0.609   1.503   2.733  0.00  0.00    -0.031 A 
ATOM      3  C3  DEN d   1       0.056   0.285   2.228  0.00  0.00     0.027 A 
ATOM      4  C4  DEN d   1       0.756  -0.300  -0.184  0.00  0.00     0.027 A 
ATOM      5  C5  DEN d   1       0.762   0.141  -1.489  0.00  0.00    -0.003 A 
ATOM      6  C6  DEN d   1       0.210   1.339  -1.858  0.00  0.00     0.001 A 
ATOM      7  C7  DEN d   1      -0.332   2.159  -0.904  0.00  0.00     0.017 A 
ATOM      8  C8  DEN d   1      -0.348   1.719   0.413  0.00  0.00    -0.094 A 
ATOM      9  C9  DEN d   1       0.227   0.510   0.767  0.00  0.00    -0.072 A 
ENDROOT
TORSDOF 0
ENDMDL
