MODEL 1
REMARK minimizedAffinity -3.13143206
REMARK minimizedRMSD -1
REMARK  0 active torsions:
REMARK  status: ('A' for Active; 'I' for Inactive)
ROOT
ATOM      1  C1  DEN d   1       0.423   2.307   3.415  0.00  0.00     0.130 A 
ATOM      2  C2  DEN d   1       0.137   3.215   2.307  0.00  0.00    -0.031 A 
ATOM      3  C3  DEN d   1       0.500   2.531   1.050  0.00  0.00     0.027 A 
ATOM      4  C4  DEN d   1       1.465   0.163   0.712  0.00  0.00     0.027 A 
ATOM      5  C5  DEN d   1       1.889  -0.979   1.355  0.00  0.00    -0.003 A 
ATOM      6  C6  DEN d   1       1.885  -1.092   2.720  0.00  0.00     0.001 A 
ATOM      7  C7  DEN d   1       1.407  -0.062   3.486  0.00  0.00     0.017 A 
ATOM      8  C8  DEN d   1       0.985   1.096   2.845  0.00  0.00    -0.094 A 
ATOM      9  C9  DEN d   1       0.985   1.186   1.463  0.00  0.00    -0.072 A 
ENDROOT
TORSDOF 0
ENDMDL
