MODEL 1
REMARK minimizedAffinity -5.41105413
REMARK minimizedRMSD -1
REMARK  0 active torsions:
REMARK  status: ('A' for Active; 'I' for Inactive)
ROOT
ATOM      1  C1  DEN d   1      -0.810   2.339  -1.465  0.00  0.00     0.130 A 
ATOM      2  C2  DEN d   1       0.082   1.487  -2.246  0.00  0.00    -0.031 A 
ATOM      3  C3  DEN d   1       0.740   0.543  -1.320  0.00  0.00     0.027 A 
ATOM      4  C4  DEN d   1       0.460   0.317   1.234  0.00  0.00     0.027 A 
ATOM      5  C5  DEN d   1      -0.178   0.827   2.343  0.00  0.00    -0.003 A 
ATOM      6  C6  DEN d   1      -1.038   1.890   2.266  0.00  0.00     0.001 A 
ATOM      7  C7  DEN d   1      -1.319   2.450   1.047  0.00  0.00     0.017 A 
ATOM      8  C8  DEN d   1      -0.674   1.945  -0.074  0.00  0.00    -0.094 A 
ATOM      9  C9  DEN d   1       0.183   0.862   0.023  0.00  0.00    -0.072 A 
ENDROOT
TORSDOF 0
ENDMDL
