MODEL 1
REMARK minimizedAffinity -3.2536757
REMARK minimizedRMSD -1
REMARK  0 active torsions:
REMARK  status: ('A' for Active; 'I' for Inactive)
ROOT
ATOM      1  C   UNL d   1       0.206   0.309  -0.655  0.00  0.00     0.078 C 
ATOM      2  C1  UNL d   1      -0.767   0.677  -1.735  0.00  0.00    -0.077 A 
ATOM      3  C2  UNL d   1      -1.099  -0.232  -2.747  0.00  0.00    -0.001 A 
ATOM      4  C3  UNL d   1      -2.000   0.128  -3.751  0.00  0.00     0.003 A 
ATOM      5  C4  UNL d   1      -2.575   1.397  -3.753  0.00  0.00    -0.005 A 
ATOM      6  C5  UNL d   1      -2.250   2.308  -2.751  0.00  0.00     0.003 A 
ATOM      7  C6  UNL d   1      -1.349   1.951  -1.746  0.00  0.00    -0.001 A 
ENDROOT
TORSDOF 0
ENDMDL
