MODEL 1
REMARK minimizedAffinity -5.04501104
REMARK minimizedRMSD -1
REMARK  0 active torsions:
REMARK  status: ('A' for Active; 'I' for Inactive)
ROOT
ATOM      1  C   UNL d   1       1.546  -2.831   1.221  0.00  0.00     0.078 C 
ATOM      2  C1  UNL d   1       0.855  -1.581   0.763  0.00  0.00    -0.077 A 
ATOM      3  C2  UNL d   1       1.466  -0.712  -0.149  0.00  0.00    -0.001 A 
ATOM      4  C3  UNL d   1       0.815   0.452  -0.559  0.00  0.00     0.003 A 
ATOM      5  C4  UNL d   1      -0.450   0.759  -0.062  0.00  0.00    -0.005 A 
ATOM      6  C5  UNL d   1      -1.065  -0.099   0.848  0.00  0.00     0.003 A 
ATOM      7  C6  UNL d   1      -0.415  -1.264   1.259  0.00  0.00    -0.001 A 
ENDROOT
TORSDOF 0
ENDMDL
