MODEL 1
REMARK minimizedAffinity -3.15407014
REMARK minimizedRMSD -1
REMARK  0 active torsions:
REMARK  status: ('A' for Active; 'I' for Inactive)
ROOT
ATOM      1  C   UNL d   1      -0.308   1.329   0.221  0.00  0.00     0.078 C 
ATOM      2  C1  UNL d   1       0.527   0.116   0.506  0.00  0.00    -0.077 A 
ATOM      3  C2  UNL d   1      -0.045  -1.042   1.048  0.00  0.00    -0.001 A 
ATOM      4  C3  UNL d   1       0.745  -2.160   1.317  0.00  0.00     0.003 A 
ATOM      5  C4  UNL d   1       2.113  -2.131   1.050  0.00  0.00    -0.005 A 
ATOM      6  C5  UNL d   1       2.691  -0.983   0.514  0.00  0.00     0.003 A 
ATOM      7  C6  UNL d   1       1.902   0.137   0.243  0.00  0.00    -0.001 A 
ENDROOT
TORSDOF 0
ENDMDL
