MODEL 1
REMARK minimizedAffinity -5.0500617
REMARK minimizedRMSD -1
REMARK  0 active torsions:
REMARK  status: ('A' for Active; 'I' for Inactive)
ROOT
ATOM      1  C   UNL d   1      -0.321   1.407   0.000  0.00  0.00     0.078 C 
ATOM      2  C1  UNL d   1       0.486   0.242   0.490  0.00  0.00    -0.077 A 
ATOM      3  C2  UNL d   1       1.867   0.176   0.267  0.00  0.00    -0.001 A 
ATOM      4  C3  UNL d   1       2.604  -0.919   0.720  0.00  0.00     0.003 A 
ATOM      5  C4  UNL d   1       1.969  -1.957   1.398  0.00  0.00    -0.005 A 
ATOM      6  C5  UNL d   1       0.595  -1.902   1.623  0.00  0.00     0.003 A 
ATOM      7  C6  UNL d   1      -0.144  -0.807   1.171  0.00  0.00    -0.001 A 
ENDROOT
TORSDOF 0
ENDMDL
