MODEL 1
REMARK minimizedAffinity -2.82400131
REMARK minimizedRMSD -1
REMARK  0 active torsions:
REMARK  status: ('A' for Active; 'I' for Inactive)
ROOT
ATOM      1  C   UNL d   1      -0.103   0.246  -0.129  0.00  0.00     0.078 C 
ATOM      2  C1  UNL d   1      -0.935   0.646  -1.310  0.00  0.00    -0.077 A 
ATOM      3  C2  UNL d   1      -2.324   0.788  -1.199  0.00  0.00    -0.001 A 
ATOM      4  C3  UNL d   1      -3.088   1.151  -2.310  0.00  0.00     0.003 A 
ATOM      5  C4  UNL d   1      -2.472   1.373  -3.540  0.00  0.00    -0.005 A 
ATOM      6  C5  UNL d   1      -1.091   1.232  -3.660  0.00  0.00     0.003 A 
ATOM      7  C6  UNL d   1      -0.326   0.869  -2.551  0.00  0.00    -0.001 A 
ENDROOT
TORSDOF 0
ENDMDL
