MODEL 1
REMARK minimizedAffinity -4.02497339
REMARK minimizedRMSD -1
REMARK  0 active torsions:
REMARK  status: ('A' for Active; 'I' for Inactive)
ROOT
ATOM      1  C   UNL d   1      -0.370   1.137  -0.041  0.00  0.00     0.078 C 
ATOM      2  C1  UNL d   1       0.489  -0.056   0.253  0.00  0.00    -0.077 A 
ATOM      3  C2  UNL d   1       1.747   0.091   0.850  0.00  0.00    -0.001 A 
ATOM      4  C3  UNL d   1       2.541  -1.028   1.109  0.00  0.00     0.003 A 
ATOM      5  C4  UNL d   1       2.086  -2.302   0.773  0.00  0.00    -0.005 A 
ATOM      6  C5  UNL d   1       0.837  -2.458   0.176  0.00  0.00     0.003 A 
ATOM      7  C6  UNL d   1       0.042  -1.340  -0.083  0.00  0.00    -0.001 A 
ENDROOT
TORSDOF 0
ENDMDL
