MODEL 1
REMARK minimizedAffinity -5.58145666
REMARK minimizedRMSD -1
REMARK  0 active torsions:
REMARK  status: ('A' for Active; 'I' for Inactive)
ROOT
ATOM      1  C   UNL d   1       3.003  -1.589   0.387  0.00  0.00     0.078 C 
ATOM      2  C1  UNL d   1       1.660  -1.089   0.829  0.00  0.00    -0.077 A 
ATOM      3  C2  UNL d   1       0.991  -0.089   0.113  0.00  0.00    -0.001 A 
ATOM      4  C3  UNL d   1      -0.254   0.373   0.541  0.00  0.00     0.003 A 
ATOM      5  C4  UNL d   1      -0.841  -0.159   1.687  0.00  0.00    -0.005 A 
ATOM      6  C5  UNL d   1      -0.183  -1.153   2.408  0.00  0.00     0.003 A 
ATOM      7  C6  UNL d   1       1.063  -1.616   1.981  0.00  0.00    -0.001 A 
ENDROOT
TORSDOF 0
ENDMDL
