MODEL 1
REMARK minimizedAffinity -3.04829979
REMARK minimizedRMSD -1
REMARK  0 active torsions:
REMARK  status: ('A' for Active; 'I' for Inactive)
ROOT
ATOM      1  C   UNL d   1      -0.096   1.476  -0.185  0.00  0.00     0.078 C 
ATOM      2  C1  UNL d   1       0.793   0.276  -0.050  0.00  0.00    -0.077 A 
ATOM      3  C2  UNL d   1       1.870   0.273   0.844  0.00  0.00    -0.001 A 
ATOM      4  C3  UNL d   1       2.695  -0.848   0.952  0.00  0.00     0.003 A 
ATOM      5  C4  UNL d   1       2.452  -1.974   0.168  0.00  0.00    -0.005 A 
ATOM      6  C5  UNL d   1       1.383  -1.980  -0.726  0.00  0.00     0.003 A 
ATOM      7  C6  UNL d   1       0.557  -0.860  -0.835  0.00  0.00    -0.001 A 
ENDROOT
TORSDOF 0
ENDMDL
