MODEL 1
REMARK minimizedAffinity -4.71264601
REMARK minimizedRMSD -1
REMARK  0 active torsions:
REMARK  status: ('A' for Active; 'I' for Inactive)
ROOT
ATOM      1  C   UNL d   1      -0.492   1.070  -0.177  0.00  0.00     0.078 C 
ATOM      2  C1  UNL d   1       0.365  -0.119   0.140  0.00  0.00    -0.077 A 
ATOM      3  C2  UNL d   1       1.724  -0.138  -0.194  0.00  0.00    -0.001 A 
ATOM      4  C3  UNL d   1       2.507  -1.256   0.098  0.00  0.00     0.003 A 
ATOM      5  C4  UNL d   1       1.939  -2.364   0.723  0.00  0.00    -0.005 A 
ATOM      6  C5  UNL d   1       0.587  -2.356   1.056  0.00  0.00     0.003 A 
ATOM      7  C6  UNL d   1      -0.198  -1.239   0.766  0.00  0.00    -0.001 A 
ENDROOT
TORSDOF 0
ENDMDL
