MODEL 1
REMARK minimizedAffinity -5.47234917
REMARK minimizedRMSD -1
REMARK  0 active torsions:
REMARK  status: ('A' for Active; 'I' for Inactive)
ROOT
ATOM      1  C   UNL d   1       0.587   0.707  -0.299  0.00  0.00     0.078 C 
ATOM      2  C1  UNL d   1       1.078  -0.480   0.475  0.00  0.00    -0.077 A 
ATOM      3  C2  UNL d   1       0.207  -1.232   1.273  0.00  0.00    -0.001 A 
ATOM      4  C3  UNL d   1       0.680  -2.328   1.995  0.00  0.00     0.003 A 
ATOM      5  C4  UNL d   1       2.026  -2.683   1.927  0.00  0.00    -0.005 A 
ATOM      6  C5  UNL d   1       2.901  -1.940   1.138  0.00  0.00     0.003 A 
ATOM      7  C6  UNL d   1       2.430  -0.843   0.415  0.00  0.00    -0.001 A 
ENDROOT
TORSDOF 0
ENDMDL
