MODEL 1
REMARK minimizedAffinity -2.40557098
REMARK minimizedRMSD -1
REMARK  0 active torsions:
REMARK  status: ('A' for Active; 'I' for Inactive)
ROOT
ATOM      1  C   UNL d   1       2.349  -1.628   0.607  0.00  0.00     0.078 C 
ATOM      2  C1  UNL d   1       1.123  -0.766   0.659  0.00  0.00    -0.077 A 
ATOM      3  C2  UNL d   1       0.893   0.220  -0.308  0.00  0.00    -0.001 A 
ATOM      4  C3  UNL d   1      -0.248   1.021  -0.242  0.00  0.00     0.003 A 
ATOM      5  C4  UNL d   1      -1.167   0.846   0.791  0.00  0.00    -0.005 A 
ATOM      6  C5  UNL d   1      -0.945  -0.131   1.760  0.00  0.00     0.003 A 
ATOM      7  C6  UNL d   1       0.195  -0.934   1.695  0.00  0.00    -0.001 A 
ENDROOT
TORSDOF 0
ENDMDL
