MODEL 1
REMARK minimizedAffinity -4.14728022
REMARK minimizedRMSD -1
REMARK  0 active torsions:
REMARK  status: ('A' for Active; 'I' for Inactive)
ROOT
ATOM      1  C   UNL d   1       1.444  -2.742   1.051  0.00  0.00     0.078 C 
ATOM      2  C1  UNL d   1       0.731  -1.496   0.617  0.00  0.00    -0.077 A 
ATOM      3  C2  UNL d   1      -0.592  -1.251   1.004  0.00  0.00    -0.001 A 
ATOM      4  C3  UNL d   1      -1.247  -0.092   0.586  0.00  0.00     0.003 A 
ATOM      5  C4  UNL d   1      -0.587   0.831  -0.224  0.00  0.00    -0.005 A 
ATOM      6  C5  UNL d   1       0.729   0.595  -0.616  0.00  0.00     0.003 A 
ATOM      7  C6  UNL d   1       1.385  -0.564  -0.198  0.00  0.00    -0.001 A 
ENDROOT
TORSDOF 0
ENDMDL
