MODEL 1
REMARK minimizedAffinity -5.18110609
REMARK minimizedRMSD -1
REMARK  0 active torsions:
REMARK  status: ('A' for Active; 'I' for Inactive)
ROOT
ATOM      1  C   UNL d   1      -0.746   0.810  -0.633  0.00  0.00     0.078 C 
ATOM      2  C1  UNL d   1       0.060  -0.275   0.016  0.00  0.00    -0.077 A 
ATOM      3  C2  UNL d   1       1.443  -0.363  -0.183  0.00  0.00    -0.001 A 
ATOM      4  C3  UNL d   1       2.180  -1.384   0.420  0.00  0.00     0.003 A 
ATOM      5  C4  UNL d   1       1.541  -2.325   1.225  0.00  0.00    -0.005 A 
ATOM      6  C5  UNL d   1       0.165  -2.247   1.427  0.00  0.00     0.003 A 
ATOM      7  C6  UNL d   1      -0.573  -1.227   0.825  0.00  0.00    -0.001 A 
ENDROOT
TORSDOF 0
ENDMDL
