MODEL 1
REMARK minimizedAffinity -5.90783691
REMARK minimizedRMSD -1
REMARK  0 active torsions:
REMARK  status: ('A' for Active; 'I' for Inactive)
ROOT
ATOM      1  C   UNL d   1      -0.337   1.125  -0.770  0.00  0.00     0.078 C 
ATOM      2  C1  UNL d   1       0.386  -0.046  -0.175  0.00  0.00    -0.077 A 
ATOM      3  C2  UNL d   1       1.772  -0.016   0.019  0.00  0.00    -0.001 A 
ATOM      4  C3  UNL d   1       2.433  -1.117   0.565  0.00  0.00     0.003 A 
ATOM      5  C4  UNL d   1       1.716  -2.258   0.921  0.00  0.00    -0.005 A 
ATOM      6  C5  UNL d   1       0.336  -2.299   0.729  0.00  0.00     0.003 A 
ATOM      7  C6  UNL d   1      -0.326  -1.198   0.183  0.00  0.00    -0.001 A 
ENDROOT
TORSDOF 0
ENDMDL
