MODEL 1
REMARK minimizedAffinity 5.80015373
REMARK minimizedRMSD -1
REMARK  2 active torsions:
REMARK  status: ('A' for Active; 'I' for Inactive)
REMARK    1  A    between atoms: C1_2  and  C2_3 
REMARK    2  A    between atoms: C2_3  and  C3_4 
ROOT
ATOM      1  C3  UNL d   1       2.498  -3.625   5.002  0.00  0.00    -0.075 A 
ATOM      2  C4  UNL d   1       1.183  -3.593   5.489  0.00  0.00     0.002 A 
ATOM      3  C5  UNL d   1       0.585  -4.750   5.989  0.00  0.00     0.002 A 
ATOM      4  C6  UNL d   1       1.288  -5.953   5.999  0.00  0.00    -0.004 A 
ATOM      5  C7  UNL d   1       2.589  -6.000   5.503  0.00  0.00     0.002 A 
ATOM      6  C8  UNL d   1       3.192  -4.843   5.006  0.00  0.00     0.002 A 
ENDROOT
BRANCH   1   7
ATOM      7  C2  UNL d   1       3.162  -2.370   4.487  0.00  0.00     0.056 C 
BRANCH   7   8
ATOM      8  C1  UNL d   1       2.203  -1.189   4.302  0.00  0.00     0.007 C 
ATOM      9  C   UNL d   1       2.291  -0.555   2.920  0.00  0.00     0.009 C 
ENDBRANCH   7   8
ENDBRANCH   1   7
TORSDOF 2
ENDMDL
