MODEL 1
REMARK minimizedAffinity 7.42294312
REMARK minimizedRMSD -1
REMARK  2 active torsions:
REMARK  status: ('A' for Active; 'I' for Inactive)
REMARK    1  A    between atoms: C1_2  and  C2_3 
REMARK    2  A    between atoms: C2_3  and  C3_4 
ROOT
ATOM      1  C3  UNL d   1      -5.879   1.404  -3.923  0.00  0.00    -0.075 A 
ATOM      2  C4  UNL d   1      -5.729   1.178  -5.299  0.00  0.00     0.002 A 
ATOM      3  C5  UNL d   1      -5.693  -0.123  -5.803  0.00  0.00     0.002 A 
ATOM      4  C6  UNL d   1      -5.796  -1.211  -4.940  0.00  0.00    -0.004 A 
ATOM      5  C7  UNL d   1      -5.929  -0.998  -3.569  0.00  0.00     0.002 A 
ATOM      6  C8  UNL d   1      -5.969   0.302  -3.062  0.00  0.00     0.002 A 
ENDROOT
BRANCH   1   7
ATOM      7  C2  UNL d   1      -5.948   2.809  -3.375  0.00  0.00     0.056 C 
BRANCH   7   8
ATOM      8  C1  UNL d   1      -5.993   3.898  -4.452  0.00  0.00     0.007 C 
ATOM      9  C   UNL d   1      -5.998   5.309  -3.879  0.00  0.00     0.009 C 
ENDBRANCH   7   8
ENDBRANCH   1   7
TORSDOF 2
ENDMDL
