MODEL 1
REMARK minimizedAffinity 11.8736944
REMARK minimizedRMSD -1
REMARK  2 active torsions:
REMARK  status: ('A' for Active; 'I' for Inactive)
REMARK    1  A    between atoms: C1_2  and  C2_3 
REMARK    2  A    between atoms: C2_3  and  C3_4 
ROOT
ATOM      1  C3  UNL d   1       2.370  -2.528   3.831  0.00  0.00    -0.075 A 
ATOM      2  C4  UNL d   1       2.156  -3.854   3.428  0.00  0.00     0.002 A 
ATOM      3  C5  UNL d   1       3.027  -4.866   3.832  0.00  0.00     0.002 A 
ATOM      4  C6  UNL d   1       4.126  -4.565   4.633  0.00  0.00    -0.004 A 
ATOM      5  C7  UNL d   1       4.358  -3.249   5.025  0.00  0.00     0.002 A 
ATOM      6  C8  UNL d   1       3.486  -2.234   4.626  0.00  0.00     0.002 A 
ENDROOT
BRANCH   1   7
ATOM      7  C2  UNL d   1       1.415  -1.432   3.421  0.00  0.00     0.056 C 
BRANCH   7   8
ATOM      8  C1  UNL d   1       1.823  -0.695   2.141  0.00  0.00     0.007 C 
ATOM      9  C   UNL d   1       1.736   0.820   2.267  0.00  0.00     0.009 C 
ENDBRANCH   7   8
ENDBRANCH   1   7
TORSDOF 2
ENDMDL
