MODEL 1
REMARK minimizedAffinity 5.90091276
REMARK minimizedRMSD -1
REMARK  2 active torsions:
REMARK  status: ('A' for Active; 'I' for Inactive)
REMARK    1  A    between atoms: C1_2  and  C2_3 
REMARK    2  A    between atoms: C2_3  and  C3_4 
ROOT
ATOM      1  C3  UNL d   1       3.511  -3.093   3.773  0.00  0.00    -0.075 A 
ATOM      2  C4  UNL d   1       4.655  -2.283   3.747  0.00  0.00     0.002 A 
ATOM      3  C5  UNL d   1       5.890  -2.813   3.371  0.00  0.00     0.002 A 
ATOM      4  C6  UNL d   1       5.998  -4.158   3.026  0.00  0.00    -0.004 A 
ATOM      5  C7  UNL d   1       4.871  -4.976   3.065  0.00  0.00     0.002 A 
ATOM      6  C8  UNL d   1       3.633  -4.448   3.436  0.00  0.00     0.002 A 
ENDROOT
BRANCH   1   7
ATOM      7  C2  UNL d   1       2.166  -2.519   4.151  0.00  0.00     0.056 C 
BRANCH   7   8
ATOM      8  C1  UNL d   1       1.964  -1.064   3.714  0.00  0.00     0.007 C 
ATOM      9  C   UNL d   1       1.957  -0.887   2.202  0.00  0.00     0.009 C 
ENDBRANCH   7   8
ENDBRANCH   1   7
TORSDOF 2
ENDMDL
