MODEL 1
REMARK minimizedAffinity 10.4734306
REMARK minimizedRMSD -1
REMARK  2 active torsions:
REMARK  status: ('A' for Active; 'I' for Inactive)
REMARK    1  A    between atoms: C1_2  and  C2_3 
REMARK    2  A    between atoms: C2_3  and  C3_4 
ROOT
ATOM      1  C3  UNL d   1       1.846  -2.823   3.794  0.00  0.00    -0.075 A 
ATOM      2  C4  UNL d   1       2.992  -3.551   3.441  0.00  0.00     0.002 A 
ATOM      3  C5  UNL d   1       3.016  -4.940   3.568  0.00  0.00     0.002 A 
ATOM      4  C6  UNL d   1       1.901  -5.617   4.057  0.00  0.00    -0.004 A 
ATOM      5  C7  UNL d   1       0.763  -4.903   4.426  0.00  0.00     0.002 A 
ATOM      6  C8  UNL d   1       0.735  -3.513   4.297  0.00  0.00     0.002 A 
ENDROOT
BRANCH   1   7
ATOM      7  C2  UNL d   1       1.803  -1.322   3.632  0.00  0.00     0.056 C 
BRANCH   7   8
ATOM      8  C1  UNL d   1       1.469  -0.858   2.211  0.00  0.00     0.007 C 
ATOM      9  C   UNL d   1       2.078   0.494   1.862  0.00  0.00     0.009 C 
ENDBRANCH   7   8
ENDBRANCH   1   7
TORSDOF 2
ENDMDL
