MODEL 1
REMARK minimizedAffinity 6.41327143
REMARK minimizedRMSD -1
REMARK  2 active torsions:
REMARK  status: ('A' for Active; 'I' for Inactive)
REMARK    1  A    between atoms: C1_2  and  C2_3 
REMARK    2  A    between atoms: C2_3  and  C3_4 
ROOT
ATOM      1  C3  UNL d   1       1.980  -0.366   1.958  0.00  0.00    -0.075 A 
ATOM      2  C4  UNL d   1       3.175  -0.272   1.229  0.00  0.00     0.002 A 
ATOM      3  C5  UNL d   1       4.343  -0.869   1.704  0.00  0.00     0.002 A 
ATOM      4  C6  UNL d   1       4.334  -1.557   2.915  0.00  0.00    -0.004 A 
ATOM      5  C7  UNL d   1       3.157  -1.643   3.655  0.00  0.00     0.002 A 
ATOM      6  C8  UNL d   1       1.986  -1.050   3.181  0.00  0.00     0.002 A 
ENDROOT
BRANCH   1   7
ATOM      7  C2  UNL d   1       0.706   0.253   1.435  0.00  0.00     0.056 C 
BRANCH   7   8
ATOM      8  C1  UNL d   1      -0.388  -0.765   1.094  0.00  0.00     0.007 C 
ATOM      9  C   UNL d   1      -0.291  -1.295  -0.330  0.00  0.00     0.009 C 
ENDBRANCH   7   8
ENDBRANCH   1   7
TORSDOF 2
ENDMDL
