MODEL 1
REMARK minimizedAffinity 3.00836635
REMARK minimizedRMSD -1
REMARK  2 active torsions:
REMARK  status: ('A' for Active; 'I' for Inactive)
REMARK    1  A    between atoms: C1_2  and  C2_3 
REMARK    2  A    between atoms: C2_3  and  C3_4 
ROOT
ATOM      1  C3  UNL d   1       2.602  -3.501  -2.336  0.00  0.00    -0.075 A 
ATOM      2  C4  UNL d   1       2.116  -3.648  -1.029  0.00  0.00     0.002 A 
ATOM      3  C5  UNL d   1       2.154  -4.889  -0.394  0.00  0.00     0.002 A 
ATOM      4  C6  UNL d   1       2.669  -6.000  -1.059  0.00  0.00    -0.004 A 
ATOM      5  C7  UNL d   1       3.139  -5.870  -2.364  0.00  0.00     0.002 A 
ATOM      6  C8  UNL d   1       3.106  -4.628  -3.000  0.00  0.00     0.002 A 
ENDROOT
BRANCH   1   7
ATOM      7  C2  UNL d   1       2.590  -2.154  -3.019  0.00  0.00     0.056 C 
BRANCH   7   8
ATOM      8  C1  UNL d   1       3.937  -1.425  -2.982  0.00  0.00     0.007 C 
ATOM      9  C   UNL d   1       3.832   0.048  -3.354  0.00  0.00     0.009 C 
ENDBRANCH   7   8
ENDBRANCH   1   7
TORSDOF 2
ENDMDL
