MODEL 1
REMARK minimizedAffinity 11.3269539
REMARK minimizedRMSD -1
REMARK  2 active torsions:
REMARK  status: ('A' for Active; 'I' for Inactive)
REMARK    1  A    between atoms: C1_2  and  C2_3 
REMARK    2  A    between atoms: C2_3  and  C3_4 
ROOT
ATOM      1  C3  UNL d   1       2.745  -2.959   3.738  0.00  0.00    -0.075 A 
ATOM      2  C4  UNL d   1       3.063  -4.170   3.107  0.00  0.00     0.002 A 
ATOM      3  C5  UNL d   1       2.830  -5.386   3.751  0.00  0.00     0.002 A 
ATOM      4  C6  UNL d   1       2.288  -5.406   5.034  0.00  0.00    -0.004 A 
ATOM      5  C7  UNL d   1       1.983  -4.208   5.676  0.00  0.00     0.002 A 
ATOM      6  C8  UNL d   1       2.211  -2.990   5.033  0.00  0.00     0.002 A 
ENDROOT
BRANCH   1   7
ATOM      7  C2  UNL d   1       2.967  -1.640   3.035  0.00  0.00     0.056 C 
BRANCH   7   8
ATOM      8  C1  UNL d   1       1.684  -0.993   2.503  0.00  0.00     0.007 C 
ATOM      9  C   UNL d   1       1.865   0.468   2.114  0.00  0.00     0.009 C 
ENDBRANCH   7   8
ENDBRANCH   1   7
TORSDOF 2
ENDMDL
