MODEL 1
REMARK minimizedAffinity -0.101268314
REMARK minimizedRMSD -1
REMARK  2 active torsions:
REMARK  status: ('A' for Active; 'I' for Inactive)
REMARK    1  A    between atoms: C2'_3  and  C1'_4 
REMARK    2  A    between atoms: C1'_4  and  C1_5 
ROOT
ATOM      1  C1  I4B d   1      -0.711   0.084  -0.000  0.00  0.00    -0.075 A 
ATOM      2  C2  I4B d   1      -1.035  -1.187   0.404  0.00  0.00     0.003 A 
ATOM      3  C3  I4B d   1      -0.098  -2.239   0.266  0.00  0.00     0.002 A 
ATOM      4  C4  I4B d   1       1.124  -1.988  -0.325  0.00  0.00    -0.004 A 
ATOM      5  C5  I4B d   1       1.459  -0.694  -0.714  0.00  0.00     0.002 A 
ATOM      6  C6  I4B d   1       0.541   0.351  -0.539  0.00  0.00     0.003 A 
ENDROOT
BRANCH   1   7
ATOM      7  C1' I4B d   1      -1.737   1.166   0.131  0.00  0.00     0.060 C 
BRANCH   7   8
ATOM      8  C2' I4B d   1      -3.083   0.507   0.355  0.00  0.00    -0.013 C 
ATOM      9  C4' I4B d   1      -3.848   1.193   1.456  0.00  0.00     0.013 C 
ATOM     10  C3' I4B d   1      -3.840   0.550  -0.939  0.00  0.00     0.013 C 
ENDBRANCH   7   8
ENDBRANCH   1   7
TORSDOF 2
ENDMDL
