MODEL 1
REMARK minimizedAffinity -5.47030973
REMARK minimizedRMSD -1
REMARK  2 active torsions:
REMARK  status: ('A' for Active; 'I' for Inactive)
REMARK    1  A    between atoms: C2'_3  and  C1'_4 
REMARK    2  A    between atoms: C1'_4  and  C1_5 
ROOT
ATOM      1  C1  I4B d   1      -0.188   0.323  -0.242  0.00  0.00    -0.075 A 
ATOM      2  C2  I4B d   1       0.892   0.828   0.438  0.00  0.00     0.003 A 
ATOM      3  C3  I4B d   1       2.010   0.004   0.713  0.00  0.00     0.002 A 
ATOM      4  C4  I4B d   1       1.985  -1.323   0.336  0.00  0.00    -0.004 A 
ATOM      5  C5  I4B d   1       0.899  -1.827  -0.374  0.00  0.00     0.002 A 
ATOM      6  C6  I4B d   1      -0.190  -0.996  -0.676  0.00  0.00     0.003 A 
ENDROOT
BRANCH   1   7
ATOM      7  C1' I4B d   1      -1.367   1.212  -0.485  0.00  0.00     0.060 C 
BRANCH   7   8
ATOM      8  C2' I4B d   1      -2.493   0.752   0.418  0.00  0.00    -0.013 C 
ATOM      9  C4' I4B d   1      -2.585   1.608   1.654  0.00  0.00     0.013 C 
ATOM     10  C3' I4B d   1      -3.768   0.802  -0.371  0.00  0.00     0.013 C 
ENDBRANCH   7   8
ENDBRANCH   1   7
TORSDOF 2
ENDMDL
