MODEL 1
REMARK minimizedAffinity 0.865516365
REMARK minimizedRMSD -1
REMARK  2 active torsions:
REMARK  status: ('A' for Active; 'I' for Inactive)
REMARK    1  A    between atoms: C2'_3  and  C1'_4 
REMARK    2  A    between atoms: C1'_4  and  C1_5 
ROOT
ATOM      1  C1  I4B d   1      -2.152   0.683  -0.255  0.00  0.00    -0.075 A 
ATOM      2  C2  I4B d   1      -2.310   0.730   1.108  0.00  0.00     0.003 A 
ATOM      3  C3  I4B d   1      -3.568   0.440   1.690  0.00  0.00     0.002 A 
ATOM      4  C4  I4B d   1      -4.645   0.159   0.875  0.00  0.00    -0.004 A 
ATOM      5  C5  I4B d   1      -4.477   0.090  -0.505  0.00  0.00     0.002 A 
ATOM      6  C6  I4B d   1      -3.220   0.341  -1.074  0.00  0.00     0.003 A 
ENDROOT
BRANCH   1   7
ATOM      7  C1' I4B d   1      -0.818   1.028  -0.838  0.00  0.00     0.060 C 
BRANCH   7   8
ATOM      8  C2' I4B d   1       0.251   0.517   0.107  0.00  0.00    -0.013 C 
ATOM      9  C4' I4B d   1       0.741  -0.845  -0.309  0.00  0.00     0.013 C 
ATOM     10  C3' I4B d   1       1.370   1.515   0.122  0.00  0.00     0.013 C 
ENDBRANCH   7   8
ENDBRANCH   1   7
TORSDOF 2
ENDMDL
