MODEL 1
REMARK minimizedAffinity 0.968722284
REMARK minimizedRMSD -1
REMARK  1 active torsions:
REMARK  status: ('A' for Active; 'I' for Inactive)
REMARK    1  A    between atoms: N_2  and  C1_3 
ROOT
ATOM      1  C1  UNL d   1      -0.558   0.714  -0.451  0.00  0.00     0.143 A 
ATOM      2  C2  UNL d   1      -0.221  -0.539   0.072  0.00  0.00    -0.057 A 
ATOM      3  C3  UNL d   1       1.048  -0.784   0.610  0.00  0.00     0.033 A 
ATOM      4  C4  UNL d   1       2.016   0.215   0.609  0.00  0.00    -0.042 A 
ATOM      5  C5  UNL d   1       1.711   1.461   0.072  0.00  0.00     0.033 A 
ATOM      6  C6  UNL d   1       0.439   1.701  -0.458  0.00  0.00    -0.057 A 
ENDROOT
BRANCH   1   7
ATOM      7  N   UNL d   1      -1.770   0.990  -1.089  0.00  0.00    -0.732 N 
ATOM      8  C   UNL d   1      -2.038   0.476  -2.415  0.00  0.00     0.284 C 
ATOM      9  H3  UNL d   1      -2.563   0.939  -0.454  0.00  0.00     0.395 HD
ENDBRANCH   1   7
TORSDOF 1
ENDMDL
