MODEL 1
REMARK minimizedAffinity -5.11982059
REMARK minimizedRMSD -1
REMARK  1 active torsions:
REMARK  status: ('A' for Active; 'I' for Inactive)
REMARK    1  A    between atoms: N_2  and  C1_3 
ROOT
ATOM      1  C1  UNL d   1       0.820  -0.907   1.090  0.00  0.00     0.143 A 
ATOM      2  C2  UNL d   1       1.831  -0.290   0.345  0.00  0.00    -0.057 A 
ATOM      3  C3  UNL d   1       3.180  -0.596   0.560  0.00  0.00     0.033 A 
ATOM      4  C4  UNL d   1       3.545  -1.507   1.546  0.00  0.00    -0.042 A 
ATOM      5  C5  UNL d   1       2.558  -2.114   2.315  0.00  0.00     0.033 A 
ATOM      6  C6  UNL d   1       1.212  -1.809   2.091  0.00  0.00    -0.057 A 
ENDROOT
BRANCH   1   7
ATOM      7  N   UNL d   1      -0.533  -0.572   0.991  0.00  0.00    -0.732 N 
ATOM      8  C   UNL d   1      -0.999   0.314  -0.053  0.00  0.00     0.284 C 
ATOM      9  H3  UNL d   1      -1.143  -1.368   1.164  0.00  0.00     0.395 HD
ENDBRANCH   1   7
TORSDOF 1
ENDMDL
