MODEL 1
REMARK minimizedAffinity -5.20734406
REMARK minimizedRMSD -1
REMARK  1 active torsions:
REMARK  status: ('A' for Active; 'I' for Inactive)
REMARK    1  A    between atoms: N_2  and  C1_3 
ROOT
ATOM      1  C1  UNL d   1       2.013  -1.718   1.721  0.00  0.00     0.143 A 
ATOM      2  C2  UNL d   1       0.948  -1.075   1.082  0.00  0.00    -0.057 A 
ATOM      3  C3  UNL d   1       1.166  -0.001   0.210  0.00  0.00     0.033 A 
ATOM      4  C4  UNL d   1       2.455   0.469  -0.015  0.00  0.00    -0.042 A 
ATOM      5  C5  UNL d   1       3.527  -0.139   0.629  0.00  0.00     0.033 A 
ATOM      6  C6  UNL d   1       3.304  -1.215   1.493  0.00  0.00    -0.057 A 
ENDROOT
BRANCH   1   7
ATOM      7  N   UNL d   1       1.854  -2.727   2.674  0.00  0.00    -0.732 N 
ATOM      8  C   UNL d   1       1.478  -2.404   4.034  0.00  0.00     0.284 C 
ATOM      9  H3  UNL d   1       1.385  -3.548   2.297  0.00  0.00     0.395 HD
ENDBRANCH   1   7
TORSDOF 1
ENDMDL
