MODEL 1
REMARK minimizedAffinity -4.67791319
REMARK minimizedRMSD -1
REMARK  1 active torsions:
REMARK  status: ('A' for Active; 'I' for Inactive)
REMARK    1  A    between atoms: N_2  and  C1_3 
ROOT
ATOM      1  C1  UNL d   1      -0.043  -0.518   0.491  0.00  0.00     0.143 A 
ATOM      2  C2  UNL d   1       0.799   0.594   0.389  0.00  0.00    -0.057 A 
ATOM      3  C3  UNL d   1       2.158   0.508   0.713  0.00  0.00     0.033 A 
ATOM      4  C4  UNL d   1       2.695  -0.689   1.175  0.00  0.00    -0.042 A 
ATOM      5  C5  UNL d   1       1.871  -1.801   1.308  0.00  0.00     0.033 A 
ATOM      6  C6  UNL d   1       0.516  -1.711   0.976  0.00  0.00    -0.057 A 
ENDROOT
BRANCH   1   7
ATOM      7  N   UNL d   1      -1.423  -0.471   0.277  0.00  0.00    -0.732 N 
ATOM      8  C   UNL d   1      -1.963   0.134  -0.921  0.00  0.00     0.284 C 
ATOM      9  H3  UNL d   1      -1.888  -1.333   0.553  0.00  0.00     0.395 HD
ENDBRANCH   1   7
TORSDOF 1
ENDMDL
