MODEL 1
REMARK minimizedAffinity -3.10332441
REMARK minimizedRMSD -1
REMARK  1 active torsions:
REMARK  status: ('A' for Active; 'I' for Inactive)
REMARK    1  A    between atoms: N_2  and  C1_3 
ROOT
ATOM      1  C1  UNL d   1      -1.138   0.067  -1.011  0.00  0.00     0.143 A 
ATOM      2  C2  UNL d   1      -1.161  -0.978  -1.941  0.00  0.00    -0.057 A 
ATOM      3  C3  UNL d   1      -2.071  -0.983  -3.005  0.00  0.00     0.033 A 
ATOM      4  C4  UNL d   1      -2.996   0.046  -3.142  0.00  0.00    -0.042 A 
ATOM      5  C5  UNL d   1      -3.008   1.083  -2.216  0.00  0.00     0.033 A 
ATOM      6  C6  UNL d   1      -2.093   1.086  -1.159  0.00  0.00    -0.057 A 
ENDROOT
BRANCH   1   7
ATOM      7  N   UNL d   1      -0.325   0.080   0.125  0.00  0.00    -0.732 N 
ATOM      8  C   UNL d   1       0.713   1.077   0.276  0.00  0.00     0.284 C 
ATOM      9  H3  UNL d   1      -0.845  -0.111   0.978  0.00  0.00     0.395 HD
ENDBRANCH   1   7
TORSDOF 1
ENDMDL
