MODEL 1
REMARK minimizedAffinity -3.08539653
REMARK minimizedRMSD -1
REMARK  1 active torsions:
REMARK  status: ('A' for Active; 'I' for Inactive)
REMARK    1  A    between atoms: N_2  and  C1_3 
ROOT
ATOM      1  C1  UNL d   1      -1.497  -0.262  -1.207  0.00  0.00     0.143 A 
ATOM      2  C2  UNL d   1      -0.393   0.591  -1.105  0.00  0.00    -0.057 A 
ATOM      3  C3  UNL d   1       0.399   0.620   0.049  0.00  0.00     0.033 A 
ATOM      4  C4  UNL d   1       0.082  -0.186   1.138  0.00  0.00    -0.042 A 
ATOM      5  C5  UNL d   1      -1.026  -1.024   1.069  0.00  0.00     0.033 A 
ATOM      6  C6  UNL d   1      -1.809  -1.053  -0.090  0.00  0.00    -0.057 A 
ENDROOT
BRANCH   1   7
ATOM      7  N   UNL d   1      -2.380  -0.265  -2.289  0.00  0.00    -0.732 N 
ATOM      8  C   UNL d   1      -2.423  -1.387  -3.202  0.00  0.00     0.284 C 
ATOM      9  H3  UNL d   1      -3.295   0.107  -2.045  0.00  0.00     0.395 HD
ENDBRANCH   1   7
TORSDOF 1
ENDMDL
