MODEL 1
REMARK minimizedAffinity 16.5243435
REMARK minimizedRMSD -1
REMARK  3 active torsions:
REMARK  status: ('A' for Active; 'I' for Inactive)
REMARK    1  A    between atoms: C3'_2  and  C2'_3 
REMARK    2  A    between atoms: C2'_3  and  C1'_4 
REMARK    3  A    between atoms: C1'_4  and  C1_5 
ROOT
ATOM      1  C1  N4B d   1       4.275  -2.935   0.752  0.00  0.00    -0.075 A 
ATOM      2  C2  N4B d   1       5.611  -3.391   0.716  0.00  0.00     0.002 A 
ATOM      3  C3  N4B d   1       5.999  -4.444   1.507  0.00  0.00     0.002 A 
ATOM      4  C4  N4B d   1       5.077  -5.043   2.352  0.00  0.00    -0.004 A 
ATOM      5  C5  N4B d   1       3.782  -4.614   2.362  0.00  0.00     0.002 A 
ATOM      6  C6  N4B d   1       3.377  -3.558   1.570  0.00  0.00     0.002 A 
ENDROOT
BRANCH   1   7
ATOM      7  C1' N4B d   1       3.825  -1.731  -0.030  0.00  0.00     0.057 C 
BRANCH   7   8
ATOM      8  C2' N4B d   1       3.699  -2.110  -1.503  0.00  0.00     0.009 C 
BRANCH   8   9
ATOM      9  C3' N4B d   1       3.731  -3.615  -1.707  0.00  0.00     0.004 C 
ATOM     10  C4' N4B d   1       2.908  -4.059  -2.880  0.00  0.00     0.003 C 
ENDBRANCH   8   9
ENDBRANCH   7   8
ENDBRANCH   1   7
TORSDOF 3
ENDMDL
