MODEL 1
REMARK minimizedAffinity 7.73616362
REMARK minimizedRMSD -1
REMARK  3 active torsions:
REMARK  status: ('A' for Active; 'I' for Inactive)
REMARK    1  A    between atoms: C3'_2  and  C2'_3 
REMARK    2  A    between atoms: C2'_3  and  C1'_4 
REMARK    3  A    between atoms: C1'_4  and  C1_5 
ROOT
ATOM      1  C1  N4B d   1       0.241  -2.979   1.193  0.00  0.00    -0.075 A 
ATOM      2  C2  N4B d   1      -0.918  -2.177   1.284  0.00  0.00     0.002 A 
ATOM      3  C3  N4B d   1      -2.047  -2.520   0.582  0.00  0.00     0.002 A 
ATOM      4  C4  N4B d   1      -2.035  -3.644  -0.230  0.00  0.00    -0.004 A 
ATOM      5  C5  N4B d   1      -0.920  -4.427  -0.293  0.00  0.00     0.002 A 
ATOM      6  C6  N4B d   1       0.221  -4.097   0.411  0.00  0.00     0.002 A 
ENDROOT
BRANCH   1   7
ATOM      7  C1' N4B d   1       1.526  -2.597   1.875  0.00  0.00     0.057 C 
BRANCH   7   8
ATOM      8  C2' N4B d   1       1.684  -1.080   1.834  0.00  0.00     0.009 C 
BRANCH   8   9
ATOM      9  C3' N4B d   1       1.346  -0.438   3.169  0.00  0.00     0.004 C 
ATOM     10  C4' N4B d   1       1.130  -1.445   4.260  0.00  0.00     0.003 C 
ENDBRANCH   8   9
ENDBRANCH   7   8
ENDBRANCH   1   7
TORSDOF 3
ENDMDL
