MODEL 1
REMARK minimizedAffinity 12.9281235
REMARK minimizedRMSD -1
REMARK  3 active torsions:
REMARK  status: ('A' for Active; 'I' for Inactive)
REMARK    1  A    between atoms: C3'_2  and  C2'_3 
REMARK    2  A    between atoms: C2'_3  and  C1'_4 
REMARK    3  A    between atoms: C1'_4  and  C1_5 
ROOT
ATOM      1  C1  N4B d   1       1.316  -3.751  -0.190  0.00  0.00    -0.075 A 
ATOM      2  C2  N4B d   1       1.535  -4.436  -1.406  0.00  0.00     0.002 A 
ATOM      3  C3  N4B d   1       0.556  -5.250  -1.921  0.00  0.00     0.002 A 
ATOM      4  C4  N4B d   1      -0.637  -5.409  -1.232  0.00  0.00    -0.004 A 
ATOM      5  C5  N4B d   1      -0.850  -4.724  -0.071  0.00  0.00     0.002 A 
ATOM      6  C6  N4B d   1       0.123  -3.900   0.456  0.00  0.00     0.002 A 
ENDROOT
BRANCH   1   7
ATOM      7  C1' N4B d   1       2.389  -2.918   0.456  0.00  0.00     0.057 C 
BRANCH   7   8
ATOM      8  C2' N4B d   1       3.640  -2.947  -0.417  0.00  0.00     0.009 C 
BRANCH   8   9
ATOM      9  C3' N4B d   1       4.904  -2.717   0.393  0.00  0.00     0.004 C 
ATOM     10  C4' N4B d   1       5.999  -3.682   0.049  0.00  0.00     0.003 C 
ENDBRANCH   8   9
ENDBRANCH   7   8
ENDBRANCH   1   7
TORSDOF 3
ENDMDL
