MODEL 1
REMARK minimizedAffinity 6.74827909
REMARK minimizedRMSD -1
REMARK  3 active torsions:
REMARK  status: ('A' for Active; 'I' for Inactive)
REMARK    1  A    between atoms: C3'_2  and  C2'_3 
REMARK    2  A    between atoms: C2'_3  and  C1'_4 
REMARK    3  A    between atoms: C1'_4  and  C1_5 
ROOT
ATOM      1  C1  N4B d   1       3.806  -4.619  -1.679  0.00  0.00    -0.075 A 
ATOM      2  C2  N4B d   1       3.572  -4.122  -0.378  0.00  0.00     0.002 A 
ATOM      3  C3  N4B d   1       2.309  -4.169   0.159  0.00  0.00     0.002 A 
ATOM      4  C4  N4B d   1       1.265  -4.690  -0.591  0.00  0.00    -0.004 A 
ATOM      5  C5  N4B d   1       1.503  -5.191  -1.837  0.00  0.00     0.002 A 
ATOM      6  C6  N4B d   1       2.769  -5.154  -2.387  0.00  0.00     0.002 A 
ENDROOT
BRANCH   1   7
ATOM      7  C1' N4B d   1       5.152  -4.511  -2.341  0.00  0.00     0.057 C 
BRANCH   7   8
ATOM      8  C2' N4B d   1       5.144  -5.326  -3.631  0.00  0.00     0.009 C 
BRANCH   8   9
ATOM      9  C3' N4B d   1       5.657  -4.523  -4.814  0.00  0.00     0.004 C 
ATOM     10  C4' N4B d   1       5.982  -5.381  -6.000  0.00  0.00     0.003 C 
ENDBRANCH   8   9
ENDBRANCH   7   8
ENDBRANCH   1   7
TORSDOF 3
ENDMDL
