MODEL 1
REMARK minimizedAffinity 13.2031841
REMARK minimizedRMSD -1
REMARK  3 active torsions:
REMARK  status: ('A' for Active; 'I' for Inactive)
REMARK    1  A    between atoms: C3'_2  and  C2'_3 
REMARK    2  A    between atoms: C2'_3  and  C1'_4 
REMARK    3  A    between atoms: C1'_4  and  C1_5 
ROOT
ATOM      1  C1  N4B d   1       5.251  -4.911  -1.777  0.00  0.00    -0.075 A 
ATOM      2  C2  N4B d   1       3.847  -4.767  -1.743  0.00  0.00     0.002 A 
ATOM      3  C3  N4B d   1       3.246  -4.145  -0.677  0.00  0.00     0.002 A 
ATOM      4  C4  N4B d   1       4.024  -3.678   0.372  0.00  0.00    -0.004 A 
ATOM      5  C5  N4B d   1       5.382  -3.799   0.320  0.00  0.00     0.002 A 
ATOM      6  C6  N4B d   1       5.999  -4.418  -0.748  0.00  0.00     0.002 A 
ENDROOT
BRANCH   1   7
ATOM      7  C1' N4B d   1       5.946  -5.660  -2.881  0.00  0.00     0.057 C 
BRANCH   7   8
ATOM      8  C2' N4B d   1       5.450  -5.141  -4.228  0.00  0.00     0.009 C 
BRANCH   8   9
ATOM      9  C3' N4B d   1       6.000  -3.760  -4.542  0.00  0.00     0.004 C 
ATOM     10  C4' N4B d   1       5.917  -3.420  -6.000  0.00  0.00     0.003 C 
ENDBRANCH   8   9
ENDBRANCH   7   8
ENDBRANCH   1   7
TORSDOF 3
ENDMDL
