MODEL 1
REMARK minimizedAffinity 4.00544739
REMARK minimizedRMSD -1
REMARK  1 active torsions:
REMARK  status: ('A' for Active; 'I' for Inactive)
REMARK    1  A    between atoms: N_2  and  C1_3 
ROOT
ATOM      1  C1  UNL d   1       4.095   2.409   3.051  0.00  0.00     0.143 A 
ATOM      2  C2  UNL d   1       3.962   2.650   1.680  0.00  0.00    -0.057 A 
ATOM      3  C3  UNL d   1       4.007   3.950   1.163  0.00  0.00     0.033 A 
ATOM      4  C4  UNL d   1       4.157   5.039   2.016  0.00  0.00    -0.042 A 
ATOM      5  C5  UNL d   1       4.267   4.825   3.385  0.00  0.00     0.033 A 
ATOM      6  C6  UNL d   1       4.228   3.523   3.894  0.00  0.00    -0.057 A 
ENDROOT
BRANCH   1   7
ATOM      7  N   UNL d   1       3.960   1.147   3.636  0.00  0.00    -0.732 N 
ATOM      8  C   UNL d   1       2.674   0.484   3.670  0.00  0.00     0.284 C 
ATOM      9  H3  UNL d   1       4.740   0.532   3.416  0.00  0.00     0.395 HD
ENDBRANCH   1   7
TORSDOF 1
ENDMDL
