MODEL 1
REMARK minimizedAffinity 5.59426785
REMARK minimizedRMSD -1
REMARK  1 active torsions:
REMARK  status: ('A' for Active; 'I' for Inactive)
REMARK    1  A    between atoms: N_2  and  C1_3 
ROOT
ATOM      1  C1  UNL d   1      -1.864  -0.722   2.904  0.00  0.00     0.143 A 
ATOM      2  C2  UNL d   1      -1.089   0.393   2.569  0.00  0.00    -0.057 A 
ATOM      3  C3  UNL d   1       0.289   0.421   2.818  0.00  0.00     0.033 A 
ATOM      4  C4  UNL d   1       0.913  -0.658   3.435  0.00  0.00    -0.042 A 
ATOM      5  C5  UNL d   1       0.157  -1.767   3.799  0.00  0.00     0.033 A 
ATOM      6  C6  UNL d   1      -1.217  -1.792   3.542  0.00  0.00    -0.057 A 
ENDROOT
BRANCH   1   7
ATOM      7  N   UNL d   1      -3.254  -0.771   2.772  0.00  0.00    -0.732 N 
ATOM      8  C   UNL d   1      -3.992  -1.945   3.186  0.00  0.00     0.284 C 
ATOM      9  H3  UNL d   1      -3.699   0.109   3.020  0.00  0.00     0.395 HD
ENDBRANCH   1   7
TORSDOF 1
ENDMDL
