MODEL 1
REMARK minimizedAffinity 8.69526768
REMARK minimizedRMSD -1
REMARK  1 active torsions:
REMARK  status: ('A' for Active; 'I' for Inactive)
REMARK    1  A    between atoms: N_2  and  C1_3 
ROOT
ATOM      1  C1  UNL d   1      -0.935  -0.696   1.940  0.00  0.00     0.143 A 
ATOM      2  C2  UNL d   1      -0.012   0.351   1.835  0.00  0.00    -0.057 A 
ATOM      3  C3  UNL d   1       1.280   0.235   2.363  0.00  0.00     0.033 A 
ATOM      4  C4  UNL d   1       1.663  -0.923   3.032  0.00  0.00    -0.042 A 
ATOM      5  C5  UNL d   1       0.754  -1.966   3.170  0.00  0.00     0.033 A 
ATOM      6  C6  UNL d   1      -0.532  -1.847   2.635  0.00  0.00    -0.057 A 
ENDROOT
BRANCH   1   7
ATOM      7  N   UNL d   1      -2.265  -0.604   1.523  0.00  0.00    -0.732 N 
ATOM      8  C   UNL d   1      -3.118  -1.773   1.519  0.00  0.00     0.284 C 
ATOM      9  H3  UNL d   1      -2.720   0.242   1.859  0.00  0.00     0.395 HD
ENDBRANCH   1   7
TORSDOF 1
ENDMDL
