MODEL 1
REMARK minimizedAffinity 7.6256876
REMARK minimizedRMSD -1
REMARK  1 active torsions:
REMARK  status: ('A' for Active; 'I' for Inactive)
REMARK    1  A    between atoms: N_2  and  C1_3 
ROOT
ATOM      1  C1  UNL d   1       4.079   2.861   3.232  0.00  0.00     0.143 A 
ATOM      2  C2  UNL d   1       3.860   2.304   1.967  0.00  0.00    -0.057 A 
ATOM      3  C3  UNL d   1       3.601   3.112   0.853  0.00  0.00     0.033 A 
ATOM      4  C4  UNL d   1       3.527   4.494   0.991  0.00  0.00    -0.042 A 
ATOM      5  C5  UNL d   1       3.716   5.068   2.243  0.00  0.00     0.033 A 
ATOM      6  C6  UNL d   1       3.982   4.256   3.350  0.00  0.00    -0.057 A 
ENDROOT
BRANCH   1   7
ATOM      7  N   UNL d   1       4.244   2.107   4.396  0.00  0.00    -0.732 N 
ATOM      8  C   UNL d   1       5.436   1.310   4.596  0.00  0.00     0.284 C 
ATOM      9  H3  UNL d   1       3.931   2.602   5.228  0.00  0.00     0.395 HD
ENDBRANCH   1   7
TORSDOF 1
ENDMDL
