MODEL 1
REMARK minimizedAffinity 6.26116562
REMARK minimizedRMSD -1
REMARK  1 active torsions:
REMARK  status: ('A' for Active; 'I' for Inactive)
REMARK    1  A    between atoms: N_2  and  C1_3 
ROOT
ATOM      1  C1  UNL d   1       3.196   2.913   5.578  0.00  0.00     0.143 A 
ATOM      2  C2  UNL d   1       3.521   1.562   5.420  0.00  0.00    -0.057 A 
ATOM      3  C3  UNL d   1       4.777   1.168   4.943  0.00  0.00     0.033 A 
ATOM      4  C4  UNL d   1       5.723   2.123   4.587  0.00  0.00    -0.042 A 
ATOM      5  C5  UNL d   1       5.414   3.472   4.713  0.00  0.00     0.033 A 
ATOM      6  C6  UNL d   1       4.160   3.859   5.196  0.00  0.00    -0.057 A 
ENDROOT
BRANCH   1   7
ATOM      7  N   UNL d   1       1.931   3.370   5.954  0.00  0.00    -0.732 N 
ATOM      8  C   UNL d   1       0.803   2.464   6.000  0.00  0.00     0.284 C 
ATOM      9  H3  UNL d   1       1.969   4.025   6.732  0.00  0.00     0.395 HD
ENDBRANCH   1   7
TORSDOF 1
ENDMDL
