MODEL 1
REMARK minimizedAffinity 4.10598135
REMARK minimizedRMSD -1
REMARK  1 active torsions:
REMARK  status: ('A' for Active; 'I' for Inactive)
REMARK    1  A    between atoms: N_2  and  C1_3 
ROOT
ATOM      1  C1  UNL d   1       1.002   1.019   4.578  0.00  0.00     0.143 A 
ATOM      2  C2  UNL d   1       1.545  -0.267   4.487  0.00  0.00    -0.057 A 
ATOM      3  C3  UNL d   1       1.177  -1.139   3.454  0.00  0.00     0.033 A 
ATOM      4  C4  UNL d   1       0.235  -0.748   2.508  0.00  0.00    -0.042 A 
ATOM      5  C5  UNL d   1      -0.335   0.517   2.593  0.00  0.00     0.033 A 
ATOM      6  C6  UNL d   1       0.041   1.385   3.623  0.00  0.00    -0.057 A 
ENDROOT
BRANCH   1   7
ATOM      7  N   UNL d   1       1.253   1.896   5.636  0.00  0.00    -0.732 N 
ATOM      8  C   UNL d   1       0.290   2.915   5.993  0.00  0.00     0.284 C 
ATOM      9  H3  UNL d   1       1.681   1.430   6.433  0.00  0.00     0.395 HD
ENDBRANCH   1   7
TORSDOF 1
ENDMDL
