MODEL 1
REMARK minimizedAffinity 3.76299024
REMARK minimizedRMSD -1
REMARK  1 active torsions:
REMARK  status: ('A' for Active; 'I' for Inactive)
REMARK    1  A    between atoms: N_2  and  C1_3 
ROOT
ATOM      1  C1  UNL d   1       4.559   3.574   3.552  0.00  0.00     0.143 A 
ATOM      2  C2  UNL d   1       4.098   3.585   2.231  0.00  0.00    -0.057 A 
ATOM      3  C3  UNL d   1       4.030   4.775   1.496  0.00  0.00     0.033 A 
ATOM      4  C4  UNL d   1       4.395   5.983   2.080  0.00  0.00    -0.042 A 
ATOM      5  C5  UNL d   1       4.833   6.000   3.400  0.00  0.00     0.033 A 
ATOM      6  C6  UNL d   1       4.905   4.807   4.127  0.00  0.00    -0.057 A 
ENDROOT
BRANCH   1   7
ATOM      7  N   UNL d   1       4.557   2.440   4.367  0.00  0.00    -0.732 N 
ATOM      8  C   UNL d   1       5.509   1.372   4.147  0.00  0.00     0.284 C 
ATOM      9  H3  UNL d   1       4.406   2.666   5.347  0.00  0.00     0.395 HD
ENDBRANCH   1   7
TORSDOF 1
ENDMDL
