MODEL 1
REMARK minimizedAffinity 13.5725746
REMARK minimizedRMSD -1
REMARK  1 active torsions:
REMARK  status: ('A' for Active; 'I' for Inactive)
REMARK    1  A    between atoms: N_2  and  C1_3 
ROOT
ATOM      1  C1  UNL d   1      -0.935  -2.727  -5.065  0.00  0.00     0.143 A 
ATOM      2  C2  UNL d   1      -1.447  -2.725  -3.763  0.00  0.00    -0.057 A 
ATOM      3  C3  UNL d   1      -1.072  -1.743  -2.837  0.00  0.00     0.033 A 
ATOM      4  C4  UNL d   1      -0.154  -0.760  -3.191  0.00  0.00    -0.042 A 
ATOM      5  C5  UNL d   1       0.386  -0.758  -4.472  0.00  0.00     0.033 A 
ATOM      6  C6  UNL d   1       0.003  -1.737  -5.393  0.00  0.00    -0.057 A 
ENDROOT
BRANCH   1   7
ATOM      7  N   UNL d   1      -1.193  -3.733  -6.000  0.00  0.00    -0.732 N 
ATOM      8  C   UNL d   1      -2.436  -4.474  -5.962  0.00  0.00     0.284 C 
ATOM      9  H3  UNL d   1      -0.889  -3.479  -6.937  0.00  0.00     0.395 HD
ENDBRANCH   1   7
TORSDOF 1
ENDMDL
