MODEL 1
REMARK minimizedAffinity 8.46905518
REMARK minimizedRMSD -1
REMARK  1 active torsions:
REMARK  status: ('A' for Active; 'I' for Inactive)
REMARK    1  A    between atoms: N_2  and  C1_3 
ROOT
ATOM      1  C1  UNL d   1       0.559  -1.910   3.433  0.00  0.00     0.143 A 
ATOM      2  C2  UNL d   1      -0.725  -1.539   3.020  0.00  0.00    -0.057 A 
ATOM      3  C3  UNL d   1      -0.941  -0.363   2.292  0.00  0.00     0.033 A 
ATOM      4  C4  UNL d   1       0.123   0.480   1.987  0.00  0.00    -0.042 A 
ATOM      5  C5  UNL d   1       1.404   0.143   2.410  0.00  0.00     0.033 A 
ATOM      6  C6  UNL d   1       1.614  -1.036   3.131  0.00  0.00    -0.057 A 
ENDROOT
BRANCH   1   7
ATOM      7  N   UNL d   1       0.825  -3.016   4.245  0.00  0.00    -0.732 N 
ATOM      8  C   UNL d   1       2.032  -3.072   5.041  0.00  0.00     0.284 C 
ATOM      9  H3  UNL d   1      -0.005  -3.355   4.725  0.00  0.00     0.395 HD
ENDBRANCH   1   7
TORSDOF 1
ENDMDL
