MODEL 1
REMARK minimizedAffinity 4.55563927
REMARK minimizedRMSD -1
REMARK  1 active torsions:
REMARK  status: ('A' for Active; 'I' for Inactive)
REMARK    1  A    between atoms: N_2  and  C1_3 
ROOT
ATOM      1  C1  UNL d   1       0.543   0.577   3.514  0.00  0.00     0.143 A 
ATOM      2  C2  UNL d   1       1.319   0.001   4.526  0.00  0.00    -0.057 A 
ATOM      3  C3  UNL d   1       1.590  -1.373   4.541  0.00  0.00     0.033 A 
ATOM      4  C4  UNL d   1       1.063  -2.202   3.556  0.00  0.00    -0.042 A 
ATOM      5  C5  UNL d   1       0.269  -1.656   2.554  0.00  0.00     0.033 A 
ATOM      6  C6  UNL d   1       0.007  -0.282   2.541  0.00  0.00    -0.057 A 
ENDROOT
BRANCH   1   7
ATOM      7  N   UNL d   1       0.157   1.919   3.498  0.00  0.00    -0.732 N 
ATOM      8  C   UNL d   1      -0.501   2.510   4.643  0.00  0.00     0.284 C 
ATOM      9  H3  UNL d   1       0.855   2.519   3.064  0.00  0.00     0.395 HD
ENDBRANCH   1   7
TORSDOF 1
ENDMDL
