MODEL 1
REMARK minimizedAffinity -1.50609124
REMARK minimizedRMSD -1
REMARK  0 active torsions:
REMARK  status: ('A' for Active; 'I' for Inactive)
ROOT
ATOM      1  C   UNL d   1       0.016  -0.578   1.180  0.00  0.00     0.023 A 
ATOM      2  C1  UNL d   1       1.102  -0.393   0.324  0.00  0.00     0.003 A 
ATOM      3  C2  UNL d   1       0.924   0.249  -0.904  0.00  0.00     0.048 A 
ATOM      4  C3  UNL d   1      -0.343   0.703  -1.269  0.00  0.00     0.023 A 
ATOM      5  C4  UNL d   1      -1.432   0.521  -0.416  0.00  0.00     0.048 A 
ATOM      6  C5  UNL d   1      -1.250  -0.121   0.810  0.00  0.00     0.003 A 
ATOM      7  I   UNL d   1      -0.610   1.658  -3.096  0.00  0.00    -0.146 I 
ENDROOT
TORSDOF 0
ENDMDL
