MODEL 1
REMARK minimizedAffinity 6.48262262
REMARK minimizedRMSD -1
REMARK  0 active torsions:
REMARK  status: ('A' for Active; 'I' for Inactive)
ROOT
ATOM      1  C   UNL d   1       2.017   2.923  -3.597  0.00  0.00     0.023 A 
ATOM      2  C1  UNL d   1       1.319   3.320  -4.737  0.00  0.00     0.003 A 
ATOM      3  C2  UNL d   1      -0.071   3.451  -4.697  0.00  0.00     0.048 A 
ATOM      4  C3  UNL d   1      -0.756   3.183  -3.513  0.00  0.00     0.023 A 
ATOM      5  C4  UNL d   1      -0.062   2.786  -2.369  0.00  0.00     0.048 A 
ATOM      6  C5  UNL d   1       1.327   2.656  -2.414  0.00  0.00     0.003 A 
ATOM      7  I   UNL d   1      -2.825   3.377  -3.450  0.00  0.00    -0.146 I 
ENDROOT
TORSDOF 0
ENDMDL
