MODEL 1
REMARK minimizedAffinity 10.8908405
REMARK minimizedRMSD -1
REMARK  0 active torsions:
REMARK  status: ('A' for Active; 'I' for Inactive)
ROOT
ATOM      1  C   UNL d   1      -4.350   4.110  -3.377  0.00  0.00     0.023 A 
ATOM      2  C1  UNL d   1      -5.360   3.710  -4.252  0.00  0.00     0.003 A 
ATOM      3  C2  UNL d   1      -5.366   2.412  -4.767  0.00  0.00     0.048 A 
ATOM      4  C3  UNL d   1      -4.360   1.518  -4.401  0.00  0.00     0.023 A 
ATOM      5  C4  UNL d   1      -3.348   1.914  -3.524  0.00  0.00     0.048 A 
ATOM      6  C5  UNL d   1      -3.346   3.213  -3.013  0.00  0.00     0.003 A 
ATOM      7  I   UNL d   1      -4.368  -0.414  -5.165  0.00  0.00    -0.146 I 
ENDROOT
TORSDOF 0
ENDMDL
