MODEL 1
REMARK minimizedAffinity -2.17419124
REMARK minimizedRMSD -1
REMARK  0 active torsions:
REMARK  status: ('A' for Active; 'I' for Inactive)
ROOT
ATOM      1  C   UNL d   1       1.672  -2.448   2.211  0.00  0.00     0.023 A 
ATOM      2  C1  UNL d   1       0.520  -1.710   2.484  0.00  0.00     0.003 A 
ATOM      3  C2  UNL d   1      -0.055  -0.917   1.488  0.00  0.00     0.048 A 
ATOM      4  C3  UNL d   1       0.527  -0.867   0.222  0.00  0.00     0.023 A 
ATOM      5  C4  UNL d   1       1.680  -1.604  -0.055  0.00  0.00     0.048 A 
ATOM      6  C5  UNL d   1       2.252  -2.395   0.943  0.00  0.00     0.003 A 
ATOM      7  I   UNL d   1      -0.326   0.313  -1.261  0.00  0.00    -0.146 I 
ENDROOT
TORSDOF 0
ENDMDL
