MODEL 1
REMARK minimizedAffinity -2.05706429
REMARK minimizedRMSD -1
REMARK  0 active torsions:
REMARK  status: ('A' for Active; 'I' for Inactive)
ROOT
ATOM      1  C   UNL d   1       1.095  -1.897   1.845  0.00  0.00     0.023 A 
ATOM      2  C1  UNL d   1       0.002  -1.086   2.148  0.00  0.00     0.003 A 
ATOM      3  C2  UNL d   1      -0.579  -0.295   1.154  0.00  0.00     0.048 A 
ATOM      4  C3  UNL d   1      -0.062  -0.322  -0.140  0.00  0.00     0.023 A 
ATOM      5  C4  UNL d   1       1.031  -1.133  -0.449  0.00  0.00     0.048 A 
ATOM      6  C5  UNL d   1       1.609  -1.921   0.548  0.00  0.00     0.003 A 
ATOM      7  I   UNL d   1      -0.925   0.854  -1.621  0.00  0.00    -0.146 I 
ENDROOT
TORSDOF 0
ENDMDL
