MODEL 1
REMARK minimizedAffinity -2.22394824
REMARK minimizedRMSD -1
REMARK  0 active torsions:
REMARK  status: ('A' for Active; 'I' for Inactive)
ROOT
ATOM      1  C   UNL d   1       0.304  -1.551   2.637  0.00  0.00     0.023 A 
ATOM      2  C1  UNL d   1       1.004  -1.928   1.491  0.00  0.00     0.003 A 
ATOM      3  C2  UNL d   1       0.756  -1.285   0.277  0.00  0.00     0.048 A 
ATOM      4  C3  UNL d   1      -0.193  -0.264   0.216  0.00  0.00     0.023 A 
ATOM      5  C4  UNL d   1      -0.895   0.117   1.361  0.00  0.00     0.048 A 
ATOM      6  C5  UNL d   1      -0.644  -0.530   2.572  0.00  0.00     0.003 A 
ATOM      7  I   UNL d   1      -0.564   0.695  -1.590  0.00  0.00    -0.146 I 
ENDROOT
TORSDOF 0
ENDMDL
