MODEL 1
REMARK minimizedAffinity 0.153403059
REMARK minimizedRMSD -1
REMARK  0 active torsions:
REMARK  status: ('A' for Active; 'I' for Inactive)
ROOT
ATOM      1  C   UNL d   1       0.321  -1.021   2.618  0.00  0.00     0.023 A 
ATOM      2  C1  UNL d   1      -0.780  -0.173   2.489  0.00  0.00     0.003 A 
ATOM      3  C2  UNL d   1      -1.103   0.369   1.244  0.00  0.00     0.048 A 
ATOM      4  C3  UNL d   1      -0.322   0.059   0.131  0.00  0.00     0.023 A 
ATOM      5  C4  UNL d   1       0.780  -0.789   0.255  0.00  0.00     0.048 A 
ATOM      6  C5  UNL d   1       1.099  -1.328   1.502  0.00  0.00     0.003 A 
ATOM      7  I   UNL d   1      -0.801   0.865  -1.724  0.00  0.00    -0.146 I 
ENDROOT
TORSDOF 0
ENDMDL
