MODEL 1
REMARK minimizedAffinity 0.639742792
REMARK minimizedRMSD -1
REMARK  0 active torsions:
REMARK  status: ('A' for Active; 'I' for Inactive)
ROOT
ATOM      1  C   UNL d   1      -4.506   0.356  -5.999  0.00  0.00     0.023 A 
ATOM      2  C1  UNL d   1      -3.255  -0.146  -5.640  0.00  0.00     0.003 A 
ATOM      3  C2  UNL d   1      -3.026  -0.587  -4.335  0.00  0.00     0.048 A 
ATOM      4  C3  UNL d   1      -4.053  -0.525  -3.394  0.00  0.00     0.023 A 
ATOM      5  C4  UNL d   1      -5.307  -0.024  -3.749  0.00  0.00     0.048 A 
ATOM      6  C5  UNL d   1      -5.530   0.417  -5.054  0.00  0.00     0.003 A 
ATOM      7  I   UNL d   1      -3.715  -1.182  -1.452  0.00  0.00    -0.146 I 
ENDROOT
TORSDOF 0
ENDMDL
