MODEL 1
REMARK minimizedAffinity 7.18270588
REMARK minimizedRMSD -1
REMARK  0 active torsions:
REMARK  status: ('A' for Active; 'I' for Inactive)
ROOT
ATOM      1  C   UNL d   1       2.651  -0.027   0.032  0.00  0.00     0.023 A 
ATOM      2  C1  UNL d   1       2.067  -1.290   0.139  0.00  0.00     0.003 A 
ATOM      3  C2  UNL d   1       2.872  -2.422   0.284  0.00  0.00     0.048 A 
ATOM      4  C3  UNL d   1       4.259  -2.284   0.324  0.00  0.00     0.023 A 
ATOM      5  C4  UNL d   1       4.847  -1.022   0.218  0.00  0.00     0.048 A 
ATOM      6  C5  UNL d   1       4.039   0.107   0.072  0.00  0.00     0.003 A 
ATOM      7  I   UNL d   1       5.458  -3.967   0.541  0.00  0.00    -0.146 I 
ENDROOT
TORSDOF 0
ENDMDL
