MODEL 1
REMARK minimizedAffinity -1.32476437
REMARK minimizedRMSD -1
REMARK  0 active torsions:
REMARK  status: ('A' for Active; 'I' for Inactive)
ROOT
ATOM      1  C   UNL d   1      -4.208  -1.414  -4.467  0.00  0.00     0.023 A 
ATOM      2  C1  UNL d   1      -4.439  -0.323  -5.306  0.00  0.00     0.003 A 
ATOM      3  C2  UNL d   1      -3.998   0.949  -4.936  0.00  0.00     0.048 A 
ATOM      4  C3  UNL d   1      -3.325   1.123  -3.727  0.00  0.00     0.023 A 
ATOM      5  C4  UNL d   1      -3.092   0.035  -2.885  0.00  0.00     0.048 A 
ATOM      6  C5  UNL d   1      -3.535  -1.235  -3.259  0.00  0.00     0.003 A 
ATOM      7  I   UNL d   1      -2.668   3.016  -3.175  0.00  0.00    -0.146 I 
ENDROOT
TORSDOF 0
ENDMDL
