MODEL 1
REMARK minimizedAffinity 0.64039737
REMARK minimizedRMSD -1
REMARK  0 active torsions:
REMARK  status: ('A' for Active; 'I' for Inactive)
ROOT
ATOM      1  C   UNL d   1      -5.270  -1.331  -3.630  0.00  0.00     0.023 A 
ATOM      2  C1  UNL d   1      -5.669  -0.377  -4.567  0.00  0.00     0.003 A 
ATOM      3  C2  UNL d   1      -4.711   0.377  -5.248  0.00  0.00     0.048 A 
ATOM      4  C3  UNL d   1      -3.357   0.173  -4.987  0.00  0.00     0.023 A 
ATOM      5  C4  UNL d   1      -2.953  -0.781  -4.051  0.00  0.00     0.048 A 
ATOM      6  C5  UNL d   1      -3.914  -1.532  -3.372  0.00  0.00     0.003 A 
ATOM      7  I   UNL d   1      -1.930   1.294  -6.000  0.00  0.00    -0.146 I 
ENDROOT
TORSDOF 0
ENDMDL
