MODEL 1
REMARK minimizedAffinity -0.934784949
REMARK minimizedRMSD -1
REMARK  0 active torsions:
REMARK  status: ('A' for Active; 'I' for Inactive)
ROOT
ATOM      1  C   UNL d   1       4.907   1.420  -0.084  0.00  0.00     0.023 A 
ATOM      2  C1  UNL d   1       3.521   1.256  -0.065  0.00  0.00     0.003 A 
ATOM      3  C2  UNL d   1       2.970  -0.011   0.136  0.00  0.00     0.048 A 
ATOM      4  C3  UNL d   1       3.810  -1.110   0.319  0.00  0.00     0.023 A 
ATOM      5  C4  UNL d   1       5.197  -0.949   0.302  0.00  0.00     0.048 A 
ATOM      6  C5  UNL d   1       5.743   0.319   0.099  0.00  0.00     0.003 A 
ATOM      7  I   UNL d   1       2.992  -2.996   0.619  0.00  0.00    -0.146 I 
ENDROOT
TORSDOF 0
ENDMDL
