MODEL 1
REMARK minimizedAffinity 2.51076531
REMARK minimizedRMSD -1
REMARK  0 active torsions:
REMARK  status: ('A' for Active; 'I' for Inactive)
ROOT
ATOM      1  C   UNL d   1       3.864  -4.589   0.653  0.00  0.00     0.023 A 
ATOM      2  C1  UNL d   1       4.975  -5.225   1.206  0.00  0.00     0.003 A 
ATOM      3  C2  UNL d   1       5.267  -5.070   2.563  0.00  0.00     0.048 A 
ATOM      4  C3  UNL d   1       4.444  -4.277   3.361  0.00  0.00     0.023 A 
ATOM      5  C4  UNL d   1       3.330  -3.638   2.812  0.00  0.00     0.048 A 
ATOM      6  C5  UNL d   1       3.043  -3.796   1.455  0.00  0.00     0.003 A 
ATOM      7  I   UNL d   1       4.876  -4.043   5.380  0.00  0.00    -0.146 I 
ENDROOT
TORSDOF 0
ENDMDL
