MODEL 1
REMARK minimizedAffinity 1.44814479
REMARK minimizedRMSD -1
REMARK  0 active torsions:
REMARK  status: ('A' for Active; 'I' for Inactive)
ROOT
ATOM      1  C   UNL d   1       3.340  -3.839   1.423  0.00  0.00     0.023 A 
ATOM      2  C1  UNL d   1       4.691  -3.502   1.340  0.00  0.00     0.003 A 
ATOM      3  C2  UNL d   1       5.076  -2.295   0.751  0.00  0.00     0.048 A 
ATOM      4  C3  UNL d   1       4.104  -1.430   0.250  0.00  0.00     0.023 A 
ATOM      5  C4  UNL d   1       2.751  -1.763   0.332  0.00  0.00     0.048 A 
ATOM      6  C5  UNL d   1       2.371  -2.971   0.920  0.00  0.00     0.003 A 
ATOM      7  I   UNL d   1       4.674   0.367  -0.626  0.00  0.00    -0.146 I 
ENDROOT
TORSDOF 0
ENDMDL
