MODEL 1
REMARK minimizedAffinity 0.217908219
REMARK minimizedRMSD -1
REMARK  0 active torsions:
REMARK  status: ('A' for Active; 'I' for Inactive)
ROOT
ATOM      1  C   UNL d   1       4.275  -3.971   0.643  0.00  0.00     0.023 A 
ATOM      2  C1  UNL d   1       3.377  -3.189   1.369  0.00  0.00     0.003 A 
ATOM      3  C2  UNL d   1       3.538  -3.036   2.748  0.00  0.00     0.048 A 
ATOM      4  C3  UNL d   1       4.600  -3.668   3.394  0.00  0.00     0.023 A 
ATOM      5  C4  UNL d   1       5.502  -4.450   2.672  0.00  0.00     0.048 A 
ATOM      6  C5  UNL d   1       5.336  -4.601   1.294  0.00  0.00     0.003 A 
ATOM      7  I   UNL d   1       4.841  -3.442   5.446  0.00  0.00    -0.146 I 
ENDROOT
TORSDOF 0
ENDMDL
