MODEL 1
REMARK minimizedAffinity -3.64198256
REMARK minimizedRMSD -1
REMARK  1 active torsions:
REMARK  status: ('A' for Active; 'I' for Inactive)
REMARK    1  A    between atoms: C1_2  and  C2_3 
ROOT
ATOM      1  C2  UNL d   1       3.868   0.069   1.714  0.00  0.00    -0.077 A 
ATOM      2  C3  UNL d   1       5.175   0.490   1.998  0.00  0.00     0.002 A 
ATOM      3  C4  UNL d   1       5.991  -0.260   2.846  0.00  0.00     0.002 A 
ATOM      4  C5  UNL d   1       5.511  -1.438   3.414  0.00  0.00    -0.004 A 
ATOM      5  C6  UNL d   1       4.212  -1.865   3.140  0.00  0.00     0.002 A 
ATOM      6  C7  UNL d   1       3.395  -1.116   2.293  0.00  0.00     0.002 A 
ENDROOT
BRANCH   1   7
ATOM      7  C1  UNL d   1       3.004   0.851   0.760  0.00  0.00     0.055 C 
ATOM      8  C   UNL d   1       2.498  -0.027  -0.375  0.00  0.00     0.019 C 
ENDBRANCH   1   7
TORSDOF 1
ENDMDL
