MODEL 1
REMARK minimizedAffinity 2.35194087
REMARK minimizedRMSD -1
REMARK  1 active torsions:
REMARK  status: ('A' for Active; 'I' for Inactive)
REMARK    1  A    between atoms: C1_2  and  C2_3 
ROOT
ATOM      1  C2  UNL d   1       0.995   3.444   2.167  0.00  0.00    -0.077 A 
ATOM      2  C3  UNL d   1       2.390   3.340   2.257  0.00  0.00     0.002 A 
ATOM      3  C4  UNL d   1       2.990   2.885   3.433  0.00  0.00     0.002 A 
ATOM      4  C5  UNL d   1       2.203   2.526   4.525  0.00  0.00    -0.004 A 
ATOM      5  C6  UNL d   1       0.814   2.627   4.445  0.00  0.00     0.002 A 
ATOM      6  C7  UNL d   1       0.213   3.083   3.271  0.00  0.00     0.002 A 
ENDROOT
BRANCH   1   7
ATOM      7  C1  UNL d   1       0.344   3.887   0.883  0.00  0.00     0.055 C 
ATOM      8  C   UNL d   1       0.041   2.702  -0.023  0.00  0.00     0.019 C 
ENDBRANCH   1   7
TORSDOF 1
ENDMDL
