MODEL 1
REMARK minimizedAffinity -0.257037073
REMARK minimizedRMSD -1
REMARK  1 active torsions:
REMARK  status: ('A' for Active; 'I' for Inactive)
REMARK    1  A    between atoms: C1_2  and  C2_3 
ROOT
ATOM      1  C2  UNL d   1       5.109   2.435  -1.370  0.00  0.00    -0.077 A 
ATOM      2  C3  UNL d   1       5.623   2.525  -0.068  0.00  0.00     0.002 A 
ATOM      3  C4  UNL d   1       4.810   2.248   1.032  0.00  0.00     0.002 A 
ATOM      4  C5  UNL d   1       3.481   1.876   0.843  0.00  0.00    -0.004 A 
ATOM      5  C6  UNL d   1       2.960   1.785  -0.447  0.00  0.00     0.002 A 
ATOM      6  C7  UNL d   1       3.771   2.063  -1.549  0.00  0.00     0.002 A 
ENDROOT
BRANCH   1   7
ATOM      7  C1  UNL d   1       5.998   2.685  -2.560  0.00  0.00     0.055 C 
ATOM      8  C   UNL d   1       6.000   1.495  -3.509  0.00  0.00     0.019 C 
ENDBRANCH   1   7
TORSDOF 1
ENDMDL
