MODEL 1
REMARK minimizedAffinity 11.9771366
REMARK minimizedRMSD -1
REMARK  1 active torsions:
REMARK  status: ('A' for Active; 'I' for Inactive)
REMARK    1  A    between atoms: C1_2  and  C2_3 
ROOT
ATOM      1  C2  UNL d   1       4.011   1.306  -0.042  0.00  0.00    -0.077 A 
ATOM      2  C3  UNL d   1       4.020   1.500  -1.430  0.00  0.00     0.002 A 
ATOM      3  C4  UNL d   1       5.009   2.283  -2.028  0.00  0.00     0.002 A 
ATOM      4  C5  UNL d   1       6.000   2.874  -1.246  0.00  0.00    -0.004 A 
ATOM      5  C6  UNL d   1       5.999   2.689   0.136  0.00  0.00     0.002 A 
ATOM      6  C7  UNL d   1       5.010   1.908   0.735  0.00  0.00     0.002 A 
ENDROOT
BRANCH   1   7
ATOM      7  C1  UNL d   1       2.974   0.422   0.599  0.00  0.00     0.055 C 
ATOM      8  C   UNL d   1       1.857   0.082  -0.377  0.00  0.00     0.019 C 
ENDBRANCH   1   7
TORSDOF 1
ENDMDL
