MODEL 1
REMARK minimizedAffinity -2.72471619
REMARK minimizedRMSD -1
REMARK  0 active torsions:
REMARK  status: ('A' for Active; 'I' for Inactive)
ROOT
ATOM      1  C   UNL d   1       2.790  -1.748   0.888  0.00  0.00    -0.002 A 
ATOM      2  C1  UNL d   1       2.640  -0.617   1.679  0.00  0.00     0.010 A 
ATOM      3  C2  UNL d   1       1.560   0.246   1.486  0.00  0.00     0.041 A 
ATOM      4  C3  UNL d   1       0.623  -0.049   0.477  0.00  0.00    -0.075 A 
ATOM      5  S   UNL d   1      -0.779   0.864   0.060  0.00  0.00     0.015 SA
ATOM      6  C4  UNL d   1      -1.213  -0.226  -1.177  0.00  0.00     0.022 A 
ATOM      7  C5  UNL d   1      -0.321  -1.266  -1.284  0.00  0.00     0.026 A 
ATOM      8  C6  UNL d   1       0.752  -1.182  -0.332  0.00  0.00    -0.082 A 
ATOM      9  C7  UNL d   1       1.858  -2.037  -0.112  0.00  0.00     0.045 A 
ENDROOT
TORSDOF 0
ENDMDL
