MODEL 1
REMARK minimizedAffinity -1.18149567
REMARK minimizedRMSD -1
REMARK  0 active torsions:
REMARK  status: ('A' for Active; 'I' for Inactive)
ROOT
ATOM      1  C   UNL d   1      -3.886   1.179   1.092  0.00  0.00    -0.002 A 
ATOM      2  C1  UNL d   1      -3.030   2.031   1.775  0.00  0.00     0.010 A 
ATOM      3  C2  UNL d   1      -1.649   1.949   1.589  0.00  0.00     0.041 A 
ATOM      4  C3  UNL d   1      -1.137   0.988   0.694  0.00  0.00    -0.075 A 
ATOM      5  S   UNL d   1       0.519   0.706   0.307  0.00  0.00     0.015 SA
ATOM      6  C4  UNL d   1       0.128  -0.552  -0.775  0.00  0.00     0.022 A 
ATOM      7  C5  UNL d   1      -1.228  -0.765  -0.851  0.00  0.00     0.026 A 
ATOM      8  C6  UNL d   1      -1.980   0.119  -0.006  0.00  0.00    -0.082 A 
ATOM      9  C7  UNL d   1      -3.375   0.227   0.205  0.00  0.00     0.045 A 
ENDROOT
TORSDOF 0
ENDMDL
