MODEL 1
REMARK minimizedAffinity -3.46484923
REMARK minimizedRMSD -1
REMARK  0 active torsions:
REMARK  status: ('A' for Active; 'I' for Inactive)
ROOT
ATOM      1  C   UNL d   1       2.273  -2.053   0.490  0.00  0.00    -0.002 A 
ATOM      2  C1  UNL d   1       1.104  -2.475  -0.127  0.00  0.00     0.010 A 
ATOM      3  C2  UNL d   1       0.118  -1.553  -0.485  0.00  0.00     0.041 A 
ATOM      4  C3  UNL d   1       0.329  -0.188  -0.211  0.00  0.00    -0.075 A 
ATOM      5  S   UNL d   1      -0.739   1.120  -0.560  0.00  0.00     0.015 SA
ATOM      6  C4  UNL d   1       0.332   2.269   0.101  0.00  0.00     0.022 A 
ATOM      7  C5  UNL d   1       1.481   1.687   0.582  0.00  0.00     0.026 A 
ATOM      8  C6  UNL d   1       1.498   0.261   0.409  0.00  0.00    -0.082 A 
ATOM      9  C7  UNL d   1       2.479  -0.698   0.761  0.00  0.00     0.045 A 
ENDROOT
TORSDOF 0
ENDMDL
