MODEL 1
REMARK minimizedAffinity -2.50500989
REMARK minimizedRMSD -1
REMARK  0 active torsions:
REMARK  status: ('A' for Active; 'I' for Inactive)
ROOT
ATOM      1  C   UNL d   1       0.258   0.043  -0.643  0.00  0.00    -0.002 A 
ATOM      2  C1  UNL d   1       0.233  -0.930   0.346  0.00  0.00     0.010 A 
ATOM      3  C2  UNL d   1      -0.890  -1.087   1.160  0.00  0.00     0.041 A 
ATOM      4  C3  UNL d   1      -2.001  -0.244   0.959  0.00  0.00    -0.075 A 
ATOM      5  S   UNL d   1      -3.486  -0.255   1.834  0.00  0.00     0.015 SA
ATOM      6  C4  UNL d   1      -4.124   1.031   0.915  0.00  0.00     0.022 A 
ATOM      7  C5  UNL d   1      -3.239   1.470  -0.041  0.00  0.00     0.026 A 
ATOM      8  C6  UNL d   1      -2.001   0.742  -0.032  0.00  0.00    -0.082 A 
ATOM      9  C7  UNL d   1      -0.846   0.878  -0.840  0.00  0.00     0.045 A 
ENDROOT
TORSDOF 0
ENDMDL
