MODEL 1
REMARK minimizedAffinity -3.92124653
REMARK minimizedRMSD -1
REMARK  0 active torsions:
REMARK  status: ('A' for Active; 'I' for Inactive)
ROOT
ATOM      1  C   UNL d   1       3.575  -0.083   0.730  0.00  0.00    -0.002 A 
ATOM      2  C1  UNL d   1       3.490   1.294   0.583  0.00  0.00     0.010 A 
ATOM      3  C2  UNL d   1       2.281   1.897   0.229  0.00  0.00     0.041 A 
ATOM      4  C3  UNL d   1       1.149   1.085   0.024  0.00  0.00    -0.075 A 
ATOM      5  S   UNL d   1      -0.436   1.603  -0.414  0.00  0.00     0.015 SA
ATOM      6  C4  UNL d   1      -1.038   0.009  -0.416  0.00  0.00     0.022 A 
ATOM      7  C5  UNL d   1      -0.067  -0.909  -0.092  0.00  0.00     0.026 A 
ATOM      8  C6  UNL d   1       1.209  -0.304   0.167  0.00  0.00    -0.082 A 
ATOM      9  C7  UNL d   1       2.449  -0.885   0.526  0.00  0.00     0.045 A 
ENDROOT
TORSDOF 0
ENDMDL
