MODEL 1
REMARK minimizedAffinity -5.49064875
REMARK minimizedRMSD -1
REMARK  0 active torsions:
REMARK  status: ('A' for Active; 'I' for Inactive)
ROOT
ATOM      1  C   UNL d   1       1.780   2.570  -0.080  0.00  0.00    -0.002 A 
ATOM      2  C1  UNL d   1       2.978   2.039   0.378  0.00  0.00     0.010 A 
ATOM      3  C2  UNL d   1       3.136   0.660   0.521  0.00  0.00     0.041 A 
ATOM      4  C3  UNL d   1       2.059  -0.187   0.192  0.00  0.00    -0.075 A 
ATOM      5  S   UNL d   1       2.023  -1.908   0.287  0.00  0.00     0.015 SA
ATOM      6  C4  UNL d   1       0.417  -1.980  -0.279  0.00  0.00     0.022 A 
ATOM      7  C5  UNL d   1      -0.095  -0.731  -0.538  0.00  0.00     0.026 A 
ATOM      8  C6  UNL d   1       0.843   0.323  -0.272  0.00  0.00    -0.082 A 
ATOM      9  C7  UNL d   1       0.714   1.727  -0.405  0.00  0.00     0.045 A 
ENDROOT
TORSDOF 0
ENDMDL
