MODEL 1
REMARK minimizedAffinity -0.560757816
REMARK minimizedRMSD -1
REMARK  0 active torsions:
REMARK  status: ('A' for Active; 'I' for Inactive)
ROOT
ATOM      1  O1  BZF d   1       4.793  -5.918  -5.334  0.00  0.00    -0.204 OA
ATOM      2  C2  BZF d   1       3.546  -5.921  -5.930  0.00  0.00     0.174 A 
ATOM      3  C3  BZF d   1       2.572  -6.000  -5.001  0.00  0.00    -0.012 A 
ATOM      4  C3A BZF d   1       3.248  -5.957  -3.741  0.00  0.00    -0.107 A 
ATOM      5  C4  BZF d   1       2.821  -5.983  -2.445  0.00  0.00     0.055 A 
ATOM      6  C5  BZF d   1       3.742  -6.000  -1.445  0.00  0.00    -0.016 A 
ATOM      7  C6  BZF d   1       5.096  -5.997  -1.707  0.00  0.00     0.022 A 
ATOM      8  C7  BZF d   1       5.569  -5.967  -2.977  0.00  0.00     0.029 A 
ATOM      9  C7A BZF d   1       4.640  -5.916  -3.988  0.00  0.00     0.058 A 
ENDROOT
TORSDOF 0
ENDMDL
