MODEL 1
REMARK minimizedAffinity 0.205476969
REMARK minimizedRMSD -1
REMARK  0 active torsions:
REMARK  status: ('A' for Active; 'I' for Inactive)
ROOT
ATOM      1  O1  BZF d   1       4.064  -5.952  -5.519  0.00  0.00    -0.204 OA
ATOM      2  C2  BZF d   1       5.445  -5.933  -5.541  0.00  0.00     0.174 A 
ATOM      3  C3  BZF d   1       5.943  -5.883  -4.288  0.00  0.00    -0.012 A 
ATOM      4  C3A BZF d   1       4.803  -5.964  -3.427  0.00  0.00    -0.107 A 
ATOM      5  C4  BZF d   1       4.651  -5.978  -2.070  0.00  0.00     0.055 A 
ATOM      6  C5  BZF d   1       3.397  -5.991  -1.546  0.00  0.00    -0.016 A 
ATOM      7  C6  BZF d   1       2.275  -5.985  -2.349  0.00  0.00     0.022 A 
ATOM      8  C7  BZF d   1       2.375  -5.976  -3.700  0.00  0.00     0.029 A 
ATOM      9  C7A BZF d   1       3.641  -5.996  -4.233  0.00  0.00     0.058 A 
ENDROOT
TORSDOF 0
ENDMDL
