MODEL 1
REMARK minimizedAffinity 6.42741013
REMARK minimizedRMSD -1
REMARK  0 active torsions:
REMARK  status: ('A' for Active; 'I' for Inactive)
ROOT
ATOM      1  O1  BZF d   1       3.658  -5.949   1.614  0.00  0.00    -0.204 OA
ATOM      2  C2  BZF d   1       2.290  -5.928   1.423  0.00  0.00     0.174 A 
ATOM      3  C3  BZF d   1       1.991  -5.881   0.109  0.00  0.00    -0.012 A 
ATOM      4  C3A BZF d   1       3.250  -5.965  -0.567  0.00  0.00    -0.107 A 
ATOM      5  C4  BZF d   1       3.608  -5.984  -1.884  0.00  0.00     0.055 A 
ATOM      6  C5  BZF d   1       4.928  -5.999  -2.209  0.00  0.00    -0.016 A 
ATOM      7  C6  BZF d   1       5.913  -5.991  -1.244  0.00  0.00     0.022 A 
ATOM      8  C7  BZF d   1       5.606  -5.978   0.076  0.00  0.00     0.029 A 
ATOM      9  C7A BZF d   1       4.274  -5.996   0.408  0.00  0.00     0.058 A 
ENDROOT
TORSDOF 0
ENDMDL
