MODEL 1
REMARK minimizedAffinity 2.93980026
REMARK minimizedRMSD -1
REMARK  0 active torsions:
REMARK  status: ('A' for Active; 'I' for Inactive)
ROOT
ATOM      1  O1  BZF d   1       4.652  -5.304  -1.901  0.00  0.00    -0.204 OA
ATOM      2  C2  BZF d   1       3.690  -5.399  -0.914  0.00  0.00     0.174 A 
ATOM      3  C3  BZF d   1       2.473  -5.617  -1.452  0.00  0.00    -0.012 A 
ATOM      4  C3A BZF d   1       2.702  -5.754  -2.858  0.00  0.00    -0.107 A 
ATOM      5  C4  BZF d   1       1.883  -5.999  -3.923  0.00  0.00     0.055 A 
ATOM      6  C5  BZF d   1       2.411  -5.999  -5.176  0.00  0.00    -0.016 A 
ATOM      7  C6  BZF d   1       3.750  -5.753  -5.399  0.00  0.00     0.022 A 
ATOM      8  C7  BZF d   1       4.602  -5.510  -4.374  0.00  0.00     0.029 A 
ATOM      9  C7A BZF d   1       4.078  -5.542  -3.105  0.00  0.00     0.058 A 
ENDROOT
TORSDOF 0
ENDMDL
