MODEL 1
REMARK minimizedAffinity 0.332945049
REMARK minimizedRMSD -1
REMARK  0 active torsions:
REMARK  status: ('A' for Active; 'I' for Inactive)
ROOT
ATOM      1  O1  BZF d   1       3.572  -5.947  -4.931  0.00  0.00    -0.204 OA
ATOM      2  C2  BZF d   1       2.308  -5.940  -5.489  0.00  0.00     0.174 A 
ATOM      3  C3  BZF d   1       1.362  -6.000  -4.530  0.00  0.00    -0.012 A 
ATOM      4  C3A BZF d   1       2.078  -5.955  -3.292  0.00  0.00    -0.107 A 
ATOM      5  C4  BZF d   1       1.690  -5.965  -1.982  0.00  0.00     0.055 A 
ATOM      6  C5  BZF d   1       2.641  -5.984  -1.012  0.00  0.00    -0.016 A 
ATOM      7  C6  BZF d   1       3.987  -6.000  -1.315  0.00  0.00     0.022 A 
ATOM      8  C7  BZF d   1       4.420  -5.985  -2.599  0.00  0.00     0.029 A 
ATOM      9  C7A BZF d   1       3.462  -5.932  -3.581  0.00  0.00     0.058 A 
ENDROOT
TORSDOF 0
ENDMDL
