MODEL 1
REMARK minimizedAffinity 7.46003008
REMARK minimizedRMSD -1
REMARK  0 active torsions:
REMARK  status: ('A' for Active; 'I' for Inactive)
ROOT
ATOM      1  O1  BZF d   1       2.424  -3.566   2.781  0.00  0.00    -0.204 OA
ATOM      2  C2  BZF d   1       3.688  -3.422   3.320  0.00  0.00     0.174 A 
ATOM      3  C3  BZF d   1       4.083  -2.133   3.274  0.00  0.00    -0.012 A 
ATOM      4  C3A BZF d   1       2.961  -1.414   2.754  0.00  0.00    -0.107 A 
ATOM      5  C4  BZF d   1       2.733  -0.094   2.490  0.00  0.00     0.055 A 
ATOM      6  C5  BZF d   1       1.556   0.271   1.916  0.00  0.00    -0.016 A 
ATOM      7  C6  BZF d   1       0.589  -0.656   1.590  0.00  0.00     0.022 A 
ATOM      8  C7  BZF d   1       0.768  -1.977   1.837  0.00  0.00     0.029 A 
ATOM      9  C7A BZF d   1       1.942  -2.345   2.447  0.00  0.00     0.058 A 
ENDROOT
TORSDOF 0
ENDMDL
