MODEL 1
REMARK minimizedAffinity -4.1598773
REMARK minimizedRMSD -1
REMARK  0 active torsions:
REMARK  status: ('A' for Active; 'I' for Inactive)
ROOT
ATOM      1  N1  IND d   1      -0.558  -2.195   1.452  0.00  0.00    -0.196 N 
ATOM      2  C2  IND d   1      -1.701  -2.946   1.456  0.00  0.00     0.054 A 
ATOM      3  C3  IND d   1      -2.569  -2.485   0.528  0.00  0.00    -0.031 A 
ATOM      4  C4  IND d   1      -2.282  -0.578  -1.177  0.00  0.00     0.051 A 
ATOM      5  C5  IND d   1      -1.423   0.422  -1.541  0.00  0.00    -0.031 A 
ATOM      6  C6  IND d   1      -0.207   0.602  -0.915  0.00  0.00     0.015 A 
ATOM      7  C7  IND d   1       0.203  -0.222   0.095  0.00  0.00    -0.016 A 
ATOM      8  C8  IND d   1      -0.669  -1.233   0.472  0.00  0.00    -0.047 A 
ATOM      9  C9  IND d   1      -1.923  -1.394  -0.131  0.00  0.00    -0.096 A 
ATOM     10  HN1 IND d   1       0.116  -2.305   1.974  0.00  0.00     0.298 HD
ENDROOT
TORSDOF 0
ENDMDL
