MODEL 1
REMARK minimizedAffinity -1.82900441
REMARK minimizedRMSD -1
REMARK  0 active torsions:
REMARK  status: ('A' for Active; 'I' for Inactive)
ROOT
ATOM      1  N1  IND d   1       0.601  -0.514   1.037  0.00  0.00    -0.196 N 
ATOM      2  C2  IND d   1       0.461   0.517   0.151  0.00  0.00     0.054 A 
ATOM      3  C3  IND d   1      -0.751   0.464  -0.445  0.00  0.00    -0.031 A 
ATOM      4  C4  IND d   1      -2.700  -1.169  -0.045  0.00  0.00     0.051 A 
ATOM      5  C5  IND d   1      -3.032  -2.303   0.643  0.00  0.00    -0.031 A 
ATOM      6  C6  IND d   1      -2.152  -2.909   1.516  0.00  0.00     0.015 A 
ATOM      7  C7  IND d   1      -0.907  -2.395   1.745  0.00  0.00    -0.016 A 
ATOM      8  C8  IND d   1      -0.564  -1.248   1.043  0.00  0.00    -0.047 A 
ATOM      9  C9  IND d   1      -1.437  -0.653   0.123  0.00  0.00    -0.096 A 
ATOM     10  HN1 IND d   1       1.300  -0.678   1.511  0.00  0.00     0.298 HD
ENDROOT
TORSDOF 0
ENDMDL
