MODEL 1
REMARK minimizedAffinity -3.14442134
REMARK minimizedRMSD -1
REMARK  0 active torsions:
REMARK  status: ('A' for Active; 'I' for Inactive)
ROOT
ATOM      1  N1  IND d   1       0.800  -1.752   1.488  0.00  0.00    -0.196 N 
ATOM      2  C2  IND d   1       1.611  -0.758   1.016  0.00  0.00     0.054 A 
ATOM      3  C3  IND d   1       1.002  -0.091   0.010  0.00  0.00    -0.031 A 
ATOM      4  C4  IND d   1      -1.365  -0.396  -0.956  0.00  0.00     0.051 A 
ATOM      5  C5  IND d   1      -2.467  -1.200  -0.874  0.00  0.00    -0.031 A 
ATOM      6  C6  IND d   1      -2.538  -2.249   0.019  0.00  0.00     0.015 A 
ATOM      7  C7  IND d   1      -1.511  -2.527   0.876  0.00  0.00    -0.016 A 
ATOM      8  C8  IND d   1      -0.388  -1.717   0.790  0.00  0.00    -0.047 A 
ATOM      9  C9  IND d   1      -0.292  -0.677  -0.144  0.00  0.00    -0.096 A 
ATOM     10  HN1 IND d   1       0.998  -2.306   2.115  0.00  0.00     0.298 HD
ENDROOT
TORSDOF 0
ENDMDL
