MODEL 1
REMARK minimizedAffinity -2.92366695
REMARK minimizedRMSD -1
REMARK  0 active torsions:
REMARK  status: ('A' for Active; 'I' for Inactive)
ROOT
ATOM      1  N1  IND d   1       2.146   2.751   1.584  0.00  0.00    -0.196 N 
ATOM      2  C2  IND d   1       3.286   2.623   0.840  0.00  0.00     0.054 A 
ATOM      3  C3  IND d   1       3.169   1.591  -0.025  0.00  0.00    -0.031 A 
ATOM      4  C4  IND d   1       1.158   0.044  -0.463  0.00  0.00     0.051 A 
ATOM      5  C5  IND d   1      -0.096  -0.249  -0.004  0.00  0.00    -0.031 A 
ATOM      6  C6  IND d   1      -0.679   0.459   1.026  0.00  0.00     0.015 A 
ATOM      7  C7  IND d   1      -0.032   1.499   1.632  0.00  0.00    -0.016 A 
ATOM      8  C8  IND d   1       1.244   1.795   1.173  0.00  0.00    -0.047 A 
ATOM      9  C9  IND d   1       1.858   1.052   0.157  0.00  0.00    -0.096 A 
ATOM     10  HN1 IND d   1       2.015   3.332   2.205  0.00  0.00     0.298 HD
ENDROOT
TORSDOF 0
ENDMDL
