MODEL 1
REMARK minimizedAffinity -5.12467241
REMARK minimizedRMSD -1
REMARK  0 active torsions:
REMARK  status: ('A' for Active; 'I' for Inactive)
ROOT
ATOM      1  N1  IND d   1       0.400  -0.055   0.864  0.00  0.00    -0.196 N 
ATOM      2  C2  IND d   1       0.445   0.768  -0.227  0.00  0.00     0.054 A 
ATOM      3  C3  IND d   1      -0.570   0.483  -1.073  0.00  0.00    -0.031 A 
ATOM      4  C4  IND d   1      -2.482  -1.222  -0.818  0.00  0.00     0.051 A 
ATOM      5  C5  IND d   1      -2.927  -2.228  -0.007  0.00  0.00    -0.031 A 
ATOM      6  C6  IND d   1      -2.274  -2.566   1.161  0.00  0.00     0.015 A 
ATOM      7  C7  IND d   1      -1.153  -1.900   1.569  0.00  0.00    -0.016 A 
ATOM      8  C8  IND d   1      -0.694  -0.882   0.744  0.00  0.00    -0.047 A 
ATOM      9  C9  IND d   1      -1.328  -0.563  -0.464  0.00  0.00    -0.096 A 
ATOM     10  HN1 IND d   1       0.961  -0.055   1.515  0.00  0.00     0.298 HD
ENDROOT
TORSDOF 0
ENDMDL
