MODEL 1
REMARK minimizedAffinity -3.63409424
REMARK minimizedRMSD -1
REMARK  0 active torsions:
REMARK  status: ('A' for Active; 'I' for Inactive)
ROOT
ATOM      1  N1  IND d   1       1.125   0.479  -1.066  0.00  0.00    -0.196 N 
ATOM      2  C2  IND d   1       1.663   0.361   0.185  0.00  0.00     0.054 A 
ATOM      3  C3  IND d   1       0.719  -0.032   1.069  0.00  0.00    -0.031 A 
ATOM      4  C4  IND d   1      -1.750  -0.639   0.662  0.00  0.00     0.051 A 
ATOM      5  C5  IND d   1      -2.710  -0.651  -0.311  0.00  0.00    -0.031 A 
ATOM      6  C6  IND d   1      -2.435  -0.282  -1.612  0.00  0.00     0.015 A 
ATOM      7  C7  IND d   1      -1.180   0.103  -1.993  0.00  0.00    -0.016 A 
ATOM      8  C8  IND d   1      -0.205   0.124  -1.006  0.00  0.00    -0.047 A 
ATOM      9  C9  IND d   1      -0.488  -0.209   0.325  0.00  0.00    -0.096 A 
ATOM     10  HN1 IND d   1       1.546   0.733  -1.771  0.00  0.00     0.298 HD
ENDROOT
TORSDOF 0
ENDMDL
