MODEL 1
REMARK minimizedAffinity -3.29096365
REMARK minimizedRMSD -1
REMARK  0 active torsions:
REMARK  status: ('A' for Active; 'I' for Inactive)
ROOT
ATOM      1  N1  IND d   1       0.439  -1.144   0.749  0.00  0.00    -0.196 N 
ATOM      2  C2  IND d   1       1.161   0.000   0.555  0.00  0.00     0.054 A 
ATOM      3  C3  IND d   1       0.501   0.839  -0.275  0.00  0.00    -0.031 A 
ATOM      4  C4  IND d   1      -1.823   0.580  -1.351  0.00  0.00     0.051 A 
ATOM      5  C5  IND d   1      -2.850  -0.311  -1.498  0.00  0.00    -0.031 A 
ATOM      6  C6  IND d   1      -2.833  -1.549  -0.888  0.00  0.00     0.015 A 
ATOM      7  C7  IND d   1      -1.790  -1.939  -0.097  0.00  0.00    -0.016 A 
ATOM      8  C8  IND d   1      -0.743  -1.040   0.048  0.00  0.00    -0.047 A 
ATOM      9  C9  IND d   1      -0.735   0.200  -0.602  0.00  0.00    -0.096 A 
ATOM     10  HN1 IND d   1       0.682  -1.816   1.227  0.00  0.00     0.298 HD
ENDROOT
TORSDOF 0
ENDMDL
