MODEL 1
REMARK minimizedAffinity 3.13229465
REMARK minimizedRMSD -1
REMARK  0 active torsions:
REMARK  status: ('A' for Active; 'I' for Inactive)
ROOT
ATOM      1  N1  IND d   1       1.594   3.434   0.306  0.00  0.00    -0.196 N 
ATOM      2  C2  IND d   1       2.822   3.321   0.895  0.00  0.00     0.054 A 
ATOM      3  C3  IND d   1       3.102   2.024   1.155  0.00  0.00    -0.031 A 
ATOM      4  C4  IND d   1       1.733  -0.086   0.607  0.00  0.00     0.051 A 
ATOM      5  C5  IND d   1       0.527  -0.487   0.105  0.00  0.00    -0.031 A 
ATOM      6  C6  IND d   1      -0.403   0.416  -0.368  0.00  0.00     0.015 A 
ATOM      7  C7  IND d   1      -0.155   1.760  -0.367  0.00  0.00    -0.016 A 
ATOM      8  C8  IND d   1       1.065   2.171   0.149  0.00  0.00    -0.047 A 
ATOM      9  C9  IND d   1       1.996   1.262   0.670  0.00  0.00    -0.096 A 
ATOM     10  HN1 IND d   1       1.214   4.170   0.074  0.00  0.00     0.298 HD
ENDROOT
TORSDOF 0
ENDMDL
