MODEL 1
REMARK minimizedAffinity -2.31189704
REMARK minimizedRMSD -1
REMARK  0 active torsions:
REMARK  status: ('A' for Active; 'I' for Inactive)
ROOT
ATOM      1  N1  IND d   1      -0.266   0.511   1.440  0.00  0.00    -0.196 N 
ATOM      2  C2  IND d   1       1.011   0.734   1.007  0.00  0.00     0.054 A 
ATOM      3  C3  IND d   1       1.104   0.505  -0.323  0.00  0.00    -0.031 A 
ATOM      4  C4  IND d   1      -0.737  -0.143  -2.003  0.00  0.00     0.051 A 
ATOM      5  C5  IND d   1      -2.056  -0.493  -2.073  0.00  0.00    -0.031 A 
ATOM      6  C6  IND d   1      -2.863  -0.524  -0.954  0.00  0.00     0.015 A 
ATOM      7  C7  IND d   1      -2.381  -0.194   0.281  0.00  0.00    -0.016 A 
ATOM      8  C8  IND d   1      -1.040   0.155   0.357  0.00  0.00    -0.047 A 
ATOM      9  C9  IND d   1      -0.206   0.148  -0.768  0.00  0.00    -0.096 A 
ATOM     10  HN1 IND d   1      -0.540   0.582   2.252  0.00  0.00     0.298 HD
ENDROOT
TORSDOF 0
ENDMDL
