MODEL 1
REMARK minimizedAffinity -3.42624235
REMARK minimizedRMSD -1
REMARK  0 active torsions:
REMARK  status: ('A' for Active; 'I' for Inactive)
ROOT
ATOM      1  N1  IND d   1       0.872  -0.054   1.219  0.00  0.00    -0.196 N 
ATOM      2  C2  IND d   1       1.743   0.408   0.272  0.00  0.00     0.054 A 
ATOM      3  C3  IND d   1       1.105   0.589  -0.906  0.00  0.00    -0.031 A 
ATOM      4  C4  IND d   1      -1.387   0.287  -1.479  0.00  0.00     0.051 A 
ATOM      5  C5  IND d   1      -2.568  -0.154  -0.952  0.00  0.00    -0.031 A 
ATOM      6  C6  IND d   1      -2.666  -0.589   0.354  0.00  0.00     0.015 A 
ATOM      7  C7  IND d   1      -1.583  -0.591   1.187  0.00  0.00    -0.016 A 
ATOM      8  C8  IND d   1      -0.380  -0.151   0.653  0.00  0.00    -0.047 A 
ATOM      9  C9  IND d   1      -0.266   0.253  -0.684  0.00  0.00    -0.096 A 
ATOM     10  HN1 IND d   1       1.072  -0.251   2.032  0.00  0.00     0.298 HD
ENDROOT
TORSDOF 0
ENDMDL
