MODEL 1
REMARK minimizedAffinity -2.06569695
REMARK minimizedRMSD -1
REMARK  0 active torsions:
REMARK  status: ('A' for Active; 'I' for Inactive)
ROOT
ATOM      1  N1  IND d   1       0.095   0.101  -1.330  0.00  0.00    -0.196 N 
ATOM      2  C2  IND d   1       0.876   0.486  -0.276  0.00  0.00     0.054 A 
ATOM      3  C3  IND d   1       0.237   0.252   0.892  0.00  0.00    -0.031 A 
ATOM      4  C4  IND d   1      -2.052  -0.848   1.313  0.00  0.00     0.051 A 
ATOM      5  C5  IND d   1      -3.151  -1.332   0.661  0.00  0.00    -0.031 A 
ATOM      6  C6  IND d   1      -3.224  -1.367  -0.717  0.00  0.00     0.015 A 
ATOM      7  C7  IND d   1      -2.192  -0.927  -1.496  0.00  0.00    -0.016 A 
ATOM      8  C8  IND d   1      -1.078  -0.428  -0.837  0.00  0.00    -0.047 A 
ATOM      9  C9  IND d   1      -1.015  -0.351   0.560  0.00  0.00    -0.096 A 
ATOM     10  HN1 IND d   1       0.302   0.176  -2.161  0.00  0.00     0.298 HD
ENDROOT
TORSDOF 0
ENDMDL
