MODEL 1
REMARK minimizedAffinity -4.63482332
REMARK minimizedRMSD -1
REMARK  0 active torsions:
REMARK  status: ('A' for Active; 'I' for Inactive)
ROOT
ATOM      1  N1  IND d   1       3.026   1.924   0.794  0.00  0.00    -0.196 N 
ATOM      2  C2  IND d   1       2.730   3.188   1.225  0.00  0.00     0.054 A 
ATOM      3  C3  IND d   1       1.399   3.412   1.146  0.00  0.00    -0.031 A 
ATOM      4  C4  IND d   1      -0.490   1.812   0.437  0.00  0.00     0.051 A 
ATOM      5  C5  IND d   1      -0.709   0.564  -0.074  0.00  0.00    -0.031 A 
ATOM      6  C6  IND d   1       0.326  -0.313  -0.325  0.00  0.00     0.015 A 
ATOM      7  C7  IND d   1       1.624   0.022  -0.061  0.00  0.00    -0.016 A 
ATOM      8  C8  IND d   1       1.851   1.292   0.451  0.00  0.00    -0.047 A 
ATOM      9  C9  IND d   1       0.809   2.202   0.668  0.00  0.00    -0.096 A 
ATOM     10  HN1 IND d   1       3.813   1.583   0.745  0.00  0.00     0.298 HD
ENDROOT
TORSDOF 0
ENDMDL
