MODEL 1
REMARK minimizedAffinity -4.70555687
REMARK minimizedRMSD -1
REMARK  0 active torsions:
REMARK  status: ('A' for Active; 'I' for Inactive)
ROOT
ATOM      1  N1  IND d   1      -2.344  -1.491   0.867  0.00  0.00    -0.196 N 
ATOM      2  C2  IND d   1      -3.067  -1.016  -0.192  0.00  0.00     0.054 A 
ATOM      3  C3  IND d   1      -2.261  -0.358  -1.055  0.00  0.00    -0.031 A 
ATOM      4  C4  IND d   1       0.291  -0.024  -0.979  0.00  0.00     0.051 A 
ATOM      5  C5  IND d   1       1.383  -0.245  -0.187  0.00  0.00    -0.031 A 
ATOM      6  C6  IND d   1       1.287  -0.909   1.019  0.00  0.00     0.015 A 
ATOM      7  C7  IND d   1       0.092  -1.388   1.476  0.00  0.00    -0.016 A 
ATOM      8  C8  IND d   1      -1.021  -1.159   0.678  0.00  0.00    -0.047 A 
ATOM      9  C9  IND d   1      -0.936  -0.449  -0.527  0.00  0.00    -0.096 A 
ATOM     10  HN1 IND d   1      -2.663  -1.923   1.538  0.00  0.00     0.298 HD
ENDROOT
TORSDOF 0
ENDMDL
