MODEL 1
REMARK minimizedAffinity 0.140092641
REMARK minimizedRMSD -1
REMARK  0 active torsions:
REMARK  status: ('A' for Active; 'I' for Inactive)
ROOT
ATOM      1  N1  IND d   1       0.205  -0.091   1.348  0.00  0.00    -0.196 N 
ATOM      2  C2  IND d   1       1.243   0.585   0.770  0.00  0.00     0.054 A 
ATOM      3  C3  IND d   1       1.049   0.693  -0.564  0.00  0.00    -0.031 A 
ATOM      4  C4  IND d   1      -0.950  -0.076  -1.993  0.00  0.00     0.051 A 
ATOM      5  C5  IND d   1      -2.123  -0.772  -1.917  0.00  0.00    -0.031 A 
ATOM      6  C6  IND d   1      -2.592  -1.284  -0.725  0.00  0.00     0.015 A 
ATOM      7  C7  IND d   1      -1.906  -1.109   0.444  0.00  0.00    -0.016 A 
ATOM      8  C8  IND d   1      -0.710  -0.409   0.370  0.00  0.00    -0.047 A 
ATOM      9  C9  IND d   1      -0.209   0.076  -0.845  0.00  0.00    -0.096 A 
ATOM     10  HN1 IND d   1       0.136  -0.284   2.183  0.00  0.00     0.298 HD
ENDROOT
TORSDOF 0
ENDMDL
