MODEL 1
REMARK minimizedAffinity -4.45907497
REMARK minimizedRMSD -1
REMARK  0 active torsions:
REMARK  status: ('A' for Active; 'I' for Inactive)
ROOT
ATOM      1  N1  IND d   1      -0.219   0.151   0.780  0.00  0.00    -0.196 N 
ATOM      2  C2  IND d   1      -0.864   1.119   0.060  0.00  0.00     0.054 A 
ATOM      3  C3  IND d   1      -2.037   0.647  -0.417  0.00  0.00    -0.031 A 
ATOM      4  C4  IND d   1      -3.146  -1.648  -0.054  0.00  0.00     0.051 A 
ATOM      5  C5  IND d   1      -2.923  -2.876   0.502  0.00  0.00    -0.031 A 
ATOM      6  C6  IND d   1      -1.765  -3.163   1.196  0.00  0.00     0.015 A 
ATOM      7  C7  IND d   1      -0.788  -2.224   1.369  0.00  0.00    -0.016 A 
ATOM      8  C8  IND d   1      -1.008  -0.978   0.800  0.00  0.00    -0.047 A 
ATOM      9  C9  IND d   1      -2.162  -0.694   0.059  0.00  0.00    -0.096 A 
ATOM     10  HN1 IND d   1       0.549   0.235   1.156  0.00  0.00     0.298 HD
ENDROOT
TORSDOF 0
ENDMDL
