MODEL 1
REMARK minimizedAffinity 0.372442871
REMARK minimizedRMSD -1
REMARK  1 active torsions:
REMARK  status: ('A' for Active; 'I' for Inactive)
REMARK    1  A    between atoms: C3_4  and  O_7 
ROOT
ATOM      1  C   UNL d   1       3.047   2.031   1.913  0.00  0.00    -0.033 A 
ATOM      2  C1  UNL d   1       2.798   1.650   3.233  0.00  0.00     0.039 A 
ATOM      3  C2  UNL d   1       2.396   0.344   3.520  0.00  0.00    -0.080 A 
ATOM      4  C3  UNL d   1       2.248  -0.570   2.481  0.00  0.00     0.150 A 
ATOM      5  C4  UNL d   1       2.498  -0.198   1.164  0.00  0.00    -0.007 A 
ATOM      6  C5  UNL d   1       2.898   1.107   0.879  0.00  0.00     0.039 A 
ENDROOT
BRANCH   4   7
ATOM      7  O   UNL d   1       1.853  -1.854   2.711  0.00  0.00    -0.526 OA
ATOM      8  H5  UNL d   1       1.689  -1.959   3.663  0.00  0.00     0.418 HD
ENDBRANCH   4   7
TORSDOF 1
ENDMDL
