MODEL 1
REMARK minimizedAffinity 2.38482571
REMARK minimizedRMSD -1
REMARK  1 active torsions:
REMARK  status: ('A' for Active; 'I' for Inactive)
REMARK    1  A    between atoms: C3_4  and  O_7 
ROOT
ATOM      1  C   UNL d   1       1.894  -1.963   3.210  0.00  0.00    -0.033 A 
ATOM      2  C1  UNL d   1       3.268  -1.743   3.088  0.00  0.00     0.039 A 
ATOM      3  C2  UNL d   1       3.740  -0.690   2.303  0.00  0.00    -0.080 A 
ATOM      4  C3  UNL d   1       2.831   0.136   1.647  0.00  0.00     0.150 A 
ATOM      5  C4  UNL d   1       1.461  -0.076   1.768  0.00  0.00    -0.007 A 
ATOM      6  C5  UNL d   1       0.991  -1.129   2.552  0.00  0.00     0.039 A 
ENDROOT
BRANCH   4   7
ATOM      7  O   UNL d   1       3.244   1.173   0.866  0.00  0.00    -0.526 OA
ATOM      8  H5  UNL d   1       4.216   1.180   0.853  0.00  0.00     0.418 HD
ENDBRANCH   4   7
TORSDOF 1
ENDMDL
