MODEL 1
REMARK minimizedAffinity 2.89324045
REMARK minimizedRMSD -1
REMARK  1 active torsions:
REMARK  status: ('A' for Active; 'I' for Inactive)
REMARK    1  A    between atoms: C3_4  and  O_7 
ROOT
ATOM      1  C   UNL d   1       1.894  -1.885   3.730  0.00  0.00    -0.033 A 
ATOM      2  C1  UNL d   1       1.888  -0.631   4.345  0.00  0.00     0.039 A 
ATOM      3  C2  UNL d   1       2.133   0.519   3.591  0.00  0.00    -0.080 A 
ATOM      4  C3  UNL d   1       2.380   0.401   2.226  0.00  0.00     0.150 A 
ATOM      5  C4  UNL d   1       2.384  -0.844   1.607  0.00  0.00    -0.007 A 
ATOM      6  C5  UNL d   1       2.140  -1.991   2.361  0.00  0.00     0.039 A 
ENDROOT
BRANCH   4   7
ATOM      7  O   UNL d   1       2.629   1.495   1.450  0.00  0.00    -0.526 OA
ATOM      8  H5  UNL d   1       2.623   2.283   2.019  0.00  0.00     0.418 HD
ENDBRANCH   4   7
TORSDOF 1
ENDMDL
