MODEL 1
REMARK minimizedAffinity 6.44555044
REMARK minimizedRMSD -1
REMARK  1 active torsions:
REMARK  status: ('A' for Active; 'I' for Inactive)
REMARK    1  A    between atoms: C3_4  and  O_7 
ROOT
ATOM      1  C   UNL d   1       3.231  -2.064   3.919  0.00  0.00    -0.033 A 
ATOM      2  C1  UNL d   1       1.990  -1.461   3.707  0.00  0.00     0.039 A 
ATOM      3  C2  UNL d   1       1.844  -0.489   2.715  0.00  0.00    -0.080 A 
ATOM      4  C3  UNL d   1       2.946  -0.130   1.943  0.00  0.00     0.150 A 
ATOM      5  C4  UNL d   1       4.185  -0.730   2.147  0.00  0.00    -0.007 A 
ATOM      6  C5  UNL d   1       4.328  -1.699   3.138  0.00  0.00     0.039 A 
ENDROOT
BRANCH   4   7
ATOM      7  O   UNL d   1       2.854   0.817   0.967  0.00  0.00    -0.526 OA
ATOM      8  H5  UNL d   1       1.947   1.164   0.960  0.00  0.00     0.418 HD
ENDBRANCH   4   7
TORSDOF 1
ENDMDL
