MODEL 1
REMARK minimizedAffinity 4.70095015
REMARK minimizedRMSD -1
REMARK  1 active torsions:
REMARK  status: ('A' for Active; 'I' for Inactive)
REMARK    1  A    between atoms: C3_4  and  O_7 
ROOT
ATOM      1  C   UNL d   1       1.608  -2.125   3.037  0.00  0.00    -0.033 A 
ATOM      2  C1  UNL d   1       0.832  -1.425   2.111  0.00  0.00     0.039 A 
ATOM      3  C2  UNL d   1       1.300  -0.225   1.571  0.00  0.00    -0.080 A 
ATOM      4  C3  UNL d   1       2.544   0.261   1.963  0.00  0.00     0.150 A 
ATOM      5  C4  UNL d   1       3.324  -0.433   2.882  0.00  0.00    -0.007 A 
ATOM      6  C5  UNL d   1       2.854  -1.630   3.421  0.00  0.00     0.039 A 
ENDROOT
BRANCH   4   7
ATOM      7  O   UNL d   1       3.041   1.430   1.466  0.00  0.00    -0.526 OA
ATOM      8  H5  UNL d   1       2.381   1.813   0.865  0.00  0.00     0.418 HD
ENDBRANCH   4   7
TORSDOF 1
ENDMDL
