MODEL 1
REMARK minimizedAffinity 4.33630371
REMARK minimizedRMSD -1
REMARK  1 active torsions:
REMARK  status: ('A' for Active; 'I' for Inactive)
REMARK    1  A    between atoms: C3_4  and  O_7 
ROOT
ATOM      1  C   UNL d   1       1.879   2.593   0.683  0.00  0.00    -0.033 A 
ATOM      2  C1  UNL d   1       2.942   1.702   0.525  0.00  0.00     0.039 A 
ATOM      3  C2  UNL d   1       2.882   0.430   1.098  0.00  0.00    -0.080 A 
ATOM      4  C3  UNL d   1       1.753   0.061   1.824  0.00  0.00     0.150 A 
ATOM      5  C4  UNL d   1       0.688   0.942   1.982  0.00  0.00    -0.007 A 
ATOM      6  C5  UNL d   1       0.751   2.212   1.410  0.00  0.00     0.039 A 
ENDROOT
BRANCH   4   7
ATOM      7  O   UNL d   1       1.649  -1.168   2.405  0.00  0.00    -0.526 OA
ATOM      8  H5  UNL d   1       2.471  -1.658   2.236  0.00  0.00     0.418 HD
ENDBRANCH   4   7
TORSDOF 1
ENDMDL
