MODEL 1
REMARK minimizedAffinity 5.41017532
REMARK minimizedRMSD -1
REMARK  1 active torsions:
REMARK  status: ('A' for Active; 'I' for Inactive)
REMARK    1  A    between atoms: C3_4  and  O_7 
ROOT
ATOM      1  C   UNL d   1      -2.496  -3.303  -0.241  0.00  0.00    -0.033 A 
ATOM      2  C1  UNL d   1      -1.455  -2.502   0.233  0.00  0.00     0.039 A 
ATOM      3  C2  UNL d   1      -0.396  -2.159  -0.610  0.00  0.00    -0.080 A 
ATOM      4  C3  UNL d   1      -0.390  -2.622  -1.923  0.00  0.00     0.150 A 
ATOM      5  C4  UNL d   1      -1.426  -3.417  -2.403  0.00  0.00    -0.007 A 
ATOM      6  C5  UNL d   1      -2.482  -3.759  -1.560  0.00  0.00     0.039 A 
ENDROOT
BRANCH   4   7
ATOM      7  O   UNL d   1       0.624  -2.318  -2.781  0.00  0.00    -0.526 OA
ATOM      8  H5  UNL d   1       1.283  -1.786  -2.303  0.00  0.00     0.418 HD
ENDBRANCH   4   7
TORSDOF 1
ENDMDL
