MODEL 1
REMARK minimizedAffinity 0.64786309
REMARK minimizedRMSD -1
REMARK  1 active torsions:
REMARK  status: ('A' for Active; 'I' for Inactive)
REMARK    1  A    between atoms: C3_4  and  O_7 
ROOT
ATOM      1  C   UNL d   1       3.007   0.587   2.469  0.00  0.00    -0.033 A 
ATOM      2  C1  UNL d   1       2.703  -0.686   2.956  0.00  0.00     0.039 A 
ATOM      3  C2  UNL d   1       1.485  -1.287   2.631  0.00  0.00    -0.080 A 
ATOM      4  C3  UNL d   1       0.582  -0.605   1.820  0.00  0.00     0.150 A 
ATOM      5  C4  UNL d   1       0.880   0.661   1.329  0.00  0.00    -0.007 A 
ATOM      6  C5  UNL d   1       2.096   1.260   1.655  0.00  0.00     0.039 A 
ENDROOT
BRANCH   4   7
ATOM      7  O   UNL d   1      -0.621  -1.149   1.480  0.00  0.00    -0.526 OA
ATOM      8  H5  UNL d   1      -0.701  -2.014   1.914  0.00  0.00     0.418 HD
ENDBRANCH   4   7
TORSDOF 1
ENDMDL
