MODEL 1
REMARK minimizedAffinity -5.62525797
REMARK minimizedRMSD -1
REMARK  1 active torsions:
REMARK  status: ('A' for Active; 'I' for Inactive)
REMARK    1  A    between atoms: C1_2  and  C2_3 
ROOT
ATOM      1  C2  UNL d   1      -0.531  -0.373  -0.819  0.00  0.00    -0.081 A 
ATOM      2  C3  UNL d   1      -1.207   0.011   0.346  0.00  0.00     0.006 A 
ATOM      3  C4  UNL d   1      -0.771   1.112   1.087  0.00  0.00     0.002 A 
ATOM      4  C5  UNL d   1       0.342   1.850   0.673  0.00  0.00    -0.080 A 
ATOM      5  C6  UNL d   1       0.803   3.052   1.444  0.00  0.00     0.076 C 
ATOM      6  C7  UNL d   1       1.028   1.456  -0.480  0.00  0.00     0.002 A 
ATOM      7  C8  UNL d   1       0.593   0.356  -1.222  0.00  0.00     0.006 A 
ENDROOT
BRANCH   1   8
ATOM      8  C1  UNL d   1      -1.037  -1.520  -1.656  0.00  0.00     0.054 C 
ATOM      9  C   UNL d   1      -0.787  -1.276  -3.137  0.00  0.00     0.018 C 
ENDBRANCH   1   8
TORSDOF 1
ENDMDL
