MODEL 1
REMARK minimizedAffinity -5.12590694
REMARK minimizedRMSD -1
REMARK  1 active torsions:
REMARK  status: ('A' for Active; 'I' for Inactive)
REMARK    1  A    between atoms: C1_2  and  C2_3 
ROOT
ATOM      1  C2  UNL d   1      -0.025  -0.631   0.046  0.00  0.00    -0.081 A 
ATOM      2  C3  UNL d   1      -0.693  -0.006   1.106  0.00  0.00     0.006 A 
ATOM      3  C4  UNL d   1      -0.259   1.232   1.585  0.00  0.00     0.002 A 
ATOM      4  C5  UNL d   1       0.845   1.869   1.007  0.00  0.00    -0.080 A 
ATOM      5  C6  UNL d   1       1.303   3.212   1.492  0.00  0.00     0.076 C 
ATOM      6  C7  UNL d   1       1.523   1.236  -0.040  0.00  0.00     0.002 A 
ATOM      7  C8  UNL d   1       1.090  -0.002  -0.519  0.00  0.00     0.006 A 
ENDROOT
BRANCH   1   8
ATOM      8  C1  UNL d   1      -0.530  -1.936  -0.515  0.00  0.00     0.054 C 
ATOM      9  C   UNL d   1      -1.481  -1.705  -1.681  0.00  0.00     0.018 C 
ENDBRANCH   1   8
TORSDOF 1
ENDMDL
