MODEL 1
REMARK minimizedAffinity -4.99405718
REMARK minimizedRMSD -1
REMARK  1 active torsions:
REMARK  status: ('A' for Active; 'I' for Inactive)
REMARK    1  A    between atoms: C1_2  and  C2_3 
ROOT
ATOM      1  C2  UNL d   1      -0.032  -0.423  -0.313  0.00  0.00    -0.081 A 
ATOM      2  C3  UNL d   1      -0.438  -0.018   0.965  0.00  0.00     0.006 A 
ATOM      3  C4  UNL d   1       0.025   1.183   1.507  0.00  0.00     0.002 A 
ATOM      4  C5  UNL d   1       0.895   2.002   0.780  0.00  0.00    -0.080 A 
ATOM      5  C6  UNL d   1       1.375   3.309   1.339  0.00  0.00     0.076 C 
ATOM      6  C7  UNL d   1       1.315   1.589  -0.489  0.00  0.00     0.002 A 
ATOM      7  C8  UNL d   1       0.853   0.388  -1.032  0.00  0.00     0.006 A 
ENDROOT
BRANCH   1   8
ATOM      8  C1  UNL d   1      -0.580  -1.686  -0.927  0.00  0.00     0.054 C 
ATOM      9  C   UNL d   1      -1.683  -1.379  -1.930  0.00  0.00     0.018 C 
ENDBRANCH   1   8
TORSDOF 1
ENDMDL
