MODEL 1
REMARK minimizedAffinity -2.92966318
REMARK minimizedRMSD -1
REMARK  1 active torsions:
REMARK  status: ('A' for Active; 'I' for Inactive)
REMARK    1  A    between atoms: C1_2  and  C2_3 
ROOT
ATOM      1  C2  UNL d   1      -0.824  -0.198  -0.601  0.00  0.00    -0.081 A 
ATOM      2  C3  UNL d   1      -1.384   0.353   0.558  0.00  0.00     0.006 A 
ATOM      3  C4  UNL d   1      -0.775   1.439   1.192  0.00  0.00     0.002 A 
ATOM      4  C5  UNL d   1       0.399   1.996   0.673  0.00  0.00    -0.080 A 
ATOM      5  C6  UNL d   1       1.046   3.181   1.327  0.00  0.00     0.076 C 
ATOM      6  C7  UNL d   1       0.968   1.435  -0.475  0.00  0.00     0.002 A 
ATOM      7  C8  UNL d   1       0.360   0.349  -1.109  0.00  0.00     0.006 A 
ENDROOT
BRANCH   1   8
ATOM      8  C1  UNL d   1      -1.513  -1.327  -1.323  0.00  0.00     0.054 C 
ATOM      9  C   UNL d   1      -2.190  -0.838  -2.596  0.00  0.00     0.018 C 
ENDBRANCH   1   8
TORSDOF 1
ENDMDL
