MODEL 1
REMARK minimizedAffinity -4.67375708
REMARK minimizedRMSD -1
REMARK  1 active torsions:
REMARK  status: ('A' for Active; 'I' for Inactive)
REMARK    1  A    between atoms: C1_2  and  C2_3 
ROOT
ATOM      1  C2  UNL d   1      -0.535  -1.050  -0.347  0.00  0.00    -0.081 A 
ATOM      2  C3  UNL d   1      -1.236  -0.488   0.727  0.00  0.00     0.006 A 
ATOM      3  C4  UNL d   1      -0.671   0.545   1.478  0.00  0.00     0.002 A 
ATOM      4  C5  UNL d   1       0.599   1.040   1.163  0.00  0.00    -0.080 A 
ATOM      5  C6  UNL d   1       1.204   2.169   1.943  0.00  0.00     0.076 C 
ATOM      6  C7  UNL d   1       1.307   0.467   0.101  0.00  0.00     0.002 A 
ATOM      7  C8  UNL d   1       0.743  -0.567  -0.650  0.00  0.00     0.006 A 
ENDROOT
BRANCH   1   8
ATOM      8  C1  UNL d   1      -1.168  -2.120  -1.199  0.00  0.00     0.054 C 
ATOM      9  C   UNL d   1      -2.077  -1.517  -2.260  0.00  0.00     0.018 C 
ENDBRANCH   1   8
TORSDOF 1
ENDMDL
