MODEL 1
REMARK minimizedAffinity -4.57322168
REMARK minimizedRMSD -1
REMARK  1 active torsions:
REMARK  status: ('A' for Active; 'I' for Inactive)
REMARK    1  A    between atoms: C1_2  and  C2_3 
ROOT
ATOM      1  C2  UNL d   1      -0.710  -0.897  -0.381  0.00  0.00    -0.081 A 
ATOM      2  C3  UNL d   1      -1.192  -0.146   0.697  0.00  0.00     0.006 A 
ATOM      3  C4  UNL d   1      -0.416   0.875   1.251  0.00  0.00     0.002 A 
ATOM      4  C5  UNL d   1       0.850   1.167   0.732  0.00  0.00    -0.080 A 
ATOM      5  C6  UNL d   1       1.680   2.280   1.298  0.00  0.00     0.076 C 
ATOM      6  C7  UNL d   1       1.338   0.404  -0.335  0.00  0.00     0.002 A 
ATOM      7  C8  UNL d   1       0.563  -0.617  -0.889  0.00  0.00     0.006 A 
ENDROOT
BRANCH   1   8
ATOM      8  C1  UNL d   1      -1.571  -1.956  -1.023  0.00  0.00     0.054 C 
ATOM      9  C   UNL d   1      -2.208  -1.447  -2.308  0.00  0.00     0.018 C 
ENDBRANCH   1   8
TORSDOF 1
ENDMDL
