MODEL 1
REMARK minimizedAffinity -2.89141464
REMARK minimizedRMSD -1
REMARK  1 active torsions:
REMARK  status: ('A' for Active; 'I' for Inactive)
REMARK    1  A    between atoms: C1_2  and  C2_3 
ROOT
ATOM      1  C2  UNL d   1      -0.530  -0.989  -0.471  0.00  0.00    -0.081 A 
ATOM      2  C3  UNL d   1       0.677  -0.326  -0.722  0.00  0.00     0.006 A 
ATOM      3  C4  UNL d   1       1.142   0.655   0.158  0.00  0.00     0.002 A 
ATOM      4  C5  UNL d   1       0.412   0.983   1.305  0.00  0.00    -0.080 A 
ATOM      5  C6  UNL d   1       0.914   2.013   2.273  0.00  0.00     0.076 C 
ATOM      6  C7  UNL d   1      -0.803   0.333   1.546  0.00  0.00     0.002 A 
ATOM      7  C8  UNL d   1      -1.269  -0.647   0.667  0.00  0.00     0.006 A 
ENDROOT
BRANCH   1   8
ATOM      8  C1  UNL d   1      -1.002  -2.093  -1.383  0.00  0.00     0.054 C 
ATOM      9  C   UNL d   1      -1.275  -1.572  -2.787  0.00  0.00     0.018 C 
ENDBRANCH   1   8
TORSDOF 1
ENDMDL
