MODEL 1
REMARK minimizedAffinity -3.60396075
REMARK minimizedRMSD -1
REMARK  1 active torsions:
REMARK  status: ('A' for Active; 'I' for Inactive)
REMARK    1  A    between atoms: C1_2  and  C2_3 
ROOT
ATOM      1  C2  UNL d   1      -0.369  -0.375  -0.458  0.00  0.00    -0.081 A 
ATOM      2  C3  UNL d   1       0.662   0.340  -1.079  0.00  0.00     0.006 A 
ATOM      3  C4  UNL d   1       1.317   1.371  -0.402  0.00  0.00     0.002 A 
ATOM      4  C5  UNL d   1       0.957   1.700   0.909  0.00  0.00    -0.080 A 
ATOM      5  C6  UNL d   1       1.673   2.785   1.658  0.00  0.00     0.076 C 
ATOM      6  C7  UNL d   1      -0.085   0.998   1.524  0.00  0.00     0.002 A 
ATOM      7  C8  UNL d   1      -0.741  -0.033   0.847  0.00  0.00     0.006 A 
ENDROOT
BRANCH   1   8
ATOM      8  C1  UNL d   1      -1.034  -1.530  -1.162  0.00  0.00     0.054 C 
ATOM      9  C   UNL d   1      -1.501  -1.134  -2.555  0.00  0.00     0.018 C 
ENDBRANCH   1   8
TORSDOF 1
ENDMDL
