MODEL 1
REMARK minimizedAffinity -2.24524736
REMARK minimizedRMSD -1
REMARK  1 active torsions:
REMARK  status: ('A' for Active; 'I' for Inactive)
REMARK    1  A    between atoms: C1_2  and  C2_3 
ROOT
ATOM      1  C2  UNL d   1       1.695   1.667   0.890  0.00  0.00    -0.081 A 
ATOM      2  C3  UNL d   1       1.070   1.986   2.102  0.00  0.00     0.006 A 
ATOM      3  C4  UNL d   1      -0.194   1.473   2.403  0.00  0.00     0.002 A 
ATOM      4  C5  UNL d   1      -0.849   0.627   1.503  0.00  0.00    -0.080 A 
ATOM      5  C6  UNL d   1      -2.193   0.045   1.827  0.00  0.00     0.076 C 
ATOM      6  C7  UNL d   1      -0.232   0.322   0.284  0.00  0.00     0.002 A 
ATOM      7  C8  UNL d   1       1.031   0.836  -0.018  0.00  0.00     0.006 A 
ENDROOT
BRANCH   1   8
ATOM      8  C1  UNL d   1       3.085   2.167   0.590  0.00  0.00     0.054 C 
ATOM      9  C   UNL d   1       3.917   1.102  -0.109  0.00  0.00     0.018 C 
ENDBRANCH   1   8
TORSDOF 1
ENDMDL
