MODEL 1
REMARK minimizedAffinity 1.49805915
REMARK minimizedRMSD -1
REMARK  1 active torsions:
REMARK  status: ('A' for Active; 'I' for Inactive)
REMARK    1  A    between atoms: C1_2  and  C2_3 
ROOT
ATOM      1  C2  UNL d   1       1.160   2.699  -1.261  0.00  0.00    -0.081 A 
ATOM      2  C3  UNL d   1       1.329   1.331  -1.015  0.00  0.00     0.006 A 
ATOM      3  C4  UNL d   1       0.827   0.755   0.154  0.00  0.00     0.002 A 
ATOM      4  C5  UNL d   1       0.141   1.534   1.092  0.00  0.00    -0.080 A 
ATOM      5  C6  UNL d   1      -0.429   0.921   2.336  0.00  0.00     0.076 C 
ATOM      6  C7  UNL d   1      -0.013   2.904   0.854  0.00  0.00     0.002 A 
ATOM      7  C8  UNL d   1       0.489   3.481  -0.314  0.00  0.00     0.006 A 
ENDROOT
BRANCH   1   8
ATOM      8  C1  UNL d   1       1.643   3.311  -2.551  0.00  0.00     0.054 C 
ATOM      9  C   UNL d   1       3.163   3.354  -2.608  0.00  0.00     0.018 C 
ENDBRANCH   1   8
TORSDOF 1
ENDMDL
