MODEL 1
REMARK minimizedAffinity -4.58469868
REMARK minimizedRMSD -1
REMARK  0 active torsions:
REMARK  status: ('A' for Active; 'I' for Inactive)
ROOT
ATOM      1  N1  IND d   1      -0.168   1.760   2.397  0.00  0.00    -0.196 N 
ATOM      2  C2  IND d   1      -0.877   2.819   1.902  0.00  0.00     0.054 A 
ATOM      3  C3  IND d   1      -1.133   2.639   0.586  0.00  0.00    -0.031 A 
ATOM      4  C4  IND d   1      -0.572   0.635  -0.930  0.00  0.00     0.051 A 
ATOM      5  C5  IND d   1       0.099  -0.555  -0.937  0.00  0.00    -0.031 A 
ATOM      6  C6  IND d   1       0.726  -1.046   0.190  0.00  0.00     0.015 A 
ATOM      7  C7  IND d   1       0.695  -0.367   1.375  0.00  0.00    -0.016 A 
ATOM      8  C8  IND d   1       0.020   0.846   1.384  0.00  0.00    -0.047 A 
ATOM      9  C9  IND d   1      -0.581   1.369   0.233  0.00  0.00    -0.096 A 
ATOM     10  HN1 IND d   1       0.113   1.679   3.206  0.00  0.00     0.298 HD
ENDROOT
TORSDOF 0
ENDMDL
