MODEL 1
REMARK minimizedAffinity 0.161761776
REMARK minimizedRMSD -1
REMARK  0 active torsions:
REMARK  status: ('A' for Active; 'I' for Inactive)
ROOT
ATOM      1  N1  IND d   1       0.132  -0.726  -1.705  0.00  0.00    -0.196 N 
ATOM      2  C2  IND d   1       0.634  -1.548  -0.736  0.00  0.00     0.054 A 
ATOM      3  C3  IND d   1       0.389  -1.034   0.490  0.00  0.00    -0.031 A 
ATOM      4  C4  IND d   1      -0.908   1.092   1.143  0.00  0.00     0.051 A 
ATOM      5  C5  IND d   1      -1.523   2.186   0.604  0.00  0.00    -0.031 A 
ATOM      6  C6  IND d   1      -1.622   2.369  -0.760  0.00  0.00     0.015 A 
ATOM      7  C7  IND d   1      -1.117   1.453  -1.640  0.00  0.00    -0.016 A 
ATOM      8  C8  IND d   1      -0.486   0.344  -1.096  0.00  0.00    -0.047 A 
ATOM      9  C9  IND d   1      -0.345   0.174   0.288  0.00  0.00    -0.096 A 
ATOM     10  HN1 IND d   1       0.192  -0.855  -2.553  0.00  0.00     0.298 HD
ENDROOT
TORSDOF 0
ENDMDL
