MODEL 1
REMARK minimizedAffinity -3.69235587
REMARK minimizedRMSD -1
REMARK  0 active torsions:
REMARK  status: ('A' for Active; 'I' for Inactive)
ROOT
ATOM      1  N1  IND d   1       0.191   0.997  -1.785  0.00  0.00    -0.196 N 
ATOM      2  C2  IND d   1       1.127   0.003  -1.852  0.00  0.00     0.054 A 
ATOM      3  C3  IND d   1       1.335  -0.530  -0.627  0.00  0.00    -0.031 A 
ATOM      4  C4  IND d   1       0.176   0.007   1.609  0.00  0.00     0.051 A 
ATOM      5  C5  IND d   1      -0.721   0.866   2.178  0.00  0.00    -0.031 A 
ATOM      6  C6  IND d   1      -1.376   1.831   1.439  0.00  0.00     0.015 A 
ATOM      7  C7  IND d   1      -1.165   1.965   0.096  0.00  0.00    -0.016 A 
ATOM      8  C8  IND d   1      -0.249   1.099  -0.483  0.00  0.00    -0.047 A 
ATOM      9  C9  IND d   1       0.450   0.146   0.269  0.00  0.00    -0.096 A 
ATOM     10  HN1 IND d   1      -0.078   1.478  -2.445  0.00  0.00     0.298 HD
ENDROOT
TORSDOF 0
ENDMDL
