MODEL 1
REMARK minimizedAffinity -1.41756499
REMARK minimizedRMSD -1
REMARK  0 active torsions:
REMARK  status: ('A' for Active; 'I' for Inactive)
ROOT
ATOM      1  N1  IND d   1      -1.161   2.509   0.343  0.00  0.00    -0.196 N 
ATOM      2  C2  IND d   1      -1.185   2.817   1.674  0.00  0.00     0.054 A 
ATOM      3  C3  IND d   1      -0.594   1.838   2.395  0.00  0.00    -0.031 A 
ATOM      4  C4  IND d   1       0.570  -0.311   1.588  0.00  0.00     0.051 A 
ATOM      5  C5  IND d   1       0.816  -1.046   0.461  0.00  0.00    -0.031 A 
ATOM      6  C6  IND d   1       0.409  -0.623  -0.788  0.00  0.00     0.015 A 
ATOM      7  C7  IND d   1      -0.252   0.561  -0.959  0.00  0.00    -0.016 A 
ATOM      8  C8  IND d   1      -0.508   1.306   0.183  0.00  0.00    -0.047 A 
ATOM      9  C9  IND d   1      -0.135   0.861   1.459  0.00  0.00    -0.096 A 
ATOM     10  HN1 IND d   1      -1.496   2.986  -0.289  0.00  0.00     0.298 HD
ENDROOT
TORSDOF 0
ENDMDL
