MODEL 1
REMARK minimizedAffinity -1.63958263
REMARK minimizedRMSD -1
REMARK  0 active torsions:
REMARK  status: ('A' for Active; 'I' for Inactive)
ROOT
ATOM      1  N1  IND d   1      -0.804  -3.639   0.028  0.00  0.00    -0.196 N 
ATOM      2  C2  IND d   1      -0.705  -3.999  -1.287  0.00  0.00     0.054 A 
ATOM      3  C3  IND d   1      -0.306  -2.945  -2.034  0.00  0.00    -0.031 A 
ATOM      4  C4  IND d   1       0.338  -0.565  -1.293  0.00  0.00     0.051 A 
ATOM      5  C5  IND d   1       0.371   0.250  -0.197  0.00  0.00    -0.031 A 
ATOM      6  C6  IND d   1       0.010  -0.200   1.057  0.00  0.00     0.015 A 
ATOM      7  C7  IND d   1      -0.389  -1.490   1.263  0.00  0.00    -0.016 A 
ATOM      8  C8  IND d   1      -0.431  -2.318   0.150  0.00  0.00    -0.047 A 
ATOM      9  C9  IND d   1      -0.107  -1.856  -1.131  0.00  0.00    -0.096 A 
ATOM     10  HN1 IND d   1      -1.058  -4.151   0.670  0.00  0.00     0.298 HD
ENDROOT
TORSDOF 0
ENDMDL
