MODEL 1
REMARK minimizedAffinity -0.418204159
REMARK minimizedRMSD -1
REMARK  0 active torsions:
REMARK  status: ('A' for Active; 'I' for Inactive)
ROOT
ATOM      1  N1  IND d   1      -0.547   2.495   0.333  0.00  0.00    -0.196 N 
ATOM      2  C2  IND d   1      -0.352   2.925   1.616  0.00  0.00     0.054 A 
ATOM      3  C3  IND d   1       0.162   1.929   2.372  0.00  0.00    -0.031 A 
ATOM      4  C4  IND d   1       0.857  -0.453   1.688  0.00  0.00     0.051 A 
ATOM      5  C5  IND d   1       0.836  -1.320   0.631  0.00  0.00    -0.031 A 
ATOM      6  C6  IND d   1       0.346  -0.951  -0.605  0.00  0.00     0.015 A 
ATOM      7  C7  IND d   1      -0.134   0.308  -0.834  0.00  0.00    -0.016 A 
ATOM      8  C8  IND d   1      -0.121   1.188   0.238  0.00  0.00    -0.047 A 
ATOM      9  C9  IND d   1       0.336   0.806   1.506  0.00  0.00    -0.096 A 
ATOM     10  HN1 IND d   1      -0.880   2.962  -0.308  0.00  0.00     0.298 HD
ENDROOT
TORSDOF 0
ENDMDL
