MODEL 1
REMARK minimizedAffinity -0.749154925
REMARK minimizedRMSD -1
REMARK  0 active torsions:
REMARK  status: ('A' for Active; 'I' for Inactive)
ROOT
ATOM      1  N1  IND d   1      -0.052  -1.507   0.646  0.00  0.00    -0.196 N 
ATOM      2  C2  IND d   1       0.748  -2.352  -0.071  0.00  0.00     0.054 A 
ATOM      3  C3  IND d   1       1.162  -1.755  -1.211  0.00  0.00    -0.031 A 
ATOM      4  C4  IND d   1       0.733   0.640  -2.051  0.00  0.00     0.051 A 
ATOM      5  C5  IND d   1       0.030   1.775  -1.758  0.00  0.00    -0.031 A 
ATOM      6  C6  IND d   1      -0.750   1.877  -0.624  0.00  0.00     0.015 A 
ATOM      7  C7  IND d   1      -0.847   0.847   0.269  0.00  0.00    -0.016 A 
ATOM      8  C8  IND d   1      -0.141  -0.309  -0.030  0.00  0.00    -0.047 A 
ATOM      9  C9  IND d   1       0.619  -0.434  -1.200  0.00  0.00    -0.096 A 
ATOM     10  HN1 IND d   1      -0.436  -1.691   1.393  0.00  0.00     0.298 HD
ENDROOT
TORSDOF 0
ENDMDL
