MODEL 1
REMARK minimizedAffinity -1.71166646
REMARK minimizedRMSD -1
REMARK  0 active torsions:
REMARK  status: ('A' for Active; 'I' for Inactive)
ROOT
ATOM      1  N1  IND d   1       1.318  -1.051  -0.492  0.00  0.00    -0.196 N 
ATOM      2  C2  IND d   1       0.496  -0.055  -0.043  0.00  0.00     0.054 A 
ATOM      3  C3  IND d   1      -0.787  -0.479  -0.021  0.00  0.00    -0.031 A 
ATOM      4  C4  IND d   1      -1.755  -2.797  -0.581  0.00  0.00     0.051 A 
ATOM      5  C5  IND d   1      -1.400  -4.023  -1.072  0.00  0.00    -0.031 A 
ATOM      6  C6  IND d   1      -0.095  -4.327  -1.399  0.00  0.00     0.015 A 
ATOM      7  C7  IND d   1       0.911  -3.417  -1.235  0.00  0.00    -0.016 A 
ATOM      8  C8  IND d   1       0.554  -2.170  -0.744  0.00  0.00    -0.047 A 
ATOM      9  C9  IND d   1      -0.776  -1.841  -0.451  0.00  0.00    -0.096 A 
ATOM     10  HN1 IND d   1       2.169  -0.989  -0.600  0.00  0.00     0.298 HD
ENDROOT
TORSDOF 0
ENDMDL
