MODEL 1
REMARK minimizedAffinity -2.97644043
REMARK minimizedRMSD -1
REMARK  0 active torsions:
REMARK  status: ('A' for Active; 'I' for Inactive)
ROOT
ATOM      1  N1  IND d   1       0.271  -0.396  -0.699  0.00  0.00    -0.196 N 
ATOM      2  C2  IND d   1       1.254  -0.996   0.039  0.00  0.00     0.054 A 
ATOM      3  C3  IND d   1       1.308  -0.456   1.277  0.00  0.00    -0.031 A 
ATOM      4  C4  IND d   1      -0.186   1.351   2.340  0.00  0.00     0.051 A 
ATOM      5  C5  IND d   1      -1.197   2.223   2.046  0.00  0.00    -0.031 A 
ATOM      6  C6  IND d   1      -1.783   2.265   0.798  0.00  0.00     0.015 A 
ATOM      7  C7  IND d   1      -1.387   1.426  -0.204  0.00  0.00    -0.016 A 
ATOM      8  C8  IND d   1      -0.356   0.544   0.089  0.00  0.00    -0.047 A 
ATOM      9  C9  IND d   1       0.272   0.525   1.341  0.00  0.00    -0.096 A 
ATOM     10  HN1 IND d   1       0.078  -0.576  -1.517  0.00  0.00     0.298 HD
ENDROOT
TORSDOF 0
ENDMDL
