MODEL 1
REMARK minimizedAffinity -3.37483072
REMARK minimizedRMSD -1
REMARK  0 active torsions:
REMARK  status: ('A' for Active; 'I' for Inactive)
ROOT
ATOM      1  N1  IND d   1       0.210  -0.759  -0.521  0.00  0.00    -0.196 N 
ATOM      2  C2  IND d   1       1.319  -1.133   0.184  0.00  0.00     0.054 A 
ATOM      3  C3  IND d   1       1.480  -0.337   1.265  0.00  0.00    -0.031 A 
ATOM      4  C4  IND d   1      -0.015   1.574   2.125  0.00  0.00     0.051 A 
ATOM      5  C5  IND d   1      -1.120   2.308   1.797  0.00  0.00    -0.031 A 
ATOM      6  C6  IND d   1      -1.855   2.050   0.658  0.00  0.00     0.015 A 
ATOM      7  C7  IND d   1      -1.517   1.036  -0.193  0.00  0.00    -0.016 A 
ATOM      8  C8  IND d   1      -0.391   0.294   0.133  0.00  0.00    -0.047 A 
ATOM      9  C9  IND d   1       0.383   0.578   1.265  0.00  0.00    -0.096 A 
ATOM     10  HN1 IND d   1      -0.066  -1.121  -1.251  0.00  0.00     0.298 HD
ENDROOT
TORSDOF 0
ENDMDL
