MODEL 1
REMARK minimizedAffinity 6.47551823
REMARK minimizedRMSD -1
REMARK  2 active torsions:
REMARK  status: ('A' for Active; 'I' for Inactive)
REMARK    1  A    between atoms: C2'_3  and  C1'_4 
REMARK    2  A    between atoms: C1'_4  and  C1_5 
ROOT
ATOM      1  C1  I4B d   1       3.409  -0.808   1.796  0.00  0.00    -0.075 A 
ATOM      2  C2  I4B d   1       3.768   0.492   1.541  0.00  0.00     0.003 A 
ATOM      3  C3  I4B d   1       3.349   1.126   0.347  0.00  0.00     0.002 A 
ATOM      4  C4  I4B d   1       2.619   0.412  -0.582  0.00  0.00    -0.004 A 
ATOM      5  C5  I4B d   1       2.237  -0.898  -0.311  0.00  0.00     0.002 A 
ATOM      6  C6  I4B d   1       2.624  -1.509   0.891  0.00  0.00     0.003 A 
ENDROOT
BRANCH   1   7
ATOM      7  C1' I4B d   1       3.898  -1.457   3.052  0.00  0.00     0.060 C 
BRANCH   7   8
ATOM      8  C2' I4B d   1       5.404  -1.304   3.102  0.00  0.00    -0.013 C 
ATOM      9  C4' I4B d   1       5.943  -1.652   4.464  0.00  0.00     0.013 C 
ATOM     10  C3' I4B d   1       5.994  -2.189   2.044  0.00  0.00     0.013 C 
ENDBRANCH   7   8
ENDBRANCH   1   7
TORSDOF 2
ENDMDL
