MODEL 1
REMARK minimizedAffinity -1.16805208
REMARK minimizedRMSD -1
REMARK  2 active torsions:
REMARK  status: ('A' for Active; 'I' for Inactive)
REMARK    1  A    between atoms: C2'_3  and  C1'_4 
REMARK    2  A    between atoms: C1'_4  and  C1_5 
ROOT
ATOM      1  C1  I4B d   1       3.557  -0.474   2.068  0.00  0.00    -0.075 A 
ATOM      2  C2  I4B d   1       2.752  -1.161   1.194  0.00  0.00     0.003 A 
ATOM      3  C3  I4B d   1       2.311  -0.546  -0.002  0.00  0.00     0.002 A 
ATOM      4  C4  I4B d   1       2.655   0.765  -0.260  0.00  0.00    -0.004 A 
ATOM      5  C5  I4B d   1       3.490   1.453   0.616  0.00  0.00     0.002 A 
ATOM      6  C6  I4B d   1       3.955   0.826   1.781  0.00  0.00     0.003 A 
ENDROOT
BRANCH   1   7
ATOM      7  C1' I4B d   1       3.978  -1.142   3.338  0.00  0.00     0.060 C 
BRANCH   7   8
ATOM      8  C2' I4B d   1       5.492  -1.139   3.389  0.00  0.00    -0.013 C 
ATOM      9  C4' I4B d   1       5.999  -1.886   4.594  0.00  0.00     0.013 C 
ATOM     10  C3' I4B d   1       5.998  -1.754   2.118  0.00  0.00     0.013 C 
ENDBRANCH   7   8
ENDBRANCH   1   7
TORSDOF 2
ENDMDL
