MODEL 1
REMARK minimizedAffinity 4.10822535
REMARK minimizedRMSD -1
REMARK  2 active torsions:
REMARK  status: ('A' for Active; 'I' for Inactive)
REMARK    1  A    between atoms: C2'_3  and  C1'_4 
REMARK    2  A    between atoms: C1'_4  and  C1_5 
ROOT
ATOM      1  C1  I4B d   1       4.565   2.234  -0.559  0.00  0.00    -0.075 A 
ATOM      2  C2  I4B d   1       3.709   1.548  -1.383  0.00  0.00     0.003 A 
ATOM      3  C3  I4B d   1       2.625   0.818  -0.837  0.00  0.00     0.002 A 
ATOM      4  C4  I4B d   1       2.466   0.760   0.532  0.00  0.00    -0.004 A 
ATOM      5  C5  I4B d   1       3.322   1.475   1.365  0.00  0.00     0.002 A 
ATOM      6  C6  I4B d   1       4.371   2.227   0.816  0.00  0.00     0.003 A 
ENDROOT
BRANCH   1   7
ATOM      7  C1' I4B d   1       5.718   2.968  -1.167  0.00  0.00     0.060 C 
BRANCH   7   8
ATOM      8  C2' I4B d   1       5.425   3.158  -2.641  0.00  0.00    -0.013 C 
ATOM      9  C4' I4B d   1       6.000   4.454  -3.148  0.00  0.00     0.013 C 
ATOM     10  C3' I4B d   1       5.997   1.986  -3.382  0.00  0.00     0.013 C 
ENDBRANCH   7   8
ENDBRANCH   1   7
TORSDOF 2
ENDMDL
