MODEL 1
REMARK minimizedAffinity -2.18807077
REMARK minimizedRMSD -1
REMARK  2 active torsions:
REMARK  status: ('A' for Active; 'I' for Inactive)
REMARK    1  A    between atoms: C2'_3  and  C1'_4 
REMARK    2  A    between atoms: C1'_4  and  C1_5 
ROOT
ATOM      1  C1  I4B d   1       4.058   1.456   0.241  0.00  0.00    -0.075 A 
ATOM      2  C2  I4B d   1       3.358   1.344  -0.934  0.00  0.00     0.003 A 
ATOM      3  C3  I4B d   1       3.979   1.661  -2.166  0.00  0.00     0.002 A 
ATOM      4  C4  I4B d   1       5.276   2.132  -2.172  0.00  0.00    -0.004 A 
ATOM      5  C5  I4B d   1       5.991   2.223  -0.982  0.00  0.00     0.002 A 
ATOM      6  C6  I4B d   1       5.383   1.871   0.232  0.00  0.00     0.003 A 
ENDROOT
BRANCH   1   7
ATOM      7  C1' I4B d   1       3.361   1.144   1.528  0.00  0.00     0.060 C 
BRANCH   7   8
ATOM      8  C2' I4B d   1       3.778  -0.247   1.959  0.00  0.00    -0.013 C 
ATOM      9  C4' I4B d   1       4.117  -0.284   3.427  0.00  0.00     0.013 C 
ATOM     10  C3' I4B d   1       2.655  -1.188   1.639  0.00  0.00     0.013 C 
ENDBRANCH   7   8
ENDBRANCH   1   7
TORSDOF 2
ENDMDL
