MODEL 1
REMARK minimizedAffinity 4.46188211
REMARK minimizedRMSD -1
REMARK  2 active torsions:
REMARK  status: ('A' for Active; 'I' for Inactive)
REMARK    1  A    between atoms: C2'_3  and  C1'_4 
REMARK    2  A    between atoms: C1'_4  and  C1_5 
ROOT
ATOM      1  C1  I4B d   1       3.899  -0.792   3.165  0.00  0.00    -0.075 A 
ATOM      2  C2  I4B d   1       2.955  -0.489   4.114  0.00  0.00     0.003 A 
ATOM      3  C3  I4B d   1       3.315  -0.421   5.482  0.00  0.00     0.002 A 
ATOM      4  C4  I4B d   1       4.611  -0.711   5.858  0.00  0.00    -0.004 A 
ATOM      5  C5  I4B d   1       5.572  -0.994   4.892  0.00  0.00     0.002 A 
ATOM      6  C6  I4B d   1       5.217  -1.023   3.535  0.00  0.00     0.003 A 
ENDROOT
BRANCH   1   7
ATOM      7  C1' I4B d   1       3.476  -0.887   1.733  0.00  0.00     0.060 C 
BRANCH   7   8
ATOM      8  C2' I4B d   1       3.079   0.500   1.270  0.00  0.00    -0.013 C 
ATOM      9  C4' I4B d   1       4.277   1.407   1.176  0.00  0.00     0.013 C 
ATOM     10  C3' I4B d   1       2.395   0.366  -0.058  0.00  0.00     0.013 C 
ENDBRANCH   7   8
ENDBRANCH   1   7
TORSDOF 2
ENDMDL
