MODEL 1
REMARK minimizedAffinity 6.53233576
REMARK minimizedRMSD -1
REMARK  0 active torsions:
REMARK  status: ('A' for Active; 'I' for Inactive)
ROOT
ATOM      1  O1  BZF d   1       3.347  -1.467   4.212  0.00  0.00    -0.204 OA
ATOM      2  C2  BZF d   1       2.398  -2.469   4.259  0.00  0.00     0.174 A 
ATOM      3  C3  BZF d   1       1.290  -2.111   3.577  0.00  0.00    -0.012 A 
ATOM      4  C3A BZF d   1       1.601  -0.842   2.995  0.00  0.00    -0.107 A 
ATOM      5  C4  BZF d   1       0.907   0.018   2.192  0.00  0.00     0.055 A 
ATOM      6  C5  BZF d   1       1.468   1.210   1.860  0.00  0.00    -0.016 A 
ATOM      7  C6  BZF d   1       2.717   1.577   2.317  0.00  0.00     0.022 A 
ATOM      8  C7  BZF d   1       3.445   0.756   3.112  0.00  0.00     0.029 A 
ATOM      9  C7A BZF d   1       2.895  -0.464   3.422  0.00  0.00     0.058 A 
ENDROOT
TORSDOF 0
ENDMDL
