MODEL 1
REMARK minimizedAffinity 7.00871801
REMARK minimizedRMSD -1
REMARK  0 active torsions:
REMARK  status: ('A' for Active; 'I' for Inactive)
ROOT
ATOM      1  O1  BZF d   1       0.601  -2.864   4.161  0.00  0.00    -0.204 OA
ATOM      2  C2  BZF d   1       1.601  -2.665   5.093  0.00  0.00     0.174 A 
ATOM      3  C3  BZF d   1       2.010  -1.380   5.089  0.00  0.00    -0.012 A 
ATOM      4  C3A BZF d   1       1.152  -0.715   4.157  0.00  0.00    -0.107 A 
ATOM      5  C4  BZF d   1       1.053   0.579   3.730  0.00  0.00     0.055 A 
ATOM      6  C5  BZF d   1       0.156   0.886   2.757  0.00  0.00    -0.016 A 
ATOM      7  C6  BZF d   1      -0.653  -0.074   2.186  0.00  0.00     0.022 A 
ATOM      8  C7  BZF d   1      -0.595  -1.370   2.580  0.00  0.00     0.029 A 
ATOM      9  C7A BZF d   1       0.287  -1.677   3.587  0.00  0.00     0.058 A 
ENDROOT
TORSDOF 0
ENDMDL
