MODEL 1
REMARK minimizedAffinity 12.0538979
REMARK minimizedRMSD -1
REMARK  0 active torsions:
REMARK  status: ('A' for Active; 'I' for Inactive)
ROOT
ATOM      1  O1  BZF d   1      -2.519   4.091   0.014  0.00  0.00    -0.204 OA
ATOM      2  C2  BZF d   1      -1.646   5.119  -0.285  0.00  0.00     0.174 A 
ATOM      3  C3  BZF d   1      -2.216   5.999  -1.134  0.00  0.00    -0.012 A 
ATOM      4  C3A BZF d   1      -3.559   5.536  -1.309  0.00  0.00    -0.107 A 
ATOM      5  C4  BZF d   1      -4.625   5.999  -2.027  0.00  0.00     0.055 A 
ATOM      6  C5  BZF d   1      -5.774   5.275  -2.043  0.00  0.00    -0.016 A 
ATOM      7  C6  BZF d   1      -5.891   4.083  -1.358  0.00  0.00     0.022 A 
ATOM      8  C7  BZF d   1      -4.863   3.586  -0.628  0.00  0.00     0.029 A 
ATOM      9  C7A BZF d   1      -3.711   4.332  -0.583  0.00  0.00     0.058 A 
ENDROOT
TORSDOF 0
ENDMDL
