MODEL 1
REMARK minimizedAffinity -0.199542329
REMARK minimizedRMSD -1
REMARK  0 active torsions:
REMARK  status: ('A' for Active; 'I' for Inactive)
ROOT
ATOM      1  O1  BZF d   1       3.852   4.509   0.153  0.00  0.00    -0.204 OA
ATOM      2  C2  BZF d   1       4.498   5.720   0.001  0.00  0.00     0.174 A 
ATOM      3  C3  BZF d   1       5.253   5.999   1.084  0.00  0.00    -0.012 A 
ATOM      4  C3A BZF d   1       5.139   4.849   1.928  0.00  0.00    -0.107 A 
ATOM      5  C4  BZF d   1       5.673   4.518   3.140  0.00  0.00     0.055 A 
ATOM      6  C5  BZF d   1       5.304   3.349   3.727  0.00  0.00    -0.016 A 
ATOM      7  C6  BZF d   1       4.402   2.491   3.133  0.00  0.00     0.022 A 
ATOM      8  C7  BZF d   1       3.850   2.774   1.928  0.00  0.00     0.029 A 
ATOM      9  C7A BZF d   1       4.245   3.939   1.317  0.00  0.00     0.058 A 
ENDROOT
TORSDOF 0
ENDMDL
