MODEL 1
REMARK minimizedAffinity 14.5793867
REMARK minimizedRMSD -1
REMARK  0 active torsions:
REMARK  status: ('A' for Active; 'I' for Inactive)
ROOT
ATOM      1  O1  BZF d   1       6.000   2.658   1.337  0.00  0.00    -0.204 OA
ATOM      2  C2  BZF d   1       5.964   1.379   0.814  0.00  0.00     0.174 A 
ATOM      3  C3  BZF d   1       5.740   0.471   1.786  0.00  0.00    -0.012 A 
ATOM      4  C3A BZF d   1       5.537   1.238   2.977  0.00  0.00    -0.107 A 
ATOM      5  C4  BZF d   1       5.258   0.904   4.272  0.00  0.00     0.055 A 
ATOM      6  C5  BZF d   1       5.194   1.887   5.208  0.00  0.00    -0.016 A 
ATOM      7  C6  BZF d   1       5.409   3.211   4.886  0.00  0.00     0.022 A 
ATOM      8  C7  BZF d   1       5.685   3.591   3.615  0.00  0.00     0.029 A 
ATOM      9  C7A BZF d   1       5.718   2.604   2.661  0.00  0.00     0.058 A 
ENDROOT
TORSDOF 0
ENDMDL
