MODEL 1
REMARK minimizedAffinity 10.3803949
REMARK minimizedRMSD -1
REMARK  0 active torsions:
REMARK  status: ('A' for Active; 'I' for Inactive)
ROOT
ATOM      1  O1  BZF d   1       0.681  -2.617   3.850  0.00  0.00    -0.204 OA
ATOM      2  C2  BZF d   1       1.962  -2.301   4.261  0.00  0.00     0.174 A 
ATOM      3  C3  BZF d   1       2.256  -1.018   3.969  0.00  0.00    -0.012 A 
ATOM      4  C3A BZF d   1       1.053  -0.472   3.420  0.00  0.00    -0.107 A 
ATOM      5  C4  BZF d   1       0.710   0.765   2.955  0.00  0.00     0.055 A 
ATOM      6  C5  BZF d   1      -0.525   0.950   2.417  0.00  0.00    -0.016 A 
ATOM      7  C6  BZF d   1      -1.438  -0.079   2.325  0.00  0.00     0.022 A 
ATOM      8  C7  BZF d   1      -1.145  -1.323   2.778  0.00  0.00     0.029 A 
ATOM      9  C7A BZF d   1       0.089  -1.505   3.351  0.00  0.00     0.058 A 
ENDROOT
TORSDOF 0
ENDMDL
