MODEL 1
REMARK minimizedAffinity 12.0724745
REMARK minimizedRMSD -1
REMARK  0 active torsions:
REMARK  status: ('A' for Active; 'I' for Inactive)
ROOT
ATOM      1  O1  BZF d   1       0.057  -1.827   3.720  0.00  0.00    -0.204 OA
ATOM      2  C2  BZF d   1       1.230  -1.119   3.898  0.00  0.00     0.174 A 
ATOM      3  C3  BZF d   1       1.080   0.162   3.505  0.00  0.00    -0.012 A 
ATOM      4  C3A BZF d   1      -0.298   0.284   3.139  0.00  0.00    -0.107 A 
ATOM      5  C4  BZF d   1      -1.060   1.322   2.682  0.00  0.00     0.055 A 
ATOM      6  C5  BZF d   1      -2.357   1.092   2.349  0.00  0.00    -0.016 A 
ATOM      7  C6  BZF d   1      -2.922  -0.162   2.454  0.00  0.00     0.022 A 
ATOM      8  C7  BZF d   1      -2.208  -1.221   2.907  0.00  0.00     0.029 A 
ATOM      9  C7A BZF d   1      -0.906  -0.985   3.276  0.00  0.00     0.058 A 
ENDROOT
TORSDOF 0
ENDMDL
