MODEL 1
REMARK minimizedAffinity 5.3802371
REMARK minimizedRMSD -1
REMARK  0 active torsions:
REMARK  status: ('A' for Active; 'I' for Inactive)
ROOT
ATOM      1  O1  BZF d   1       1.993  -2.517   4.347  0.00  0.00    -0.204 OA
ATOM      2  C2  BZF d   1       2.521  -2.239   5.592  0.00  0.00     0.174 A 
ATOM      3  C3  BZF d   1       2.177  -0.997   5.992  0.00  0.00    -0.012 A 
ATOM      4  C3A BZF d   1       1.307  -0.501   4.970  0.00  0.00    -0.107 A 
ATOM      5  C4  BZF d   1       0.626   0.671   4.804  0.00  0.00     0.055 A 
ATOM      6  C5  BZF d   1      -0.077   0.870   3.658  0.00  0.00    -0.016 A 
ATOM      7  C6  BZF d   1      -0.118  -0.078   2.657  0.00  0.00     0.022 A 
ATOM      8  C7  BZF d   1       0.537  -1.259   2.779  0.00  0.00     0.029 A 
ATOM      9  C7A BZF d   1       1.222  -1.476   3.949  0.00  0.00     0.058 A 
ENDROOT
TORSDOF 0
ENDMDL
