MODEL 1
REMARK minimizedAffinity 20.9134312
REMARK minimizedRMSD -1
REMARK  0 active torsions:
REMARK  status: ('A' for Active; 'I' for Inactive)
ROOT
ATOM      1  O1  BZF d   1       0.927  -0.414  -3.614  0.00  0.00    -0.204 OA
ATOM      2  C2  BZF d   1       0.739  -0.277  -4.976  0.00  0.00     0.174 A 
ATOM      3  C3  BZF d   1      -0.236  -1.102  -5.409  0.00  0.00    -0.012 A 
ATOM      4  C3A BZF d   1      -0.749  -1.730  -4.230  0.00  0.00    -0.107 A 
ATOM      5  C4  BZF d   1      -1.742  -2.641  -4.008  0.00  0.00     0.055 A 
ATOM      6  C5  BZF d   1      -1.943  -3.105  -2.747  0.00  0.00    -0.016 A 
ATOM      7  C6  BZF d   1      -1.167  -2.684  -1.686  0.00  0.00     0.022 A 
ATOM      8  C7  BZF d   1      -0.174  -1.778  -1.857  0.00  0.00     0.029 A 
ATOM      9  C7A BZF d   1       0.010  -1.283  -3.124  0.00  0.00     0.058 A 
ENDROOT
TORSDOF 0
ENDMDL
