MODEL 1
REMARK minimizedAffinity 16.9108562
REMARK minimizedRMSD -1
REMARK  0 active torsions:
REMARK  status: ('A' for Active; 'I' for Inactive)
ROOT
ATOM      1  O1  BZF d   1       0.379  -1.216   1.288  0.00  0.00    -0.204 OA
ATOM      2  C2  BZF d   1      -0.135   0.053   1.106  0.00  0.00     0.174 A 
ATOM      3  C3  BZF d   1       0.262   0.877   2.098  0.00  0.00    -0.012 A 
ATOM      4  C3A BZF d   1       1.151   0.096   2.902  0.00  0.00    -0.107 A 
ATOM      5  C4  BZF d   1       1.880   0.364   4.025  0.00  0.00     0.055 A 
ATOM      6  C5  BZF d   1       2.590  -0.639   4.606  0.00  0.00    -0.016 A 
ATOM      7  C6  BZF d   1       2.589  -1.920   4.094  0.00  0.00     0.022 A 
ATOM      8  C7  BZF d   1       1.885  -2.233   2.979  0.00  0.00     0.029 A 
ATOM      9  C7A BZF d   1       1.193  -1.214   2.371  0.00  0.00     0.058 A 
ENDROOT
TORSDOF 0
ENDMDL
