MODEL 1
REMARK minimizedAffinity 18.6087742
REMARK minimizedRMSD -1
REMARK  0 active torsions:
REMARK  status: ('A' for Active; 'I' for Inactive)
ROOT
ATOM      1  O1  BZF d   1       5.986   0.887   0.908  0.00  0.00    -0.204 OA
ATOM      2  C2  BZF d   1       5.991   1.997   0.085  0.00  0.00     0.174 A 
ATOM      3  C3  BZF d   1       5.583   3.092   0.757  0.00  0.00    -0.012 A 
ATOM      4  C3A BZF d   1       5.393   2.657   2.107  0.00  0.00    -0.107 A 
ATOM      5  C4  BZF d   1       5.008   3.293   3.253  0.00  0.00     0.055 A 
ATOM      6  C5  BZF d   1       4.850   2.566   4.390  0.00  0.00    -0.016 A 
ATOM      7  C6  BZF d   1       5.065   1.203   4.416  0.00  0.00     0.022 A 
ATOM      8  C7  BZF d   1       5.453   0.530   3.306  0.00  0.00     0.029 A 
ATOM      9  C7A BZF d   1       5.645   1.267   2.163  0.00  0.00     0.058 A 
ENDROOT
TORSDOF 0
ENDMDL
