MODEL 1
REMARK minimizedAffinity 14.071475
REMARK minimizedRMSD -1
REMARK  0 active torsions:
REMARK  status: ('A' for Active; 'I' for Inactive)
ROOT
ATOM      1  O1  BZF d   1       0.354  -2.336  -5.098  0.00  0.00    -0.204 OA
ATOM      2  C2  BZF d   1       0.129  -1.101  -4.521  0.00  0.00     0.174 A 
ATOM      3  C3  BZF d   1       1.259  -0.620  -3.964  0.00  0.00    -0.012 A 
ATOM      4  C3A BZF d   1       2.275  -1.574  -4.289  0.00  0.00    -0.107 A 
ATOM      5  C4  BZF d   1       3.614  -1.646  -4.029  0.00  0.00     0.055 A 
ATOM      6  C5  BZF d   1       4.305  -2.747  -4.425  0.00  0.00    -0.016 A 
ATOM      7  C6  BZF d   1       3.690  -3.795  -5.077  0.00  0.00     0.022 A 
ATOM      8  C7  BZF d   1       2.365  -3.767  -5.361  0.00  0.00     0.029 A 
ATOM      9  C7A BZF d   1       1.670  -2.642  -4.992  0.00  0.00     0.058 A 
ENDROOT
TORSDOF 0
ENDMDL
