MODEL 1
REMARK minimizedAffinity -4.36663198
REMARK minimizedRMSD -1
REMARK  0 active torsions:
REMARK  status: ('A' for Active; 'I' for Inactive)
ROOT
ATOM      1  C4' PXY d   1       0.761  -1.862  -1.118  0.00  0.00     0.077 C 
ATOM      2  C1' PXY d   1      -1.210   2.921   1.460  0.00  0.00     0.077 C 
ATOM      3  C1  PXY d   1      -0.684   1.665   0.794  0.00  0.00    -0.082 A 
ATOM      4  C2  PXY d   1      -0.893   1.475  -0.499  0.00  0.00     0.003 A 
ATOM      5  C3  PXY d   1      -0.452   0.330  -1.111  0.00  0.00     0.003 A 
ATOM      6  C4  PXY d   1       0.256  -0.605  -0.405  0.00  0.00    -0.082 A 
ATOM      7  C5  PXY d   1       0.483  -0.412   0.912  0.00  0.00     0.003 A 
ATOM      8  C6  PXY d   1      -0.009   0.737   1.524  0.00  0.00     0.003 A 
ENDROOT
TORSDOF 0
ENDMDL
