MODEL 1
REMARK minimizedAffinity 3.80680513
REMARK minimizedRMSD -1
REMARK  0 active torsions:
REMARK  status: ('A' for Active; 'I' for Inactive)
ROOT
ATOM      1  C4' PXY d   1      -1.149  -4.051  -1.142  0.00  0.00     0.077 C 
ATOM      2  C1' PXY d   1       4.067  -5.802   0.631  0.00  0.00     0.077 C 
ATOM      3  C1  PXY d   1       2.704  -5.331   0.164  0.00  0.00    -0.082 A 
ATOM      4  C2  PXY d   1       1.621  -6.000   0.527  0.00  0.00     0.003 A 
ATOM      5  C3  PXY d   1       0.383  -5.606   0.088  0.00  0.00     0.003 A 
ATOM      6  C4  PXY d   1       0.247  -4.485  -0.687  0.00  0.00    -0.082 A 
ATOM      7  C5  PXY d   1       1.346  -3.791  -1.052  0.00  0.00     0.003 A 
ATOM      8  C6  PXY d   1       2.597  -4.231  -0.630  0.00  0.00     0.003 A 
ENDROOT
TORSDOF 0
ENDMDL
