MODEL 1
REMARK minimizedAffinity -4.44181108
REMARK minimizedRMSD -1
REMARK  0 active torsions:
REMARK  status: ('A' for Active; 'I' for Inactive)
ROOT
ATOM      1  C4' PXY d   1      -0.362  -2.807  -1.104  0.00  0.00     0.077 C 
ATOM      2  C1' PXY d   1      -0.194   2.140   1.881  0.00  0.00     0.077 C 
ATOM      3  C1  PXY d   1      -0.237   0.850   1.087  0.00  0.00    -0.082 A 
ATOM      4  C2  PXY d   1      -0.760  -0.236   1.632  0.00  0.00     0.003 A 
ATOM      5  C3  PXY d   1      -0.779  -1.420   0.940  0.00  0.00     0.003 A 
ATOM      6  C4  PXY d   1      -0.305  -1.480  -0.343  0.00  0.00    -0.082 A 
ATOM      7  C5  PXY d   1       0.220  -0.373  -0.911  0.00  0.00     0.003 A 
ATOM      8  C6  PXY d   1       0.267   0.808  -0.176  0.00  0.00     0.003 A 
ENDROOT
TORSDOF 0
ENDMDL
