MODEL 1
REMARK minimizedAffinity -1.67405009
REMARK minimizedRMSD -1
REMARK  0 active torsions:
REMARK  status: ('A' for Active; 'I' for Inactive)
ROOT
ATOM      1  C4' PXY d   1       0.477  -2.690  -1.044  0.00  0.00     0.077 C 
ATOM      2  C1' PXY d   1       0.240   2.442   1.606  0.00  0.00     0.077 C 
ATOM      3  C1  PXY d   1       0.295   1.101   0.902  0.00  0.00    -0.082 A 
ATOM      4  C2  PXY d   1       0.561   0.007   1.597  0.00  0.00     0.003 A 
ATOM      5  C3  PXY d   1       0.645  -1.210   0.971  0.00  0.00     0.003 A 
ATOM      6  C4  PXY d   1       0.403  -1.316  -0.373  0.00  0.00    -0.082 A 
ATOM      7  C5  PXY d   1       0.120  -0.206  -1.087  0.00  0.00     0.003 A 
ATOM      8  C6  PXY d   1       0.079   1.025  -0.440  0.00  0.00     0.003 A 
ENDROOT
TORSDOF 0
ENDMDL
