MODEL 1
REMARK minimizedAffinity -4.28851175
REMARK minimizedRMSD -1
REMARK  0 active torsions:
REMARK  status: ('A' for Active; 'I' for Inactive)
ROOT
ATOM      1  C4' PXY d   1      -0.937  -3.117  -1.500  0.00  0.00     0.077 C 
ATOM      2  C1' PXY d   1      -0.018   1.522   1.824  0.00  0.00     0.077 C 
ATOM      3  C1  PXY d   1      -0.258   0.313   0.942  0.00  0.00    -0.082 A 
ATOM      4  C2  PXY d   1      -0.929  -0.723   1.419  0.00  0.00     0.003 A 
ATOM      5  C3  PXY d   1      -1.127  -1.837   0.646  0.00  0.00     0.003 A 
ATOM      6  C4  PXY d   1      -0.679  -1.871  -0.648  0.00  0.00    -0.082 A 
ATOM      7  C5  PXY d   1      -0.003  -0.815  -1.146  0.00  0.00     0.003 A 
ATOM      8  C6  PXY d   1       0.224   0.291  -0.331  0.00  0.00     0.003 A 
ENDROOT
TORSDOF 0
ENDMDL
