MODEL 1
REMARK minimizedAffinity -5.72524643
REMARK minimizedRMSD -1
REMARK  0 active torsions:
REMARK  status: ('A' for Active; 'I' for Inactive)
ROOT
ATOM      1  C4' PXY d   1      -1.110   3.379  -1.484  0.00  0.00     0.077 C 
ATOM      2  C1' PXY d   1       0.867  -0.333   2.482  0.00  0.00     0.077 C 
ATOM      3  C1  PXY d   1       0.342   0.647   1.451  0.00  0.00    -0.082 A 
ATOM      4  C2  PXY d   1       0.225   0.269   0.189  0.00  0.00     0.003 A 
ATOM      5  C3  PXY d   1      -0.217   1.152  -0.762  0.00  0.00     0.003 A 
ATOM      6  C4  PXY d   1      -0.594   2.420  -0.408  0.00  0.00    -0.082 A 
ATOM      7  C5  PXY d   1      -0.489   2.810   0.880  0.00  0.00     0.003 A 
ATOM      8  C6  PXY d   1       0.002   1.911   1.823  0.00  0.00     0.003 A 
ENDROOT
TORSDOF 0
ENDMDL
