MODEL 1
REMARK minimizedAffinity -5.18590927
REMARK minimizedRMSD -1
REMARK  0 active torsions:
REMARK  status: ('A' for Active; 'I' for Inactive)
ROOT
ATOM      1  C4' PXY d   1      -1.678   2.908  -1.169  0.00  0.00     0.077 C 
ATOM      2  C1' PXY d   1       1.544  -0.093   2.577  0.00  0.00     0.077 C 
ATOM      3  C1  PXY d   1       0.693   0.700   1.605  0.00  0.00    -0.082 A 
ATOM      4  C2  PXY d   1       0.521   0.253   0.371  0.00  0.00     0.003 A 
ATOM      5  C3  PXY d   1      -0.220   0.973  -0.531  0.00  0.00     0.003 A 
ATOM      6  C4  PXY d   1      -0.835   2.136  -0.150  0.00  0.00    -0.082 A 
ATOM      7  C5  PXY d   1      -0.673   2.593   1.109  0.00  0.00     0.003 A 
ATOM      8  C6  PXY d   1       0.117   1.868   1.998  0.00  0.00     0.003 A 
ENDROOT
TORSDOF 0
ENDMDL
