MODEL 1
REMARK minimizedAffinity -4.77512646
REMARK minimizedRMSD -1
REMARK  0 active torsions:
REMARK  status: ('A' for Active; 'I' for Inactive)
ROOT
ATOM      1  C4' PXY d   1       0.312  -0.647  -0.027  0.00  0.00     0.077 C 
ATOM      2  C1' PXY d   1      -1.975   4.427   1.535  0.00  0.00     0.077 C 
ATOM      3  C1  PXY d   1      -1.368   3.096   1.136  0.00  0.00    -0.082 A 
ATOM      4  C2  PXY d   1      -1.358   2.737  -0.137  0.00  0.00     0.003 A 
ATOM      5  C3  PXY d   1      -0.842   1.523  -0.511  0.00  0.00     0.003 A 
ATOM      6  C4  PXY d   1      -0.282   0.691   0.421  0.00  0.00    -0.082 A 
ATOM      7  C5  PXY d   1      -0.278   1.055   1.721  0.00  0.00     0.003 A 
ATOM      8  C6  PXY d   1      -0.845   2.273   2.085  0.00  0.00     0.003 A 
ENDROOT
TORSDOF 0
ENDMDL
