MODEL 1
REMARK minimizedAffinity -5.91710711
REMARK minimizedRMSD -1
REMARK  0 active torsions:
REMARK  status: ('A' for Active; 'I' for Inactive)
ROOT
ATOM      1  C4' PXY d   1      -0.528   3.703  -1.922  0.00  0.00     0.077 C 
ATOM      2  C1' PXY d   1      -0.282   0.377   2.799  0.00  0.00     0.077 C 
ATOM      3  C1  PXY d   1      -0.356   1.256   1.566  0.00  0.00    -0.082 A 
ATOM      4  C2  PXY d   1       0.047   0.781   0.399  0.00  0.00     0.003 A 
ATOM      5  C3  PXY d   1       0.017   1.574  -0.720  0.00  0.00     0.003 A 
ATOM      6  C4  PXY d   1      -0.480   2.848  -0.653  0.00  0.00    -0.082 A 
ATOM      7  C5  PXY d   1      -0.903   3.336   0.532  0.00  0.00     0.003 A 
ATOM      8  C6  PXY d   1      -0.826   2.529   1.664  0.00  0.00     0.003 A 
ENDROOT
TORSDOF 0
ENDMDL
