MODEL 1
REMARK minimizedAffinity -5.26464319
REMARK minimizedRMSD -1
REMARK  0 active torsions:
REMARK  status: ('A' for Active; 'I' for Inactive)
ROOT
ATOM      1  C4' PXY d   1       1.424  -1.057  -0.195  0.00  0.00     0.077 C 
ATOM      2  C1' PXY d   1      -1.778   3.574   1.117  0.00  0.00     0.077 C 
ATOM      3  C1  PXY d   1      -0.931   2.361   0.784  0.00  0.00    -0.082 A 
ATOM      4  C2  PXY d   1      -0.806   1.976  -0.476  0.00  0.00     0.003 A 
ATOM      5  C3  PXY d   1      -0.071   0.863  -0.792  0.00  0.00     0.003 A 
ATOM      6  C4  PXY d   1       0.587   0.167   0.187  0.00  0.00    -0.082 A 
ATOM      7  C5  PXY d   1       0.473   0.560   1.473  0.00  0.00     0.003 A 
ATOM      8  C6  PXY d   1      -0.311   1.668   1.777  0.00  0.00     0.003 A 
ENDROOT
TORSDOF 0
ENDMDL
