MODEL 1
REMARK minimizedAffinity 8.83718014
REMARK minimizedRMSD -1
REMARK  0 active torsions:
REMARK  status: ('A' for Active; 'I' for Inactive)
ROOT
ATOM      1  C   UNL d   1       4.393  -1.558   4.779  0.00  0.00     0.023 A 
ATOM      2  C1  UNL d   1       5.502  -1.693   5.615  0.00  0.00     0.003 A 
ATOM      3  C2  UNL d   1       5.964  -2.963   5.965  0.00  0.00     0.048 A 
ATOM      4  C3  UNL d   1       5.312  -4.095   5.476  0.00  0.00     0.023 A 
ATOM      5  C4  UNL d   1       4.203  -3.965   4.640  0.00  0.00     0.048 A 
ATOM      6  C5  UNL d   1       3.744  -2.693   4.293  0.00  0.00     0.003 A 
ATOM      7  I   UNL d   1       5.998  -5.986   5.997  0.00  0.00    -0.146 I 
ENDROOT
TORSDOF 0
ENDMDL
