MODEL 1
REMARK minimizedAffinity 11.9835043
REMARK minimizedRMSD -1
REMARK  0 active torsions:
REMARK  status: ('A' for Active; 'I' for Inactive)
ROOT
ATOM      1  C   UNL d   1       1.178  -4.826  -0.110  0.00  0.00     0.023 A 
ATOM      2  C1  UNL d   1       1.225  -3.442   0.053  0.00  0.00     0.003 A 
ATOM      3  C2  UNL d   1       2.456  -2.791   0.158  0.00  0.00     0.048 A 
ATOM      4  C3  UNL d   1       3.637  -3.532   0.099  0.00  0.00     0.023 A 
ATOM      5  C4  UNL d   1       3.594  -4.917  -0.065  0.00  0.00     0.048 A 
ATOM      6  C5  UNL d   1       2.361  -5.563  -0.168  0.00  0.00     0.003 A 
ATOM      7  I   UNL d   1       5.470  -2.566   0.255  0.00  0.00    -0.146 I 
ENDROOT
TORSDOF 0
ENDMDL
