MODEL 1
REMARK minimizedAffinity 10.1684389
REMARK minimizedRMSD -1
REMARK  0 active torsions:
REMARK  status: ('A' for Active; 'I' for Inactive)
ROOT
ATOM      1  C   UNL d   1      -4.602   3.712  -5.230  0.00  0.00     0.023 A 
ATOM      2  C1  UNL d   1      -3.580   3.944  -4.309  0.00  0.00     0.003 A 
ATOM      3  C2  UNL d   1      -3.231   2.955  -3.388  0.00  0.00     0.048 A 
ATOM      4  C3  UNL d   1      -3.906   1.735  -3.394  0.00  0.00     0.023 A 
ATOM      5  C4  UNL d   1      -4.929   1.498  -4.314  0.00  0.00     0.048 A 
ATOM      6  C5  UNL d   1      -5.275   2.490  -5.233  0.00  0.00     0.003 A 
ATOM      7  I   UNL d   1      -3.388   0.261  -2.024  0.00  0.00    -0.146 I 
ENDROOT
TORSDOF 0
ENDMDL
