MODEL 1
REMARK minimizedAffinity 6.98786402
REMARK minimizedRMSD -1
REMARK  0 active torsions:
REMARK  status: ('A' for Active; 'I' for Inactive)
ROOT
ATOM      1  C   UNL d   1       3.791  -4.385   0.962  0.00  0.00     0.023 A 
ATOM      2  C1  UNL d   1       3.696  -3.021   1.237  0.00  0.00     0.003 A 
ATOM      3  C2  UNL d   1       2.546  -2.313   0.879  0.00  0.00     0.048 A 
ATOM      4  C3  UNL d   1       1.495  -2.977   0.248  0.00  0.00     0.023 A 
ATOM      5  C4  UNL d   1       1.585  -4.342  -0.028  0.00  0.00     0.048 A 
ATOM      6  C5  UNL d   1       2.736  -5.045   0.331  0.00  0.00     0.003 A 
ATOM      7  I   UNL d   1      -0.218  -1.926  -0.285  0.00  0.00    -0.146 I 
ENDROOT
TORSDOF 0
ENDMDL
