MODEL 1
REMARK minimizedAffinity 7.81740379
REMARK minimizedRMSD -1
REMARK  0 active torsions:
REMARK  status: ('A' for Active; 'I' for Inactive)
ROOT
ATOM      1  C   UNL d   1      -3.385  -0.760  -1.224  0.00  0.00     0.023 A 
ATOM      2  C1  UNL d   1      -4.077   0.450  -1.194  0.00  0.00     0.003 A 
ATOM      3  C2  UNL d   1      -3.614   1.540  -1.934  0.00  0.00     0.048 A 
ATOM      4  C3  UNL d   1      -2.458   1.412  -2.703  0.00  0.00     0.023 A 
ATOM      5  C4  UNL d   1      -1.762   0.202  -2.737  0.00  0.00     0.048 A 
ATOM      6  C5  UNL d   1      -2.228  -0.884  -1.995  0.00  0.00     0.003 A 
ATOM      7  I   UNL d   1      -1.766   3.032  -3.806  0.00  0.00    -0.146 I 
ENDROOT
TORSDOF 0
ENDMDL
