MODEL 1
REMARK minimizedAffinity 13.9169512
REMARK minimizedRMSD -1
REMARK  0 active torsions:
REMARK  status: ('A' for Active; 'I' for Inactive)
ROOT
ATOM      1  C   UNL d   1       1.278  -2.376   0.670  0.00  0.00     0.023 A 
ATOM      2  C1  UNL d   1       1.663  -1.125   0.190  0.00  0.00     0.003 A 
ATOM      3  C2  UNL d   1       3.018  -0.814   0.053  0.00  0.00     0.048 A 
ATOM      4  C3  UNL d   1       3.982  -1.761   0.397  0.00  0.00     0.023 A 
ATOM      5  C4  UNL d   1       3.602  -3.015   0.876  0.00  0.00     0.048 A 
ATOM      6  C5  UNL d   1       2.246  -3.321   1.013  0.00  0.00     0.003 A 
ATOM      7  I   UNL d   1       5.999  -1.302   0.193  0.00  0.00    -0.146 I 
ENDROOT
TORSDOF 0
ENDMDL
