MODEL 1
REMARK minimizedAffinity 8.8058033
REMARK minimizedRMSD -1
REMARK  0 active torsions:
REMARK  status: ('A' for Active; 'I' for Inactive)
ROOT
ATOM      1  C   UNL d   1       5.348  -1.671   4.205  0.00  0.00     0.023 A 
ATOM      2  C1  UNL d   1       4.560  -2.526   3.433  0.00  0.00     0.003 A 
ATOM      3  C2  UNL d   1       4.170  -3.767   3.941  0.00  0.00     0.048 A 
ATOM      4  C3  UNL d   1       4.570  -4.147   5.222  0.00  0.00     0.023 A 
ATOM      5  C4  UNL d   1       5.357  -3.295   5.998  0.00  0.00     0.048 A 
ATOM      6  C5  UNL d   1       5.746  -2.055   5.486  0.00  0.00     0.003 A 
ATOM      7  I   UNL d   1       3.990  -5.993   5.979  0.00  0.00    -0.146 I 
ENDROOT
TORSDOF 0
ENDMDL
