MODEL 1
REMARK minimizedAffinity 7.78693104
REMARK minimizedRMSD -1
REMARK  0 active torsions:
REMARK  status: ('A' for Active; 'I' for Inactive)
ROOT
ATOM      1  C   UNL d   1       2.789  -2.906   0.167  0.00  0.00     0.023 A 
ATOM      2  C1  UNL d   1       3.172  -2.430   1.421  0.00  0.00     0.003 A 
ATOM      3  C2  UNL d   1       2.239  -1.794   2.242  0.00  0.00     0.048 A 
ATOM      4  C3  UNL d   1       0.924  -1.637   1.803  0.00  0.00     0.023 A 
ATOM      5  C4  UNL d   1       0.537  -2.113   0.549  0.00  0.00     0.048 A 
ATOM      6  C5  UNL d   1       1.473  -2.748  -0.269  0.00  0.00     0.003 A 
ATOM      7  I   UNL d   1      -0.466  -0.690   3.023  0.00  0.00    -0.146 I 
ENDROOT
TORSDOF 0
ENDMDL
