MODEL 1
REMARK minimizedAffinity 4.45033503
REMARK minimizedRMSD -1
REMARK  0 active torsions:
REMARK  status: ('A' for Active; 'I' for Inactive)
ROOT
ATOM      1  C   UNL d   1       1.610  -1.841   2.113  0.00  0.00     0.020 A 
ATOM      2  C1  UNL d   1       2.137  -1.556   3.372  0.00  0.00     0.020 A 
ATOM      3  C2  UNL d   1       2.664  -0.290   3.638  0.00  0.00     0.034 A 
ATOM      4  C3  UNL d   1       2.666   0.695   2.644  0.00  0.00     0.017 A 
ATOM      5  C4  UNL d   1       2.137   0.407   1.380  0.00  0.00     0.017 A 
ATOM      6  C5  UNL d   1       1.610  -0.862   1.119  0.00  0.00     0.034 A 
ATOM      7 Cl   UNL d   1       2.103   1.571   0.103  0.00  0.00    -0.070 Cl
ATOM      8 Cl1  UNL d   1       3.333   2.238   3.042  0.00  0.00    -0.070 Cl
ENDROOT
TORSDOF 0
ENDMDL
