MODEL 1
REMARK minimizedAffinity 8.15852642
REMARK minimizedRMSD -1
REMARK  0 active torsions:
REMARK  status: ('A' for Active; 'I' for Inactive)
ROOT
ATOM      1  C   UNL d   1       2.027  -3.499   3.673  0.00  0.00     0.020 A 
ATOM      2  C1  UNL d   1       3.045  -2.648   4.101  0.00  0.00     0.020 A 
ATOM      3  C2  UNL d   1       3.205  -1.396   3.504  0.00  0.00     0.034 A 
ATOM      4  C3  UNL d   1       2.346  -0.991   2.476  0.00  0.00     0.017 A 
ATOM      5  C4  UNL d   1       1.324  -1.846   2.047  0.00  0.00     0.017 A 
ATOM      6  C5  UNL d   1       1.168  -3.099   2.649  0.00  0.00     0.034 A 
ATOM      7 Cl   UNL d   1       0.225  -1.417   0.784  0.00  0.00    -0.070 Cl
ATOM      8 Cl1  UNL d   1       2.602   0.571   1.783  0.00  0.00    -0.070 Cl
ENDROOT
TORSDOF 0
ENDMDL
