MODEL 1
REMARK minimizedAffinity -2.4388082
REMARK minimizedRMSD -1
REMARK  0 active torsions:
REMARK  status: ('A' for Active; 'I' for Inactive)
ROOT
ATOM      1  C   UNL d   1       2.058   5.473  -1.754  0.00  0.00     0.020 A 
ATOM      2  C1  UNL d   1       1.600   5.848  -3.016  0.00  0.00     0.020 A 
ATOM      3  C2  UNL d   1       2.504   6.000  -4.070  0.00  0.00     0.034 A 
ATOM      4  C3  UNL d   1       3.870   5.776  -3.864  0.00  0.00     0.017 A 
ATOM      5  C4  UNL d   1       4.329   5.400  -2.596  0.00  0.00     0.017 A 
ATOM      6  C5  UNL d   1       3.420   5.249  -1.545  0.00  0.00     0.034 A 
ATOM      7 Cl   UNL d   1       6.000   5.106  -2.265  0.00  0.00    -0.070 Cl
ATOM      8 Cl1  UNL d   1       4.930   5.982  -5.212  0.00  0.00    -0.070 Cl
ENDROOT
TORSDOF 0
ENDMDL
