MODEL 1
REMARK minimizedAffinity 4.68216324
REMARK minimizedRMSD -1
REMARK  0 active torsions:
REMARK  status: ('A' for Active; 'I' for Inactive)
ROOT
ATOM      1  C   UNL d   1       2.558   1.377   3.484  0.00  0.00     0.020 A 
ATOM      2  C1  UNL d   1       3.107   1.945   2.335  0.00  0.00     0.020 A 
ATOM      3  C2  UNL d   1       3.176   1.203   1.154  0.00  0.00     0.034 A 
ATOM      4  C3  UNL d   1       2.696  -0.111   1.119  0.00  0.00     0.017 A 
ATOM      5  C4  UNL d   1       2.146  -0.680   2.273  0.00  0.00     0.017 A 
ATOM      6  C5  UNL d   1       2.078   0.067   3.453  0.00  0.00     0.034 A 
ATOM      7 Cl   UNL d   1       1.533  -2.296   2.308  0.00  0.00    -0.070 Cl
ATOM      8 Cl1  UNL d   1       2.814  -0.970  -0.375  0.00  0.00    -0.070 Cl
ENDROOT
TORSDOF 0
ENDMDL
