MODEL 1
REMARK minimizedAffinity -1.7426908
REMARK minimizedRMSD -1
REMARK  0 active torsions:
REMARK  status: ('A' for Active; 'I' for Inactive)
ROOT
ATOM      1  C1  DEN d   1       0.705  -0.359   0.864  0.00  0.00     0.130 A 
ATOM      2  C2  DEN d   1       1.626   0.753   0.649  0.00  0.00    -0.031 A 
ATOM      3  C3  DEN d   1       1.211   1.459  -0.580  0.00  0.00     0.027 A 
ATOM      4  C4  DEN d   1      -0.761   0.943  -2.160  0.00  0.00     0.027 A 
ATOM      5  C5  DEN d   1      -1.815   0.089  -2.397  0.00  0.00    -0.003 A 
ATOM      6  C6  DEN d   1      -2.082  -0.985  -1.589  0.00  0.00     0.001 A 
ATOM      7  C7  DEN d   1      -1.310  -1.207  -0.480  0.00  0.00     0.017 A 
ATOM      8  C8  DEN d   1      -0.240  -0.355  -0.239  0.00  0.00    -0.094 A 
ATOM      9  C9  DEN d   1       0.006   0.732  -1.060  0.00  0.00    -0.072 A 
ENDROOT
TORSDOF 0
ENDMDL
