MODEL 1
REMARK minimizedAffinity -1.36073041
REMARK minimizedRMSD -1
REMARK  0 active torsions:
REMARK  status: ('A' for Active; 'I' for Inactive)
ROOT
ATOM      1  C1  DEN d   1       1.414  -0.325   0.548  0.00  0.00     0.130 A 
ATOM      2  C2  DEN d   1       2.144   0.934   0.423  0.00  0.00    -0.031 A 
ATOM      3  C3  DEN d   1       1.342   1.846  -0.416  0.00  0.00     0.027 A 
ATOM      4  C4  DEN d   1      -0.950   1.436  -1.526  0.00  0.00     0.027 A 
ATOM      5  C5  DEN d   1      -1.957   0.515  -1.715  0.00  0.00    -0.003 A 
ATOM      6  C6  DEN d   1      -1.896  -0.751  -1.195  0.00  0.00     0.001 A 
ATOM      7  C7  DEN d   1      -0.825  -1.117  -0.423  0.00  0.00     0.017 A 
ATOM      8  C8  DEN d   1       0.198  -0.196  -0.234  0.00  0.00    -0.094 A 
ATOM      9  C9  DEN d   1       0.112   1.083  -0.758  0.00  0.00    -0.072 A 
ENDROOT
TORSDOF 0
ENDMDL
