MODEL 1
REMARK minimizedAffinity -4.97643185
REMARK minimizedRMSD -1
REMARK  0 active torsions:
REMARK  status: ('A' for Active; 'I' for Inactive)
ROOT
ATOM      1  C1  DEN d   1      -1.883   0.606  -1.660  0.00  0.00     0.130 A 
ATOM      2  C2  DEN d   1      -3.078  -0.213  -1.478  0.00  0.00    -0.031 A 
ATOM      3  C3  DEN d   1      -2.805  -1.188  -0.403  0.00  0.00     0.027 A 
ATOM      4  C4  DEN d   1      -0.661  -1.503   0.995  0.00  0.00     0.027 A 
ATOM      5  C5  DEN d   1       0.625  -1.051   1.196  0.00  0.00    -0.003 A 
ATOM      6  C6  DEN d   1       1.171  -0.046   0.443  0.00  0.00     0.001 A 
ATOM      7  C7  DEN d   1       0.415   0.571  -0.518  0.00  0.00     0.017 A 
ATOM      8  C8  DEN d   1      -0.880   0.116  -0.731  0.00  0.00    -0.094 A 
ATOM      9  C9  DEN d   1      -1.419  -0.893   0.049  0.00  0.00    -0.072 A 
ENDROOT
TORSDOF 0
ENDMDL
