MODEL 1
REMARK minimizedAffinity -4.04676867
REMARK minimizedRMSD -1
REMARK  0 active torsions:
REMARK  status: ('A' for Active; 'I' for Inactive)
ROOT
ATOM      1  C1  DEN d   1      -0.532  -2.707   1.368  0.00  0.00     0.130 A 
ATOM      2  C2  DEN d   1      -1.656  -3.629   1.229  0.00  0.00    -0.031 A 
ATOM      3  C3  DEN d   1      -2.517  -3.137   0.134  0.00  0.00     0.027 A 
ATOM      4  C4  DEN d   1      -2.216  -1.052  -1.354  0.00  0.00     0.027 A 
ATOM      5  C5  DEN d   1      -1.420   0.044  -1.604  0.00  0.00    -0.003 A 
ATOM      6  C6  DEN d   1      -0.299   0.315  -0.865  0.00  0.00     0.001 A 
ATOM      7  C7  DEN d   1       0.081  -0.544   0.132  0.00  0.00     0.017 A 
ATOM      8  C8  DEN d   1      -0.721  -1.647   0.394  0.00  0.00    -0.094 A 
ATOM      9  C9  DEN d   1      -1.843  -1.911  -0.372  0.00  0.00    -0.072 A 
ENDROOT
TORSDOF 0
ENDMDL
