MODEL 1
REMARK minimizedAffinity -3.47348976
REMARK minimizedRMSD -1
REMARK  0 active torsions:
REMARK  status: ('A' for Active; 'I' for Inactive)
ROOT
ATOM      1  C1  DEN d   1      -0.378   0.559  -0.476  0.00  0.00     0.130 A 
ATOM      2  C2  DEN d   1       0.961   0.433   0.093  0.00  0.00    -0.031 A 
ATOM      3  C3  DEN d   1       0.985  -0.776   0.940  0.00  0.00     0.027 A 
ATOM      4  C4  DEN d   1      -0.909  -2.460   1.419  0.00  0.00     0.027 A 
ATOM      5  C5  DEN d   1      -2.229  -2.766   1.169  0.00  0.00    -0.003 A 
ATOM      6  C6  DEN d   1      -3.027  -1.973   0.388  0.00  0.00     0.001 A 
ATOM      7  C7  DEN d   1      -2.500  -0.859  -0.209  0.00  0.00     0.017 A 
ATOM      8  C8  DEN d   1      -1.172  -0.540   0.044  0.00  0.00    -0.094 A 
ATOM      9  C9  DEN d   1      -0.378  -1.360   0.827  0.00  0.00    -0.072 A 
ENDROOT
TORSDOF 0
ENDMDL
