MODEL 1
REMARK minimizedAffinity -3.34067059
REMARK minimizedRMSD -1
REMARK  0 active torsions:
REMARK  status: ('A' for Active; 'I' for Inactive)
ROOT
ATOM      1  C1  DEN d   1      -0.171   0.253  -0.247  0.00  0.00     0.130 A 
ATOM      2  C2  DEN d   1      -0.911   0.781  -1.390  0.00  0.00    -0.031 A 
ATOM      3  C3  DEN d   1      -1.980  -0.181  -1.725  0.00  0.00     0.027 A 
ATOM      4  C4  DEN d   1      -2.562  -2.422  -0.588  0.00  0.00     0.027 A 
ATOM      5  C5  DEN d   1      -2.209  -3.296   0.415  0.00  0.00    -0.003 A 
ATOM      6  C6  DEN d   1      -1.139  -3.068   1.240  0.00  0.00     0.001 A 
ATOM      7  C7  DEN d   1      -0.412  -1.914   1.105  0.00  0.00     0.017 A 
ATOM      8  C8  DEN d   1      -0.758  -1.031   0.091  0.00  0.00    -0.094 A 
ATOM      9  C9  DEN d   1      -1.850  -1.274  -0.725  0.00  0.00    -0.072 A 
ENDROOT
TORSDOF 0
ENDMDL
