MODEL 1
REMARK minimizedAffinity -3.42018437
REMARK minimizedRMSD -1
REMARK  0 active torsions:
REMARK  status: ('A' for Active; 'I' for Inactive)
ROOT
ATOM      1  C1  DEN d   1       0.066  -0.055  -0.162  0.00  0.00     0.130 A 
ATOM      2  C2  DEN d   1      -0.644   0.653  -1.223  0.00  0.00    -0.031 A 
ATOM      3  C3  DEN d   1      -1.856  -0.121  -1.557  0.00  0.00     0.027 A 
ATOM      4  C4  DEN d   1      -2.701  -2.333  -0.535  0.00  0.00     0.027 A 
ATOM      5  C5  DEN d   1      -2.430  -3.319   0.388  0.00  0.00    -0.003 A 
ATOM      6  C6  DEN d   1      -1.300  -3.304   1.162  0.00  0.00     0.001 A 
ATOM      7  C7  DEN d   1      -0.421  -2.259   1.059  0.00  0.00     0.017 A 
ATOM      8  C8  DEN d   1      -0.684  -1.265   0.126  0.00  0.00    -0.094 A 
ATOM      9  C9  DEN d   1      -1.838  -1.291  -0.639  0.00  0.00    -0.072 A 
ENDROOT
TORSDOF 0
ENDMDL
