MODEL 1
REMARK minimizedAffinity -2.6223886
REMARK minimizedRMSD -1
REMARK  0 active torsions:
REMARK  status: ('A' for Active; 'I' for Inactive)
ROOT
ATOM      1  C1  DEN d   1      -1.302   1.444  -0.253  0.00  0.00     0.130 A 
ATOM      2  C2  DEN d   1      -1.468   0.165  -0.937  0.00  0.00    -0.031 A 
ATOM      3  C3  DEN d   1      -0.158  -0.518  -0.952  0.00  0.00     0.027 A 
ATOM      4  C4  DEN d   1       2.096   0.276   0.017  0.00  0.00     0.027 A 
ATOM      5  C5  DEN d   1       2.735   1.301   0.680  0.00  0.00    -0.003 A 
ATOM      6  C6  DEN d   1       2.086   2.450   1.045  0.00  0.00     0.001 A 
ATOM      7  C7  DEN d   1       0.746   2.584   0.789  0.00  0.00     0.017 A 
ATOM      8  C8  DEN d   1       0.097   1.558   0.115  0.00  0.00    -0.094 A 
ATOM      9  C9  DEN d   1       0.768   0.398  -0.235  0.00  0.00    -0.072 A 
ENDROOT
TORSDOF 0
ENDMDL
