MODEL 1
REMARK minimizedAffinity 0.264918208
REMARK minimizedRMSD -1
REMARK  0 active torsions:
REMARK  status: ('A' for Active; 'I' for Inactive)
ROOT
ATOM      1  C1  DEN d   1       1.313   3.356   1.106  0.00  0.00     0.130 A 
ATOM      2  C2  DEN d   1       2.657   2.973   1.530  0.00  0.00    -0.031 A 
ATOM      3  C3  DEN d   1       2.868   1.560   1.159  0.00  0.00     0.027 A 
ATOM      4  C4  DEN d   1       1.253  -0.064  -0.028  0.00  0.00     0.027 A 
ATOM      5  C5  DEN d   1      -0.005  -0.198  -0.572  0.00  0.00    -0.003 A 
ATOM      6  C6  DEN d   1      -0.917   0.824  -0.564  0.00  0.00     0.001 A 
ATOM      7  C7  DEN d   1      -0.567   2.041  -0.041  0.00  0.00     0.017 A 
ATOM      8  C8  DEN d   1       0.697   2.182   0.516  0.00  0.00    -0.094 A 
ATOM      9  C9  DEN d   1       1.609   1.140   0.487  0.00  0.00    -0.072 A 
ENDROOT
TORSDOF 0
ENDMDL
