MODEL 1
REMARK minimizedAffinity -2.83871937
REMARK minimizedRMSD -1
REMARK  0 active torsions:
REMARK  status: ('A' for Active; 'I' for Inactive)
ROOT
ATOM      1  C1  DEN d   1       1.101   3.205   1.502  0.00  0.00     0.130 A 
ATOM      2  C2  DEN d   1       2.469   3.075   1.998  0.00  0.00    -0.031 A 
ATOM      3  C3  DEN d   1       2.915   1.690   1.750  0.00  0.00     0.027 A 
ATOM      4  C4  DEN d   1       1.629  -0.255   0.646  0.00  0.00     0.027 A 
ATOM      5  C5  DEN d   1       0.433  -0.629   0.075  0.00  0.00    -0.003 A 
ATOM      6  C6  DEN d   1      -0.627   0.231  -0.029  0.00  0.00     0.001 A 
ATOM      7  C7  DEN d   1      -0.497   1.524   0.405  0.00  0.00     0.017 A 
ATOM      8  C8  DEN d   1       0.704   1.907   0.989  0.00  0.00    -0.094 A 
ATOM      9  C9  DEN d   1       1.768   1.025   1.073  0.00  0.00    -0.072 A 
ENDROOT
TORSDOF 0
ENDMDL
