MODEL 1
REMARK minimizedAffinity -3.34440684
REMARK minimizedRMSD -1
REMARK  0 active torsions:
REMARK  status: ('A' for Active; 'I' for Inactive)
ROOT
ATOM      1  C1  DEN d   1       0.939   1.586   0.092  0.00  0.00     0.130 A 
ATOM      2  C2  DEN d   1       2.236   0.916   0.120  0.00  0.00    -0.031 A 
ATOM      3  C3  DEN d   1       2.033  -0.448   0.649  0.00  0.00     0.027 A 
ATOM      4  C4  DEN d   1      -0.152  -1.582   1.418  0.00  0.00     0.027 A 
ATOM      5  C5  DEN d   1      -1.507  -1.407   1.591  0.00  0.00    -0.003 A 
ATOM      6  C6  DEN d   1      -2.132  -0.220   1.311  0.00  0.00     0.001 A 
ATOM      7  C7  DEN d   1      -1.407   0.824   0.799  0.00  0.00     0.017 A 
ATOM      8  C8  DEN d   1      -0.039   0.657   0.629  0.00  0.00    -0.094 A 
ATOM      9  C9  DEN d   1       0.572  -0.554   0.907  0.00  0.00    -0.072 A 
ENDROOT
TORSDOF 0
ENDMDL
