MODEL 1
REMARK minimizedAffinity -5.8737278
REMARK minimizedRMSD -1
REMARK  0 active torsions:
REMARK  status: ('A' for Active; 'I' for Inactive)
ROOT
ATOM      1  C1  DEN d   1      -0.958   1.139   0.361  0.00  0.00     0.130 A 
ATOM      2  C2  DEN d   1      -0.751  -0.073  -0.427  0.00  0.00    -0.031 A 
ATOM      3  C3  DEN d   1       0.704  -0.299  -0.543  0.00  0.00     0.027 A 
ATOM      4  C4  DEN d   1       2.645   1.099   0.421  0.00  0.00     0.027 A 
ATOM      5  C5  DEN d   1       2.965   2.223   1.150  0.00  0.00    -0.003 A 
ATOM      6  C6  DEN d   1       2.009   3.076   1.634  0.00  0.00     0.001 A 
ATOM      7  C7  DEN d   1       0.683   2.794   1.433  0.00  0.00     0.017 A 
ATOM      8  C8  DEN d   1       0.353   1.666   0.693  0.00  0.00    -0.094 A 
ATOM      9  C9  DEN d   1       1.334   0.810   0.222  0.00  0.00    -0.072 A 
ENDROOT
TORSDOF 0
ENDMDL
