MODEL 1
REMARK minimizedAffinity 0.5970909
REMARK minimizedRMSD -1
REMARK  0 active torsions:
REMARK  status: ('A' for Active; 'I' for Inactive)
ROOT
ATOM      1  C1  DEN d   1      -1.842  -0.762   0.077  0.00  0.00     0.130 A 
ATOM      2  C2  DEN d   1      -2.520  -1.183  -1.146  0.00  0.00    -0.031 A 
ATOM      3  C3  DEN d   1      -1.724  -0.706  -2.295  0.00  0.00     0.027 A 
ATOM      4  C4  DEN d   1       0.482   0.631  -2.299  0.00  0.00     0.027 A 
ATOM      5  C5  DEN d   1       1.434   1.228  -1.502  0.00  0.00    -0.003 A 
ATOM      6  C6  DEN d   1       1.343   1.233  -0.135  0.00  0.00     0.001 A 
ATOM      7  C7  DEN d   1       0.301   0.590   0.478  0.00  0.00     0.017 A 
ATOM      8  C8  DEN d   1      -0.666  -0.008  -0.318  0.00  0.00    -0.094 A 
ATOM      9  C9  DEN d   1      -0.551  -0.013  -1.698  0.00  0.00    -0.072 A 
ENDROOT
TORSDOF 0
ENDMDL
