MODEL 1
REMARK minimizedAffinity 4.24985218
REMARK minimizedRMSD -1
REMARK  0 active torsions:
REMARK  status: ('A' for Active; 'I' for Inactive)
ROOT
ATOM      1  C4' PXY d   1       1.501   1.446   2.129  0.00  0.00     0.077 C 
ATOM      2  C1' PXY d   1      -2.045  -3.119   2.057  0.00  0.00     0.077 C 
ATOM      3  C1  PXY d   1      -1.125  -1.913   2.075  0.00  0.00    -0.082 A 
ATOM      4  C2  PXY d   1       0.132  -2.044   1.685  0.00  0.00     0.003 A 
ATOM      5  C3  PXY d   1       0.986  -0.972   1.726  0.00  0.00     0.003 A 
ATOM      6  C4  PXY d   1       0.534   0.259   2.119  0.00  0.00    -0.082 A 
ATOM      7  C5  PXY d   1      -0.750   0.403   2.508  0.00  0.00     0.003 A 
ATOM      8  C6  PXY d   1      -1.590  -0.707   2.498  0.00  0.00     0.003 A 
ENDROOT
TORSDOF 0
ENDMDL
