MODEL 1
REMARK minimizedAffinity -3.88437247
REMARK minimizedRMSD -1
REMARK  0 active torsions:
REMARK  status: ('A' for Active; 'I' for Inactive)
ROOT
ATOM      1  C4' PXY d   1      -0.252  -0.134   0.809  0.00  0.00     0.077 C 
ATOM      2  C1' PXY d   1       3.230  -3.895   3.482  0.00  0.00     0.077 C 
ATOM      3  C1  PXY d   1       2.326  -2.906   2.772  0.00  0.00    -0.082 A 
ATOM      4  C2  PXY d   1       1.342  -2.324   3.438  0.00  0.00     0.003 A 
ATOM      5  C3  PXY d   1       0.496  -1.452   2.804  0.00  0.00     0.003 A 
ATOM      6  C4  PXY d   1       0.691  -1.131   1.487  0.00  0.00    -0.082 A 
ATOM      7  C5  PXY d   1       1.699  -1.712   0.803  0.00  0.00     0.003 A 
ATOM      8  C6  PXY d   1       2.522  -2.626   1.455  0.00  0.00     0.003 A 
ENDROOT
TORSDOF 0
ENDMDL
