MODEL 1
REMARK minimizedAffinity 4.78736782
REMARK minimizedRMSD -1
REMARK  0 active torsions:
REMARK  status: ('A' for Active; 'I' for Inactive)
ROOT
ATOM      1  C4' PXY d   1       2.657  -3.292   0.687  0.00  0.00     0.077 C 
ATOM      2  C1' PXY d   1      -1.834  -0.077   2.392  0.00  0.00     0.077 C 
ATOM      3  C1  PXY d   1      -0.655  -0.924   1.957  0.00  0.00    -0.082 A 
ATOM      4  C2  PXY d   1       0.012  -0.603   0.861  0.00  0.00     0.003 A 
ATOM      5  C3  PXY d   1       1.061  -1.377   0.435  0.00  0.00     0.003 A 
ATOM      6  C4  PXY d   1       1.465  -2.460   1.169  0.00  0.00    -0.082 A 
ATOM      7  C5  PXY d   1       0.797  -2.788   2.295  0.00  0.00     0.003 A 
ATOM      8  C6  PXY d   1      -0.291  -2.013   2.688  0.00  0.00     0.003 A 
ENDROOT
TORSDOF 0
ENDMDL
