MODEL 1
REMARK minimizedAffinity -1.87643719
REMARK minimizedRMSD -1
REMARK  0 active torsions:
REMARK  status: ('A' for Active; 'I' for Inactive)
ROOT
ATOM      1  C4' PXY d   1       4.475  -4.330   3.304  0.00  0.00     0.077 C 
ATOM      2  C1' PXY d   1       1.294  -1.076  -0.261  0.00  0.00     0.077 C 
ATOM      3  C1  PXY d   1       2.129  -1.939   0.665  0.00  0.00    -0.082 A 
ATOM      4  C2  PXY d   1       2.038  -1.772   1.974  0.00  0.00     0.003 A 
ATOM      5  C3  PXY d   1       2.810  -2.521   2.825  0.00  0.00     0.003 A 
ATOM      6  C4  PXY d   1       3.644  -3.488   2.332  0.00  0.00    -0.082 A 
ATOM      7  C5  PXY d   1       3.735  -3.672   0.998  0.00  0.00     0.003 A 
ATOM      8  C6  PXY d   1       2.974  -2.873   0.150  0.00  0.00     0.003 A 
ENDROOT
TORSDOF 0
ENDMDL
