MODEL 1
REMARK minimizedAffinity 13.820857
REMARK minimizedRMSD -1
REMARK  0 active torsions:
REMARK  status: ('A' for Active; 'I' for Inactive)
ROOT
ATOM      1  C4' PXY d   1       1.043   4.194  -5.997  0.00  0.00     0.077 C 
ATOM      2  C1' PXY d   1      -3.362   2.600  -2.611  0.00  0.00     0.077 C 
ATOM      3  C1  PXY d   1      -2.209   3.007  -3.506  0.00  0.00    -0.082 A 
ATOM      4  C2  PXY d   1      -1.272   3.816  -3.039  0.00  0.00     0.003 A 
ATOM      5  C3  PXY d   1      -0.239   4.220  -3.845  0.00  0.00     0.003 A 
ATOM      6  C4  PXY d   1      -0.135   3.749  -5.126  0.00  0.00    -0.082 A 
ATOM      7  C5  PXY d   1      -1.081   2.915  -5.607  0.00  0.00     0.003 A 
ATOM      8  C6  PXY d   1      -2.144   2.549  -4.786  0.00  0.00     0.003 A 
ENDROOT
TORSDOF 0
ENDMDL
