MODEL 1
REMARK minimizedAffinity 4.86576939
REMARK minimizedRMSD -1
REMARK  0 active torsions:
REMARK  status: ('A' for Active; 'I' for Inactive)
ROOT
ATOM      1  C4' PXY d   1       1.718  -0.581  -0.318  0.00  0.00     0.077 C 
ATOM      2  C1' PXY d   1      -0.971  -3.750   3.699  0.00  0.00     0.077 C 
ATOM      3  C1  PXY d   1      -0.277  -2.913   2.643  0.00  0.00    -0.082 A 
ATOM      4  C2  PXY d   1       0.839  -3.355   2.086  0.00  0.00     0.003 A 
ATOM      5  C3  PXY d   1       1.496  -2.597   1.153  0.00  0.00     0.003 A 
ATOM      6  C4  PXY d   1       0.978  -1.397   0.745  0.00  0.00    -0.082 A 
ATOM      7  C5  PXY d   1      -0.166  -0.943   1.301  0.00  0.00     0.003 A 
ATOM      8  C6  PXY d   1      -0.796  -1.709   2.277  0.00  0.00     0.003 A 
ENDROOT
TORSDOF 0
ENDMDL
