MODEL 1
REMARK minimizedAffinity 0.658046126
REMARK minimizedRMSD -1
REMARK  0 active torsions:
REMARK  status: ('A' for Active; 'I' for Inactive)
ROOT
ATOM      1  C4' PXY d   1       3.204  -3.633   0.479  0.00  0.00     0.077 C 
ATOM      2  C1' PXY d   1      -0.866   0.203   1.938  0.00  0.00     0.077 C 
ATOM      3  C1  PXY d   1       0.201  -0.799   1.543  0.00  0.00    -0.082 A 
ATOM      4  C2  PXY d   1       0.375  -1.890   2.270  0.00  0.00     0.003 A 
ATOM      5  C3  PXY d   1       1.356  -2.791   1.946  0.00  0.00     0.003 A 
ATOM      6  C4  PXY d   1       2.133  -2.599   0.835  0.00  0.00    -0.082 A 
ATOM      7  C5  PXY d   1       1.955  -1.493   0.082  0.00  0.00     0.003 A 
ATOM      8  C6  PXY d   1       0.980  -0.570   0.452  0.00  0.00     0.003 A 
ENDROOT
TORSDOF 0
ENDMDL
