MODEL 1
REMARK minimizedAffinity 5.95715809
REMARK minimizedRMSD -1
REMARK  0 active torsions:
REMARK  status: ('A' for Active; 'I' for Inactive)
ROOT
ATOM      1  C4' PXY d   1      -0.239   0.003   1.461  0.00  0.00     0.077 C 
ATOM      2  C1' PXY d   1      -5.999  -0.479   1.398  0.00  0.00     0.077 C 
ATOM      3  C1  PXY d   1      -4.489  -0.340   1.420  0.00  0.00    -0.082 A 
ATOM      4  C2  PXY d   1      -3.754  -1.067   0.593  0.00  0.00     0.003 A 
ATOM      5  C3  PXY d   1      -2.386  -0.977   0.622  0.00  0.00     0.003 A 
ATOM      6  C4  PXY d   1      -1.767  -0.097   1.468  0.00  0.00    -0.082 A 
ATOM      7  C5  PXY d   1      -2.510   0.655   2.306  0.00  0.00     0.003 A 
ATOM      8  C6  PXY d   1      -3.896   0.520   2.291  0.00  0.00     0.003 A 
ENDROOT
TORSDOF 0
ENDMDL
