MODEL 1
REMARK minimizedAffinity 5.15031528
REMARK minimizedRMSD -1
REMARK  0 active torsions:
REMARK  status: ('A' for Active; 'I' for Inactive)
ROOT
ATOM      1  C4' PXY d   1       2.256  -0.681  -0.205  0.00  0.00     0.077 C 
ATOM      2  C1' PXY d   1      -0.828  -3.555   3.750  0.00  0.00     0.077 C 
ATOM      3  C1  PXY d   1      -0.009  -2.810   2.715  0.00  0.00    -0.082 A 
ATOM      4  C2  PXY d   1      -0.279  -1.540   2.458  0.00  0.00     0.003 A 
ATOM      5  C3  PXY d   1       0.431  -0.860   1.502  0.00  0.00     0.003 A 
ATOM      6  C4  PXY d   1       1.462  -1.470   0.839  0.00  0.00    -0.082 A 
ATOM      7  C5  PXY d   1       1.749  -2.763   1.103  0.00  0.00     0.003 A 
ATOM      8  C6  PXY d   1       0.990  -3.447   2.047  0.00  0.00     0.003 A 
ENDROOT
TORSDOF 0
ENDMDL
