MODEL 1
REMARK minimizedAffinity 1.33447671
REMARK minimizedRMSD -1
REMARK  0 active torsions:
REMARK  status: ('A' for Active; 'I' for Inactive)
ROOT
ATOM      1  C4' PXY d   1       2.104  -0.885  -0.406  0.00  0.00     0.077 C 
ATOM      2  C1' PXY d   1      -1.105  -3.115   3.854  0.00  0.00     0.077 C 
ATOM      3  C1  PXY d   1      -0.254  -2.539   2.739  0.00  0.00    -0.082 A 
ATOM      4  C2  PXY d   1      -0.425  -1.280   2.370  0.00  0.00     0.003 A 
ATOM      5  C3  PXY d   1       0.313  -0.752   1.342  0.00  0.00     0.003 A 
ATOM      6  C4  PXY d   1       1.274  -1.505   0.721  0.00  0.00    -0.082 A 
ATOM      7  C5  PXY d   1       1.462  -2.788   1.100  0.00  0.00     0.003 A 
ATOM      8  C6  PXY d   1       0.673  -3.317   2.118  0.00  0.00     0.003 A 
ENDROOT
TORSDOF 0
ENDMDL
