MODEL 1
REMARK minimizedAffinity 3.94170451
REMARK minimizedRMSD -1
REMARK  0 active torsions:
REMARK  status: ('A' for Active; 'I' for Inactive)
ROOT
ATOM      1  N1  IND d   1      -4.245  -1.924  -3.795  0.00  0.00    -0.196 N 
ATOM      2  C2  IND d   1      -4.492  -1.716  -2.467  0.00  0.00     0.054 A 
ATOM      3  C3  IND d   1      -4.414  -0.398  -2.174  0.00  0.00    -0.031 A 
ATOM      4  C4  IND d   1      -3.994   1.602  -3.739  0.00  0.00     0.051 A 
ATOM      5  C5  IND d   1      -3.678   1.911  -5.032  0.00  0.00    -0.031 A 
ATOM      6  C6  IND d   1      -3.535   0.937  -6.000  0.00  0.00     0.015 A 
ATOM      7  C7  IND d   1      -3.714  -0.386  -5.711  0.00  0.00    -0.016 A 
ATOM      8  C8  IND d   1      -4.028  -0.703  -4.397  0.00  0.00    -0.047 A 
ATOM      9  C9  IND d   1      -4.133   0.277  -3.402  0.00  0.00    -0.096 A 
ATOM     10  HN1 IND d   1      -4.228  -2.688  -4.189  0.00  0.00     0.298 HD
ENDROOT
TORSDOF 0
ENDMDL
