MODEL 1
REMARK minimizedAffinity 8.12909222
REMARK minimizedRMSD -1
REMARK  0 active torsions:
REMARK  status: ('A' for Active; 'I' for Inactive)
ROOT
ATOM      1  N1  IND d   1       2.080  -1.490  -0.014  0.00  0.00    -0.196 N 
ATOM      2  C2  IND d   1       2.176  -0.130  -0.106  0.00  0.00     0.054 A 
ATOM      3  C3  IND d   1       3.459   0.263   0.059  0.00  0.00    -0.031 A 
ATOM      4  C4  IND d   1       5.577  -1.162   0.390  0.00  0.00     0.051 A 
ATOM      5  C5  IND d   1       5.989  -2.452   0.576  0.00  0.00    -0.031 A 
ATOM      6  C6  IND d   1       5.101  -3.509   0.573  0.00  0.00     0.015 A 
ATOM      7  C7  IND d   1       3.764  -3.315   0.370  0.00  0.00    -0.016 A 
ATOM      8  C8  IND d   1       3.342  -2.006   0.188  0.00  0.00    -0.047 A 
ATOM      9  C9  IND d   1       4.232  -0.926   0.233  0.00  0.00    -0.096 A 
ATOM     10  HN1 IND d   1       1.354  -1.947  -0.072  0.00  0.00     0.298 HD
ENDROOT
TORSDOF 0
ENDMDL
