MODEL 1
REMARK minimizedAffinity -0.151184633
REMARK minimizedRMSD -1
REMARK  0 active torsions:
REMARK  status: ('A' for Active; 'I' for Inactive)
ROOT
ATOM      1  N1  IND d   1      -2.651  -1.182  -4.391  0.00  0.00    -0.196 N 
ATOM      2  C2  IND d   1      -3.188  -2.040  -3.472  0.00  0.00     0.054 A 
ATOM      3  C3  IND d   1      -4.502  -1.775  -3.294  0.00  0.00    -0.031 A 
ATOM      4  C4  IND d   1      -5.998  -0.048  -4.480  0.00  0.00     0.051 A 
ATOM      5  C5  IND d   1      -5.950   0.987  -5.371  0.00  0.00    -0.031 A 
ATOM      6  C6  IND d   1      -4.777   1.357  -5.996  0.00  0.00     0.015 A 
ATOM      7  C7  IND d   1      -3.605   0.696  -5.760  0.00  0.00    -0.016 A 
ATOM      8  C8  IND d   1      -3.648  -0.350  -4.850  0.00  0.00    -0.047 A 
ATOM      9  C9  IND d   1      -4.827  -0.704  -4.181  0.00  0.00    -0.096 A 
ATOM     10  HN1 IND d   1      -1.828  -1.165  -4.640  0.00  0.00     0.298 HD
ENDROOT
TORSDOF 0
ENDMDL
