MODEL 1
REMARK minimizedAffinity -0.910588741
REMARK minimizedRMSD -1
REMARK  0 active torsions:
REMARK  status: ('A' for Active; 'I' for Inactive)
ROOT
ATOM      1  N1  IND d   1      -3.116   2.685  -4.115  0.00  0.00    -0.196 N 
ATOM      2  C2  IND d   1      -2.685   2.974  -2.850  0.00  0.00     0.054 A 
ATOM      3  C3  IND d   1      -2.653   1.852  -2.097  0.00  0.00    -0.031 A 
ATOM      4  C4  IND d   1      -3.167  -0.581  -2.764  0.00  0.00     0.051 A 
ATOM      5  C5  IND d   1      -3.634  -1.338  -3.802  0.00  0.00    -0.031 A 
ATOM      6  C6  IND d   1      -3.957  -0.781  -5.023  0.00  0.00     0.015 A 
ATOM      7  C7  IND d   1      -3.812   0.557  -5.256  0.00  0.00    -0.016 A 
ATOM      8  C8  IND d   1      -3.345   1.330  -4.202  0.00  0.00    -0.047 A 
ATOM      9  C9  IND d   1      -3.057   0.777  -2.947  0.00  0.00    -0.096 A 
ATOM     10  HN1 IND d   1      -3.226   3.255  -4.750  0.00  0.00     0.298 HD
ENDROOT
TORSDOF 0
ENDMDL
