MODEL 1
REMARK minimizedAffinity 0.288529873
REMARK minimizedRMSD -1
REMARK  0 active torsions:
REMARK  status: ('A' for Active; 'I' for Inactive)
ROOT
ATOM      1  N1  IND d   1      -1.997  -0.071  -5.215  0.00  0.00    -0.196 N 
ATOM      2  C2  IND d   1      -2.175   1.059  -5.964  0.00  0.00     0.054 A 
ATOM      3  C3  IND d   1      -3.483   1.398  -5.999  0.00  0.00    -0.031 A 
ATOM      4  C4  IND d   1      -5.490   0.301  -4.818  0.00  0.00     0.051 A 
ATOM      5  C5  IND d   1      -5.830  -0.779  -4.052  0.00  0.00    -0.031 A 
ATOM      6  C6  IND d   1      -4.891  -1.694  -3.623  0.00  0.00     0.015 A 
ATOM      7  C7  IND d   1      -3.568  -1.558  -3.937  0.00  0.00    -0.016 A 
ATOM      8  C8  IND d   1      -3.220  -0.467  -4.721  0.00  0.00    -0.047 A 
ATOM      9  C9  IND d   1      -4.175   0.443  -5.194  0.00  0.00    -0.096 A 
ATOM     10  HN1 IND d   1      -1.246  -0.467  -5.076  0.00  0.00     0.298 HD
ENDROOT
TORSDOF 0
ENDMDL
