MODEL 1
REMARK minimizedAffinity 10.5948887
REMARK minimizedRMSD -1
REMARK  0 active torsions:
REMARK  status: ('A' for Active; 'I' for Inactive)
ROOT
ATOM      1  N1  IND d   1      -4.260   1.955  -5.798  0.00  0.00    -0.196 N 
ATOM      2  C2  IND d   1      -4.901   0.764  -6.000  0.00  0.00     0.054 A 
ATOM      3  C3  IND d   1      -4.820  -0.007  -4.892  0.00  0.00    -0.031 A 
ATOM      4  C4  IND d   1      -3.773   0.526  -2.602  0.00  0.00     0.051 A 
ATOM      5  C5  IND d   1      -3.039   1.475  -1.947  0.00  0.00    -0.031 A 
ATOM      6  C6  IND d   1      -2.669   2.658  -2.555  0.00  0.00     0.015 A 
ATOM      7  C7  IND d   1      -3.031   2.941  -3.841  0.00  0.00    -0.016 A 
ATOM      8  C8  IND d   1      -3.771   1.977  -4.511  0.00  0.00    -0.047 A 
ATOM      9  C9  IND d   1      -4.112   0.756  -3.914  0.00  0.00    -0.096 A 
ATOM     10  HN1 IND d   1      -4.177   2.584  -6.378  0.00  0.00     0.298 HD
ENDROOT
TORSDOF 0
ENDMDL
