MODEL 1
REMARK minimizedAffinity 1.29698837
REMARK minimizedRMSD -1
REMARK  0 active torsions:
REMARK  status: ('A' for Active; 'I' for Inactive)
ROOT
ATOM      1  N1  IND d   1       5.366  -0.778   0.127  0.00  0.00    -0.196 N 
ATOM      2  C2  IND d   1       4.598   0.231  -0.385  0.00  0.00     0.054 A 
ATOM      3  C3  IND d   1       3.290  -0.107  -0.343  0.00  0.00    -0.031 A 
ATOM      4  C4  IND d   1       2.176  -2.220   0.617  0.00  0.00     0.051 A 
ATOM      5  C5  IND d   1       2.468  -3.440   1.159  0.00  0.00    -0.031 A 
ATOM      6  C6  IND d   1       3.768  -3.842   1.393  0.00  0.00     0.015 A 
ATOM      7  C7  IND d   1       4.827  -3.030   1.101  0.00  0.00    -0.016 A 
ATOM      8  C8  IND d   1       4.535  -1.794   0.544  0.00  0.00    -0.047 A 
ATOM      9  C9  IND d   1       3.220  -1.398   0.265  0.00  0.00    -0.096 A 
ATOM     10  HN1 IND d   1       6.225  -0.777   0.180  0.00  0.00     0.298 HD
ENDROOT
TORSDOF 0
ENDMDL
