MODEL 1
REMARK minimizedAffinity 0.578571737
REMARK minimizedRMSD -1
REMARK  0 active torsions:
REMARK  status: ('A' for Active; 'I' for Inactive)
ROOT
ATOM      1  N1  IND d   1       4.138  -3.112   0.723  0.00  0.00    -0.196 N 
ATOM      2  C2  IND d   1       2.814  -3.442   0.801  0.00  0.00     0.054 A 
ATOM      3  C3  IND d   1       2.044  -2.373   0.495  0.00  0.00    -0.031 A 
ATOM      4  C4  IND d   1       2.746  -0.014  -0.259  0.00  0.00     0.051 A 
ATOM      5  C5  IND d   1       3.847   0.775  -0.443  0.00  0.00    -0.031 A 
ATOM      6  C6  IND d   1       5.127   0.298  -0.247  0.00  0.00     0.015 A 
ATOM      7  C7  IND d   1       5.355  -0.995   0.132  0.00  0.00    -0.016 A 
ATOM      8  C8  IND d   1       4.240  -1.797   0.327  0.00  0.00    -0.047 A 
ATOM      9  C9  IND d   1       2.937  -1.306   0.170  0.00  0.00    -0.096 A 
ATOM     10  HN1 IND d   1       4.797  -3.638   0.893  0.00  0.00     0.298 HD
ENDROOT
TORSDOF 0
ENDMDL
