MODEL 1
REMARK minimizedAffinity 3.41114807
REMARK minimizedRMSD -1
REMARK  0 active torsions:
REMARK  status: ('A' for Active; 'I' for Inactive)
ROOT
ATOM      1  N1  IND d   1       5.748  -4.735   4.458  0.00  0.00    -0.196 N 
ATOM      2  C2  IND d   1       5.165  -3.941   5.407  0.00  0.00     0.054 A 
ATOM      3  C3  IND d   1       4.104  -3.285   4.885  0.00  0.00    -0.031 A 
ATOM      4  C4  IND d   1       3.083  -3.442   2.527  0.00  0.00     0.051 A 
ATOM      5  C5  IND d   1       3.289  -4.007   1.299  0.00  0.00    -0.031 A 
ATOM      6  C6  IND d   1       4.344  -4.863   1.058  0.00  0.00     0.015 A 
ATOM      7  C7  IND d   1       5.231  -5.196   2.043  0.00  0.00    -0.016 A 
ATOM      8  C8  IND d   1       5.029  -4.619   3.289  0.00  0.00    -0.047 A 
ATOM      9  C9  IND d   1       3.985  -3.716   3.528  0.00  0.00    -0.096 A 
ATOM     10  HN1 IND d   1       6.445  -5.224   4.573  0.00  0.00     0.298 HD
ENDROOT
TORSDOF 0
ENDMDL
