MODEL 1
REMARK minimizedAffinity 0.79322052
REMARK minimizedRMSD -1
REMARK  0 active torsions:
REMARK  status: ('A' for Active; 'I' for Inactive)
ROOT
ATOM      1  N1  IND d   1       2.143  -1.984   2.035  0.00  0.00    -0.196 N 
ATOM      2  C2  IND d   1       1.870  -1.760   0.715  0.00  0.00     0.054 A 
ATOM      3  C3  IND d   1       2.751  -2.423  -0.067  0.00  0.00    -0.031 A 
ATOM      4  C4  IND d   1       4.659  -4.016   0.606  0.00  0.00     0.051 A 
ATOM      5  C5  IND d   1       5.319  -4.504   1.698  0.00  0.00    -0.031 A 
ATOM      6  C6  IND d   1       4.946  -4.173   2.985  0.00  0.00     0.015 A 
ATOM      7  C7  IND d   1       3.886  -3.347   3.228  0.00  0.00    -0.016 A 
ATOM      8  C8  IND d   1       3.217  -2.843   2.121  0.00  0.00    -0.047 A 
ATOM      9  C9  IND d   1       3.618  -3.141   0.813  0.00  0.00    -0.096 A 
ATOM     10  HN1 IND d   1       1.716  -1.645   2.700  0.00  0.00     0.298 HD
ENDROOT
TORSDOF 0
ENDMDL
