MODEL 1
REMARK minimizedAffinity 8.81541348
REMARK minimizedRMSD -1
REMARK  0 active torsions:
REMARK  status: ('A' for Active; 'I' for Inactive)
ROOT
ATOM      1  C   UNL d   1       2.642  -0.975   0.995  0.00  0.00     0.077 C 
ATOM      2  C1  UNL d   1       1.590  -0.150   1.675  0.00  0.00    -0.074 A 
ATOM      3  C2  UNL d   1       1.936   0.807   2.634  0.00  0.00    -0.005 A 
ATOM      4  C3  UNL d   1       0.947   1.574   3.251  0.00  0.00     0.006 A 
ATOM      5  C4  UNL d   1      -0.395   1.391   2.916  0.00  0.00    -0.005 A 
ATOM      6  C5  UNL d   1      -0.760   0.440   1.958  0.00  0.00    -0.074 A 
ATOM      7  C6  UNL d   1      -2.197   0.238   1.578  0.00  0.00     0.077 C 
ATOM      8  C7  UNL d   1       0.240  -0.322   1.337  0.00  0.00    -0.001 A 
ENDROOT
TORSDOF 0
ENDMDL
