MODEL 1
REMARK minimizedAffinity 9.93433285
REMARK minimizedRMSD -1
REMARK  0 active torsions:
REMARK  status: ('A' for Active; 'I' for Inactive)
ROOT
ATOM      1  C   UNL d   1       2.040   0.808  -1.086  0.00  0.00     0.077 C 
ATOM      2  C1  UNL d   1       1.662   0.318   0.281  0.00  0.00    -0.074 A 
ATOM      3  C2  UNL d   1       2.563  -0.420   1.055  0.00  0.00    -0.005 A 
ATOM      4  C3  UNL d   1       2.201  -0.860   2.327  0.00  0.00     0.006 A 
ATOM      5  C4  UNL d   1       0.935  -0.568   2.838  0.00  0.00    -0.005 A 
ATOM      6  C5  UNL d   1       0.021   0.169   2.079  0.00  0.00    -0.074 A 
ATOM      7  C6  UNL d   1      -1.339   0.500   2.617  0.00  0.00     0.077 C 
ATOM      8  C7  UNL d   1       0.395   0.614   0.804  0.00  0.00    -0.001 A 
ENDROOT
TORSDOF 0
ENDMDL
