MODEL 1
REMARK minimizedAffinity 9.74434662
REMARK minimizedRMSD -1
REMARK  0 active torsions:
REMARK  status: ('A' for Active; 'I' for Inactive)
ROOT
ATOM      1  C   UNL d   1       1.117  -2.604   4.693  0.00  0.00     0.077 C 
ATOM      2  C1  UNL d   1       0.870  -1.494   3.716  0.00  0.00    -0.074 A 
ATOM      3  C2  UNL d   1       1.066  -1.687   2.344  0.00  0.00    -0.005 A 
ATOM      4  C3  UNL d   1       0.823  -0.648   1.446  0.00  0.00     0.006 A 
ATOM      5  C4  UNL d   1       0.383   0.592   1.909  0.00  0.00    -0.005 A 
ATOM      6  C5  UNL d   1       0.181   0.804   3.277  0.00  0.00    -0.074 A 
ATOM      7  C6  UNL d   1      -0.302   2.128   3.790  0.00  0.00     0.077 C 
ATOM      8  C7  UNL d   1       0.420  -0.247   4.172  0.00  0.00    -0.001 A 
ENDROOT
TORSDOF 0
ENDMDL
