MODEL 1
REMARK minimizedAffinity 13.5205946
REMARK minimizedRMSD -1
REMARK  0 active torsions:
REMARK  status: ('A' for Active; 'I' for Inactive)
ROOT
ATOM      1  C   UNL d   1       3.752  -0.960   2.607  0.00  0.00     0.077 C 
ATOM      2  C1  UNL d   1       2.938  -0.511   1.429  0.00  0.00    -0.074 A 
ATOM      3  C2  UNL d   1       2.163  -1.421   0.703  0.00  0.00    -0.005 A 
ATOM      4  C3  UNL d   1       1.404  -0.987  -0.384  0.00  0.00     0.006 A 
ATOM      5  C4  UNL d   1       1.414   0.358  -0.756  0.00  0.00    -0.005 A 
ATOM      6  C5  UNL d   1       2.182   1.282  -0.041  0.00  0.00    -0.074 A 
ATOM      7  C6  UNL d   1       2.196   2.733  -0.421  0.00  0.00     0.077 C 
ATOM      8  C7  UNL d   1       2.937   0.840   1.054  0.00  0.00    -0.001 A 
ENDROOT
TORSDOF 0
ENDMDL
