MODEL 1
REMARK minimizedAffinity 7.58802366
REMARK minimizedRMSD -1
REMARK  0 active torsions:
REMARK  status: ('A' for Active; 'I' for Inactive)
ROOT
ATOM      1  C   UNL d   1      -4.878   1.100  -1.864  0.00  0.00     0.077 C 
ATOM      2  C1  UNL d   1      -5.275   2.204  -0.930  0.00  0.00    -0.074 A 
ATOM      3  C2  UNL d   1      -5.641   1.930   0.392  0.00  0.00    -0.005 A 
ATOM      4  C3  UNL d   1      -5.999   2.968   1.252  0.00  0.00     0.006 A 
ATOM      5  C4  UNL d   1      -5.996   4.288   0.800  0.00  0.00    -0.005 A 
ATOM      6  C5  UNL d   1      -5.633   4.581  -0.518  0.00  0.00    -0.074 A 
ATOM      7  C6  UNL d   1      -5.615   5.995  -1.018  0.00  0.00     0.077 C 
ATOM      8  C7  UNL d   1      -5.267   3.533  -1.375  0.00  0.00    -0.001 A 
ENDROOT
TORSDOF 0
ENDMDL
