MODEL 1
REMARK minimizedAffinity 2.80377531
REMARK minimizedRMSD -1
REMARK  3 active torsions:
REMARK  status: ('A' for Active; 'I' for Inactive)
REMARK    1  A    between atoms: C3'_2  and  C2'_3 
REMARK    2  A    between atoms: C2'_3  and  C1'_4 
REMARK    3  A    between atoms: C1'_4  and  C1_5 
ROOT
ATOM      1  C1  N4B d   1       0.273  -0.082  -0.821  0.00  0.00    -0.075 A 
ATOM      2  C2  N4B d   1       0.615   0.669  -1.967  0.00  0.00     0.002 A 
ATOM      3  C3  N4B d   1       1.850   1.263  -2.054  0.00  0.00     0.002 A 
ATOM      4  C4  N4B d   1       2.749   1.136  -1.005  0.00  0.00    -0.004 A 
ATOM      5  C5  N4B d   1       2.420   0.387   0.087  0.00  0.00     0.002 A 
ATOM      6  C6  N4B d   1       1.183  -0.219   0.187  0.00  0.00     0.002 A 
ENDROOT
BRANCH   1   7
ATOM      7  C1' N4B d   1      -1.097  -0.679  -0.642  0.00  0.00     0.057 C 
BRANCH   7   8
ATOM      8  C2' N4B d   1      -2.054   0.403  -0.151  0.00  0.00     0.009 C 
BRANCH   8   9
ATOM      9  C3' N4B d   1      -2.181   0.404   1.363  0.00  0.00     0.004 C 
ATOM     10  C4' N4B d   1      -1.479   1.564   2.004  0.00  0.00     0.003 C 
ENDBRANCH   8   9
ENDBRANCH   7   8
ENDBRANCH   1   7
TORSDOF 3
ENDMDL
