MODEL 1
REMARK minimizedAffinity 1.84638333
REMARK minimizedRMSD -1
REMARK  3 active torsions:
REMARK  status: ('A' for Active; 'I' for Inactive)
REMARK    1  A    between atoms: C3'_2  and  C2'_3 
REMARK    2  A    between atoms: C2'_3  and  C1'_4 
REMARK    3  A    between atoms: C1'_4  and  C1_5 
ROOT
ATOM      1  C1  N4B d   1      -0.530   0.131   0.428  0.00  0.00    -0.075 A 
ATOM      2  C2  N4B d   1       0.544  -0.225   1.272  0.00  0.00     0.002 A 
ATOM      3  C3  N4B d   1       0.480   0.047   2.617  0.00  0.00     0.002 A 
ATOM      4  C4  N4B d   1      -0.635   0.688   3.134  0.00  0.00    -0.004 A 
ATOM      5  C5  N4B d   1      -1.680   1.006   2.316  0.00  0.00     0.002 A 
ATOM      6  C6  N4B d   1      -1.631   0.735   0.964  0.00  0.00     0.002 A 
ENDROOT
BRANCH   1   7
ATOM      7  C1' N4B d   1      -0.470  -0.068  -1.062  0.00  0.00     0.057 C 
BRANCH   7   8
ATOM      8  C2' N4B d   1       0.766   0.639  -1.612  0.00  0.00     0.009 C 
BRANCH   8   9
ATOM      9  C3' N4B d   1       0.718   0.773  -3.124  0.00  0.00     0.004 C 
ATOM     10  C4' N4B d   1       2.027   1.211  -3.710  0.00  0.00     0.003 C 
ENDBRANCH   8   9
ENDBRANCH   7   8
ENDBRANCH   1   7
TORSDOF 3
ENDMDL
