MODEL 1
REMARK minimizedAffinity -1.0202744
REMARK minimizedRMSD -1
REMARK  3 active torsions:
REMARK  status: ('A' for Active; 'I' for Inactive)
REMARK    1  A    between atoms: C3'_2  and  C2'_3 
REMARK    2  A    between atoms: C2'_3  and  C1'_4 
REMARK    3  A    between atoms: C1'_4  and  C1_5 
ROOT
ATOM      1  C1  N4B d   1       0.655  -0.046  -0.658  0.00  0.00    -0.075 A 
ATOM      2  C2  N4B d   1      -0.554   0.344  -0.041  0.00  0.00     0.002 A 
ATOM      3  C3  N4B d   1      -0.653   0.354   1.329  0.00  0.00     0.002 A 
ATOM      4  C4  N4B d   1       0.432  -0.038   2.098  0.00  0.00    -0.004 A 
ATOM      5  C5  N4B d   1       1.604  -0.389   1.495  0.00  0.00     0.002 A 
ATOM      6  C6  N4B d   1       1.720  -0.400   0.120  0.00  0.00     0.002 A 
ENDROOT
BRANCH   1   7
ATOM      7  C1' N4B d   1       0.785  -0.155  -2.152  0.00  0.00     0.057 C 
BRANCH   7   8
ATOM      8  C2' N4B d   1       1.631   1.005  -2.668  0.00  0.00     0.009 C 
BRANCH   8   9
ATOM      9  C3' N4B d   1       1.211   1.438  -4.062  0.00  0.00     0.004 C 
ATOM     10  C4' N4B d   1       0.806   0.285  -4.931  0.00  0.00     0.003 C 
ENDBRANCH   8   9
ENDBRANCH   7   8
ENDBRANCH   1   7
TORSDOF 3
ENDMDL
