MODEL 1
REMARK minimizedAffinity -6.39641809
REMARK minimizedRMSD -1
REMARK  3 active torsions:
REMARK  status: ('A' for Active; 'I' for Inactive)
REMARK    1  A    between atoms: C3'_2  and  C2'_3 
REMARK    2  A    between atoms: C2'_3  and  C1'_4 
REMARK    3  A    between atoms: C1'_4  and  C1_5 
ROOT
ATOM      1  C1  N4B d   1       0.216  -0.043   0.348  0.00  0.00    -0.075 A 
ATOM      2  C2  N4B d   1      -1.137   0.360   0.294  0.00  0.00     0.002 A 
ATOM      3  C3  N4B d   1      -1.682   1.074   1.332  0.00  0.00     0.002 A 
ATOM      4  C4  N4B d   1      -0.904   1.379   2.439  0.00  0.00    -0.004 A 
ATOM      5  C5  N4B d   1       0.408   1.007   2.472  0.00  0.00     0.002 A 
ATOM      6  C6  N4B d   1       0.971   0.293   1.434  0.00  0.00     0.002 A 
ENDROOT
BRANCH   1   7
ATOM      7  C1' N4B d   1       0.833  -0.899  -0.724  0.00  0.00     0.057 C 
BRANCH   7   8
ATOM      8  C2' N4B d   1       0.285  -0.472  -2.083  0.00  0.00     0.009 C 
BRANCH   8   9
ATOM      9  C3' N4B d   1       1.308   0.313  -2.886  0.00  0.00     0.004 C 
ATOM     10  C4' N4B d   1       0.687   1.114  -3.991  0.00  0.00     0.003 C 
ENDBRANCH   8   9
ENDBRANCH   7   8
ENDBRANCH   1   7
TORSDOF 3
ENDMDL
