MODEL 1
REMARK minimizedAffinity -4.66740704
REMARK minimizedRMSD -1
REMARK  3 active torsions:
REMARK  status: ('A' for Active; 'I' for Inactive)
REMARK    1  A    between atoms: C3'_2  and  C2'_3 
REMARK    2  A    between atoms: C2'_3  and  C1'_4 
REMARK    3  A    between atoms: C1'_4  and  C1_5 
ROOT
ATOM      1  C1  N4B d   1       0.475   0.443   1.235  0.00  0.00    -0.075 A 
ATOM      2  C2  N4B d   1       1.589  -0.324   1.640  0.00  0.00     0.002 A 
ATOM      3  C3  N4B d   1       2.066  -1.324   0.828  0.00  0.00     0.002 A 
ATOM      4  C4  N4B d   1       1.436  -1.585  -0.380  0.00  0.00    -0.004 A 
ATOM      5  C5  N4B d   1       0.377  -0.822  -0.775  0.00  0.00     0.002 A 
ATOM      6  C6  N4B d   1      -0.111   0.188   0.029  0.00  0.00     0.002 A 
ENDROOT
BRANCH   1   7
ATOM      7  C1' N4B d   1      -0.135   1.489   2.128  0.00  0.00     0.057 C 
BRANCH   7   8
ATOM      8  C2' N4B d   1      -0.878   0.802   3.270  0.00  0.00     0.009 C 
BRANCH   8   9
ATOM      9  C3' N4B d   1      -1.812  -0.285   2.767  0.00  0.00     0.004 C 
ATOM     10  C4' N4B d   1      -2.212  -1.250   3.843  0.00  0.00     0.003 C 
ENDBRANCH   8   9
ENDBRANCH   7   8
ENDBRANCH   1   7
TORSDOF 3
ENDMDL
