MODEL 1
REMARK minimizedAffinity -5.80807209
REMARK minimizedRMSD -1
REMARK  2 active torsions:
REMARK  status: ('A' for Active; 'I' for Inactive)
REMARK    1  A    between atoms: C1_2  and  C2_3 
REMARK    2  A    between atoms: C2_3  and  C3_4 
ROOT
ATOM      1  C3  UNL d   1       1.028  -4.979   0.035  0.00  0.00    -0.075 A 
ATOM      2  C4  UNL d   1      -0.149  -5.540  -0.482  0.00  0.00     0.002 A 
ATOM      3  C5  UNL d   1      -0.850  -4.898  -1.503  0.00  0.00     0.002 A 
ATOM      4  C6  UNL d   1      -0.390  -3.685  -2.012  0.00  0.00    -0.004 A 
ATOM      5  C7  UNL d   1       0.769  -3.111  -1.494  0.00  0.00     0.002 A 
ATOM      6  C8  UNL d   1       1.475  -3.753  -0.476  0.00  0.00     0.002 A 
ENDROOT
BRANCH   1   7
ATOM      7  C2  UNL d   1       1.808  -5.684   1.120  0.00  0.00     0.056 C 
BRANCH   7   8
ATOM      8  C1  UNL d   1       3.258  -6.000   0.741  0.00  0.00     0.007 C 
ATOM      9  C   UNL d   1       4.204  -6.000   1.934  0.00  0.00     0.009 C 
ENDBRANCH   7   8
ENDBRANCH   1   7
TORSDOF 2
ENDMDL
