MODEL 1
REMARK minimizedAffinity -2.41389203
REMARK minimizedRMSD -1
REMARK  2 active torsions:
REMARK  status: ('A' for Active; 'I' for Inactive)
REMARK    1  A    between atoms: C1_2  and  C2_3 
REMARK    2  A    between atoms: C2_3  and  C3_4 
ROOT
ATOM      1  C3  UNL d   1       0.783  -4.866  -0.235  0.00  0.00    -0.075 A 
ATOM      2  C4  UNL d   1      -0.085  -5.364  -1.217  0.00  0.00     0.002 A 
ATOM      3  C5  UNL d   1      -0.735  -4.495  -2.095  0.00  0.00     0.002 A 
ATOM      4  C6  UNL d   1      -0.534  -3.121  -1.996  0.00  0.00    -0.004 A 
ATOM      5  C7  UNL d   1       0.314  -2.613  -1.013  0.00  0.00     0.002 A 
ATOM      6  C8  UNL d   1       0.969  -3.480  -0.137  0.00  0.00     0.002 A 
ENDROOT
BRANCH   1   7
ATOM      7  C2  UNL d   1       1.512  -5.802   0.698  0.00  0.00     0.056 C 
BRANCH   7   8
ATOM      8  C1  UNL d   1       2.992  -6.000   0.353  0.00  0.00     0.007 C 
ATOM      9  C   UNL d   1       3.899  -5.999   1.577  0.00  0.00     0.009 C 
ENDBRANCH   7   8
ENDBRANCH   1   7
TORSDOF 2
ENDMDL
