MODEL 1
REMARK minimizedAffinity -5.55562162
REMARK minimizedRMSD -1
REMARK  2 active torsions:
REMARK  status: ('A' for Active; 'I' for Inactive)
REMARK    1  A    between atoms: C1_2  and  C2_3 
REMARK    2  A    between atoms: C2_3  and  C3_4 
ROOT
ATOM      1  C3  UNL d   1      -0.375   1.330  -0.560  0.00  0.00    -0.075 A 
ATOM      2  C4  UNL d   1      -0.776   2.472  -1.270  0.00  0.00     0.002 A 
ATOM      3  C5  UNL d   1      -1.269   3.589  -0.595  0.00  0.00     0.002 A 
ATOM      4  C6  UNL d   1      -1.377   3.575   0.794  0.00  0.00    -0.004 A 
ATOM      5  C7  UNL d   1      -0.998   2.441   1.508  0.00  0.00     0.002 A 
ATOM      6  C8  UNL d   1      -0.500   1.323   0.835  0.00  0.00     0.002 A 
ENDROOT
BRANCH   1   7
ATOM      7  C2  UNL d   1       0.187   0.129  -1.283  0.00  0.00     0.056 C 
BRANCH   7   8
ATOM      8  C1  UNL d   1       1.224  -0.656  -0.473  0.00  0.00     0.007 C 
ATOM      9  C   UNL d   1       1.081  -2.165  -0.618  0.00  0.00     0.009 C 
ENDBRANCH   7   8
ENDBRANCH   1   7
TORSDOF 2
ENDMDL
