MODEL 1
REMARK minimizedAffinity -3.87362385
REMARK minimizedRMSD -1
REMARK  2 active torsions:
REMARK  status: ('A' for Active; 'I' for Inactive)
REMARK    1  A    between atoms: C1_2  and  C2_3 
REMARK    2  A    between atoms: C2_3  and  C3_4 
ROOT
ATOM      1  C3  UNL d   1       0.626  -0.864  -0.903  0.00  0.00    -0.075 A 
ATOM      2  C4  UNL d   1       0.274  -0.605   0.430  0.00  0.00     0.002 A 
ATOM      3  C5  UNL d   1      -0.241   0.639   0.797  0.00  0.00     0.002 A 
ATOM      4  C6  UNL d   1      -0.401   1.640  -0.158  0.00  0.00    -0.004 A 
ATOM      5  C7  UNL d   1      -0.039   1.399  -1.482  0.00  0.00     0.002 A 
ATOM      6  C8  UNL d   1       0.472   0.154  -1.853  0.00  0.00     0.002 A 
ENDROOT
BRANCH   1   7
ATOM      7  C2  UNL d   1       1.156  -2.217  -1.313  0.00  0.00     0.056 C 
BRANCH   7   8
ATOM      8  C1  UNL d   1       0.096  -3.324  -1.330  0.00  0.00     0.007 C 
ATOM      9  C   UNL d   1       0.284  -4.352  -0.223  0.00  0.00     0.009 C 
ENDBRANCH   7   8
ENDBRANCH   1   7
TORSDOF 2
ENDMDL
