MODEL 1
REMARK minimizedAffinity -5.57322454
REMARK minimizedRMSD -1
REMARK  2 active torsions:
REMARK  status: ('A' for Active; 'I' for Inactive)
REMARK    1  A    between atoms: C1_2  and  C2_3 
REMARK    2  A    between atoms: C2_3  and  C3_4 
ROOT
ATOM      1  C3  UNL d   1       0.044   0.916  -0.152  0.00  0.00    -0.075 A 
ATOM      2  C4  UNL d   1      -0.057   1.035   1.242  0.00  0.00     0.002 A 
ATOM      3  C5  UNL d   1      -0.678   2.146   1.815  0.00  0.00     0.002 A 
ATOM      4  C6  UNL d   1      -1.196   3.153   1.004  0.00  0.00    -0.004 A 
ATOM      5  C7  UNL d   1      -1.087   3.053  -0.381  0.00  0.00     0.002 A 
ATOM      6  C8  UNL d   1      -0.470   1.941  -0.957  0.00  0.00     0.002 A 
ENDROOT
BRANCH   1   7
ATOM      7  C2  UNL d   1       0.689  -0.297  -0.779  0.00  0.00     0.056 C 
BRANCH   7   8
ATOM      8  C1  UNL d   1      -0.271  -1.471  -0.996  0.00  0.00     0.007 C 
ATOM      9  C   UNL d   1       0.425  -2.826  -0.983  0.00  0.00     0.009 C 
ENDBRANCH   7   8
ENDBRANCH   1   7
TORSDOF 2
ENDMDL
