MODEL 1
REMARK minimizedAffinity -4.27267838
REMARK minimizedRMSD -1
REMARK  2 active torsions:
REMARK  status: ('A' for Active; 'I' for Inactive)
REMARK    1  A    between atoms: C1_2  and  C2_3 
REMARK    2  A    between atoms: C2_3  and  C3_4 
ROOT
ATOM      1  C3  UNL d   1       0.042   0.331  -0.084  0.00  0.00    -0.075 A 
ATOM      2  C4  UNL d   1      -1.205   0.947  -0.261  0.00  0.00     0.002 A 
ATOM      3  C5  UNL d   1      -1.700   1.832   0.697  0.00  0.00     0.002 A 
ATOM      4  C6  UNL d   1      -0.961   2.105   1.846  0.00  0.00    -0.004 A 
ATOM      5  C7  UNL d   1       0.272   1.486   2.040  0.00  0.00     0.002 A 
ATOM      6  C8  UNL d   1       0.772   0.603   1.081  0.00  0.00     0.002 A 
ENDROOT
BRANCH   1   7
ATOM      7  C2  UNL d   1       0.597  -0.606  -1.131  0.00  0.00     0.056 C 
BRANCH   7   8
ATOM      8  C1  UNL d   1      -0.303  -1.809  -1.430  0.00  0.00     0.007 C 
ATOM      9  C   UNL d   1       0.364  -3.146  -1.133  0.00  0.00     0.009 C 
ENDBRANCH   7   8
ENDBRANCH   1   7
TORSDOF 2
ENDMDL
