MODEL 1
REMARK minimizedAffinity -4.76941919
REMARK minimizedRMSD -1
REMARK  2 active torsions:
REMARK  status: ('A' for Active; 'I' for Inactive)
REMARK    1  A    between atoms: C1_2  and  C2_3 
REMARK    2  A    between atoms: C2_3  and  C3_4 
ROOT
ATOM      1  C3  UNL d   1      -0.759   1.022   0.909  0.00  0.00    -0.075 A 
ATOM      2  C4  UNL d   1       0.088   0.056   1.470  0.00  0.00     0.002 A 
ATOM      3  C5  UNL d   1       0.812  -0.812   0.652  0.00  0.00     0.002 A 
ATOM      4  C6  UNL d   1       0.691  -0.732  -0.733  0.00  0.00    -0.004 A 
ATOM      5  C7  UNL d   1      -0.161   0.213  -1.301  0.00  0.00     0.002 A 
ATOM      6  C8  UNL d   1      -0.883   1.086  -0.485  0.00  0.00     0.002 A 
ENDROOT
BRANCH   1   7
ATOM      7  C2  UNL d   1      -1.522   1.984   1.788  0.00  0.00     0.056 C 
BRANCH   7   8
ATOM      8  C1  UNL d   1      -1.103   3.449   1.621  0.00  0.00     0.007 C 
ATOM      9  C   UNL d   1       0.405   3.650   1.663  0.00  0.00     0.009 C 
ENDBRANCH   7   8
ENDBRANCH   1   7
TORSDOF 2
ENDMDL
