MODEL 1
REMARK minimizedAffinity -6.12240982
REMARK minimizedRMSD -1
REMARK  0 active torsions:
REMARK  status: ('A' for Active; 'I' for Inactive)
ROOT
ATOM      1  C   UNL d   1       3.443   1.111   0.783  0.00  0.00     0.077 C 
ATOM      2  C1  UNL d   1       2.327   0.168   0.448  0.00  0.00    -0.074 A 
ATOM      3  C2  UNL d   1       2.527  -1.216   0.461  0.00  0.00    -0.005 A 
ATOM      4  C3  UNL d   1       1.476  -2.082   0.156  0.00  0.00     0.006 A 
ATOM      5  C4  UNL d   1       0.217  -1.573  -0.163  0.00  0.00    -0.005 A 
ATOM      6  C5  UNL d   1      -0.002  -0.191  -0.180  0.00  0.00    -0.074 A 
ATOM      7  C6  UNL d   1      -1.352   0.372  -0.512  0.00  0.00     0.077 C 
ATOM      8  C7  UNL d   1       1.057   0.671   0.134  0.00  0.00    -0.001 A 
ENDROOT
TORSDOF 0
ENDMDL
