MODEL 1
REMARK minimizedAffinity -2.93498874
REMARK minimizedRMSD -1
REMARK  0 active torsions:
REMARK  status: ('A' for Active; 'I' for Inactive)
ROOT
ATOM      1  C   UNL d   1       0.519   2.800   0.284  0.00  0.00     0.077 C 
ATOM      2  C1  UNL d   1       0.531   1.306   0.155  0.00  0.00    -0.074 A 
ATOM      3  C2  UNL d   1      -0.450   0.641  -0.588  0.00  0.00    -0.005 A 
ATOM      4  C3  UNL d   1      -0.421  -0.748  -0.708  0.00  0.00     0.006 A 
ATOM      5  C4  UNL d   1       0.588  -1.485  -0.087  0.00  0.00    -0.005 A 
ATOM      6  C5  UNL d   1       1.578  -0.838   0.659  0.00  0.00    -0.074 A 
ATOM      7  C6  UNL d   1       2.675  -1.615   1.325  0.00  0.00     0.077 C 
ATOM      8  C7  UNL d   1       1.545   0.559   0.769  0.00  0.00    -0.001 A 
ENDROOT
TORSDOF 0
ENDMDL
