MODEL 1
REMARK minimizedAffinity -5.83192253
REMARK minimizedRMSD -1
REMARK  0 active torsions:
REMARK  status: ('A' for Active; 'I' for Inactive)
ROOT
ATOM      1  C   UNL d   1       3.407  -1.907   0.504  0.00  0.00     0.077 C 
ATOM      2  C1  UNL d   1       2.531  -0.692   0.425  0.00  0.00    -0.074 A 
ATOM      3  C2  UNL d   1       3.074   0.593   0.524  0.00  0.00    -0.005 A 
ATOM      4  C3  UNL d   1       2.248   1.714   0.439  0.00  0.00     0.006 A 
ATOM      5  C4  UNL d   1       0.873   1.561   0.255  0.00  0.00    -0.005 A 
ATOM      6  C5  UNL d   1       0.313   0.284   0.153  0.00  0.00    -0.074 A 
ATOM      7  C6  UNL d   1      -1.162   0.103  -0.055  0.00  0.00     0.077 C 
ATOM      8  C7  UNL d   1       1.150  -0.837   0.232  0.00  0.00    -0.001 A 
ENDROOT
TORSDOF 0
ENDMDL
