MODEL 1
REMARK minimizedAffinity -5.50936127
REMARK minimizedRMSD -1
REMARK  0 active torsions:
REMARK  status: ('A' for Active; 'I' for Inactive)
ROOT
ATOM      1  C   UNL d   1      -1.237   0.693   0.149  0.00  0.00     0.077 C 
ATOM      2  C1  UNL d   1       0.251   0.647   0.331  0.00  0.00    -0.074 A 
ATOM      3  C2  UNL d   1       0.991   1.822   0.503  0.00  0.00    -0.005 A 
ATOM      4  C3  UNL d   1       2.373   1.762   0.681  0.00  0.00     0.006 A 
ATOM      5  C4  UNL d   1       3.029   0.531   0.687  0.00  0.00    -0.005 A 
ATOM      6  C5  UNL d   1       2.306  -0.654   0.517  0.00  0.00    -0.074 A 
ATOM      7  C6  UNL d   1       2.993  -1.987   0.532  0.00  0.00     0.077 C 
ATOM      8  C7  UNL d   1       0.916  -0.587   0.346  0.00  0.00    -0.001 A 
ENDROOT
TORSDOF 0
ENDMDL
