MODEL 1
REMARK minimizedAffinity -2.05254531
REMARK minimizedRMSD -1
REMARK  0 active torsions:
REMARK  status: ('A' for Active; 'I' for Inactive)
ROOT
ATOM      1  C   UNL d   1       2.540  -0.834   1.483  0.00  0.00     0.077 C 
ATOM      2  C1  UNL d   1       1.621   0.157   0.832  0.00  0.00    -0.074 A 
ATOM      3  C2  UNL d   1       2.037   1.470   0.589  0.00  0.00    -0.005 A 
ATOM      4  C3  UNL d   1       1.175   2.378  -0.026  0.00  0.00     0.006 A 
ATOM      5  C4  UNL d   1      -0.109   1.983  -0.403  0.00  0.00    -0.005 A 
ATOM      6  C5  UNL d   1      -0.542   0.674  -0.168  0.00  0.00    -0.074 A 
ATOM      7  C6  UNL d   1      -1.915   0.230  -0.576  0.00  0.00     0.077 C 
ATOM      8  C7  UNL d   1       0.333  -0.234   0.443  0.00  0.00    -0.001 A 
ENDROOT
TORSDOF 0
ENDMDL
