MODEL 1
REMARK minimizedAffinity -3.77753258
REMARK minimizedRMSD -1
REMARK  0 active torsions:
REMARK  status: ('A' for Active; 'I' for Inactive)
ROOT
ATOM      1  C   UNL d   1      -0.602   1.881  -0.190  0.00  0.00     0.077 C 
ATOM      2  C1  UNL d   1      -0.050   0.486  -0.178  0.00  0.00    -0.074 A 
ATOM      3  C2  UNL d   1      -0.753  -0.571  -0.766  0.00  0.00    -0.005 A 
ATOM      4  C3  UNL d   1      -0.222  -1.861  -0.754  0.00  0.00     0.006 A 
ATOM      5  C4  UNL d   1       1.014  -2.107  -0.156  0.00  0.00    -0.005 A 
ATOM      6  C5  UNL d   1       1.732  -1.062   0.436  0.00  0.00    -0.074 A 
ATOM      7  C6  UNL d   1       3.066  -1.308   1.075  0.00  0.00     0.077 C 
ATOM      8  C7  UNL d   1       1.195   0.232   0.415  0.00  0.00    -0.001 A 
ENDROOT
TORSDOF 0
ENDMDL
