MODEL 1
REMARK minimizedAffinity -4.28507185
REMARK minimizedRMSD -1
REMARK  0 active torsions:
REMARK  status: ('A' for Active; 'I' for Inactive)
ROOT
ATOM      1  C   UNL d   1       0.580  -1.935   0.060  0.00  0.00     0.078 C 
ATOM      2  C1  UNL d   1      -0.576  -2.725  -0.478  0.00  0.00    -0.077 A 
ATOM      3  C2  UNL d   1      -0.694  -2.987  -1.848  0.00  0.00    -0.001 A 
ATOM      4  C3  UNL d   1      -1.780  -3.716  -2.336  0.00  0.00     0.003 A 
ATOM      5  C4  UNL d   1      -2.756  -4.188  -1.460  0.00  0.00    -0.005 A 
ATOM      6  C5  UNL d   1      -2.648  -3.930  -0.095  0.00  0.00     0.003 A 
ATOM      7  C6  UNL d   1      -1.562  -3.201   0.395  0.00  0.00    -0.001 A 
ENDROOT
TORSDOF 0
ENDMDL
