MODEL 1
REMARK minimizedAffinity 0.253967941
REMARK minimizedRMSD -1
REMARK  0 active torsions:
REMARK  status: ('A' for Active; 'I' for Inactive)
ROOT
ATOM      1  C   UNL d   1       5.986  -5.154   5.727  0.00  0.00     0.078 C 
ATOM      2  C1  UNL d   1       5.976  -3.770   5.149  0.00  0.00    -0.077 A 
ATOM      3  C2  UNL d   1       5.999  -3.567   3.764  0.00  0.00    -0.001 A 
ATOM      4  C3  UNL d   1       5.999  -2.273   3.240  0.00  0.00     0.003 A 
ATOM      5  C4  UNL d   1       5.977  -1.172   4.094  0.00  0.00    -0.005 A 
ATOM      6  C5  UNL d   1       5.956  -1.365   5.474  0.00  0.00     0.003 A 
ATOM      7  C6  UNL d   1       5.956  -2.658   6.000  0.00  0.00    -0.001 A 
ENDROOT
TORSDOF 0
ENDMDL
