MODEL 1
REMARK minimizedAffinity -2.00013995
REMARK minimizedRMSD -1
REMARK  0 active torsions:
REMARK  status: ('A' for Active; 'I' for Inactive)
ROOT
ATOM      1  C   UNL d   1       0.261  -0.634  -2.472  0.00  0.00     0.078 C 
ATOM      2  C1  UNL d   1      -0.186  -0.711  -1.043  0.00  0.00    -0.077 A 
ATOM      3  C2  UNL d   1      -0.053   0.389  -0.186  0.00  0.00    -0.001 A 
ATOM      4  C3  UNL d   1      -0.464   0.300   1.145  0.00  0.00     0.003 A 
ATOM      5  C4  UNL d   1      -1.010  -0.886   1.631  0.00  0.00    -0.005 A 
ATOM      6  C5  UNL d   1      -1.144  -1.986   0.787  0.00  0.00     0.003 A 
ATOM      7  C6  UNL d   1      -0.733  -1.900  -0.544  0.00  0.00    -0.001 A 
ENDROOT
TORSDOF 0
ENDMDL
