MODEL 1
REMARK minimizedAffinity -2.61736512
REMARK minimizedRMSD -1
REMARK  0 active torsions:
REMARK  status: ('A' for Active; 'I' for Inactive)
ROOT
ATOM      1  C   UNL d   1       0.198   1.640  -0.068  0.00  0.00     0.078 C 
ATOM      2  C1  UNL d   1      -0.147   0.202   0.180  0.00  0.00    -0.077 A 
ATOM      3  C2  UNL d   1       0.207  -0.793  -0.739  0.00  0.00    -0.001 A 
ATOM      4  C3  UNL d   1      -0.130  -2.127  -0.499  0.00  0.00     0.003 A 
ATOM      5  C4  UNL d   1      -0.823  -2.477   0.658  0.00  0.00    -0.005 A 
ATOM      6  C5  UNL d   1      -1.181  -1.493   1.577  0.00  0.00     0.003 A 
ATOM      7  C6  UNL d   1      -0.846  -0.159   1.339  0.00  0.00    -0.001 A 
ENDROOT
TORSDOF 0
ENDMDL
