MODEL 1
REMARK minimizedAffinity -2.54282236
REMARK minimizedRMSD -1
REMARK  0 active torsions:
REMARK  status: ('A' for Active; 'I' for Inactive)
ROOT
ATOM      1  C   UNL d   1       0.440   1.682   0.414  0.00  0.00     0.078 C 
ATOM      2  C1  UNL d   1      -0.013   0.258   0.284  0.00  0.00    -0.077 A 
ATOM      3  C2  UNL d   1      -0.553  -0.430   1.377  0.00  0.00    -0.001 A 
ATOM      4  C3  UNL d   1      -0.961  -1.758   1.243  0.00  0.00     0.003 A 
ATOM      5  C4  UNL d   1      -0.832  -2.410   0.019  0.00  0.00    -0.005 A 
ATOM      6  C5  UNL d   1      -0.293  -1.734  -1.074  0.00  0.00     0.003 A 
ATOM      7  C6  UNL d   1       0.116  -0.406  -0.942  0.00  0.00    -0.001 A 
ENDROOT
TORSDOF 0
ENDMDL
