MODEL 1
REMARK minimizedAffinity -3.45388055
REMARK minimizedRMSD -1
REMARK  0 active torsions:
REMARK  status: ('A' for Active; 'I' for Inactive)
ROOT
ATOM      1  C   UNL d   1      -0.020  -0.108  -0.027  0.00  0.00     0.078 C 
ATOM      2  C1  UNL d   1       0.732   1.140   0.331  0.00  0.00    -0.077 A 
ATOM      3  C2  UNL d   1       2.107   1.104   0.589  0.00  0.00    -0.001 A 
ATOM      4  C3  UNL d   1       2.792   2.272   0.931  0.00  0.00     0.003 A 
ATOM      5  C4  UNL d   1       2.109   3.483   1.019  0.00  0.00    -0.005 A 
ATOM      6  C5  UNL d   1       0.739   3.528   0.766  0.00  0.00     0.003 A 
ATOM      7  C6  UNL d   1       0.053   2.361   0.424  0.00  0.00    -0.001 A 
ENDROOT
TORSDOF 0
ENDMDL
