MODEL 1
REMARK minimizedAffinity -3.67721939
REMARK minimizedRMSD -1
REMARK  0 active torsions:
REMARK  status: ('A' for Active; 'I' for Inactive)
ROOT
ATOM      1  C   UNL d   1       0.515   1.545   0.317  0.00  0.00     0.078 C 
ATOM      2  C1  UNL d   1       0.004   0.136   0.254  0.00  0.00    -0.077 A 
ATOM      3  C2  UNL d   1      -0.671  -0.435   1.339  0.00  0.00    -0.001 A 
ATOM      4  C3  UNL d   1      -1.132  -1.751   1.270  0.00  0.00     0.003 A 
ATOM      5  C4  UNL d   1      -0.922  -2.506   0.118  0.00  0.00    -0.005 A 
ATOM      6  C5  UNL d   1      -0.249  -1.947  -0.966  0.00  0.00     0.003 A 
ATOM      7  C6  UNL d   1       0.213  -0.631  -0.899  0.00  0.00    -0.001 A 
ENDROOT
TORSDOF 0
ENDMDL
