MODEL 1
REMARK minimizedAffinity -5.45321703
REMARK minimizedRMSD -1
REMARK  0 active torsions:
REMARK  status: ('A' for Active; 'I' for Inactive)
ROOT
ATOM      1  C   UNL d   1       0.012   0.017  -0.010  0.00  0.00     0.078 C 
ATOM      2  C1  UNL d   1       0.083  -1.393  -0.516  0.00  0.00    -0.077 A 
ATOM      3  C2  UNL d   1       0.205  -1.662  -1.885  0.00  0.00    -0.001 A 
ATOM      4  C3  UNL d   1       0.261  -2.979  -2.343  0.00  0.00     0.003 A 
ATOM      5  C4  UNL d   1       0.194  -4.038  -1.439  0.00  0.00    -0.005 A 
ATOM      6  C5  UNL d   1       0.070  -3.780  -0.076  0.00  0.00     0.003 A 
ATOM      7  C6  UNL d   1       0.015  -2.463   0.384  0.00  0.00    -0.001 A 
ENDROOT
TORSDOF 0
ENDMDL
