MODEL 1
REMARK minimizedAffinity -4.04476118
REMARK minimizedRMSD -1
REMARK  0 active torsions:
REMARK  status: ('A' for Active; 'I' for Inactive)
ROOT
ATOM      1  C   UNL d   1      -0.294  -2.669  -2.625  0.00  0.00     0.078 C 
ATOM      2  C1  UNL d   1      -0.418  -1.991  -1.293  0.00  0.00    -0.077 A 
ATOM      3  C2  UNL d   1      -0.129  -0.629  -1.148  0.00  0.00    -0.001 A 
ATOM      4  C3  UNL d   1      -0.240  -0.013   0.100  0.00  0.00     0.003 A 
ATOM      5  C4  UNL d   1      -0.638  -0.752   1.212  0.00  0.00    -0.005 A 
ATOM      6  C5  UNL d   1      -0.925  -2.109   1.078  0.00  0.00     0.003 A 
ATOM      7  C6  UNL d   1      -0.815  -2.726  -0.169  0.00  0.00    -0.001 A 
ENDROOT
TORSDOF 0
ENDMDL
