MODEL 1
REMARK minimizedAffinity -6.23963022
REMARK minimizedRMSD -1
REMARK  0 active torsions:
REMARK  status: ('A' for Active; 'I' for Inactive)
ROOT
ATOM      1  C   UNL d   1       0.854   0.211   0.349  0.00  0.00     0.078 C 
ATOM      2  C1  UNL d   1       0.491  -1.081  -0.320  0.00  0.00    -0.077 A 
ATOM      3  C2  UNL d   1       0.358  -1.159  -1.712  0.00  0.00    -0.001 A 
ATOM      4  C3  UNL d   1       0.009  -2.365  -2.321  0.00  0.00     0.003 A 
ATOM      5  C4  UNL d   1      -0.211  -3.502  -1.547  0.00  0.00    -0.005 A 
ATOM      6  C5  UNL d   1      -0.083  -3.434  -0.161  0.00  0.00     0.003 A 
ATOM      7  C6  UNL d   1       0.265  -2.228   0.450  0.00  0.00    -0.001 A 
ENDROOT
TORSDOF 0
ENDMDL
