MODEL 1
REMARK minimizedAffinity -3.71798873
REMARK minimizedRMSD -1
REMARK  0 active torsions:
REMARK  status: ('A' for Active; 'I' for Inactive)
ROOT
ATOM      1  C   UNL d   1       0.742   1.601   0.324  0.00  0.00     0.078 C 
ATOM      2  C1  UNL d   1      -0.016   0.345   0.634  0.00  0.00    -0.077 A 
ATOM      3  C2  UNL d   1      -0.225  -0.064   1.957  0.00  0.00    -0.001 A 
ATOM      4  C3  UNL d   1      -0.924  -1.241   2.231  0.00  0.00     0.003 A 
ATOM      5  C4  UNL d   1      -1.418  -2.020   1.186  0.00  0.00    -0.005 A 
ATOM      6  C5  UNL d   1      -1.213  -1.623  -0.133  0.00  0.00     0.003 A 
ATOM      7  C6  UNL d   1      -0.514  -0.446  -0.409  0.00  0.00    -0.001 A 
ENDROOT
TORSDOF 0
ENDMDL
