MODEL 1
REMARK minimizedAffinity -3.84940314
REMARK minimizedRMSD -1
REMARK  0 active torsions:
REMARK  status: ('A' for Active; 'I' for Inactive)
ROOT
ATOM      1  C   UNL d   1      -0.696  -2.649  -2.627  0.00  0.00     0.078 C 
ATOM      2  C1  UNL d   1      -0.656  -2.073  -1.243  0.00  0.00    -0.077 A 
ATOM      3  C2  UNL d   1      -0.254  -0.749  -1.024  0.00  0.00    -0.001 A 
ATOM      4  C3  UNL d   1      -0.213  -0.229   0.271  0.00  0.00     0.003 A 
ATOM      5  C4  UNL d   1      -0.571  -1.026   1.357  0.00  0.00    -0.005 A 
ATOM      6  C5  UNL d   1      -0.970  -2.345   1.149  0.00  0.00     0.003 A 
ATOM      7  C6  UNL d   1      -1.012  -2.866  -0.145  0.00  0.00    -0.001 A 
ENDROOT
TORSDOF 0
ENDMDL
