MODEL 1
REMARK minimizedAffinity -2.99424314
REMARK minimizedRMSD -1
REMARK  0 active torsions:
REMARK  status: ('A' for Active; 'I' for Inactive)
ROOT
ATOM      1  C   UNL d   1       1.527   2.821   0.707  0.00  0.00     0.078 C 
ATOM      2  C1  UNL d   1       0.610   1.696   0.330  0.00  0.00    -0.077 A 
ATOM      3  C2  UNL d   1       0.094   0.830   1.301  0.00  0.00    -0.001 A 
ATOM      4  C3  UNL d   1      -0.751  -0.219   0.935  0.00  0.00     0.003 A 
ATOM      5  C4  UNL d   1      -1.086  -0.412  -0.404  0.00  0.00    -0.005 A 
ATOM      6  C5  UNL d   1      -0.576   0.443  -1.378  0.00  0.00     0.003 A 
ATOM      7  C6  UNL d   1       0.269   1.493  -1.013  0.00  0.00    -0.001 A 
ENDROOT
TORSDOF 0
ENDMDL
