MODEL 1
REMARK minimizedAffinity -4.75629807
REMARK minimizedRMSD -1
REMARK  1 active torsions:
REMARK  status: ('A' for Active; 'I' for Inactive)
REMARK    1  A    between atoms: C1_2  and  C2_3 
ROOT
ATOM      1  C2  UNL d   1      -1.179  -2.693  -0.505  0.00  0.00    -0.076 A 
ATOM      2  C3  UNL d   1      -0.674  -3.848  -1.128  0.00  0.00     0.004 A 
ATOM      3  C4  UNL d   1       0.619  -3.876  -1.647  0.00  0.00    -0.003 A 
ATOM      4  C5  UNL d   1       1.430  -2.750  -1.549  0.00  0.00     0.000 A 
ATOM      5  C6  UNL d   1       0.952  -1.602  -0.919  0.00  0.00     0.000 A 
ATOM      6  C7  UNL d   1      -0.344  -1.562  -0.376  0.00  0.00    -0.073 A 
ATOM      7  C8  UNL d   1      -0.810  -0.296   0.288  0.00  0.00     0.078 C 
ENDROOT
BRANCH   1   8
ATOM      8  C1  UNL d   1      -2.599  -2.712   0.015  0.00  0.00     0.053 C 
ATOM      9  C   UNL d   1      -3.534  -3.517  -0.875  0.00  0.00     0.018 C 
ENDBRANCH   1   8
TORSDOF 1
ENDMDL
