MODEL 1
REMARK minimizedAffinity -2.82779741
REMARK minimizedRMSD -1
REMARK  1 active torsions:
REMARK  status: ('A' for Active; 'I' for Inactive)
REMARK    1  A    between atoms: C1_2  and  C2_3 
ROOT
ATOM      1  C2  UNL d   1      -0.288   0.150   0.015  0.00  0.00    -0.076 A 
ATOM      2  C3  UNL d   1      -0.940   0.032   1.255  0.00  0.00     0.004 A 
ATOM      3  C4  UNL d   1      -1.256  -1.219   1.783  0.00  0.00    -0.003 A 
ATOM      4  C5  UNL d   1      -0.927  -2.372   1.079  0.00  0.00     0.000 A 
ATOM      5  C6  UNL d   1      -0.265  -2.274  -0.144  0.00  0.00     0.000 A 
ATOM      6  C7  UNL d   1       0.076  -1.021  -0.683  0.00  0.00    -0.073 A 
ATOM      7  C8  UNL d   1       0.785  -0.974  -2.009  0.00  0.00     0.078 C 
ENDROOT
BRANCH   1   8
ATOM      8  C1  UNL d   1       0.005   1.533  -0.520  0.00  0.00     0.053 C 
ATOM      9  C   UNL d   1       0.740   2.404   0.488  0.00  0.00     0.018 C 
ENDBRANCH   1   8
TORSDOF 1
ENDMDL
