MODEL 1
REMARK minimizedAffinity -4.78232718
REMARK minimizedRMSD -1
REMARK  1 active torsions:
REMARK  status: ('A' for Active; 'I' for Inactive)
REMARK    1  A    between atoms: C1_2  and  C2_3 
ROOT
ATOM      1  C2  UNL d   1      -0.204   0.003  -0.333  0.00  0.00    -0.076 A 
ATOM      2  C3  UNL d   1      -0.724  -0.174   0.961  0.00  0.00     0.004 A 
ATOM      3  C4  UNL d   1      -0.791  -1.440   1.541  0.00  0.00    -0.003 A 
ATOM      4  C5  UNL d   1      -0.336  -2.549   0.836  0.00  0.00     0.000 A 
ATOM      5  C6  UNL d   1       0.200  -2.390  -0.441  0.00  0.00     0.000 A 
ATOM      6  C7  UNL d   1       0.289  -1.118  -1.034  0.00  0.00    -0.073 A 
ATOM      7  C8  UNL d   1       0.870  -1.005  -2.416  0.00  0.00     0.078 C 
ENDROOT
BRANCH   1   8
ATOM      8  C1  UNL d   1      -0.182   1.396  -0.920  0.00  0.00     0.053 C 
ATOM      9  C   UNL d   1       0.557   2.390  -0.037  0.00  0.00     0.018 C 
ENDBRANCH   1   8
TORSDOF 1
ENDMDL
