MODEL 1
REMARK minimizedAffinity -5.43027401
REMARK minimizedRMSD -1
REMARK  1 active torsions:
REMARK  status: ('A' for Active; 'I' for Inactive)
REMARK    1  A    between atoms: C1_2  and  C2_3 
ROOT
ATOM      1  C2  UNL d   1      -0.502  -0.237  -0.315  0.00  0.00    -0.076 A 
ATOM      2  C3  UNL d   1       0.176  -1.055  -1.235  0.00  0.00     0.004 A 
ATOM      3  C4  UNL d   1       0.249  -2.435  -1.051  0.00  0.00    -0.003 A 
ATOM      4  C5  UNL d   1      -0.357  -3.019   0.056  0.00  0.00     0.000 A 
ATOM      5  C6  UNL d   1      -1.049  -2.225   0.969  0.00  0.00     0.000 A 
ATOM      6  C7  UNL d   1      -1.145  -0.834   0.790  0.00  0.00    -0.073 A 
ATOM      7  C8  UNL d   1      -1.899  -0.025   1.810  0.00  0.00     0.078 C 
ENDROOT
BRANCH   1   8
ATOM      8  C1  UNL d   1      -0.524   1.256  -0.553  0.00  0.00     0.053 C 
ATOM      9  C   UNL d   1       0.710   1.952  -0.000  0.00  0.00     0.018 C 
ENDBRANCH   1   8
TORSDOF 1
ENDMDL
