MODEL 1
REMARK minimizedAffinity -4.58906555
REMARK minimizedRMSD -1
REMARK  1 active torsions:
REMARK  status: ('A' for Active; 'I' for Inactive)
REMARK    1  A    between atoms: C1_2  and  C2_3 
ROOT
ATOM      1  C2  UNL d   1      -0.025  -0.581  -0.037  0.00  0.00    -0.076 A 
ATOM      2  C3  UNL d   1      -0.532  -0.829   1.250  0.00  0.00     0.004 A 
ATOM      3  C4  UNL d   1      -0.647  -2.130   1.737  0.00  0.00    -0.003 A 
ATOM      4  C5  UNL d   1      -0.255  -3.204   0.945  0.00  0.00     0.000 A 
ATOM      5  C6  UNL d   1       0.267  -2.975  -0.327  0.00  0.00     0.000 A 
ATOM      6  C7  UNL d   1       0.405  -1.668  -0.827  0.00  0.00    -0.073 A 
ATOM      7  C8  UNL d   1       0.969  -1.480  -2.209  0.00  0.00     0.078 C 
ENDROOT
BRANCH   1   8
ATOM      8  C1  UNL d   1       0.051   0.850  -0.522  0.00  0.00     0.053 C 
ATOM      9  C   UNL d   1       0.969   1.708   0.335  0.00  0.00     0.018 C 
ENDBRANCH   1   8
TORSDOF 1
ENDMDL
