MODEL 1
REMARK minimizedAffinity -5.27794886
REMARK minimizedRMSD -1
REMARK  1 active torsions:
REMARK  status: ('A' for Active; 'I' for Inactive)
REMARK    1  A    between atoms: C1_2  and  C2_3 
ROOT
ATOM      1  C2  UNL d   1       0.089  -0.026   0.141  0.00  0.00    -0.076 A 
ATOM      2  C3  UNL d   1       0.611  -0.618  -1.022  0.00  0.00     0.004 A 
ATOM      3  C4  UNL d   1       0.654  -2.004  -1.164  0.00  0.00    -0.003 A 
ATOM      4  C5  UNL d   1       0.176  -2.821  -0.145  0.00  0.00     0.000 A 
ATOM      5  C6  UNL d   1      -0.361  -2.250   1.008  0.00  0.00     0.000 A 
ATOM      6  C7  UNL d   1      -0.428  -0.855   1.160  0.00  0.00    -0.073 A 
ATOM      7  C8  UNL d   1      -1.012  -0.294   2.428  0.00  0.00     0.078 C 
ENDROOT
BRANCH   1   8
ATOM      8  C1  UNL d   1       0.092   1.482   0.250  0.00  0.00     0.053 C 
ATOM      9  C   UNL d   1       1.493   2.069   0.168  0.00  0.00     0.018 C 
ENDBRANCH   1   8
TORSDOF 1
ENDMDL
