MODEL 1
REMARK minimizedAffinity -5.56978989
REMARK minimizedRMSD -1
REMARK  1 active torsions:
REMARK  status: ('A' for Active; 'I' for Inactive)
REMARK    1  A    between atoms: C1_2  and  C2_3 
ROOT
ATOM      1  C2  UNL d   1       0.050  -0.598  -0.136  0.00  0.00    -0.076 A 
ATOM      2  C3  UNL d   1       0.989  -1.598  -0.447  0.00  0.00     0.004 A 
ATOM      3  C4  UNL d   1       0.998  -2.811   0.239  0.00  0.00    -0.003 A 
ATOM      4  C5  UNL d   1       0.069  -3.045   1.247  0.00  0.00     0.000 A 
ATOM      5  C6  UNL d   1      -0.880  -2.072   1.556  0.00  0.00     0.000 A 
ATOM      6  C7  UNL d   1      -0.914  -0.850   0.864  0.00  0.00    -0.073 A 
ATOM      7  C8  UNL d   1      -1.956   0.167   1.243  0.00  0.00     0.078 C 
ENDROOT
BRANCH   1   8
ATOM      8  C1  UNL d   1       0.105   0.708  -0.895  0.00  0.00     0.053 C 
ATOM      9  C   UNL d   1       0.950   1.757  -0.189  0.00  0.00     0.018 C 
ENDBRANCH   1   8
TORSDOF 1
ENDMDL
