MODEL 1
REMARK minimizedAffinity -2.88887668
REMARK minimizedRMSD -1
REMARK  1 active torsions:
REMARK  status: ('A' for Active; 'I' for Inactive)
REMARK    1  A    between atoms: C1_2  and  C2_3 
ROOT
ATOM      1  C2  UNL d   1      -0.097  -0.339   0.154  0.00  0.00    -0.076 A 
ATOM      2  C3  UNL d   1       0.198  -0.971  -1.067  0.00  0.00     0.004 A 
ATOM      3  C4  UNL d   1       0.318  -2.357  -1.147  0.00  0.00    -0.003 A 
ATOM      4  C5  UNL d   1       0.145  -3.135  -0.007  0.00  0.00     0.000 A 
ATOM      5  C6  UNL d   1      -0.165  -2.526   1.209  0.00  0.00     0.000 A 
ATOM      6  C7  UNL d   1      -0.306  -1.131   1.303  0.00  0.00    -0.073 A 
ATOM      7  C8  UNL d   1      -0.635  -0.528   2.641  0.00  0.00     0.078 C 
ENDROOT
BRANCH   1   8
ATOM      8  C1  UNL d   1      -0.188   1.170   0.185  0.00  0.00     0.053 C 
ATOM      9  C   UNL d   1       1.102   1.822   0.659  0.00  0.00     0.018 C 
ENDBRANCH   1   8
TORSDOF 1
ENDMDL
