MODEL 1
REMARK minimizedAffinity -4.85577631
REMARK minimizedRMSD -1
REMARK  1 active torsions:
REMARK  status: ('A' for Active; 'I' for Inactive)
REMARK    1  A    between atoms: C1_2  and  C2_3 
ROOT
ATOM      1  C2  UNL d   1      -0.026  -0.025   0.107  0.00  0.00    -0.076 A 
ATOM      2  C3  UNL d   1       0.999  -0.778  -0.493  0.00  0.00     0.004 A 
ATOM      3  C4  UNL d   1       1.125  -2.144  -0.244  0.00  0.00    -0.003 A 
ATOM      4  C5  UNL d   1       0.228  -2.779   0.608  0.00  0.00     0.000 A 
ATOM      5  C6  UNL d   1      -0.805  -2.051   1.197  0.00  0.00     0.000 A 
ATOM      6  C7  UNL d   1      -0.956  -0.677   0.944  0.00  0.00    -0.073 A 
ATOM      7  C8  UNL d   1      -2.085   0.060   1.612  0.00  0.00     0.078 C 
ENDROOT
BRANCH   1   8
ATOM      8  C1  UNL d   1      -0.096   1.458  -0.179  0.00  0.00     0.053 C 
ATOM      9  C   UNL d   1       1.224   2.165   0.083  0.00  0.00     0.018 C 
ENDBRANCH   1   8
TORSDOF 1
ENDMDL
