MODEL 1
REMARK minimizedAffinity -4.61040497
REMARK minimizedRMSD -1
REMARK  1 active torsions:
REMARK  status: ('A' for Active; 'I' for Inactive)
REMARK    1  A    between atoms: C1_2  and  C2_3 
ROOT
ATOM      1  C2  UNL d   1      -0.675  -0.775  -0.556  0.00  0.00    -0.076 A 
ATOM      2  C3  UNL d   1      -0.008  -0.328  -1.710  0.00  0.00     0.004 A 
ATOM      3  C4  UNL d   1       0.346  -1.217  -2.723  0.00  0.00    -0.003 A 
ATOM      4  C5  UNL d   1       0.039  -2.567  -2.600  0.00  0.00     0.000 A 
ATOM      5  C6  UNL d   1      -0.638  -3.025  -1.470  0.00  0.00     0.000 A 
ATOM      6  C7  UNL d   1      -1.017  -2.140  -0.446  0.00  0.00    -0.073 A 
ATOM      7  C8  UNL d   1      -1.740  -2.689   0.753  0.00  0.00     0.078 C 
ENDROOT
BRANCH   1   8
ATOM      8  C1  UNL d   1      -1.010   0.231   0.522  0.00  0.00     0.053 C 
ATOM      9  C   UNL d   1       0.167   1.130   0.867  0.00  0.00     0.018 C 
ENDBRANCH   1   8
TORSDOF 1
ENDMDL
