MODEL 1
REMARK minimizedAffinity -3.90615773
REMARK minimizedRMSD -1
REMARK  1 active torsions:
REMARK  status: ('A' for Active; 'I' for Inactive)
REMARK    1  A    between atoms: C1_2  and  C2_3 
ROOT
ATOM      1  C2  UNL d   1      -0.507  -0.457  -0.597  0.00  0.00    -0.076 A 
ATOM      2  C3  UNL d   1      -0.016   0.019  -1.825  0.00  0.00     0.004 A 
ATOM      3  C4  UNL d   1       0.198  -0.847  -2.896  0.00  0.00    -0.003 A 
ATOM      4  C5  UNL d   1      -0.075  -2.203  -2.757  0.00  0.00     0.000 A 
ATOM      5  C6  UNL d   1      -0.578  -2.690  -1.551  0.00  0.00     0.000 A 
ATOM      6  C7  UNL d   1      -0.816  -1.828  -0.466  0.00  0.00    -0.073 A 
ATOM      7  C8  UNL d   1      -1.354  -2.409   0.813  0.00  0.00     0.078 C 
ENDROOT
BRANCH   1   8
ATOM      8  C1  UNL d   1      -0.694   0.524   0.538  0.00  0.00     0.053 C 
ATOM      9  C   UNL d   1       0.251   1.712   0.443  0.00  0.00     0.018 C 
ENDBRANCH   1   8
TORSDOF 1
ENDMDL
