MODEL 1
REMARK minimizedAffinity 0.811896145
REMARK minimizedRMSD -1
REMARK  0 active torsions:
REMARK  status: ('A' for Active; 'I' for Inactive)
ROOT
ATOM      1  C2' OXE d   1       0.724   4.195  -1.206  0.00  0.00     0.078 C 
ATOM      2  C1' OXE d   1       1.210   2.410  -3.317  0.00  0.00     0.078 C 
ATOM      3  C1  OXE d   1       1.136   1.845  -1.921  0.00  0.00    -0.078 A 
ATOM      4  C2  OXE d   1       0.944   2.732  -0.889  0.00  0.00    -0.078 A 
ATOM      5  C3  OXE d   1       0.814   2.257   0.413  0.00  0.00     0.003 A 
ATOM      6  C4  OXE d   1       1.029   0.903   0.699  0.00  0.00    -0.002 A 
ATOM      7  C5  OXE d   1       1.265  -0.012  -0.333  0.00  0.00    -0.002 A 
ATOM      8  C6  OXE d   1       1.279   0.435  -1.650  0.00  0.00     0.003 A 
ENDROOT
TORSDOF 0
ENDMDL
