MODEL 1
REMARK minimizedAffinity -4.87430668
REMARK minimizedRMSD -1
REMARK  0 active torsions:
REMARK  status: ('A' for Active; 'I' for Inactive)
ROOT
ATOM      1  C2' OXE d   1       1.689   4.009  -0.765  0.00  0.00     0.078 C 
ATOM      2  C1' OXE d   1       1.113   2.407   1.467  0.00  0.00     0.078 C 
ATOM      3  C1  OXE d   1       1.166   1.738   0.116  0.00  0.00    -0.078 A 
ATOM      4  C2  OXE d   1       1.402   2.538  -0.977  0.00  0.00    -0.078 A 
ATOM      5  C3  OXE d   1       1.516   1.964  -2.240  0.00  0.00     0.003 A 
ATOM      6  C4  OXE d   1       1.240   0.604  -2.428  0.00  0.00    -0.002 A 
ATOM      7  C5  OXE d   1       0.958  -0.221  -1.334  0.00  0.00    -0.002 A 
ATOM      8  C6  OXE d   1       0.959   0.321  -0.053  0.00  0.00     0.003 A 
ENDROOT
TORSDOF 0
ENDMDL
