MODEL 1
REMARK minimizedAffinity -5.3272171
REMARK minimizedRMSD -1
REMARK  0 active torsions:
REMARK  status: ('A' for Active; 'I' for Inactive)
ROOT
ATOM      1  C2' OXE d   1       1.516   3.280  -1.513  0.00  0.00     0.078 C 
ATOM      2  C1' OXE d   1       1.180   2.292   1.094  0.00  0.00     0.078 C 
ATOM      3  C1  OXE d   1       1.180   1.298  -0.041  0.00  0.00    -0.078 A 
ATOM      4  C2  OXE d   1       1.298   1.795  -1.317  0.00  0.00    -0.078 A 
ATOM      5  C3  OXE d   1       1.358   0.917  -2.395  0.00  0.00     0.003 A 
ATOM      6  C4  OXE d   1       1.146  -0.454  -2.206  0.00  0.00    -0.002 A 
ATOM      7  C5  OXE d   1       0.984  -0.977  -0.919  0.00  0.00    -0.002 A 
ATOM      8  C6  OXE d   1       1.041  -0.121   0.176  0.00  0.00     0.003 A 
ENDROOT
TORSDOF 0
ENDMDL
