MODEL 1
REMARK minimizedAffinity -0.825551152
REMARK minimizedRMSD -1
REMARK  0 active torsions:
REMARK  status: ('A' for Active; 'I' for Inactive)
ROOT
ATOM      1  C2' OXE d   1       0.780   3.262   0.662  0.00  0.00     0.078 C 
ATOM      2  C1' OXE d   1       1.466   0.936   2.077  0.00  0.00     0.078 C 
ATOM      3  C1  OXE d   1       1.676   0.938   0.584  0.00  0.00    -0.078 A 
ATOM      4  C2  OXE d   1       1.294   2.063  -0.107  0.00  0.00    -0.078 A 
ATOM      5  C3  OXE d   1       1.516   2.139  -1.479  0.00  0.00     0.003 A 
ATOM      6  C4  OXE d   1       1.982   1.023  -2.184  0.00  0.00    -0.002 A 
ATOM      7  C5  OXE d   1       2.340  -0.147  -1.505  0.00  0.00    -0.002 A 
ATOM      8  C6  OXE d   1       2.233  -0.190  -0.119  0.00  0.00     0.003 A 
ENDROOT
TORSDOF 0
ENDMDL
