MODEL 1
REMARK minimizedAffinity -3.83305931
REMARK minimizedRMSD -1
REMARK  0 active torsions:
REMARK  status: ('A' for Active; 'I' for Inactive)
ROOT
ATOM      1  C2' OXE d   1       1.506   4.108  -1.462  0.00  0.00     0.078 C 
ATOM      2  C1' OXE d   1       0.825   3.398   1.167  0.00  0.00     0.078 C 
ATOM      3  C1  OXE d   1       0.986   2.288   0.158  0.00  0.00    -0.078 A 
ATOM      4  C2  OXE d   1       1.273   2.648  -1.137  0.00  0.00    -0.078 A 
ATOM      5  C3  OXE d   1       1.485   1.661  -2.096  0.00  0.00     0.003 A 
ATOM      6  C4  OXE d   1       1.258   0.314  -1.789  0.00  0.00    -0.002 A 
ATOM      7  C5  OXE d   1       0.926  -0.071  -0.485  0.00  0.00    -0.002 A 
ATOM      8  C6  OXE d   1       0.828   0.898   0.507  0.00  0.00     0.003 A 
ENDROOT
TORSDOF 0
ENDMDL
