MODEL 1
REMARK minimizedAffinity -1.2719878
REMARK minimizedRMSD -1
REMARK  0 active torsions:
REMARK  status: ('A' for Active; 'I' for Inactive)
ROOT
ATOM      1  C2' OXE d   1       1.393   3.530   1.417  0.00  0.00     0.078 C 
ATOM      2  C1' OXE d   1       2.288   4.241  -1.147  0.00  0.00     0.078 C 
ATOM      3  C1  OXE d   1       1.781   2.835  -0.944  0.00  0.00    -0.078 A 
ATOM      4  C2  OXE d   1       1.389   2.482   0.325  0.00  0.00    -0.078 A 
ATOM      5  C3  OXE d   1       0.862   1.214   0.556  0.00  0.00     0.003 A 
ATOM      6  C4  OXE d   1       0.871   0.248  -0.457  0.00  0.00    -0.002 A 
ATOM      7  C5  OXE d   1       1.303   0.575  -1.747  0.00  0.00    -0.002 A 
ATOM      8  C6  OXE d   1       1.721   1.873  -2.017  0.00  0.00     0.003 A 
ENDROOT
TORSDOF 0
ENDMDL
