MODEL 1
REMARK minimizedAffinity 0.534458399
REMARK minimizedRMSD -1
REMARK  0 active torsions:
REMARK  status: ('A' for Active; 'I' for Inactive)
ROOT
ATOM      1  C2' OXE d   1       2.198   3.506  -1.853  0.00  0.00     0.078 C 
ATOM      2  C1' OXE d   1       1.238   1.561  -3.635  0.00  0.00     0.078 C 
ATOM      3  C1  OXE d   1       1.297   1.205  -2.170  0.00  0.00    -0.078 A 
ATOM      4  C2  OXE d   1       1.812   2.146  -1.311  0.00  0.00    -0.078 A 
ATOM      5  C3  OXE d   1       1.838   1.890   0.057  0.00  0.00     0.003 A 
ATOM      6  C4  OXE d   1       1.489   0.627   0.548  0.00  0.00    -0.002 A 
ATOM      7  C5  OXE d   1       0.999  -0.360  -0.315  0.00  0.00    -0.002 A 
ATOM      8  C6  OXE d   1       0.858  -0.073  -1.668  0.00  0.00     0.003 A 
ENDROOT
TORSDOF 0
ENDMDL
