MODEL 1
REMARK minimizedAffinity -1.16064894
REMARK minimizedRMSD -1
REMARK  0 active torsions:
REMARK  status: ('A' for Active; 'I' for Inactive)
ROOT
ATOM      1  C2' OXE d   1       0.729  -0.108  -1.092  0.00  0.00     0.078 C 
ATOM      2  C1' OXE d   1       1.249   1.374   1.234  0.00  0.00     0.078 C 
ATOM      3  C1  OXE d   1       1.334   2.091  -0.090  0.00  0.00    -0.078 A 
ATOM      4  C2  OXE d   1       1.124   1.347  -1.226  0.00  0.00    -0.078 A 
ATOM      5  C3  OXE d   1       1.137   1.970  -2.471  0.00  0.00     0.003 A 
ATOM      6  C4  OXE d   1       1.513   3.314  -2.587  0.00  0.00    -0.002 A 
ATOM      7  C5  OXE d   1       1.771   4.080  -1.445  0.00  0.00    -0.002 A 
ATOM      8  C6  OXE d   1       1.644   3.496  -0.189  0.00  0.00     0.003 A 
ENDROOT
TORSDOF 0
ENDMDL
