MODEL 1
REMARK minimizedAffinity 4.95056534
REMARK minimizedRMSD -1
REMARK  0 active torsions:
REMARK  status: ('A' for Active; 'I' for Inactive)
ROOT
ATOM      1  C2' OXE d   1       1.416   3.059  -2.269  0.00  0.00     0.078 C 
ATOM      2  C1' OXE d   1       1.729   5.764  -1.589  0.00  0.00     0.078 C 
ATOM      3  C1  OXE d   1       1.746   4.752  -0.472  0.00  0.00    -0.078 A 
ATOM      4  C2  OXE d   1       1.545   3.435  -0.809  0.00  0.00    -0.078 A 
ATOM      5  C3  OXE d   1       1.606   2.454   0.177  0.00  0.00     0.003 A 
ATOM      6  C4  OXE d   1       1.716   2.811   1.527  0.00  0.00    -0.002 A 
ATOM      7  C5  OXE d   1       1.882   4.150   1.895  0.00  0.00    -0.002 A 
ATOM      8  C6  OXE d   1       1.942   5.127   0.907  0.00  0.00     0.003 A 
ENDROOT
TORSDOF 0
ENDMDL
