MODEL 1
REMARK minimizedAffinity -2.86153769
REMARK minimizedRMSD -1
REMARK  0 active torsions:
REMARK  status: ('A' for Active; 'I' for Inactive)
ROOT
ATOM      1  C2' OXE d   1       1.617   3.730  -1.762  0.00  0.00     0.078 C 
ATOM      2  C1' OXE d   1       1.255   3.555   1.016  0.00  0.00     0.078 C 
ATOM      3  C1  OXE d   1       1.272   2.270   0.227  0.00  0.00    -0.078 A 
ATOM      4  C2  OXE d   1       1.403   2.368  -1.138  0.00  0.00    -0.078 A 
ATOM      5  C3  OXE d   1       1.480   1.211  -1.908  0.00  0.00     0.003 A 
ATOM      6  C4  OXE d   1       1.271  -0.044  -1.324  0.00  0.00    -0.002 A 
ATOM      7  C5  OXE d   1       1.096  -0.164   0.059  0.00  0.00    -0.002 A 
ATOM      8  C6  OXE d   1       1.137   0.978   0.852  0.00  0.00     0.003 A 
ENDROOT
TORSDOF 0
ENDMDL
