MODEL 1
REMARK minimizedAffinity -0.6308617
REMARK minimizedRMSD -1
REMARK  0 active torsions:
REMARK  status: ('A' for Active; 'I' for Inactive)
ROOT
ATOM      1  C2' OXE d   1       1.038   3.942   0.225  0.00  0.00     0.078 C 
ATOM      2  C1' OXE d   1       2.189   1.898   1.766  0.00  0.00     0.078 C 
ATOM      3  C1  OXE d   1       1.870   1.596   0.323  0.00  0.00    -0.078 A 
ATOM      4  C2  OXE d   1       1.264   2.587  -0.411  0.00  0.00    -0.078 A 
ATOM      5  C3  OXE d   1       0.997   2.380  -1.761  0.00  0.00     0.003 A 
ATOM      6  C4  OXE d   1       1.200   1.121  -2.339  0.00  0.00    -0.002 A 
ATOM      7  C5  OXE d   1       1.780   0.085  -1.599  0.00  0.00    -0.002 A 
ATOM      8  C6  OXE d   1       2.159   0.319  -0.281  0.00  0.00     0.003 A 
ENDROOT
TORSDOF 0
ENDMDL
