MODEL 1
REMARK minimizedAffinity -2.55647731
REMARK minimizedRMSD -1
REMARK  0 active torsions:
REMARK  status: ('A' for Active; 'I' for Inactive)
ROOT
ATOM      1  C2' OXE d   1       1.045   3.936  -0.285  0.00  0.00     0.078 C 
ATOM      2  C1' OXE d   1       0.358   1.855   1.469  0.00  0.00     0.078 C 
ATOM      3  C1  OXE d   1       0.791   1.484   0.073  0.00  0.00    -0.078 A 
ATOM      4  C2  OXE d   1       1.081   2.511  -0.793  0.00  0.00    -0.078 A 
ATOM      5  C3  OXE d   1       1.538   2.223  -2.076  0.00  0.00     0.003 A 
ATOM      6  C4  OXE d   1       1.558   0.903  -2.541  0.00  0.00    -0.002 A 
ATOM      7  C5  OXE d   1       1.230  -0.156  -1.688  0.00  0.00    -0.002 A 
ATOM      8  C6  OXE d   1       0.886   0.114  -0.368  0.00  0.00     0.003 A 
ENDROOT
TORSDOF 0
ENDMDL
