MODEL 1
REMARK minimizedAffinity -1.59627151
REMARK minimizedRMSD -1
REMARK  0 active torsions:
REMARK  status: ('A' for Active; 'I' for Inactive)
ROOT
ATOM      1  C2' OXE d   1       1.225   2.751  -1.899  0.00  0.00     0.078 C 
ATOM      2  C1' OXE d   1       1.376   2.491   0.892  0.00  0.00     0.078 C 
ATOM      3  C1  OXE d   1       1.348   1.228   0.068  0.00  0.00    -0.078 A 
ATOM      4  C2  OXE d   1       1.227   1.364  -1.294  0.00  0.00    -0.078 A 
ATOM      5  C3  OXE d   1       1.251   0.232  -2.104  0.00  0.00     0.003 A 
ATOM      6  C4  OXE d   1       1.243  -1.047  -1.536  0.00  0.00    -0.002 A 
ATOM      7  C5  OXE d   1       1.326  -1.208  -0.149  0.00  0.00    -0.002 A 
ATOM      8  C6  OXE d   1       1.422  -0.084   0.663  0.00  0.00     0.003 A 
ENDROOT
TORSDOF 0
ENDMDL
