MODEL 1
REMARK minimizedAffinity 2.4300437
REMARK minimizedRMSD -1
REMARK  0 active torsions:
REMARK  status: ('A' for Active; 'I' for Inactive)
ROOT
ATOM      1  C2' OXE d   1      -1.377  -4.137   0.002  0.00  0.00     0.078 C 
ATOM      2  C1' OXE d   1      -0.227  -5.841  -1.910  0.00  0.00     0.078 C 
ATOM      3  C1  OXE d   1      -1.158  -4.761  -2.400  0.00  0.00    -0.078 A 
ATOM      4  C2  OXE d   1      -1.753  -3.961  -1.454  0.00  0.00    -0.078 A 
ATOM      5  C3  OXE d   1      -2.577  -2.914  -1.856  0.00  0.00     0.003 A 
ATOM      6  C4  OXE d   1      -2.927  -2.764  -3.204  0.00  0.00    -0.002 A 
ATOM      7  C5  OXE d   1      -2.363  -3.593  -4.180  0.00  0.00    -0.002 A 
ATOM      8  C6  OXE d   1      -1.446  -4.567  -3.800  0.00  0.00     0.003 A 
ENDROOT
TORSDOF 0
ENDMDL
