MODEL 1
REMARK minimizedAffinity 2.08532357
REMARK minimizedRMSD -1
REMARK  0 active torsions:
REMARK  status: ('A' for Active; 'I' for Inactive)
ROOT
ATOM      1  C2' OXE d   1      -2.532   2.512   5.224  0.00  0.00     0.078 C 
ATOM      2  C1' OXE d   1      -1.729   4.780   3.778  0.00  0.00     0.078 C 
ATOM      3  C1  OXE d   1      -2.577   3.756   3.066  0.00  0.00    -0.078 A 
ATOM      4  C2  OXE d   1      -2.927   2.627   3.767  0.00  0.00    -0.078 A 
ATOM      5  C3  OXE d   1      -3.754   1.677   3.176  0.00  0.00     0.003 A 
ATOM      6  C4  OXE d   1      -4.106   1.786   1.825  0.00  0.00    -0.002 A 
ATOM      7  C5  OXE d   1      -3.728   2.908   1.081  0.00  0.00    -0.002 A 
ATOM      8  C6  OXE d   1      -3.001   3.921   1.697  0.00  0.00     0.003 A 
ENDROOT
TORSDOF 0
ENDMDL
