MODEL 1
REMARK minimizedAffinity 0.383530825
REMARK minimizedRMSD -1
REMARK  0 active torsions:
REMARK  status: ('A' for Active; 'I' for Inactive)
ROOT
ATOM      1  C2' OXE d   1       1.280   1.852  -2.114  0.00  0.00     0.078 C 
ATOM      2  C1' OXE d   1       1.369   1.340   0.645  0.00  0.00     0.078 C 
ATOM      3  C1  OXE d   1       1.310   0.157  -0.289  0.00  0.00    -0.078 A 
ATOM      4  C2  OXE d   1       1.220   0.418  -1.635  0.00  0.00    -0.078 A 
ATOM      5  C3  OXE d   1       1.218  -0.637  -2.543  0.00  0.00     0.003 A 
ATOM      6  C4  OXE d   1       1.153  -1.961  -2.091  0.00  0.00    -0.002 A 
ATOM      7  C5  OXE d   1       1.204  -2.248  -0.723  0.00  0.00    -0.002 A 
ATOM      8  C6  OXE d   1       1.325  -1.204   0.188  0.00  0.00     0.003 A 
ENDROOT
TORSDOF 0
ENDMDL
