MODEL 1
REMARK minimizedAffinity 1.59469616
REMARK minimizedRMSD -1
REMARK  0 active torsions:
REMARK  status: ('A' for Active; 'I' for Inactive)
ROOT
ATOM      1  C2' OXE d   1       1.431   5.840  -0.731  0.00  0.00     0.078 C 
ATOM      2  C1' OXE d   1       1.128   3.932   1.306  0.00  0.00     0.078 C 
ATOM      3  C1  OXE d   1       1.264   3.433  -0.111  0.00  0.00    -0.078 A 
ATOM      4  C2  OXE d   1       1.364   4.375  -1.106  0.00  0.00    -0.078 A 
ATOM      5  C3  OXE d   1       1.546   3.968  -2.425  0.00  0.00     0.003 A 
ATOM      6  C4  OXE d   1       1.473   2.612  -2.765  0.00  0.00    -0.002 A 
ATOM      7  C5  OXE d   1       1.331   1.638  -1.771  0.00  0.00    -0.002 A 
ATOM      8  C6  OXE d   1       1.268   2.028  -0.438  0.00  0.00     0.003 A 
ENDROOT
TORSDOF 0
ENDMDL
