MODEL 1
REMARK minimizedAffinity -1.15333652
REMARK minimizedRMSD -1
REMARK  0 active torsions:
REMARK  status: ('A' for Active; 'I' for Inactive)
ROOT
ATOM      1  C2' OXE d   1       2.018   5.540  -1.172  0.00  0.00     0.078 C 
ATOM      2  C1' OXE d   1       1.492   4.561   1.406  0.00  0.00     0.078 C 
ATOM      3  C1  OXE d   1       1.438   3.584   0.258  0.00  0.00    -0.078 A 
ATOM      4  C2  OXE d   1       1.651   4.081  -1.006  0.00  0.00    -0.078 A 
ATOM      5  C3  OXE d   1       1.666   3.213  -2.094  0.00  0.00     0.003 A 
ATOM      6  C4  OXE d   1       1.315   1.868  -1.933  0.00  0.00    -0.002 A 
ATOM      7  C5  OXE d   1       1.056   1.349  -0.660  0.00  0.00    -0.002 A 
ATOM      8  C6  OXE d   1       1.154   2.183   0.449  0.00  0.00     0.003 A 
ENDROOT
TORSDOF 0
ENDMDL
