MODEL 1
REMARK minimizedAffinity -4.28934908
REMARK minimizedRMSD -1
REMARK  0 active torsions:
REMARK  status: ('A' for Active; 'I' for Inactive)
ROOT
ATOM      1  C2' OXE d   1       0.807   0.107  -0.978  0.00  0.00     0.078 C 
ATOM      2  C1' OXE d   1       1.022   1.150   1.620  0.00  0.00     0.078 C 
ATOM      3  C1  OXE d   1       1.164   2.107   0.463  0.00  0.00    -0.078 A 
ATOM      4  C2  OXE d   1       1.104   1.581  -0.805  0.00  0.00    -0.078 A 
ATOM      5  C3  OXE d   1       1.174   2.429  -1.907  0.00  0.00     0.003 A 
ATOM      6  C4  OXE d   1       1.459   3.789  -1.738  0.00  0.00    -0.002 A 
ATOM      7  C5  OXE d   1       1.564   4.339  -0.456  0.00  0.00    -0.002 A 
ATOM      8  C6  OXE d   1       1.377   3.521   0.653  0.00  0.00     0.003 A 
ENDROOT
TORSDOF 0
ENDMDL
