MODEL 1
REMARK minimizedAffinity -5.27590895
REMARK minimizedRMSD -1
REMARK  0 active torsions:
REMARK  status: ('A' for Active; 'I' for Inactive)
ROOT
ATOM      1  C1  BNZ d   1      -2.267  -2.281   1.739  0.00  0.00     0.000 A 
ATOM      2  C2  BNZ d   1      -1.125  -2.570   1.040  0.00  0.00     0.000 A 
ATOM      3  C3  BNZ d   1      -0.389  -1.575   0.460  0.00  0.00     0.000 A 
ATOM      4  C4  BNZ d   1      -0.815  -0.299   0.545  0.00  0.00     0.000 A 
ATOM      5  C5  BNZ d   1      -1.969   0.008   1.239  0.00  0.00     0.000 A 
ATOM      6  C6  BNZ d   1      -2.687  -0.992   1.855  0.00  0.00     0.000 A 
ENDROOT
TORSDOF 0
ENDMDL
