MODEL 1
REMARK minimizedAffinity -3.98012185
REMARK minimizedRMSD -1
REMARK  0 active torsions:
REMARK  status: ('A' for Active; 'I' for Inactive)
ROOT
ATOM      1  C1  BNZ d   1       0.403  -1.308   0.357  0.00  0.00     0.000 A 
ATOM      2  C2  BNZ d   1       0.468  -2.393   1.191  0.00  0.00     0.000 A 
ATOM      3  C3  BNZ d   1      -0.664  -2.912   1.754  0.00  0.00     0.000 A 
ATOM      4  C4  BNZ d   1      -1.853  -2.323   1.517  0.00  0.00     0.000 A 
ATOM      5  C5  BNZ d   1      -1.935  -1.222   0.686  0.00  0.00     0.000 A 
ATOM      6  C6  BNZ d   1      -0.798  -0.726   0.090  0.00  0.00     0.000 A 
ENDROOT
TORSDOF 0
ENDMDL
