MODEL 1
REMARK minimizedAffinity -2.03883791
REMARK minimizedRMSD -1
REMARK  0 active torsions:
REMARK  status: ('A' for Active; 'I' for Inactive)
ROOT
ATOM      1  C1  BNZ d   1       2.396   2.186  -2.261  0.00  0.00     0.000 A 
ATOM      2  C2  BNZ d   1       1.447   1.826  -1.343  0.00  0.00     0.000 A 
ATOM      3  C3  BNZ d   1       0.274   1.246  -1.739  0.00  0.00     0.000 A 
ATOM      4  C4  BNZ d   1       0.036   1.064  -3.054  0.00  0.00     0.000 A 
ATOM      5  C5  BNZ d   1       0.980   1.431  -3.993  0.00  0.00     0.000 A 
ATOM      6  C6  BNZ d   1       2.175   1.979  -3.588  0.00  0.00     0.000 A 
ENDROOT
TORSDOF 0
ENDMDL
