MODEL 1
REMARK minimizedAffinity -4.85128784
REMARK minimizedRMSD -1
REMARK  0 active torsions:
REMARK  status: ('A' for Active; 'I' for Inactive)
ROOT
ATOM      1  C1  BNZ d   1       0.067  -1.275   0.374  0.00  0.00     0.000 A 
ATOM      2  C2  BNZ d   1      -0.593  -0.087   0.213  0.00  0.00     0.000 A 
ATOM      3  C3  BNZ d   1      -1.896   0.049   0.605  0.00  0.00     0.000 A 
ATOM      4  C4  BNZ d   1      -2.547  -1.013   1.120  0.00  0.00     0.000 A 
ATOM      5  C5  BNZ d   1      -1.898  -2.221   1.281  0.00  0.00     0.000 A 
ATOM      6  C6  BNZ d   1      -0.575  -2.343   0.921  0.00  0.00     0.000 A 
ENDROOT
TORSDOF 0
ENDMDL
