MODEL 1
REMARK minimizedAffinity -5.19554996
REMARK minimizedRMSD -1
REMARK  0 active torsions:
REMARK  status: ('A' for Active; 'I' for Inactive)
ROOT
ATOM      1  C1  BNZ d   1      -2.206  -0.974   1.819  0.00  0.00     0.000 A 
ATOM      2  C2  BNZ d   1      -1.461  -0.172   0.996  0.00  0.00     0.000 A 
ATOM      3  C3  BNZ d   1      -0.743  -0.704  -0.038  0.00  0.00     0.000 A 
ATOM      4  C4  BNZ d   1      -0.739  -2.040  -0.224  0.00  0.00     0.000 A 
ATOM      5  C5  BNZ d   1      -1.478  -2.863   0.602  0.00  0.00     0.000 A 
ATOM      6  C6  BNZ d   1      -2.231  -2.320   1.618  0.00  0.00     0.000 A 
ENDROOT
TORSDOF 0
ENDMDL
