MODEL 1
REMARK minimizedAffinity -4.272614
REMARK minimizedRMSD -1
REMARK  0 active torsions:
REMARK  status: ('A' for Active; 'I' for Inactive)
ROOT
ATOM      1  C1  BNZ d   1      -1.141  -0.146   0.307  0.00  0.00     0.000 A 
ATOM      2  C2  BNZ d   1      -0.354  -1.265   0.250  0.00  0.00     0.000 A 
ATOM      3  C3  BNZ d   1      -0.698  -2.398   0.932  0.00  0.00     0.000 A 
ATOM      4  C4  BNZ d   1      -1.806  -2.399   1.700  0.00  0.00     0.000 A 
ATOM      5  C5  BNZ d   1      -2.605  -1.275   1.776  0.00  0.00     0.000 A 
ATOM      6  C6  BNZ d   1      -2.276  -0.149   1.058  0.00  0.00     0.000 A 
ENDROOT
TORSDOF 0
ENDMDL
