MODEL 1
REMARK minimizedAffinity -5.46505785
REMARK minimizedRMSD -1
REMARK  0 active torsions:
REMARK  status: ('A' for Active; 'I' for Inactive)
ROOT
ATOM      1  C1  BNZ d   1      -1.955  -1.397   1.862  0.00  0.00     0.000 A 
ATOM      2  C2  BNZ d   1      -1.991  -0.082   1.481  0.00  0.00     0.000 A 
ATOM      3  C3  BNZ d   1      -0.998   0.450   0.706  0.00  0.00     0.000 A 
ATOM      4  C4  BNZ d   1       0.048  -0.322   0.349  0.00  0.00     0.000 A 
ATOM      5  C5  BNZ d   1       0.104  -1.647   0.733  0.00  0.00     0.000 A 
ATOM      6  C6  BNZ d   1      -0.917  -2.189   1.480  0.00  0.00     0.000 A 
ENDROOT
TORSDOF 0
ENDMDL
