MODEL 1
REMARK minimizedAffinity -3.96376014
REMARK minimizedRMSD -1
REMARK  0 active torsions:
REMARK  status: ('A' for Active; 'I' for Inactive)
ROOT
ATOM      1  C1  BNZ d   1      -1.841  -1.179   0.034  0.00  0.00     0.000 A 
ATOM      2  C2  BNZ d   1      -0.978  -0.142  -0.200  0.00  0.00     0.000 A 
ATOM      3  C3  BNZ d   1       0.328  -0.215   0.197  0.00  0.00     0.000 A 
ATOM      4  C4  BNZ d   1       0.758  -1.306   0.863  0.00  0.00     0.000 A 
ATOM      5  C5  BNZ d   1      -0.103  -2.356   1.115  0.00  0.00     0.000 A 
ATOM      6  C6  BNZ d   1      -1.406  -2.295   0.679  0.00  0.00     0.000 A 
ENDROOT
TORSDOF 0
ENDMDL
