MODEL 1
REMARK minimizedAffinity -5.12580633
REMARK minimizedRMSD -1
REMARK  0 active torsions:
REMARK  status: ('A' for Active; 'I' for Inactive)
ROOT
ATOM      1  C1  BNZ d   1      -1.129  -2.280   0.940  0.00  0.00     0.000 A 
ATOM      2  C2  BNZ d   1      -0.282  -1.430   0.280  0.00  0.00     0.000 A 
ATOM      3  C3  BNZ d   1      -0.527  -0.085   0.247  0.00  0.00     0.000 A 
ATOM      4  C4  BNZ d   1      -1.637   0.402   0.838  0.00  0.00     0.000 A 
ATOM      5  C5  BNZ d   1      -2.505  -0.444   1.499  0.00  0.00     0.000 A 
ATOM      6  C6  BNZ d   1      -2.236  -1.792   1.564  0.00  0.00     0.000 A 
ENDROOT
TORSDOF 0
ENDMDL
