MODEL 1
REMARK minimizedAffinity -5.38687801
REMARK minimizedRMSD -1
REMARK  0 active torsions:
REMARK  status: ('A' for Active; 'I' for Inactive)
ROOT
ATOM      1  C1  BNZ d   1      -1.652  -2.546   1.112  0.00  0.00     0.000 A 
ATOM      2  C2  BNZ d   1      -2.568  -1.930   1.923  0.00  0.00     0.000 A 
ATOM      3  C3  BNZ d   1      -2.777  -0.582   1.845  0.00  0.00     0.000 A 
ATOM      4  C4  BNZ d   1      -2.044   0.154   0.985  0.00  0.00     0.000 A 
ATOM      5  C5  BNZ d   1      -1.110  -0.451   0.167  0.00  0.00     0.000 A 
ATOM      6  C6  BNZ d   1      -0.930  -1.814   0.221  0.00  0.00     0.000 A 
ENDROOT
TORSDOF 0
ENDMDL
