MODEL 1
REMARK minimizedAffinity -5.08169651
REMARK minimizedRMSD -1
REMARK  0 active torsions:
REMARK  status: ('A' for Active; 'I' for Inactive)
ROOT
ATOM      1  C1  BNZ d   1      -0.618  -0.120   0.461  0.00  0.00     0.000 A 
ATOM      2  C2  BNZ d   1      -1.689   0.241   1.234  0.00  0.00     0.000 A 
ATOM      3  C3  BNZ d   1      -2.348  -0.685   1.993  0.00  0.00     0.000 A 
ATOM      4  C4  BNZ d   1      -1.961  -1.976   1.948  0.00  0.00     0.000 A 
ATOM      5  C5  BNZ d   1      -0.889  -2.357   1.167  0.00  0.00     0.000 A 
ATOM      6  C6  BNZ d   1      -0.203  -1.415   0.434  0.00  0.00     0.000 A 
ENDROOT
TORSDOF 0
ENDMDL
