MODEL 1
REMARK minimizedAffinity -5.2618413
REMARK minimizedRMSD -1
REMARK  0 active torsions:
REMARK  status: ('A' for Active; 'I' for Inactive)
ROOT
ATOM      1  C1  BNZ d   1      -2.499  -0.959   1.665  0.00  0.00     0.000 A 
ATOM      2  C2  BNZ d   1      -1.793   0.046   1.059  0.00  0.00     0.000 A 
ATOM      3  C3  BNZ d   1      -0.656  -0.225   0.352  0.00  0.00     0.000 A 
ATOM      4  C4  BNZ d   1      -0.204  -1.494   0.284  0.00  0.00     0.000 A 
ATOM      5  C5  BNZ d   1      -0.899  -2.517   0.898  0.00  0.00     0.000 A 
ATOM      6  C6  BNZ d   1      -2.065  -2.245   1.576  0.00  0.00     0.000 A 
ENDROOT
TORSDOF 0
ENDMDL
