MODEL 1
REMARK minimizedAffinity -0.181573436
REMARK minimizedRMSD -1
REMARK  0 active torsions:
REMARK  status: ('A' for Active; 'I' for Inactive)
ROOT
ATOM      1  C1  BNZ d   1      -0.773   0.771   0.602  0.00  0.00     0.000 A 
ATOM      2  C2  BNZ d   1       0.333   0.123   0.122  0.00  0.00     0.000 A 
ATOM      3  C3  BNZ d   1       0.598  -1.169   0.480  0.00  0.00     0.000 A 
ATOM      4  C4  BNZ d   1      -0.220  -1.797   1.349  0.00  0.00     0.000 A 
ATOM      5  C5  BNZ d   1      -1.334  -1.154   1.850  0.00  0.00     0.000 A 
ATOM      6  C6  BNZ d   1      -1.619   0.134   1.456  0.00  0.00     0.000 A 
ENDROOT
TORSDOF 0
ENDMDL
