MODEL 1
REMARK minimizedAffinity -4.41732216
REMARK minimizedRMSD -1
REMARK  0 active torsions:
REMARK  status: ('A' for Active; 'I' for Inactive)
ROOT
ATOM      1  C1  BNZ d   1      -2.666  -1.048   1.803  0.00  0.00     0.000 A 
ATOM      2  C2  BNZ d   1      -2.193  -2.333   1.837  0.00  0.00     0.000 A 
ATOM      3  C3  BNZ d   1      -0.997  -2.654   1.258  0.00  0.00     0.000 A 
ATOM      4  C4  BNZ d   1      -0.297  -1.700   0.611  0.00  0.00     0.000 A 
ATOM      5  C5  BNZ d   1      -0.766  -0.403   0.559  0.00  0.00     0.000 A 
ATOM      6  C6  BNZ d   1      -1.951  -0.075   1.177  0.00  0.00     0.000 A 
ENDROOT
TORSDOF 0
ENDMDL
