MODEL 1
REMARK minimizedAffinity -4.43254662
REMARK minimizedRMSD -1
REMARK  0 active torsions:
REMARK  status: ('A' for Active; 'I' for Inactive)
ROOT
ATOM      1  C1  BNZ d   1      -2.262  -1.957   2.006  0.00  0.00     0.000 A 
ATOM      2  C2  BNZ d   1      -1.129  -2.277   1.305  0.00  0.00     0.000 A 
ATOM      3  C3  BNZ d   1      -0.465  -1.329   0.578  0.00  0.00     0.000 A 
ATOM      4  C4  BNZ d   1      -0.955  -0.074   0.519  0.00  0.00     0.000 A 
ATOM      5  C5  BNZ d   1      -2.101   0.262   1.213  0.00  0.00     0.000 A 
ATOM      6  C6  BNZ d   1      -2.745  -0.685   1.975  0.00  0.00     0.000 A 
ENDROOT
TORSDOF 0
ENDMDL
