MODEL 1
REMARK minimizedAffinity -2.48010969
REMARK minimizedRMSD -1
REMARK  0 active torsions:
REMARK  status: ('A' for Active; 'I' for Inactive)
ROOT
ATOM      1  C1  BNZ d   1       2.569   1.781  -3.601  0.00  0.00     0.000 A 
ATOM      2  C2  BNZ d   1       2.661   1.862  -2.237  0.00  0.00     0.000 A 
ATOM      3  C3  BNZ d   1       1.555   2.118  -1.475  0.00  0.00     0.000 A 
ATOM      4  C4  BNZ d   1       0.368   2.331  -2.079  0.00  0.00     0.000 A 
ATOM      5  C5  BNZ d   1       0.261   2.262  -3.454  0.00  0.00     0.000 A 
ATOM      6  C6  BNZ d   1       1.369   1.966  -4.216  0.00  0.00     0.000 A 
ENDROOT
TORSDOF 0
ENDMDL
