MODEL 1
REMARK minimizedAffinity 10.73419
REMARK minimizedRMSD -1
REMARK  0 active torsions:
REMARK  status: ('A' for Active; 'I' for Inactive)
ROOT
ATOM      1  C   UNL d   1      -4.501   5.151  -4.597  0.00  0.00     0.023 A 
ATOM      2  C1  UNL d   1      -5.624   4.463  -4.140  0.00  0.00     0.003 A 
ATOM      3  C2  UNL d   1      -5.482   3.206  -3.548  0.00  0.00     0.048 A 
ATOM      4  C3  UNL d   1      -4.213   2.644  -3.415  0.00  0.00     0.023 A 
ATOM      5  C4  UNL d   1      -3.085   3.330  -3.870  0.00  0.00     0.048 A 
ATOM      6  C5  UNL d   1      -3.233   4.586  -4.462  0.00  0.00     0.003 A 
ATOM      7  I   UNL d   1      -3.998   0.774  -2.534  0.00  0.00    -0.146 I 
ENDROOT
TORSDOF 0
ENDMDL
