MODEL 1
REMARK minimizedAffinity 3.43980598
REMARK minimizedRMSD -1
REMARK  0 active torsions:
REMARK  status: ('A' for Active; 'I' for Inactive)
ROOT
ATOM      1  C   UNL d   1       3.405  -4.033   2.523  0.00  0.00     0.023 A 
ATOM      2  C1  UNL d   1       2.401  -4.031   1.555  0.00  0.00     0.003 A 
ATOM      3  C2  UNL d   1       1.263  -3.241   1.728  0.00  0.00     0.048 A 
ATOM      4  C3  UNL d   1       1.136  -2.454   2.873  0.00  0.00     0.023 A 
ATOM      5  C4  UNL d   1       2.138  -2.452   3.844  0.00  0.00     0.048 A 
ATOM      6  C5  UNL d   1       3.273  -3.245   3.667  0.00  0.00     0.003 A 
ATOM      7  I   UNL d   1      -0.557  -1.276   3.133  0.00  0.00    -0.146 I 
ENDROOT
TORSDOF 0
ENDMDL
