MODEL 1
REMARK minimizedAffinity 6.93086195
REMARK minimizedRMSD -1
REMARK  0 active torsions:
REMARK  status: ('A' for Active; 'I' for Inactive)
ROOT
ATOM      1  C   UNL d   1       1.158  -0.395  -1.264  0.00  0.00     0.023 A 
ATOM      2  C1  UNL d   1       1.484   0.864  -1.770  0.00  0.00     0.003 A 
ATOM      3  C2  UNL d   1       0.475   1.783  -2.063  0.00  0.00     0.048 A 
ATOM      4  C3  UNL d   1      -0.859   1.438  -1.847  0.00  0.00     0.023 A 
ATOM      5  C4  UNL d   1      -1.190   0.180  -1.340  0.00  0.00     0.048 A 
ATOM      6  C5  UNL d   1      -0.178  -0.736  -1.049  0.00  0.00     0.003 A 
ATOM      7  I   UNL d   1      -2.363   2.805  -2.282  0.00  0.00    -0.146 I 
ENDROOT
TORSDOF 0
ENDMDL
