MODEL 1
REMARK minimizedAffinity 9.05419445
REMARK minimizedRMSD -1
REMARK  0 active torsions:
REMARK  status: ('A' for Active; 'I' for Inactive)
ROOT
ATOM      1  C   UNL d   1      -5.035   3.263  -4.132  0.00  0.00     0.023 A 
ATOM      2  C1  UNL d   1      -4.976   3.682  -5.461  0.00  0.00     0.003 A 
ATOM      3  C2  UNL d   1      -3.769   4.135  -5.998  0.00  0.00     0.048 A 
ATOM      4  C3  UNL d   1      -2.625   4.166  -5.202  0.00  0.00     0.023 A 
ATOM      5  C4  UNL d   1      -2.679   3.746  -3.871  0.00  0.00     0.048 A 
ATOM      6  C5  UNL d   1      -3.888   3.295  -3.338  0.00  0.00     0.003 A 
ATOM      7  I   UNL d   1      -0.828   4.839  -6.000  0.00  0.00    -0.146 I 
ENDROOT
TORSDOF 0
ENDMDL
