MODEL 1
REMARK minimizedAffinity 4.18415308
REMARK minimizedRMSD -1
REMARK  0 active torsions:
REMARK  status: ('A' for Active; 'I' for Inactive)
ROOT
ATOM      1  C   UNL d   1      -3.010   0.392   3.413  0.00  0.00     0.023 A 
ATOM      2  C1  UNL d   1      -1.786   0.644   4.032  0.00  0.00     0.003 A 
ATOM      3  C2  UNL d   1      -0.704  -0.212   3.815  0.00  0.00     0.048 A 
ATOM      4  C3  UNL d   1      -0.853  -1.316   2.978  0.00  0.00     0.023 A 
ATOM      5  C4  UNL d   1      -2.076  -1.571   2.355  0.00  0.00     0.048 A 
ATOM      6  C5  UNL d   1      -3.155  -0.714   2.576  0.00  0.00     0.003 A 
ATOM      7  I   UNL d   1       0.756  -2.591   2.653  0.00  0.00    -0.146 I 
ENDROOT
TORSDOF 0
ENDMDL
