MODEL 1
REMARK minimizedAffinity 6.59408951
REMARK minimizedRMSD -1
REMARK  0 active torsions:
REMARK  status: ('A' for Active; 'I' for Inactive)
ROOT
ATOM      1  C   UNL d   1      -3.277   0.095   3.430  0.00  0.00     0.023 A 
ATOM      2  C1  UNL d   1      -2.533  -0.968   2.918  0.00  0.00     0.003 A 
ATOM      3  C2  UNL d   1      -2.724  -1.385   1.599  0.00  0.00     0.048 A 
ATOM      4  C3  UNL d   1      -3.661  -0.734   0.798  0.00  0.00     0.023 A 
ATOM      5  C4  UNL d   1      -4.408   0.331   1.305  0.00  0.00     0.048 A 
ATOM      6  C5  UNL d   1      -4.214   0.743   2.625  0.00  0.00     0.003 A 
ATOM      7  I   UNL d   1      -3.948  -1.353  -1.166  0.00  0.00    -0.146 I 
ENDROOT
TORSDOF 0
ENDMDL
