MODEL 1
REMARK minimizedAffinity 8.90097904
REMARK minimizedRMSD -1
REMARK  0 active torsions:
REMARK  status: ('A' for Active; 'I' for Inactive)
ROOT
ATOM      1  C   UNL d   1       3.229  -3.437   1.854  0.00  0.00     0.023 A 
ATOM      2  C1  UNL d   1       4.570  -3.739   2.087  0.00  0.00     0.003 A 
ATOM      3  C2  UNL d   1       5.348  -4.298   1.071  0.00  0.00     0.048 A 
ATOM      4  C3  UNL d   1       4.778  -4.550  -0.177  0.00  0.00     0.023 A 
ATOM      5  C4  UNL d   1       3.436  -4.248  -0.415  0.00  0.00     0.048 A 
ATOM      6  C5  UNL d   1       2.662  -3.691   0.605  0.00  0.00     0.003 A 
ATOM      7  I   UNL d   1       5.934  -5.381  -1.691  0.00  0.00    -0.146 I 
ENDROOT
TORSDOF 0
ENDMDL
