MODEL 1
REMARK minimizedAffinity 5.56494141
REMARK minimizedRMSD -1
REMARK  0 active torsions:
REMARK  status: ('A' for Active; 'I' for Inactive)
ROOT
ATOM      1  C   UNL d   1       5.891  -4.868  -0.878  0.00  0.00     0.023 A 
ATOM      2  C1  UNL d   1       4.635  -5.232  -1.362  0.00  0.00     0.003 A 
ATOM      3  C2  UNL d   1       3.481  -4.830  -0.686  0.00  0.00     0.048 A 
ATOM      4  C3  UNL d   1       3.592  -4.063   0.473  0.00  0.00     0.023 A 
ATOM      5  C4  UNL d   1       4.847  -3.695   0.961  0.00  0.00     0.048 A 
ATOM      6  C5  UNL d   1       5.997  -4.101   0.282  0.00  0.00     0.003 A 
ATOM      7  I   UNL d   1       1.876  -3.462   1.482  0.00  0.00    -0.146 I 
ENDROOT
TORSDOF 0
ENDMDL
