MODEL 1
REMARK minimizedAffinity 14.4761276
REMARK minimizedRMSD -1
REMARK  0 active torsions:
REMARK  status: ('A' for Active; 'I' for Inactive)
ROOT
ATOM      1  C   UNL d   1      -5.695  -1.458  -4.259  0.00  0.00     0.023 A 
ATOM      2  C1  UNL d   1      -5.242  -0.156  -4.050  0.00  0.00     0.003 A 
ATOM      3  C2  UNL d   1      -4.239   0.094  -3.111  0.00  0.00     0.048 A 
ATOM      4  C3  UNL d   1      -3.693  -0.965  -2.385  0.00  0.00     0.023 A 
ATOM      5  C4  UNL d   1      -4.143  -2.270  -2.592  0.00  0.00     0.048 A 
ATOM      6  C5  UNL d   1      -5.146  -2.514  -3.531  0.00  0.00     0.003 A 
ATOM      7  I   UNL d   1      -2.200  -0.596  -0.987  0.00  0.00    -0.146 I 
ENDROOT
TORSDOF 0
ENDMDL
