MODEL 1
REMARK minimizedAffinity 3.33341932
REMARK minimizedRMSD -1
REMARK  0 active torsions:
REMARK  status: ('A' for Active; 'I' for Inactive)
ROOT
ATOM      1  C   UNL d   1       1.098  -2.957   1.512  0.00  0.00     0.023 A 
ATOM      2  C1  UNL d   1       1.207  -1.910   2.427  0.00  0.00     0.003 A 
ATOM      3  C2  UNL d   1       2.073  -2.021   3.517  0.00  0.00     0.048 A 
ATOM      4  C3  UNL d   1       2.829  -3.180   3.684  0.00  0.00     0.023 A 
ATOM      5  C4  UNL d   1       2.724  -4.230   2.770  0.00  0.00     0.048 A 
ATOM      6  C5  UNL d   1       1.856  -4.116   1.683  0.00  0.00     0.003 A 
ATOM      7  I   UNL d   1       4.120  -3.347   5.305  0.00  0.00    -0.146 I 
ENDROOT
TORSDOF 0
ENDMDL
