MODEL 1
REMARK minimizedAffinity 2.05540395
REMARK minimizedRMSD -1
REMARK  0 active torsions:
REMARK  status: ('A' for Active; 'I' for Inactive)
ROOT
ATOM      1  C   UNL d   1       3.535  -3.312  -0.164  0.00  0.00     0.124 A 
ATOM      2  C1  UNL d   1       3.622  -1.957   0.121  0.00  0.00     0.062 A 
ATOM      3  C2  UNL d   1       2.477  -1.235   0.446  0.00  0.00     0.162 A 
ATOM      4  C3  UNL d   1       1.235  -1.867   0.488  0.00  0.00    -0.034 A 
ATOM      5  C4  UNL d   1       1.155  -3.231   0.200  0.00  0.00     0.162 A 
ATOM      6  C5  UNL d   1       2.302  -3.948  -0.124  0.00  0.00     0.062 A 
ATOM      7  F   UNL d   1       2.216  -5.257  -0.400  0.00  0.00    -0.097 F 
ATOM      8  F1  UNL d   1      -0.024  -3.870   0.231  0.00  0.00    -0.096 F 
ATOM      9  I   UNL d   1      -0.479  -0.791   0.974  0.00  0.00    -0.060 I 
ATOM     10  F2  UNL d   1       2.591   0.074   0.717  0.00  0.00    -0.096 F 
ATOM     11  F3  UNL d   1       4.812  -1.340   0.083  0.00  0.00    -0.097 F 
ATOM     12  F4  UNL d   1       4.638  -4.004  -0.477  0.00  0.00    -0.092 F 
ENDROOT
TORSDOF 0
ENDMDL
