MODEL 1
REMARK minimizedAffinity 14.8107576
REMARK minimizedRMSD -1
REMARK  0 active torsions:
REMARK  status: ('A' for Active; 'I' for Inactive)
ROOT
ATOM      1  C   UNL d   1       3.751  -3.314  -0.359  0.00  0.00     0.124 A 
ATOM      2  C1  UNL d   1       3.696  -2.128   0.358  0.00  0.00     0.062 A 
ATOM      3  C2  UNL d   1       2.466  -1.568   0.692  0.00  0.00     0.162 A 
ATOM      4  C3  UNL d   1       1.280  -2.195   0.309  0.00  0.00    -0.034 A 
ATOM      5  C4  UNL d   1       1.344  -3.388  -0.413  0.00  0.00     0.162 A 
ATOM      6  C5  UNL d   1       2.575  -3.943  -0.745  0.00  0.00     0.062 A 
ATOM      7  F   UNL d   1       2.627  -5.090  -1.438  0.00  0.00    -0.097 F 
ATOM      8  F1  UNL d   1       0.223  -4.017  -0.797  0.00  0.00    -0.096 F 
ATOM      9  I   UNL d   1      -0.561  -1.361   0.806  0.00  0.00    -0.060 I 
ATOM     10  F2  UNL d   1       2.443  -0.420   1.386  0.00  0.00    -0.096 F 
ATOM     11  F3  UNL d   1       4.830  -1.518   0.731  0.00  0.00    -0.097 F 
ATOM     12  F4  UNL d   1       4.936  -3.850  -0.680  0.00  0.00    -0.092 F 
ENDROOT
TORSDOF 0
ENDMDL
