MODEL 1
REMARK minimizedAffinity 13.1361561
REMARK minimizedRMSD -1
REMARK  0 active torsions:
REMARK  status: ('A' for Active; 'I' for Inactive)
ROOT
ATOM      1  C   UNL d   1      -0.660  -0.668   1.075  0.00  0.00     0.124 A 
ATOM      2  C1  UNL d   1      -0.186  -0.535   2.373  0.00  0.00     0.062 A 
ATOM      3  C2  UNL d   1       1.179  -0.620   2.631  0.00  0.00     0.162 A 
ATOM      4  C3  UNL d   1       2.081  -0.838   1.590  0.00  0.00    -0.034 A 
ATOM      5  C4  UNL d   1       1.596  -0.971   0.287  0.00  0.00     0.162 A 
ATOM      6  C5  UNL d   1       0.231  -0.886   0.034  0.00  0.00     0.062 A 
ATOM      7  F   UNL d   1      -0.225  -1.015  -1.220  0.00  0.00    -0.097 F 
ATOM      8  F1  UNL d   1       2.435  -1.181  -0.738  0.00  0.00    -0.096 F 
ATOM      9  I   UNL d   1       4.123  -0.965   1.972  0.00  0.00    -0.060 I 
ATOM     10  F2  UNL d   1       1.610  -0.487   3.895  0.00  0.00    -0.096 F 
ATOM     11  F3  UNL d   1      -1.045  -0.325   3.381  0.00  0.00    -0.097 F 
ATOM     12  F4  UNL d   1      -1.974  -0.587   0.830  0.00  0.00    -0.092 F 
ENDROOT
TORSDOF 0
ENDMDL
