MODEL 1
REMARK minimizedAffinity 8.54552174
REMARK minimizedRMSD -1
REMARK  0 active torsions:
REMARK  status: ('A' for Active; 'I' for Inactive)
ROOT
ATOM      1  C   UNL d   1       0.431  -1.328   0.828  0.00  0.00     0.124 A 
ATOM      2  C1  UNL d   1      -0.020  -2.511   0.259  0.00  0.00     0.062 A 
ATOM      3  C2  UNL d   1       0.888  -3.489  -0.136  0.00  0.00     0.162 A 
ATOM      4  C3  UNL d   1       2.257  -3.289   0.037  0.00  0.00    -0.034 A 
ATOM      5  C4  UNL d   1       2.704  -2.096   0.609  0.00  0.00     0.162 A 
ATOM      6  C5  UNL d   1       1.792  -1.122   1.002  0.00  0.00     0.062 A 
ATOM      7  F   UNL d   1       2.230   0.020   1.552  0.00  0.00    -0.097 F 
ATOM      8  F1  UNL d   1       4.014  -1.871   0.790  0.00  0.00    -0.096 F 
ATOM      9  I   UNL d   1       3.619  -4.748  -0.553  0.00  0.00    -0.060 I 
ATOM     10  F2  UNL d   1       0.423  -4.622  -0.683  0.00  0.00    -0.096 F 
ATOM     11  F3  UNL d   1      -1.335  -2.712   0.088  0.00  0.00    -0.097 F 
ATOM     12  F4  UNL d   1      -0.445  -0.388   1.206  0.00  0.00    -0.092 F 
ENDROOT
TORSDOF 0
ENDMDL
