MODEL 1
REMARK minimizedAffinity 5.49478722
REMARK minimizedRMSD -1
REMARK  0 active torsions:
REMARK  status: ('A' for Active; 'I' for Inactive)
ROOT
ATOM      1  C   UNL d   1       1.113  -2.862   0.263  0.00  0.00     0.124 A 
ATOM      2  C1  UNL d   1       2.480  -2.643   0.169  0.00  0.00     0.062 A 
ATOM      3  C2  UNL d   1       3.034  -1.460   0.651  0.00  0.00     0.162 A 
ATOM      4  C3  UNL d   1       2.220  -0.488   1.232  0.00  0.00    -0.034 A 
ATOM      5  C4  UNL d   1       0.846  -0.716   1.322  0.00  0.00     0.162 A 
ATOM      6  C5  UNL d   1       0.297  -1.899   0.839  0.00  0.00     0.062 A 
ATOM      7  F   UNL d   1      -1.024  -2.110   0.930  0.00  0.00    -0.097 F 
ATOM      8  F1  UNL d   1       0.034   0.198   1.875  0.00  0.00    -0.096 F 
ATOM      9  I   UNL d   1       3.044   1.282   1.954  0.00  0.00    -0.060 I 
ATOM     10  F2  UNL d   1       4.358  -1.274   0.547  0.00  0.00    -0.096 F 
ATOM     11  F3  UNL d   1       3.271  -3.571  -0.388  0.00  0.00    -0.097 F 
ATOM     12  F4  UNL d   1       0.583  -4.001  -0.203  0.00  0.00    -0.092 F 
ENDROOT
TORSDOF 0
ENDMDL
