MODEL 1
REMARK minimizedAffinity 7.30329514
REMARK minimizedRMSD -1
REMARK  0 active torsions:
REMARK  status: ('A' for Active; 'I' for Inactive)
ROOT
ATOM      1  C   UNL d   1       0.262  -0.703   0.888  0.00  0.00     0.124 A 
ATOM      2  C1  UNL d   1       1.641  -0.571   0.800  0.00  0.00     0.062 A 
ATOM      3  C2  UNL d   1       2.411  -1.603   0.272  0.00  0.00     0.162 A 
ATOM      4  C3  UNL d   1       1.804  -2.777  -0.174  0.00  0.00    -0.034 A 
ATOM      5  C4  UNL d   1       0.416  -2.903  -0.081  0.00  0.00     0.162 A 
ATOM      6  C5  UNL d   1      -0.349  -1.869   0.448  0.00  0.00     0.062 A 
ATOM      7  F   UNL d   1      -1.681  -1.999   0.532  0.00  0.00    -0.097 F 
ATOM      8  F1  UNL d   1      -0.200  -4.018  -0.500  0.00  0.00    -0.096 F 
ATOM      9  I   UNL d   1       2.952  -4.322  -0.964  0.00  0.00    -0.060 I 
ATOM     10  F2  UNL d   1       3.741  -1.447   0.199  0.00  0.00    -0.096 F 
ATOM     11  F3  UNL d   1       2.233   0.554   1.226  0.00  0.00    -0.097 F 
ATOM     12  F4  UNL d   1      -0.476   0.291   1.398  0.00  0.00    -0.092 F 
ENDROOT
TORSDOF 0
ENDMDL
