MODEL 1
REMARK minimizedAffinity 3.54089069
REMARK minimizedRMSD -1
REMARK  0 active torsions:
REMARK  status: ('A' for Active; 'I' for Inactive)
ROOT
ATOM      1  C   UNL d   1       0.212  -0.454   1.262  0.00  0.00     0.124 A 
ATOM      2  C1  UNL d   1      -0.246  -1.745   1.037  0.00  0.00     0.062 A 
ATOM      3  C2  UNL d   1       0.642  -2.746   0.654  0.00  0.00     0.162 A 
ATOM      4  C3  UNL d   1       1.998  -2.460   0.494  0.00  0.00    -0.034 A 
ATOM      5  C4  UNL d   1       2.451  -1.159   0.722  0.00  0.00     0.162 A 
ATOM      6  C5  UNL d   1       1.559  -0.162   1.104  0.00  0.00     0.062 A 
ATOM      7  F   UNL d   1       2.003   1.084   1.322  0.00  0.00    -0.097 F 
ATOM      8  F1  UNL d   1       3.748  -0.850   0.577  0.00  0.00    -0.096 F 
ATOM      9  I   UNL d   1       3.330  -3.953  -0.079  0.00  0.00    -0.060 I 
ATOM     10  F2  UNL d   1       0.172  -3.984   0.443  0.00  0.00    -0.096 F 
ATOM     11  F3  UNL d   1      -1.548  -2.029   1.188  0.00  0.00    -0.097 F 
ATOM     12  F4  UNL d   1      -0.645   0.507   1.630  0.00  0.00    -0.092 F 
ENDROOT
TORSDOF 0
ENDMDL
