MODEL 1
REMARK minimizedAffinity -2.49882483
REMARK minimizedRMSD -1
REMARK  0 active torsions:
REMARK  status: ('A' for Active; 'I' for Inactive)
ROOT
ATOM      1  C   UNL d   1       0.435  -3.041   0.361  0.00  0.00     0.124 A 
ATOM      2  C1  UNL d   1      -0.947  -3.167   0.339  0.00  0.00     0.062 A 
ATOM      3  C2  UNL d   1      -1.754  -2.074   0.640  0.00  0.00     0.162 A 
ATOM      4  C3  UNL d   1      -1.182  -0.845   0.965  0.00  0.00    -0.034 A 
ATOM      5  C4  UNL d   1       0.209  -0.725   0.987  0.00  0.00     0.162 A 
ATOM      6  C5  UNL d   1       1.012  -1.821   0.685  0.00  0.00     0.062 A 
ATOM      7  F   UNL d   1       2.347  -1.697   0.707  0.00  0.00    -0.097 F 
ATOM      8  F1  UNL d   1       0.792   0.442   1.296  0.00  0.00    -0.096 F 
ATOM      9  I   UNL d   1      -2.387   0.792   1.416  0.00  0.00    -0.060 I 
ATOM     10  F2  UNL d   1      -3.087  -2.225   0.610  0.00  0.00    -0.096 F 
ATOM     11  F3  UNL d   1      -1.506  -4.345   0.027  0.00  0.00    -0.097 F 
ATOM     12  F4  UNL d   1       1.210  -4.094   0.072  0.00  0.00    -0.092 F 
ENDROOT
TORSDOF 0
ENDMDL
