MODEL 1
REMARK minimizedAffinity 6.35522842
REMARK minimizedRMSD -1
REMARK  0 active torsions:
REMARK  status: ('A' for Active; 'I' for Inactive)
ROOT
ATOM      1  C   UNL d   1       0.455  -1.104   0.838  0.00  0.00     0.124 A 
ATOM      2  C1  UNL d   1       1.800  -0.953   1.142  0.00  0.00     0.062 A 
ATOM      3  C2  UNL d   1       2.700  -1.980   0.867  0.00  0.00     0.162 A 
ATOM      4  C3  UNL d   1       2.256  -3.166   0.283  0.00  0.00    -0.034 A 
ATOM      5  C4  UNL d   1       0.901  -3.311  -0.020  0.00  0.00     0.162 A 
ATOM      6  C5  UNL d   1       0.006  -2.282   0.257  0.00  0.00     0.062 A 
ATOM      7  F   UNL d   1      -1.293  -2.430  -0.038  0.00  0.00    -0.097 F 
ATOM      8  F1  UNL d   1       0.441  -4.438  -0.582  0.00  0.00    -0.096 F 
ATOM      9  I   UNL d   1       3.598  -4.703  -0.130  0.00  0.00    -0.060 I 
ATOM     10  F2  UNL d   1       3.994  -1.807   1.172  0.00  0.00    -0.096 F 
ATOM     11  F3  UNL d   1       2.236   0.183   1.704  0.00  0.00    -0.097 F 
ATOM     12  F4  UNL d   1      -0.408  -0.116   1.104  0.00  0.00    -0.092 F 
ENDROOT
TORSDOF 0
ENDMDL
