MODEL 1
REMARK minimizedAffinity 13.2442064
REMARK minimizedRMSD -1
REMARK  0 active torsions:
REMARK  status: ('A' for Active; 'I' for Inactive)
ROOT
ATOM      1  C   UNL d   1       0.259  -1.240   0.686  0.00  0.00     0.124 A 
ATOM      2  C1  UNL d   1      -0.298  -2.510   0.744  0.00  0.00     0.062 A 
ATOM      3  C2  UNL d   1       0.499  -3.633   0.543  0.00  0.00     0.162 A 
ATOM      4  C3  UNL d   1       1.862  -3.492   0.284  0.00  0.00    -0.034 A 
ATOM      5  C4  UNL d   1       2.415  -2.212   0.226  0.00  0.00     0.162 A 
ATOM      6  C5  UNL d   1       1.615  -1.092   0.427  0.00  0.00     0.062 A 
ATOM      7  F   UNL d   1       2.155   0.134   0.371  0.00  0.00    -0.097 F 
ATOM      8  F1  UNL d   1       3.722  -2.040  -0.021  0.00  0.00    -0.096 F 
ATOM      9  I   UNL d   1       3.057  -5.170  -0.017  0.00  0.00    -0.060 I 
ATOM     10  F2  UNL d   1      -0.066  -4.848   0.605  0.00  0.00    -0.096 F 
ATOM     11  F3  UNL d   1      -1.607  -2.655   0.993  0.00  0.00    -0.097 F 
ATOM     12  F4  UNL d   1      -0.510  -0.160   0.879  0.00  0.00    -0.092 F 
ENDROOT
TORSDOF 0
ENDMDL
