MODEL 1
REMARK minimizedAffinity 3.33991814
REMARK minimizedRMSD -1
REMARK  0 active torsions:
REMARK  status: ('A' for Active; 'I' for Inactive)
ROOT
ATOM      1  C   UNL d   1       0.083  -1.038   1.117  0.00  0.00     0.124 A 
ATOM      2  C1  UNL d   1      -0.332  -2.328   0.817  0.00  0.00     0.062 A 
ATOM      3  C2  UNL d   1       0.578  -3.260   0.325  0.00  0.00     0.162 A 
ATOM      4  C3  UNL d   1       1.913  -2.905   0.131  0.00  0.00    -0.034 A 
ATOM      5  C4  UNL d   1       2.322  -1.605   0.434  0.00  0.00     0.162 A 
ATOM      6  C5  UNL d   1       1.409  -0.678   0.925  0.00  0.00     0.062 A 
ATOM      7  F   UNL d   1       1.812   0.568   1.214  0.00  0.00    -0.097 F 
ATOM      8  F1  UNL d   1       3.598  -1.230   0.259  0.00  0.00    -0.096 F 
ATOM      9  I   UNL d   1       3.276  -4.295  -0.604  0.00  0.00    -0.060 I 
ATOM     10  F2  UNL d   1       0.149  -4.499   0.044  0.00  0.00    -0.096 F 
ATOM     11  F3  UNL d   1      -1.613  -2.679   1.001  0.00  0.00    -0.097 F 
ATOM     12  F4  UNL d   1      -0.795  -0.144   1.589  0.00  0.00    -0.092 F 
ENDROOT
TORSDOF 0
ENDMDL
