MODEL 1
REMARK minimizedAffinity 8.46159554
REMARK minimizedRMSD -1
REMARK  0 active torsions:
REMARK  status: ('A' for Active; 'I' for Inactive)
ROOT
ATOM      1  C   UNL d   1       0.055  -0.676   1.292  0.00  0.00     0.124 A 
ATOM      2  C1  UNL d   1      -0.542  -1.866   0.900  0.00  0.00     0.062 A 
ATOM      3  C2  UNL d   1       0.241  -2.983   0.621  0.00  0.00     0.162 A 
ATOM      4  C3  UNL d   1       1.630  -2.915   0.735  0.00  0.00    -0.034 A 
ATOM      5  C4  UNL d   1       2.223  -1.714   1.129  0.00  0.00     0.162 A 
ATOM      6  C5  UNL d   1       1.436  -0.601   1.406  0.00  0.00     0.062 A 
ATOM      7  F   UNL d   1       2.014   0.548   1.785  0.00  0.00    -0.097 F 
ATOM      8  F1  UNL d   1       3.555  -1.614   1.248  0.00  0.00    -0.096 F 
ATOM      9  I   UNL d   1       2.803  -4.583   0.319  0.00  0.00    -0.060 I 
ATOM     10  F2  UNL d   1      -0.362  -4.120   0.245  0.00  0.00    -0.096 F 
ATOM     11  F3  UNL d   1      -1.876  -1.940   0.788  0.00  0.00    -0.097 F 
ATOM     12  F4  UNL d   1      -0.700   0.398   1.559  0.00  0.00    -0.092 F 
ENDROOT
TORSDOF 0
ENDMDL
