MODEL 1
REMARK minimizedAffinity 2.12891269
REMARK minimizedRMSD -1
REMARK  0 active torsions:
REMARK  status: ('A' for Active; 'I' for Inactive)
ROOT
ATOM      1  C   UNL d   1       0.555  -1.024   1.278  0.00  0.00     0.124 A 
ATOM      2  C1  UNL d   1       1.919  -0.773   1.225  0.00  0.00     0.062 A 
ATOM      3  C2  UNL d   1       2.788  -1.732   0.714  0.00  0.00     0.162 A 
ATOM      4  C3  UNL d   1       2.296  -2.952   0.251  0.00  0.00    -0.034 A 
ATOM      5  C4  UNL d   1       0.923  -3.198   0.308  0.00  0.00     0.162 A 
ATOM      6  C5  UNL d   1       0.058  -2.236   0.819  0.00  0.00     0.062 A 
ATOM      7  F   UNL d   1      -1.259  -2.480   0.869  0.00  0.00    -0.097 F 
ATOM      8  F1  UNL d   1       0.416  -4.360  -0.129  0.00  0.00    -0.096 F 
ATOM      9  I   UNL d   1       3.592  -4.390  -0.514  0.00  0.00    -0.060 I 
ATOM     10  F2  UNL d   1       4.102  -1.463   0.675  0.00  0.00    -0.096 F 
ATOM     11  F3  UNL d   1       2.402   0.397   1.669  0.00  0.00    -0.097 F 
ATOM     12  F4  UNL d   1      -0.279  -0.099   1.771  0.00  0.00    -0.092 F 
ENDROOT
TORSDOF 0
ENDMDL
