MODEL 1
REMARK minimizedAffinity 15.3669386
REMARK minimizedRMSD -1
REMARK  0 active torsions:
REMARK  status: ('A' for Active; 'I' for Inactive)
ROOT
ATOM      1  C   UNL d   1       0.322  -1.109   0.942  0.00  0.00     0.124 A 
ATOM      2  C1  UNL d   1      -0.246  -2.297   0.501  0.00  0.00     0.062 A 
ATOM      3  C2  UNL d   1       0.566  -3.367   0.135  0.00  0.00     0.162 A 
ATOM      4  C3  UNL d   1       1.954  -3.255   0.210  0.00  0.00    -0.034 A 
ATOM      5  C4  UNL d   1       2.518  -2.057   0.654  0.00  0.00     0.162 A 
ATOM      6  C5  UNL d   1       1.702  -0.991   1.018  0.00  0.00     0.062 A 
ATOM      7  F   UNL d   1       2.252   0.156   1.443  0.00  0.00    -0.097 F 
ATOM      8  F1  UNL d   1       3.849  -1.916   0.738  0.00  0.00    -0.096 F 
ATOM      9  I   UNL d   1       3.171  -4.853  -0.335  0.00  0.00    -0.060 I 
ATOM     10  F2  UNL d   1      -0.009  -4.503  -0.287  0.00  0.00    -0.096 F 
ATOM     11  F3  UNL d   1      -1.579  -2.414   0.425  0.00  0.00    -0.097 F 
ATOM     12  F4  UNL d   1      -0.461  -0.081   1.291  0.00  0.00    -0.092 F 
ENDROOT
TORSDOF 0
ENDMDL
