MODEL 1
REMARK minimizedAffinity 9.22025013
REMARK minimizedRMSD -1
REMARK  0 active torsions:
REMARK  status: ('A' for Active; 'I' for Inactive)
ROOT
ATOM      1  C   UNL d   1       2.168  -1.660   0.212  0.00  0.00     0.124 A 
ATOM      2  C1  UNL d   1       1.512  -0.593   0.810  0.00  0.00     0.062 A 
ATOM      3  C2  UNL d   1       0.138  -0.648   1.025  0.00  0.00     0.162 A 
ATOM      4  C3  UNL d   1      -0.590  -1.774   0.642  0.00  0.00    -0.034 A 
ATOM      5  C4  UNL d   1       0.077  -2.843   0.040  0.00  0.00     0.162 A 
ATOM      6  C5  UNL d   1       1.450  -2.783  -0.172  0.00  0.00     0.062 A 
ATOM      7  F   UNL d   1       2.082  -3.815  -0.751  0.00  0.00    -0.097 F 
ATOM      8  F1  UNL d   1      -0.592  -3.942  -0.340  0.00  0.00    -0.096 F 
ATOM      9  I   UNL d   1      -2.645  -1.860   0.962  0.00  0.00    -0.060 I 
ATOM     10  F2  UNL d   1      -0.470   0.398   1.605  0.00  0.00    -0.096 F 
ATOM     11  F3  UNL d   1       2.203   0.494   1.181  0.00  0.00    -0.097 F 
ATOM     12  F4  UNL d   1       3.490  -1.604   0.005  0.00  0.00    -0.092 F 
ENDROOT
TORSDOF 0
ENDMDL
