MODEL 1
REMARK minimizedAffinity 10.3945923
REMARK minimizedRMSD -1
REMARK  0 active torsions:
REMARK  status: ('A' for Active; 'I' for Inactive)
ROOT
ATOM      1  C   UNL d   1       2.092  -2.670   0.079  0.00  0.00     0.124 A 
ATOM      2  C1  UNL d   1       2.532  -1.418   0.484  0.00  0.00     0.062 A 
ATOM      3  C2  UNL d   1       1.625  -0.482   0.973  0.00  0.00     0.162 A 
ATOM      4  C3  UNL d   1       0.268  -0.795   1.060  0.00  0.00    -0.034 A 
ATOM      5  C4  UNL d   1      -0.166  -2.056   0.649  0.00  0.00     0.162 A 
ATOM      6  C5  UNL d   1       0.744  -2.988   0.162  0.00  0.00     0.062 A 
ATOM      7  F   UNL d   1       0.317  -4.198  -0.230  0.00  0.00    -0.097 F 
ATOM      8  F1  UNL d   1      -1.464  -2.391   0.719  0.00  0.00    -0.096 F 
ATOM      9  I   UNL d   1      -1.091   0.602   1.790  0.00  0.00    -0.060 I 
ATOM     10  F2  UNL d   1       2.078   0.721   1.357  0.00  0.00    -0.096 F 
ATOM     11  F3  UNL d   1       3.834  -1.108   0.404  0.00  0.00    -0.097 F 
ATOM     12  F4  UNL d   1       2.967  -3.569  -0.392  0.00  0.00    -0.092 F 
ENDROOT
TORSDOF 0
ENDMDL
