MODEL 1
REMARK minimizedAffinity -4.43032885
REMARK minimizedRMSD -1
REMARK  0 active torsions:
REMARK  status: ('A' for Active; 'I' for Inactive)
ROOT
ATOM      1  O1  BZF d   1      -1.718   1.118   2.321  0.00  0.00    -0.204 OA
ATOM      2  C2  BZF d   1      -2.370   2.130   1.644  0.00  0.00     0.174 A 
ATOM      3  C3  BZF d   1      -1.983   2.169   0.353  0.00  0.00    -0.012 A 
ATOM      4  C3A BZF d   1      -1.098   1.057   0.192  0.00  0.00    -0.107 A 
ATOM      5  C4  BZF d   1      -0.400   0.558  -0.871  0.00  0.00     0.055 A 
ATOM      6  C5  BZF d   1       0.432  -0.498  -0.678  0.00  0.00    -0.016 A 
ATOM      7  C6  BZF d   1       0.595  -1.077   0.564  0.00  0.00     0.022 A 
ATOM      8  C7  BZF d   1      -0.080  -0.621   1.647  0.00  0.00     0.029 A 
ATOM      9  C7A BZF d   1      -0.946   0.426   1.448  0.00  0.00     0.058 A 
ENDROOT
TORSDOF 0
ENDMDL
