MODEL 1
REMARK minimizedAffinity -5.79804516
REMARK minimizedRMSD -1
REMARK  0 active torsions:
REMARK  status: ('A' for Active; 'I' for Inactive)
ROOT
ATOM      1  O1  BZF d   1       0.951  -0.674  -1.249  0.00  0.00    -0.204 OA
ATOM      2  C2  BZF d   1       0.815  -2.049  -1.243  0.00  0.00     0.174 A 
ATOM      3  C3  BZF d   1      -0.073  -2.439  -0.306  0.00  0.00    -0.012 A 
ATOM      4  C3A BZF d   1      -0.589  -1.226   0.250  0.00  0.00    -0.107 A 
ATOM      5  C4  BZF d   1      -1.518  -0.956   1.214  0.00  0.00     0.055 A 
ATOM      6  C5  BZF d   1      -1.740   0.336   1.575  0.00  0.00    -0.016 A 
ATOM      7  C6  BZF d   1      -1.048   1.380   0.997  0.00  0.00     0.022 A 
ATOM      8  C7  BZF d   1      -0.120   1.162   0.033  0.00  0.00     0.029 A 
ATOM      9  C7A BZF d   1       0.082  -0.140  -0.357  0.00  0.00     0.058 A 
ENDROOT
TORSDOF 0
ENDMDL
