MODEL 1
REMARK minimizedAffinity -4.16045761
REMARK minimizedRMSD -1
REMARK  0 active torsions:
REMARK  status: ('A' for Active; 'I' for Inactive)
ROOT
ATOM      1  O1  BZF d   1       1.130  -0.454  -0.013  0.00  0.00    -0.204 OA
ATOM      2  C2  BZF d   1       1.457   0.169  -1.202  0.00  0.00     0.174 A 
ATOM      3  C3  BZF d   1       0.523   1.082  -1.537  0.00  0.00    -0.012 A 
ATOM      4  C3A BZF d   1      -0.401   1.093  -0.445  0.00  0.00    -0.107 A 
ATOM      5  C4  BZF d   1      -1.537   1.804  -0.183  0.00  0.00     0.055 A 
ATOM      6  C5  BZF d   1      -2.248   1.523   0.940  0.00  0.00    -0.016 A 
ATOM      7  C6  BZF d   1      -1.856   0.535   1.820  0.00  0.00     0.022 A 
ATOM      8  C7  BZF d   1      -0.734  -0.194   1.605  0.00  0.00     0.029 A 
ATOM      9  C7A BZF d   1       0.005   0.110   0.488  0.00  0.00     0.058 A 
ENDROOT
TORSDOF 0
ENDMDL
