MODEL 1
REMARK minimizedAffinity -3.91624379
REMARK minimizedRMSD -1
REMARK  0 active torsions:
REMARK  status: ('A' for Active; 'I' for Inactive)
ROOT
ATOM      1  O1  BZF d   1      -1.745   2.007  -0.240  0.00  0.00    -0.204 OA
ATOM      2  C2  BZF d   1      -2.415   2.113   0.964  0.00  0.00     0.174 A 
ATOM      3  C3  BZF d   1      -2.106   1.081   1.775  0.00  0.00    -0.012 A 
ATOM      4  C3A BZF d   1      -1.115   0.329   1.067  0.00  0.00    -0.107 A 
ATOM      5  C4  BZF d   1      -0.407  -0.801   1.361  0.00  0.00     0.055 A 
ATOM      6  C5  BZF d   1       0.430  -1.318   0.424  0.00  0.00    -0.016 A 
ATOM      7  C6  BZF d   1       0.578  -0.735  -0.818  0.00  0.00     0.022 A 
ATOM      8  C7  BZF d   1      -0.099   0.389  -1.154  0.00  0.00     0.029 A 
ATOM      9  C7A BZF d   1      -0.921   0.933  -0.196  0.00  0.00     0.058 A 
ENDROOT
TORSDOF 0
ENDMDL
