MODEL 1
REMARK minimizedAffinity -3.41957855
REMARK minimizedRMSD -1
REMARK  0 active torsions:
REMARK  status: ('A' for Active; 'I' for Inactive)
ROOT
ATOM      1  O1  BZF d   1      -0.544   0.031  -1.730  0.00  0.00    -0.204 OA
ATOM      2  C2  BZF d   1       0.532  -0.767  -1.391  0.00  0.00     0.174 A 
ATOM      3  C3  BZF d   1       0.822  -0.646  -0.079  0.00  0.00    -0.012 A 
ATOM      4  C3A BZF d   1      -0.189   0.216   0.452  0.00  0.00    -0.107 A 
ATOM      5  C4  BZF d   1      -0.449   0.698   1.703  0.00  0.00     0.055 A 
ATOM      6  C5  BZF d   1      -1.472   1.577   1.872  0.00  0.00    -0.016 A 
ATOM      7  C6  BZF d   1      -2.251   1.997   0.814  0.00  0.00     0.022 A 
ATOM      8  C7  BZF d   1      -2.035   1.542  -0.444  0.00  0.00     0.029 A 
ATOM      9  C7A BZF d   1      -1.023   0.629  -0.613  0.00  0.00     0.058 A 
ENDROOT
TORSDOF 0
ENDMDL
