MODEL 1
REMARK minimizedAffinity -4.45858288
REMARK minimizedRMSD -1
REMARK  0 active torsions:
REMARK  status: ('A' for Active; 'I' for Inactive)
ROOT
ATOM      1  O1  BZF d   1       0.837  -0.009   1.361  0.00  0.00    -0.204 OA
ATOM      2  C2  BZF d   1       1.213  -0.568   0.155  0.00  0.00     0.174 A 
ATOM      3  C3  BZF d   1       0.268  -0.361  -0.784  0.00  0.00    -0.012 A 
ATOM      4  C3A BZF d   1      -0.722   0.453  -0.148  0.00  0.00    -0.107 A 
ATOM      5  C4  BZF d   1      -1.898   1.004  -0.571  0.00  0.00     0.055 A 
ATOM      6  C5  BZF d   1      -2.666   1.685   0.319  0.00  0.00    -0.016 A 
ATOM      7  C6  BZF d   1      -2.292   1.830   1.639  0.00  0.00     0.022 A 
ATOM      8  C7  BZF d   1      -1.132   1.306   2.104  0.00  0.00     0.029 A 
ATOM      9  C7A BZF d   1      -0.337   0.646   1.199  0.00  0.00     0.058 A 
ENDROOT
TORSDOF 0
ENDMDL
