MODEL 1
REMARK minimizedAffinity -5.76413059
REMARK minimizedRMSD -1
REMARK  0 active torsions:
REMARK  status: ('A' for Active; 'I' for Inactive)
ROOT
ATOM      1  O1  BZF d   1      -2.141   0.801   1.964  0.00  0.00    -0.204 OA
ATOM      2  C2  BZF d   1      -1.835  -0.517   2.247  0.00  0.00     0.174 A 
ATOM      3  C3  BZF d   1      -0.886  -0.978   1.407  0.00  0.00    -0.012 A 
ATOM      4  C3A BZF d   1      -0.514   0.146   0.605  0.00  0.00    -0.107 A 
ATOM      5  C4  BZF d   1       0.394   0.324  -0.399  0.00  0.00     0.055 A 
ATOM      6  C5  BZF d   1       0.461   1.528  -1.025  0.00  0.00    -0.016 A 
ATOM      7  C6  BZF d   1      -0.368   2.575  -0.675  0.00  0.00     0.022 A 
ATOM      8  C7  BZF d   1      -1.281   2.448   0.319  0.00  0.00     0.029 A 
ATOM      9  C7A BZF d   1      -1.328   1.242   0.975  0.00  0.00     0.058 A 
ENDROOT
TORSDOF 0
ENDMDL
