MODEL 1
REMARK minimizedAffinity -4.57403994
REMARK minimizedRMSD -1
REMARK  0 active torsions:
REMARK  status: ('A' for Active; 'I' for Inactive)
ROOT
ATOM      1  O1  BZF d   1      -1.778   1.148   2.209  0.00  0.00    -0.204 OA
ATOM      2  C2  BZF d   1      -2.077   2.252   1.434  0.00  0.00     0.174 A 
ATOM      3  C3  BZF d   1      -1.508   2.150   0.216  0.00  0.00    -0.012 A 
ATOM      4  C3A BZF d   1      -0.887   0.862   0.197  0.00  0.00    -0.107 A 
ATOM      5  C4  BZF d   1      -0.176   0.176  -0.746  0.00  0.00     0.055 A 
ATOM      6  C5  BZF d   1       0.356  -1.033  -0.423  0.00  0.00    -0.016 A 
ATOM      7  C6  BZF d   1       0.200  -1.581   0.833  0.00  0.00     0.022 A 
ATOM      8  C7  BZF d   1      -0.501  -0.941   1.800  0.00  0.00     0.029 A 
ATOM      9  C7A BZF d   1      -1.067   0.265   1.466  0.00  0.00     0.058 A 
ENDROOT
TORSDOF 0
ENDMDL
