MODEL 1
REMARK minimizedAffinity -5.85102892
REMARK minimizedRMSD -1
REMARK  0 active torsions:
REMARK  status: ('A' for Active; 'I' for Inactive)
ROOT
ATOM      1  O1  BZF d   1      -1.930   0.851   2.269  0.00  0.00    -0.204 OA
ATOM      2  C2  BZF d   1      -2.413   1.689   1.282  0.00  0.00     0.174 A 
ATOM      3  C3  BZF d   1      -1.679   1.574   0.156  0.00  0.00    -0.012 A 
ATOM      4  C3A BZF d   1      -0.732   0.537   0.428  0.00  0.00    -0.107 A 
ATOM      5  C4  BZF d   1       0.260  -0.046  -0.308  0.00  0.00     0.055 A 
ATOM      6  C5  BZF d   1       1.053  -0.981   0.276  0.00  0.00    -0.016 A 
ATOM      7  C6  BZF d   1       0.887  -1.355   1.594  0.00  0.00     0.022 A 
ATOM      8  C7  BZF d   1      -0.087  -0.809   2.363  0.00  0.00     0.029 A 
ATOM      9  C7A BZF d   1      -0.911   0.113   1.765  0.00  0.00     0.058 A 
ENDROOT
TORSDOF 0
ENDMDL
