MODEL 1
REMARK minimizedAffinity -4.94204664
REMARK minimizedRMSD -1
REMARK  0 active torsions:
REMARK  status: ('A' for Active; 'I' for Inactive)
ROOT
ATOM      1  O1  BZF d   1       1.084   0.617  -1.050  0.00  0.00    -0.204 OA
ATOM      2  C2  BZF d   1       0.844   1.822  -1.683  0.00  0.00     0.174 A 
ATOM      3  C3  BZF d   1      -0.212   2.452  -1.127  0.00  0.00    -0.012 A 
ATOM      4  C3A BZF d   1      -0.601   1.630  -0.023  0.00  0.00    -0.107 A 
ATOM      5  C4  BZF d   1      -1.579   1.733   0.926  0.00  0.00     0.055 A 
ATOM      6  C5  BZF d   1      -1.740   0.723   1.821  0.00  0.00    -0.016 A 
ATOM      7  C6  BZF d   1      -0.946  -0.405   1.793  0.00  0.00     0.022 A 
ATOM      8  C7  BZF d   1       0.039  -0.550   0.874  0.00  0.00     0.029 A 
ATOM      9  C7A BZF d   1       0.226   0.483  -0.011  0.00  0.00     0.058 A 
ENDROOT
TORSDOF 0
ENDMDL
