MODEL 1
REMARK minimizedAffinity -4.79380798
REMARK minimizedRMSD -1
REMARK  0 active torsions:
REMARK  status: ('A' for Active; 'I' for Inactive)
ROOT
ATOM      1  O1  BZF d   1      -0.622   0.456  -1.200  0.00  0.00    -0.204 OA
ATOM      2  C2  BZF d   1       0.409  -0.438  -0.985  0.00  0.00     0.174 A 
ATOM      3  C3  BZF d   1       0.703  -0.523   0.328  0.00  0.00    -0.012 A 
ATOM      4  C3A BZF d   1      -0.262   0.305   0.984  0.00  0.00    -0.107 A 
ATOM      5  C4  BZF d   1      -0.498   0.616   2.293  0.00  0.00     0.055 A 
ATOM      6  C5  BZF d   1      -1.472   1.514   2.593  0.00  0.00    -0.016 A 
ATOM      7  C6  BZF d   1      -2.226   2.123   1.611  0.00  0.00     0.022 A 
ATOM      8  C7  BZF d   1      -2.032   1.843   0.299  0.00  0.00     0.029 A 
ATOM      9  C7A BZF d   1      -1.070   0.911  -0.005  0.00  0.00     0.058 A 
ENDROOT
TORSDOF 0
ENDMDL
