MODEL 1
REMARK minimizedAffinity -2.05643034
REMARK minimizedRMSD -1
REMARK  0 active torsions:
REMARK  status: ('A' for Active; 'I' for Inactive)
ROOT
ATOM      1  O1  BZF d   1      -1.617   1.061   1.403  0.00  0.00    -0.204 OA
ATOM      2  C2  BZF d   1      -2.171   1.795   0.372  0.00  0.00     0.174 A 
ATOM      3  C3  BZF d   1      -1.547   1.530  -0.794  0.00  0.00    -0.012 A 
ATOM      4  C3A BZF d   1      -0.600   0.502  -0.488  0.00  0.00    -0.107 A 
ATOM      5  C4  BZF d   1       0.309  -0.191  -1.236  0.00  0.00     0.055 A 
ATOM      6  C5  BZF d   1       1.133  -1.078  -0.620  0.00  0.00    -0.016 A 
ATOM      7  C6  BZF d   1       1.081  -1.293   0.742  0.00  0.00     0.022 A 
ATOM      8  C7  BZF d   1       0.193  -0.633   1.525  0.00  0.00     0.029 A 
ATOM      9  C7A BZF d   1      -0.664   0.240   0.900  0.00  0.00     0.058 A 
ENDROOT
TORSDOF 0
ENDMDL
