MODEL 1
REMARK minimizedAffinity -2.73957944
REMARK minimizedRMSD -1
REMARK  0 active torsions:
REMARK  status: ('A' for Active; 'I' for Inactive)
ROOT
ATOM      1  O1  BZF d   1      -1.780  -0.434   1.127  0.00  0.00    -0.204 OA
ATOM      2  C2  BZF d   1      -2.247   0.826   1.448  0.00  0.00     0.174 A 
ATOM      3  C3  BZF d   1      -1.473   1.779   0.889  0.00  0.00    -0.012 A 
ATOM      4  C3A BZF d   1      -0.514   1.070   0.099  0.00  0.00    -0.107 A 
ATOM      5  C4  BZF d   1       0.515   1.465  -0.707  0.00  0.00     0.055 A 
ATOM      6  C5  BZF d   1       1.308   0.521  -1.277  0.00  0.00    -0.016 A 
ATOM      7  C6  BZF d   1       1.105  -0.826  -1.059  0.00  0.00     0.022 A 
ATOM      8  C7  BZF d   1       0.094  -1.267  -0.271  0.00  0.00     0.029 A 
ATOM      9  C7A BZF d   1      -0.730  -0.316   0.280  0.00  0.00     0.058 A 
ENDROOT
TORSDOF 0
ENDMDL
