MODEL 1
REMARK minimizedAffinity -2.97918725
REMARK minimizedRMSD -1
REMARK  0 active torsions:
REMARK  status: ('A' for Active; 'I' for Inactive)
ROOT
ATOM      1  O1  BZF d   1      -0.924  -0.734   0.708  0.00  0.00    -0.204 OA
ATOM      2  C2  BZF d   1      -0.710   0.497   1.298  0.00  0.00     0.174 A 
ATOM      3  C3  BZF d   1       0.365   1.107   0.757  0.00  0.00    -0.012 A 
ATOM      4  C3A BZF d   1       0.798   0.241  -0.296  0.00  0.00    -0.107 A 
ATOM      5  C4  BZF d   1       1.811   0.307  -1.210  0.00  0.00     0.055 A 
ATOM      6  C5  BZF d   1       2.008  -0.738  -2.055  0.00  0.00    -0.016 A 
ATOM      7  C6  BZF d   1       1.216  -1.867  -2.010  0.00  0.00     0.022 A 
ATOM      8  C7  BZF d   1       0.196  -1.977  -1.125  0.00  0.00     0.029 A 
ATOM      9  C7A BZF d   1      -0.026  -0.908  -0.291  0.00  0.00     0.058 A 
ENDROOT
TORSDOF 0
ENDMDL
