MODEL 1
REMARK minimizedAffinity -1.05240357
REMARK minimizedRMSD -1
REMARK  0 active torsions:
REMARK  status: ('A' for Active; 'I' for Inactive)
ROOT
ATOM      1  O1  BZF d   1       1.075   0.481  -0.324  0.00  0.00    -0.204 OA
ATOM      2  C2  BZF d   1       1.135   1.465  -1.292  0.00  0.00     0.174 A 
ATOM      3  C3  BZF d   1       0.033   2.241  -1.255  0.00  0.00    -0.012 A 
ATOM      4  C3A BZF d   1      -0.724   1.766  -0.137  0.00  0.00    -0.107 A 
ATOM      5  C4  BZF d   1      -1.911   2.145   0.423  0.00  0.00     0.055 A 
ATOM      6  C5  BZF d   1      -2.409   1.428   1.464  0.00  0.00    -0.016 A 
ATOM      7  C6  BZF d   1      -1.750   0.325   1.966  0.00  0.00     0.022 A 
ATOM      8  C7  BZF d   1      -0.568  -0.087   1.448  0.00  0.00     0.029 A 
ATOM      9  C7A BZF d   1      -0.046   0.656   0.417  0.00  0.00     0.058 A 
ENDROOT
TORSDOF 0
ENDMDL
