MODEL 1
REMARK minimizedAffinity -3.61677217
REMARK minimizedRMSD -1
REMARK  0 active torsions:
REMARK  status: ('A' for Active; 'I' for Inactive)
ROOT
ATOM      1  O1  BZF d   1      -0.764   1.922   1.244  0.00  0.00    -0.204 OA
ATOM      2  C2  BZF d   1      -1.538   1.050   1.985  0.00  0.00     0.174 A 
ATOM      3  C3  BZF d   1      -1.407  -0.212   1.529  0.00  0.00    -0.012 A 
ATOM      4  C3A BZF d   1      -0.422  -0.138   0.494  0.00  0.00    -0.107 A 
ATOM      5  C4  BZF d   1       0.148  -1.068  -0.328  0.00  0.00     0.055 A 
ATOM      6  C5  BZF d   1       1.024  -0.658  -1.282  0.00  0.00    -0.016 A 
ATOM      7  C6  BZF d   1       1.348   0.673  -1.446  0.00  0.00     0.022 A 
ATOM      8  C7  BZF d   1       0.812   1.632  -0.652  0.00  0.00     0.029 A 
ATOM      9  C7A BZF d   1      -0.049   1.216   0.335  0.00  0.00     0.058 A 
ENDROOT
TORSDOF 0
ENDMDL
