MODEL 1
REMARK minimizedAffinity -2.62582421
REMARK minimizedRMSD -1
REMARK  0 active torsions:
REMARK  status: ('A' for Active; 'I' for Inactive)
ROOT
ATOM      1  O1  BZF d   1      -1.624   2.046  -0.129  0.00  0.00    -0.204 OA
ATOM      2  C2  BZF d   1      -2.149   1.898   1.140  0.00  0.00     0.174 A 
ATOM      3  C3  BZF d   1      -1.526   0.902   1.803  0.00  0.00    -0.012 A 
ATOM      4  C3A BZF d   1      -0.489   0.456   0.923  0.00  0.00    -0.107 A 
ATOM      5  C4  BZF d   1       0.480  -0.501   1.023  0.00  0.00     0.055 A 
ATOM      6  C5  BZF d   1       1.289  -0.736  -0.044  0.00  0.00    -0.016 A 
ATOM      7  C6  BZF d   1       1.154  -0.037  -1.225  0.00  0.00     0.022 A 
ATOM      8  C7  BZF d   1       0.211   0.926  -1.370  0.00  0.00     0.029 A 
ATOM      9  C7A BZF d   1      -0.586   1.189  -0.283  0.00  0.00     0.058 A 
ENDROOT
TORSDOF 0
ENDMDL
