MODEL 1
REMARK minimizedAffinity 19.6979256
REMARK minimizedRMSD -1
REMARK  0 active torsions:
REMARK  status: ('A' for Active; 'I' for Inactive)
ROOT
ATOM      1  C1  DEN d   1      -4.513   1.952  -2.677  0.00  0.00     0.130 A 
ATOM      2  C2  DEN d   1      -3.391   1.330  -3.376  0.00  0.00    -0.031 A 
ATOM      3  C3  DEN d   1      -3.046   2.180  -4.533  0.00  0.00     0.027 A 
ATOM      4  C4  DEN d   1      -4.130   4.390  -5.304  0.00  0.00     0.027 A 
ATOM      5  C5  DEN d   1      -5.123   5.306  -5.036  0.00  0.00    -0.003 A 
ATOM      6  C6  DEN d   1      -5.997   5.153  -3.993  0.00  0.00     0.001 A 
ATOM      7  C7  DEN d   1      -5.866   4.080  -3.150  0.00  0.00     0.017 A 
ATOM      8  C8  DEN d   1      -4.872   3.148  -3.418  0.00  0.00    -0.094 A 
ATOM      9  C9  DEN d   1      -3.991   3.328  -4.471  0.00  0.00    -0.072 A 
ENDROOT
TORSDOF 0
ENDMDL
