MODEL 1
REMARK minimizedAffinity 14.933917
REMARK minimizedRMSD -1
REMARK  0 active torsions:
REMARK  status: ('A' for Active; 'I' for Inactive)
ROOT
ATOM      1  C1  DEN d   1      -0.319  -1.701   1.451  0.00  0.00     0.130 A 
ATOM      2  C2  DEN d   1       1.134  -1.625   1.576  0.00  0.00    -0.031 A 
ATOM      3  C3  DEN d   1       1.711  -2.820   0.927  0.00  0.00     0.027 A 
ATOM      4  C4  DEN d   1       0.503  -4.767  -0.256  0.00  0.00     0.027 A 
ATOM      5  C5  DEN d   1      -0.728  -5.279  -0.603  0.00  0.00    -0.003 A 
ATOM      6  C6  DEN d   1      -1.900  -4.657  -0.264  0.00  0.00     0.001 A 
ATOM      7  C7  DEN d   1      -1.865  -3.462   0.406  0.00  0.00     0.017 A 
ATOM      8  C8  DEN d   1      -0.628  -2.944   0.766  0.00  0.00    -0.094 A 
ATOM      9  C9  DEN d   1       0.546  -3.582   0.403  0.00  0.00    -0.072 A 
ENDROOT
TORSDOF 0
ENDMDL
