MODEL 1
REMARK minimizedAffinity 12.4991398
REMARK minimizedRMSD -1
REMARK  0 active torsions:
REMARK  status: ('A' for Active; 'I' for Inactive)
ROOT
ATOM      1  C1  DEN d   1       2.712  -4.284   4.587  0.00  0.00     0.130 A 
ATOM      2  C2  DEN d   1       2.346  -3.942   5.959  0.00  0.00    -0.031 A 
ATOM      3  C3  DEN d   1       1.557  -2.694   5.922  0.00  0.00     0.027 A 
ATOM      4  C4  DEN d   1       0.866  -1.270   3.886  0.00  0.00     0.027 A 
ATOM      5  C5  DEN d   1       0.953  -1.153   2.516  0.00  0.00    -0.003 A 
ATOM      6  C6  DEN d   1       1.656  -2.046   1.751  0.00  0.00     0.001 A 
ATOM      7  C7  DEN d   1       2.261  -3.121   2.345  0.00  0.00     0.017 A 
ATOM      8  C8  DEN d   1       2.184  -3.241   3.727  0.00  0.00    -0.094 A 
ATOM      9  C9  DEN d   1       1.459  -2.335   4.482  0.00  0.00    -0.072 A 
ENDROOT
TORSDOF 0
ENDMDL
