MODEL 1
REMARK minimizedAffinity 18.0395718
REMARK minimizedRMSD -1
REMARK  0 active torsions:
REMARK  status: ('A' for Active; 'I' for Inactive)
ROOT
ATOM      1  C1  DEN d   1       2.409  -2.566   1.519  0.00  0.00     0.130 A 
ATOM      2  C2  DEN d   1       1.952  -1.339   0.872  0.00  0.00    -0.031 A 
ATOM      3  C3  DEN d   1       1.312  -0.493   1.900  0.00  0.00     0.027 A 
ATOM      4  C4  DEN d   1       0.991  -0.959   4.416  0.00  0.00     0.027 A 
ATOM      5  C5  DEN d   1       1.203  -1.873   5.424  0.00  0.00    -0.003 A 
ATOM      6  C6  DEN d   1       1.796  -3.086   5.197  0.00  0.00     0.001 A 
ATOM      7  C7  DEN d   1       2.239  -3.400   3.940  0.00  0.00     0.017 A 
ATOM      8  C8  DEN d   1       2.023  -2.487   2.916  0.00  0.00    -0.094 A 
ATOM      9  C9  DEN d   1       1.432  -1.260   3.169  0.00  0.00    -0.072 A 
ENDROOT
TORSDOF 0
ENDMDL
