MODEL 1
REMARK minimizedAffinity 18.4259129
REMARK minimizedRMSD -1
REMARK  0 active torsions:
REMARK  status: ('A' for Active; 'I' for Inactive)
ROOT
ATOM      1  C1  DEN d   1       2.432  -3.104   2.117  0.00  0.00     0.130 A 
ATOM      2  C2  DEN d   1       1.774  -2.028   1.382  0.00  0.00    -0.031 A 
ATOM      3  C3  DEN d   1       1.062  -1.179   2.358  0.00  0.00     0.027 A 
ATOM      4  C4  DEN d   1       0.919  -1.423   4.922  0.00  0.00     0.027 A 
ATOM      5  C5  DEN d   1       1.304  -2.189   6.000  0.00  0.00    -0.003 A 
ATOM      6  C6  DEN d   1       2.058  -3.323   5.857  0.00  0.00     0.001 A 
ATOM      7  C7  DEN d   1       2.489  -3.700   4.612  0.00  0.00     0.017 A 
ATOM      8  C8  DEN d   1       2.098  -2.937   3.520  0.00  0.00    -0.094 A 
ATOM      9  C9  DEN d   1       1.346  -1.786   3.686  0.00  0.00    -0.072 A 
ENDROOT
TORSDOF 0
ENDMDL
