MODEL 1
REMARK minimizedAffinity 10.6290865
REMARK minimizedRMSD -1
REMARK  0 active torsions:
REMARK  status: ('A' for Active; 'I' for Inactive)
ROOT
ATOM      1  C1  DEN d   1       0.972  -1.500   1.992  0.00  0.00     0.130 A 
ATOM      2  C2  DEN d   1       1.507  -0.284   1.386  0.00  0.00    -0.031 A 
ATOM      3  C3  DEN d   1       2.695  -0.654   0.591  0.00  0.00     0.027 A 
ATOM      4  C4  DEN d   1       3.749  -2.982   0.236  0.00  0.00     0.027 A 
ATOM      5  C5  DEN d   1       3.654  -4.318   0.557  0.00  0.00    -0.003 A 
ATOM      6  C6  DEN d   1       2.687  -4.799   1.399  0.00  0.00     0.001 A 
ATOM      7  C7  DEN d   1       1.748  -3.945   1.913  0.00  0.00     0.017 A 
ATOM      8  C8  DEN d   1       1.841  -2.595   1.600  0.00  0.00    -0.094 A 
ATOM      9  C9  DEN d   1       2.819  -2.130   0.737  0.00  0.00    -0.072 A 
ENDROOT
TORSDOF 0
ENDMDL
