MODEL 1
REMARK minimizedAffinity -3.11608362
REMARK minimizedRMSD -1
REMARK  0 active torsions:
REMARK  status: ('A' for Active; 'I' for Inactive)
ROOT
ATOM      1  C2' OXE d   1      -1.675   0.197   2.006  0.00  0.00     0.078 C 
ATOM      2  C1' OXE d   1      -0.700  -0.899  -0.387  0.00  0.00     0.078 C 
ATOM      3  C1  OXE d   1       0.077   0.234   0.235  0.00  0.00    -0.078 A 
ATOM      4  C2  OXE d   1      -0.433   0.795   1.382  0.00  0.00    -0.078 A 
ATOM      5  C3  OXE d   1       0.273   1.806   2.027  0.00  0.00     0.003 A 
ATOM      6  C4  OXE d   1       1.416   2.360   1.437  0.00  0.00    -0.002 A 
ATOM      7  C5  OXE d   1       1.930   1.830   0.249  0.00  0.00    -0.002 A 
ATOM      8  C6  OXE d   1       1.298   0.741  -0.341  0.00  0.00     0.003 A 
ENDROOT
TORSDOF 0
ENDMDL
