MODEL 1
REMARK minimizedAffinity -4.98408651
REMARK minimizedRMSD -1
REMARK  0 active torsions:
REMARK  status: ('A' for Active; 'I' for Inactive)
ROOT
ATOM      1  C2' OXE d   1      -0.685  -1.331  -0.704  0.00  0.00     0.078 C 
ATOM      2  C1' OXE d   1       1.751  -0.124  -1.404  0.00  0.00     0.078 C 
ATOM      3  C1  OXE d   1       0.997   0.443  -0.226  0.00  0.00    -0.078 A 
ATOM      4  C2  OXE d   1      -0.216  -0.125   0.080  0.00  0.00    -0.078 A 
ATOM      5  C3  OXE d   1      -0.927   0.324   1.190  0.00  0.00     0.003 A 
ATOM      6  C4  OXE d   1      -0.491   1.447   1.903  0.00  0.00    -0.002 A 
ATOM      7  C5  OXE d   1       0.723   2.065   1.584  0.00  0.00    -0.002 A 
ATOM      8  C6  OXE d   1       1.498   1.550   0.551  0.00  0.00     0.003 A 
ENDROOT
TORSDOF 0
ENDMDL
