MODEL 1
REMARK minimizedAffinity -5.8288312
REMARK minimizedRMSD -1
REMARK  0 active torsions:
REMARK  status: ('A' for Active; 'I' for Inactive)
ROOT
ATOM      1  C2' OXE d   1      -1.728   0.220   1.811  0.00  0.00     0.078 C 
ATOM      2  C1' OXE d   1      -0.519  -1.123  -0.337  0.00  0.00     0.078 C 
ATOM      3  C1  OXE d   1       0.149   0.128   0.176  0.00  0.00    -0.078 A 
ATOM      4  C2  OXE d   1      -0.475   0.805   1.197  0.00  0.00    -0.078 A 
ATOM      5  C3  OXE d   1       0.127   1.934   1.744  0.00  0.00     0.003 A 
ATOM      6  C4  OXE d   1       1.281   2.474   1.164  0.00  0.00    -0.002 A 
ATOM      7  C5  OXE d   1       1.911   1.823   0.098  0.00  0.00    -0.002 A 
ATOM      8  C6  OXE d   1       1.382   0.628  -0.379  0.00  0.00     0.003 A 
ENDROOT
TORSDOF 0
ENDMDL
