MODEL 1
REMARK minimizedAffinity -4.8932662
REMARK minimizedRMSD -1
REMARK  0 active torsions:
REMARK  status: ('A' for Active; 'I' for Inactive)
ROOT
ATOM      1  C2' OXE d   1       1.227   2.932   1.160  0.00  0.00     0.078 C 
ATOM      2  C1' OXE d   1       2.379   1.328  -0.835  0.00  0.00     0.078 C 
ATOM      3  C1  OXE d   1       1.055   0.893  -0.260  0.00  0.00    -0.078 A 
ATOM      4  C2  OXE d   1       0.521   1.658   0.749  0.00  0.00    -0.078 A 
ATOM      5  C3  OXE d   1      -0.725   1.331   1.277  0.00  0.00     0.003 A 
ATOM      6  C4  OXE d   1      -1.367   0.146   0.898  0.00  0.00    -0.002 A 
ATOM      7  C5  OXE d   1      -0.821  -0.669  -0.100  0.00  0.00    -0.002 A 
ATOM      8  C6  OXE d   1       0.365  -0.288  -0.717  0.00  0.00     0.003 A 
ENDROOT
TORSDOF 0
ENDMDL
