MODEL 1
REMARK minimizedAffinity -4.53816128
REMARK minimizedRMSD -1
REMARK  0 active torsions:
REMARK  status: ('A' for Active; 'I' for Inactive)
ROOT
ATOM      1  C2' OXE d   1      -1.814   0.374   1.721  0.00  0.00     0.078 C 
ATOM      2  C1' OXE d   1      -0.682  -0.920  -0.498  0.00  0.00     0.078 C 
ATOM      3  C1  OXE d   1       0.012   0.311   0.028  0.00  0.00    -0.078 A 
ATOM      4  C2  OXE d   1      -0.575   0.965   1.085  0.00  0.00    -0.078 A 
ATOM      5  C3  OXE d   1       0.053   2.075   1.643  0.00  0.00     0.003 A 
ATOM      6  C4  OXE d   1       1.193   2.621   1.043  0.00  0.00    -0.002 A 
ATOM      7  C5  OXE d   1       1.785   1.994  -0.059  0.00  0.00    -0.002 A 
ATOM      8  C6  OXE d   1       1.232   0.817  -0.551  0.00  0.00     0.003 A 
ENDROOT
TORSDOF 0
ENDMDL
