MODEL 1
REMARK minimizedAffinity -5.6473217
REMARK minimizedRMSD -1
REMARK  0 active torsions:
REMARK  status: ('A' for Active; 'I' for Inactive)
ROOT
ATOM      1  C2' OXE d   1      -0.423  -0.750  -0.727  0.00  0.00     0.078 C 
ATOM      2  C1' OXE d   1      -1.706   0.730   1.283  0.00  0.00     0.078 C 
ATOM      3  C1  OXE d   1      -0.329   1.172   0.855  0.00  0.00    -0.078 A 
ATOM      4  C2  OXE d   1       0.311   0.414  -0.097  0.00  0.00    -0.078 A 
ATOM      5  C3  OXE d   1       1.560   0.808  -0.567  0.00  0.00     0.003 A 
ATOM      6  C4  OXE d   1       2.236   1.880   0.029  0.00  0.00    -0.002 A 
ATOM      7  C5  OXE d   1       1.619   2.641   1.027  0.00  0.00    -0.002 A 
ATOM      8  C6  OXE d   1       0.322   2.327   1.421  0.00  0.00     0.003 A 
ENDROOT
TORSDOF 0
ENDMDL
