MODEL 1
REMARK minimizedAffinity -4.57367229
REMARK minimizedRMSD -1
REMARK  0 active torsions:
REMARK  status: ('A' for Active; 'I' for Inactive)
ROOT
ATOM      1  C2' OXE d   1      -0.147  -1.239  -0.896  0.00  0.00     0.078 C 
ATOM      2  C1' OXE d   1       2.235   0.245  -0.936  0.00  0.00     0.078 C 
ATOM      3  C1  OXE d   1       1.162   0.664   0.038  0.00  0.00    -0.078 A 
ATOM      4  C2  OXE d   1      -0.019  -0.039   0.018  0.00  0.00    -0.078 A 
ATOM      5  C3  OXE d   1      -1.021   0.271   0.933  0.00  0.00     0.003 A 
ATOM      6  C4  OXE d   1      -0.898   1.388   1.767  0.00  0.00    -0.002 A 
ATOM      7  C5  OXE d   1       0.280   2.142   1.775  0.00  0.00    -0.002 A 
ATOM      8  C6  OXE d   1       1.334   1.768   0.949  0.00  0.00     0.003 A 
ENDROOT
TORSDOF 0
ENDMDL
