MODEL 1
REMARK minimizedAffinity -5.54402637
REMARK minimizedRMSD -1
REMARK  0 active torsions:
REMARK  status: ('A' for Active; 'I' for Inactive)
ROOT
ATOM      1  C2' OXE d   1      -2.281   0.802   1.224  0.00  0.00     0.078 C 
ATOM      2  C1' OXE d   1      -0.792  -0.010  -1.013  0.00  0.00     0.078 C 
ATOM      3  C1  OXE d   1      -0.090   0.813   0.039  0.00  0.00    -0.078 A 
ATOM      4  C2  OXE d   1      -0.839   1.245   1.107  0.00  0.00    -0.078 A 
ATOM      5  C3  OXE d   1      -0.227   1.961   2.132  0.00  0.00     0.003 A 
ATOM      6  C4  OXE d   1       1.105   2.375   2.011  0.00  0.00    -0.002 A 
ATOM      7  C5  OXE d   1       1.874   1.979   0.912  0.00  0.00    -0.002 A 
ATOM      8  C6  OXE d   1       1.305   1.164  -0.060  0.00  0.00     0.003 A 
ENDROOT
TORSDOF 0
ENDMDL
