MODEL 1
REMARK minimizedAffinity -2.02147746
REMARK minimizedRMSD -1
REMARK  0 active torsions:
REMARK  status: ('A' for Active; 'I' for Inactive)
ROOT
ATOM      1  C2' OXE d   1       1.146  -1.733  -1.091  0.00  0.00     0.078 C 
ATOM      2  C1' OXE d   1      -1.403  -1.166  -2.123  0.00  0.00     0.078 C 
ATOM      3  C1  OXE d   1      -0.935  -0.372  -0.930  0.00  0.00    -0.078 A 
ATOM      4  C2  OXE d   1       0.295  -0.688  -0.403  0.00  0.00    -0.078 A 
ATOM      5  C3  OXE d   1       0.798   0.051   0.664  0.00  0.00     0.003 A 
ATOM      6  C4  OXE d   1       0.000   1.009   1.302  0.00  0.00    -0.002 A 
ATOM      7  C5  OXE d   1      -1.271   1.319   0.806  0.00  0.00    -0.002 A 
ATOM      8  C6  OXE d   1      -1.735   0.669  -0.333  0.00  0.00     0.003 A 
ENDROOT
TORSDOF 0
ENDMDL
