MODEL 1
REMARK minimizedAffinity -1.73251271
REMARK minimizedRMSD -1
REMARK  0 active torsions:
REMARK  status: ('A' for Active; 'I' for Inactive)
ROOT
ATOM      1  C2' OXE d   1      -1.074  -1.166   1.183  0.00  0.00     0.078 C 
ATOM      2  C1' OXE d   1       0.521   0.139  -0.724  0.00  0.00     0.078 C 
ATOM      3  C1  OXE d   1      -0.633  -0.694  -1.223  0.00  0.00    -0.078 A 
ATOM      4  C2  OXE d   1      -1.380  -1.366  -0.286  0.00  0.00    -0.078 A 
ATOM      5  C3  OXE d   1      -2.489  -2.104  -0.688  0.00  0.00     0.003 A 
ATOM      6  C4  OXE d   1      -2.759  -2.293  -2.049  0.00  0.00    -0.002 A 
ATOM      7  C5  OXE d   1      -1.987  -1.649  -3.022  0.00  0.00    -0.002 A 
ATOM      8  C6  OXE d   1      -0.949  -0.814  -2.625  0.00  0.00     0.003 A 
ENDROOT
TORSDOF 0
ENDMDL
