MODEL 1
REMARK minimizedAffinity -3.49232292
REMARK minimizedRMSD -1
REMARK  0 active torsions:
REMARK  status: ('A' for Active; 'I' for Inactive)
ROOT
ATOM      1  C2' OXE d   1      -1.190  -0.851  -0.514  0.00  0.00     0.078 C 
ATOM      2  C1' OXE d   1      -2.346   0.166   1.834  0.00  0.00     0.078 C 
ATOM      3  C1  OXE d   1      -1.092   0.830   1.322  0.00  0.00    -0.078 A 
ATOM      4  C2  OXE d   1      -0.508   0.296   0.199  0.00  0.00    -0.078 A 
ATOM      5  C3  OXE d   1       0.620   0.904  -0.347  0.00  0.00     0.003 A 
ATOM      6  C4  OXE d   1       1.251   1.959   0.323  0.00  0.00    -0.002 A 
ATOM      7  C5  OXE d   1       0.694   2.493   1.490  0.00  0.00    -0.002 A 
ATOM      8  C6  OXE d   1      -0.498   1.969   1.978  0.00  0.00     0.003 A 
ENDROOT
TORSDOF 0
ENDMDL
