MODEL 1
REMARK minimizedAffinity -4.63785887
REMARK minimizedRMSD -1
REMARK  0 active torsions:
REMARK  status: ('A' for Active; 'I' for Inactive)
ROOT
ATOM      1  C2' OXE d   1       1.491   2.690   0.780  0.00  0.00     0.078 C 
ATOM      2  C1' OXE d   1       3.648   1.468  -0.536  0.00  0.00     0.078 C 
ATOM      3  C1  OXE d   1       3.552   1.304   0.960  0.00  0.00    -0.078 A 
ATOM      4  C2  OXE d   1       2.519   1.944   1.602  0.00  0.00    -0.078 A 
ATOM      5  C3  OXE d   1       2.353   1.780   2.974  0.00  0.00     0.003 A 
ATOM      6  C4  OXE d   1       3.315   1.097   3.728  0.00  0.00    -0.002 A 
ATOM      7  C5  OXE d   1       4.396   0.471   3.099  0.00  0.00    -0.002 A 
ATOM      8  C6  OXE d   1       4.506   0.528   1.714  0.00  0.00     0.003 A 
ENDROOT
TORSDOF 0
ENDMDL
