MODEL 1
REMARK minimizedAffinity -3.72733259
REMARK minimizedRMSD -1
REMARK  0 active torsions:
REMARK  status: ('A' for Active; 'I' for Inactive)
ROOT
ATOM      1  C2' OXE d   1      -0.649  -0.856  -0.850  0.00  0.00     0.078 C 
ATOM      2  C1' OXE d   1      -1.689  -0.457   1.726  0.00  0.00     0.078 C 
ATOM      3  C1  OXE d   1      -0.595   0.470   1.258  0.00  0.00    -0.078 A 
ATOM      4  C2  OXE d   1      -0.059   0.238   0.014  0.00  0.00    -0.078 A 
ATOM      5  C3  OXE d   1       0.914   1.096  -0.489  0.00  0.00     0.003 A 
ATOM      6  C4  OXE d   1       1.461   2.099   0.321  0.00  0.00    -0.002 A 
ATOM      7  C5  OXE d   1       0.958   2.327   1.606  0.00  0.00    -0.002 A 
ATOM      8  C6  OXE d   1      -0.097   1.551   2.072  0.00  0.00     0.003 A 
ENDROOT
TORSDOF 0
ENDMDL
