MODEL 1
REMARK minimizedAffinity -2.05356336
REMARK minimizedRMSD -1
REMARK  0 active torsions:
REMARK  status: ('A' for Active; 'I' for Inactive)
ROOT
ATOM      1  C2' OXE d   1       2.752   0.985  -0.999  0.00  0.00     0.078 C 
ATOM      2  C1' OXE d   1       1.310   2.182   1.091  0.00  0.00     0.078 C 
ATOM      3  C1  OXE d   1       0.754   0.917   0.488  0.00  0.00    -0.078 A 
ATOM      4  C2  OXE d   1       1.441   0.363  -0.566  0.00  0.00    -0.078 A 
ATOM      5  C3  OXE d   1       1.002  -0.834  -1.123  0.00  0.00     0.003 A 
ATOM      6  C4  OXE d   1      -0.216  -1.397  -0.723  0.00  0.00    -0.002 A 
ATOM      7  C5  OXE d   1      -0.953  -0.828   0.321  0.00  0.00    -0.002 A 
ATOM      8  C6  OXE d   1      -0.461   0.303   0.964  0.00  0.00     0.003 A 
ENDROOT
TORSDOF 0
ENDMDL
