MODEL 1
REMARK minimizedAffinity -0.25935638
REMARK minimizedRMSD -1
REMARK  0 active torsions:
REMARK  status: ('A' for Active; 'I' for Inactive)
ROOT
ATOM      1  C2' OXE d   1      -1.852  -1.545  -3.734  0.00  0.00     0.078 C 
ATOM      2  C1' OXE d   1      -2.654  -3.116  -1.550  0.00  0.00     0.078 C 
ATOM      3  C1  OXE d   1      -1.647  -2.022  -1.297  0.00  0.00    -0.078 A 
ATOM      4  C2  OXE d   1      -1.225  -1.289  -2.380  0.00  0.00    -0.078 A 
ATOM      5  C3  OXE d   1      -0.339  -0.232  -2.194  0.00  0.00     0.003 A 
ATOM      6  C4  OXE d   1       0.244  -0.008  -0.940  0.00  0.00    -0.002 A 
ATOM      7  C5  OXE d   1      -0.142  -0.769   0.168  0.00  0.00    -0.002 A 
ATOM      8  C6  OXE d   1      -1.116  -1.750   0.016  0.00  0.00     0.003 A 
ENDROOT
TORSDOF 0
ENDMDL
