MODEL 1
REMARK minimizedAffinity -4.30650949
REMARK minimizedRMSD -1
REMARK  0 active torsions:
REMARK  status: ('A' for Active; 'I' for Inactive)
ROOT
ATOM      1  C2' OXE d   1      -0.825   1.106   1.141  0.00  0.00     0.078 C 
ATOM      2  C1' OXE d   1       0.266  -0.365  -0.987  0.00  0.00     0.078 C 
ATOM      3  C1  OXE d   1       1.175   0.588  -0.251  0.00  0.00    -0.078 A 
ATOM      4  C2  OXE d   1       0.621   1.338   0.758  0.00  0.00    -0.078 A 
ATOM      5  C3  OXE d   1       1.427   2.193   1.504  0.00  0.00     0.003 A 
ATOM      6  C4  OXE d   1       2.761   2.409   1.137  0.00  0.00    -0.002 A 
ATOM      7  C5  OXE d   1       3.335   1.685   0.087  0.00  0.00    -0.002 A 
ATOM      8  C6  OXE d   1       2.569   0.741  -0.589  0.00  0.00     0.003 A 
ENDROOT
TORSDOF 0
ENDMDL
