MODEL 1
REMARK minimizedAffinity 0.42393142
REMARK minimizedRMSD -1
REMARK  0 active torsions:
REMARK  status: ('A' for Active; 'I' for Inactive)
ROOT
ATOM      1  C2' OXE d   1       0.326   1.119   1.201  0.00  0.00     0.078 C 
ATOM      2  C1' OXE d   1       3.014   0.867   1.970  0.00  0.00     0.078 C 
ATOM      3  C1  OXE d   1       1.973   0.936   3.060  0.00  0.00    -0.078 A 
ATOM      4  C2  OXE d   1       0.665   1.106   2.676  0.00  0.00    -0.078 A 
ATOM      5  C3  OXE d   1      -0.340   1.121   3.639  0.00  0.00     0.003 A 
ATOM      6  C4  OXE d   1      -0.017   1.119   5.001  0.00  0.00    -0.002 A 
ATOM      7  C5  OXE d   1       1.313   0.986   5.415  0.00  0.00    -0.002 A 
ATOM      8  C6  OXE d   1       2.314   0.851   4.459  0.00  0.00     0.003 A 
ENDROOT
TORSDOF 0
ENDMDL
