MODEL 1
REMARK minimizedAffinity 5.9258275
REMARK minimizedRMSD -1
REMARK  0 active torsions:
REMARK  status: ('A' for Active; 'I' for Inactive)
ROOT
ATOM      1  C2' OXE d   1      -1.644   0.755   1.045  0.00  0.00     0.078 C 
ATOM      2  C1' OXE d   1       0.917   0.104   0.100  0.00  0.00     0.078 C 
ATOM      3  C1  OXE d   1       0.804   0.669   1.493  0.00  0.00    -0.078 A 
ATOM      4  C2  OXE d   1      -0.448   1.028   1.931  0.00  0.00    -0.078 A 
ATOM      5  C3  OXE d   1      -0.615   1.504   3.228  0.00  0.00     0.003 A 
ATOM      6  C4  OXE d   1       0.498   1.763   4.037  0.00  0.00    -0.002 A 
ATOM      7  C5  OXE d   1       1.786   1.441   3.596  0.00  0.00    -0.002 A 
ATOM      8  C6  OXE d   1       1.952   0.855   2.346  0.00  0.00     0.003 A 
ENDROOT
TORSDOF 0
ENDMDL
