MODEL 1
REMARK minimizedAffinity 3.87691998
REMARK minimizedRMSD -1
REMARK  1 active torsions:
REMARK  status: ('A' for Active; 'I' for Inactive)
REMARK    1  A    between atoms: C1_2  and  C2_3 
ROOT
ATOM      1  C2  UNL d   1       4.174   2.873   0.611  0.00  0.00    -0.077 A 
ATOM      2  C3  UNL d   1       5.288   2.856   1.463  0.00  0.00     0.002 A 
ATOM      3  C4  UNL d   1       6.000   4.030   1.718  0.00  0.00     0.002 A 
ATOM      4  C5  UNL d   1       5.604   5.229   1.130  0.00  0.00    -0.004 A 
ATOM      5  C6  UNL d   1       4.498   5.256   0.280  0.00  0.00     0.002 A 
ATOM      6  C7  UNL d   1       3.787   4.083   0.023  0.00  0.00     0.002 A 
ENDROOT
BRANCH   1   7
ATOM      7  C1  UNL d   1       3.376   1.618   0.373  0.00  0.00     0.055 C 
ATOM      8  C   UNL d   1       3.981   0.780  -0.744  0.00  0.00     0.019 C 
ENDBRANCH   1   7
TORSDOF 1
ENDMDL
