MODEL 1
REMARK minimizedAffinity 8.52610779
REMARK minimizedRMSD -1
REMARK  1 active torsions:
REMARK  status: ('A' for Active; 'I' for Inactive)
REMARK    1  A    between atoms: C1_2  and  C2_3 
ROOT
ATOM      1  C2  UNL d   1      -3.636   1.636  -4.086  0.00  0.00    -0.077 A 
ATOM      2  C3  UNL d   1      -3.647   0.877  -5.265  0.00  0.00     0.002 A 
ATOM      3  C4  UNL d   1      -4.826   0.729  -5.999  0.00  0.00     0.002 A 
ATOM      4  C5  UNL d   1      -6.000   1.341  -5.565  0.00  0.00    -0.004 A 
ATOM      5  C6  UNL d   1      -6.000   2.096  -4.393  0.00  0.00     0.002 A 
ATOM      6  C7  UNL d   1      -4.823   2.244  -3.657  0.00  0.00     0.002 A 
ENDROOT
BRANCH   1   7
ATOM      7  C1  UNL d   1      -2.355   1.837  -3.320  0.00  0.00     0.055 C 
ATOM      8  C   UNL d   1      -1.345   2.636  -4.131  0.00  0.00     0.019 C 
ENDBRANCH   1   7
TORSDOF 1
ENDMDL
