MODEL 1
REMARK minimizedAffinity 1.42858958
REMARK minimizedRMSD -1
REMARK  1 active torsions:
REMARK  status: ('A' for Active; 'I' for Inactive)
REMARK    1  A    between atoms: C1_2  and  C2_3 
ROOT
ATOM      1  C2  UNL d   1       3.605  -4.554   0.201  0.00  0.00    -0.077 A 
ATOM      2  C3  UNL d   1       4.552  -4.550   1.234  0.00  0.00     0.002 A 
ATOM      3  C4  UNL d   1       5.744  -5.267   1.103  0.00  0.00     0.002 A 
ATOM      4  C5  UNL d   1       6.000  -5.988  -0.061  0.00  0.00    -0.004 A 
ATOM      5  C6  UNL d   1       5.063  -6.000  -1.094  0.00  0.00     0.002 A 
ATOM      6  C7  UNL d   1       3.872  -5.285  -0.964  0.00  0.00     0.002 A 
ENDROOT
BRANCH   1   7
ATOM      7  C1  UNL d   1       2.342  -3.742   0.320  0.00  0.00     0.055 C 
ATOM      8  C   UNL d   1       1.448  -4.269   1.433  0.00  0.00     0.019 C 
ENDBRANCH   1   7
TORSDOF 1
ENDMDL
