MODEL 1
REMARK minimizedAffinity -3.85499716
REMARK minimizedRMSD -1
REMARK  1 active torsions:
REMARK  status: ('A' for Active; 'I' for Inactive)
REMARK    1  A    between atoms: C1_2  and  C2_3 
ROOT
ATOM      1  C2  UNL d   1       1.087  -2.192   1.201  0.00  0.00    -0.077 A 
ATOM      2  C3  UNL d   1       0.508  -2.008   2.464  0.00  0.00     0.002 A 
ATOM      3  C4  UNL d   1      -0.437  -1.001   2.669  0.00  0.00     0.002 A 
ATOM      4  C5  UNL d   1      -0.815  -0.173   1.614  0.00  0.00    -0.004 A 
ATOM      5  C6  UNL d   1      -0.243  -0.346   0.354  0.00  0.00     0.002 A 
ATOM      6  C7  UNL d   1       0.703  -1.351   0.148  0.00  0.00     0.002 A 
ENDROOT
BRANCH   1   7
ATOM      7  C1  UNL d   1       2.070  -3.309   0.966  0.00  0.00     0.055 C 
ATOM      8  C   UNL d   1       3.007  -3.479   2.153  0.00  0.00     0.019 C 
ENDBRANCH   1   7
TORSDOF 1
ENDMDL
