MODEL 1
REMARK minimizedAffinity 8.50812626
REMARK minimizedRMSD -1
REMARK  1 active torsions:
REMARK  status: ('A' for Active; 'I' for Inactive)
REMARK    1  A    between atoms: C1_2  and  C2_3 
ROOT
ATOM      1  C2  UNL d   1       1.954   4.382   3.629  0.00  0.00    -0.077 A 
ATOM      2  C3  UNL d   1       3.005   5.310   3.630  0.00  0.00     0.002 A 
ATOM      3  C4  UNL d   1       3.337   6.000   4.798  0.00  0.00     0.002 A 
ATOM      4  C5  UNL d   1       2.626   5.766   5.973  0.00  0.00    -0.004 A 
ATOM      5  C6  UNL d   1       1.578   4.847   5.982  0.00  0.00     0.002 A 
ATOM      6  C7  UNL d   1       1.244   4.157   4.815  0.00  0.00     0.002 A 
ENDROOT
BRANCH   1   7
ATOM      7  C1  UNL d   1       1.627   3.600   2.384  0.00  0.00     0.055 C 
ATOM      8  C   UNL d   1       0.390   4.154   1.692  0.00  0.00     0.019 C 
ENDBRANCH   1   7
TORSDOF 1
ENDMDL
