MODEL 1
REMARK minimizedAffinity -0.799576342
REMARK minimizedRMSD -1
REMARK  1 active torsions:
REMARK  status: ('A' for Active; 'I' for Inactive)
REMARK    1  A    between atoms: C1_2  and  C2_3 
ROOT
ATOM      1  C2  UNL d   1      -4.634   0.105  -4.711  0.00  0.00    -0.077 A 
ATOM      2  C3  UNL d   1      -4.143  -0.784  -3.745  0.00  0.00     0.002 A 
ATOM      3  C4  UNL d   1      -2.870  -1.341  -3.880  0.00  0.00     0.002 A 
ATOM      4  C5  UNL d   1      -2.076  -1.011  -4.976  0.00  0.00    -0.004 A 
ATOM      5  C6  UNL d   1      -2.556  -0.128  -5.943  0.00  0.00     0.002 A 
ATOM      6  C7  UNL d   1      -3.829   0.428  -5.811  0.00  0.00     0.002 A 
ENDROOT
BRANCH   1   7
ATOM      7  C1  UNL d   1      -5.988   0.745  -4.542  0.00  0.00     0.055 C 
ATOM      8  C   UNL d   1      -5.996   2.171  -5.071  0.00  0.00     0.019 C 
ENDBRANCH   1   7
TORSDOF 1
ENDMDL
