MODEL 1
REMARK minimizedAffinity -4.91518927
REMARK minimizedRMSD -1
REMARK  1 active torsions:
REMARK  status: ('A' for Active; 'I' for Inactive)
REMARK    1  A    between atoms: C1_2  and  C2_3 
ROOT
ATOM      1  C2  UNL d   1       4.506   3.300  -5.661  0.00  0.00    -0.077 A 
ATOM      2  C3  UNL d   1       3.574   2.287  -5.928  0.00  0.00     0.002 A 
ATOM      3  C4  UNL d   1       3.846   0.965  -5.572  0.00  0.00     0.002 A 
ATOM      4  C5  UNL d   1       5.047   0.644  -4.944  0.00  0.00    -0.004 A 
ATOM      5  C6  UNL d   1       5.982   1.643  -4.676  0.00  0.00     0.002 A 
ATOM      6  C7  UNL d   1       5.712   2.965  -5.032  0.00  0.00     0.002 A 
ENDROOT
BRANCH   1   7
ATOM      7  C1  UNL d   1       4.193   4.734  -5.999  0.00  0.00     0.055 C 
ATOM      8  C   UNL d   1       2.696   4.999  -5.956  0.00  0.00     0.019 C 
ENDBRANCH   1   7
TORSDOF 1
ENDMDL
