MODEL 1
REMARK minimizedAffinity 5.38150978
REMARK minimizedRMSD -1
REMARK  0 active torsions:
REMARK  status: ('A' for Active; 'I' for Inactive)
ROOT
ATOM      1  C   UNL d   1      -2.411  -0.895   2.954  0.00  0.00     0.020 A 
ATOM      2  C1  UNL d   1      -2.242   0.404   3.431  0.00  0.00     0.020 A 
ATOM      3  C2  UNL d   1      -2.518   1.493   2.602  0.00  0.00     0.034 A 
ATOM      4  C3  UNL d   1      -2.964   1.285   1.292  0.00  0.00     0.017 A 
ATOM      5  C4  UNL d   1      -3.134  -0.019   0.814  0.00  0.00     0.017 A 
ATOM      6  C5  UNL d   1      -2.856  -1.106   1.649  0.00  0.00     0.034 A 
ATOM      7 Cl   UNL d   1      -3.681  -0.355  -0.790  0.00  0.00    -0.070 Cl
ATOM      8 Cl1  UNL d   1      -3.287   2.678   0.322  0.00  0.00    -0.070 Cl
ENDROOT
TORSDOF 0
ENDMDL
