MODEL 1
REMARK minimizedAffinity -0.0874540955
REMARK minimizedRMSD -1
REMARK  0 active torsions:
REMARK  status: ('A' for Active; 'I' for Inactive)
ROOT
ATOM      1  C   UNL d   1      -2.448  -0.358   3.846  0.00  0.00     0.020 A 
ATOM      2  C1  UNL d   1      -2.094   0.578   2.875  0.00  0.00     0.020 A 
ATOM      3  C2  UNL d   1      -2.950   0.826   1.800  0.00  0.00     0.034 A 
ATOM      4  C3  UNL d   1      -4.164   0.137   1.693  0.00  0.00     0.017 A 
ATOM      5  C4  UNL d   1      -4.518  -0.802   2.668  0.00  0.00     0.017 A 
ATOM      6  C5  UNL d   1      -3.657  -1.047   3.743  0.00  0.00     0.034 A 
ATOM      7 Cl   UNL d   1      -5.999  -1.692   2.605  0.00  0.00    -0.070 Cl
ATOM      8 Cl1  UNL d   1      -5.174   0.494   0.337  0.00  0.00    -0.070 Cl
ENDROOT
TORSDOF 0
ENDMDL
