MODEL 1
REMARK minimizedAffinity 3.38391376
REMARK minimizedRMSD -1
REMARK  0 active torsions:
REMARK  status: ('A' for Active; 'I' for Inactive)
ROOT
ATOM      1  C   UNL d   1      -3.440   4.362   0.187  0.00  0.00     0.020 A 
ATOM      2  C1  UNL d   1      -4.515   3.621   0.677  0.00  0.00     0.020 A 
ATOM      3  C2  UNL d   1      -4.470   2.226   0.653  0.00  0.00     0.034 A 
ATOM      4  C3  UNL d   1      -3.347   1.566   0.139  0.00  0.00     0.017 A 
ATOM      5  C4  UNL d   1      -2.269   2.311  -0.352  0.00  0.00     0.017 A 
ATOM      6  C5  UNL d   1      -2.320   3.708  -0.327  0.00  0.00     0.034 A 
ATOM      7 Cl   UNL d   1      -0.850   1.568  -1.002  0.00  0.00    -0.070 Cl
ATOM      8 Cl1  UNL d   1      -3.359  -0.161   0.142  0.00  0.00    -0.070 Cl
ENDROOT
TORSDOF 0
ENDMDL
