MODEL 1
REMARK minimizedAffinity -2.45687723
REMARK minimizedRMSD -1
REMARK  0 active torsions:
REMARK  status: ('A' for Active; 'I' for Inactive)
ROOT
ATOM      1  C   UNL d   1      -2.386   3.052   0.491  0.00  0.00     0.020 A 
ATOM      2  C1  UNL d   1      -1.993   2.341  -0.642  0.00  0.00     0.020 A 
ATOM      3  C2  UNL d   1      -1.801   0.959  -0.568  0.00  0.00     0.034 A 
ATOM      4  C3  UNL d   1      -2.002   0.285   0.643  0.00  0.00     0.017 A 
ATOM      5  C4  UNL d   1      -2.397   1.000   1.779  0.00  0.00     0.017 A 
ATOM      6  C5  UNL d   1      -2.588   2.383   1.699  0.00  0.00     0.034 A 
ATOM      7 Cl   UNL d   1      -2.664   0.238   3.307  0.00  0.00    -0.070 Cl
ATOM      8 Cl1  UNL d   1      -1.747  -1.423   0.662  0.00  0.00    -0.070 Cl
ENDROOT
TORSDOF 0
ENDMDL
