MODEL 1
REMARK minimizedAffinity 0.130946413
REMARK minimizedRMSD -1
REMARK  0 active torsions:
REMARK  status: ('A' for Active; 'I' for Inactive)
ROOT
ATOM      1  C   UNL d   1      -2.945   1.908   1.177  0.00  0.00     0.020 A 
ATOM      2  C1  UNL d   1      -2.623   2.061  -0.171  0.00  0.00     0.020 A 
ATOM      3  C2  UNL d   1      -2.620   3.332  -0.749  0.00  0.00     0.034 A 
ATOM      4  C3  UNL d   1      -2.938   4.456   0.022  0.00  0.00     0.017 A 
ATOM      5  C4  UNL d   1      -3.261   4.302   1.375  0.00  0.00     0.017 A 
ATOM      6  C5  UNL d   1      -3.264   3.027   1.948  0.00  0.00     0.034 A 
ATOM      7 Cl   UNL d   1      -3.665   5.642   2.390  0.00  0.00    -0.070 Cl
ATOM      8 Cl1  UNL d   1      -2.913   5.998  -0.758  0.00  0.00    -0.070 Cl
ENDROOT
TORSDOF 0
ENDMDL
