MODEL 1
REMARK minimizedAffinity -3.42670035
REMARK minimizedRMSD -1
REMARK  0 active torsions:
REMARK  status: ('A' for Active; 'I' for Inactive)
ROOT
ATOM      1  C   UNL d   1      -2.168  -0.180   3.516  0.00  0.00     0.020 A 
ATOM      2  C1  UNL d   1      -3.466   0.311   3.383  0.00  0.00     0.020 A 
ATOM      3  C2  UNL d   1      -4.134   0.197   2.162  0.00  0.00     0.034 A 
ATOM      4  C3  UNL d   1      -3.505  -0.410   1.069  0.00  0.00     0.017 A 
ATOM      5  C4  UNL d   1      -2.202  -0.903   1.204  0.00  0.00     0.017 A 
ATOM      6  C5  UNL d   1      -1.537  -0.786   2.429  0.00  0.00     0.034 A 
ATOM      7 Cl   UNL d   1      -1.360  -1.665  -0.099  0.00  0.00    -0.070 Cl
ATOM      8 Cl1  UNL d   1      -4.390  -0.518  -0.410  0.00  0.00    -0.070 Cl
ENDROOT
TORSDOF 0
ENDMDL
