MODEL 1
REMARK minimizedAffinity 0.0937058777
REMARK minimizedRMSD -1
REMARK  0 active torsions:
REMARK  status: ('A' for Active; 'I' for Inactive)
ROOT
ATOM      1  C   UNL d   1      -2.969   3.542   0.263  0.00  0.00     0.020 A 
ATOM      2  C1  UNL d   1      -2.694   3.614   1.628  0.00  0.00     0.020 A 
ATOM      3  C2  UNL d   1      -2.635   2.446   2.391  0.00  0.00     0.034 A 
ATOM      4  C3  UNL d   1      -2.852   1.201   1.790  0.00  0.00     0.017 A 
ATOM      5  C4  UNL d   1      -3.128   1.129   0.420  0.00  0.00     0.017 A 
ATOM      6  C5  UNL d   1      -3.185   2.302  -0.340  0.00  0.00     0.034 A 
ATOM      7 Cl   UNL d   1      -3.406  -0.371  -0.393  0.00  0.00    -0.070 Cl
ATOM      8 Cl1  UNL d   1      -2.764  -0.202   2.794  0.00  0.00    -0.070 Cl
ENDROOT
TORSDOF 0
ENDMDL
