MODEL 1
REMARK minimizedAffinity -0.708625436
REMARK minimizedRMSD -1
REMARK  0 active torsions:
REMARK  status: ('A' for Active; 'I' for Inactive)
ROOT
ATOM      1  C   UNL d   1      -2.980   2.377  -0.276  0.00  0.00     0.020 A 
ATOM      2  C1  UNL d   1      -2.860   2.988   0.972  0.00  0.00     0.020 A 
ATOM      3  C2  UNL d   1      -2.681   2.209   2.117  0.00  0.00     0.034 A 
ATOM      4  C3  UNL d   1      -2.620   0.815   2.017  0.00  0.00     0.017 A 
ATOM      5  C4  UNL d   1      -2.740   0.202   0.765  0.00  0.00     0.017 A 
ATOM      6  C5  UNL d   1      -2.920   0.986  -0.379  0.00  0.00     0.034 A 
ATOM      7 Cl   UNL d   1      -2.675  -1.514   0.562  0.00  0.00    -0.070 Cl
ATOM      8 Cl1  UNL d   1      -2.396  -0.086   3.474  0.00  0.00    -0.070 Cl
ENDROOT
TORSDOF 0
ENDMDL
