MODEL 1
REMARK minimizedAffinity 7.88187742
REMARK minimizedRMSD -1
REMARK  0 active torsions:
REMARK  status: ('A' for Active; 'I' for Inactive)
ROOT
ATOM      1  C   UNL d   1      -4.900  -0.036   3.560  0.00  0.00     0.020 A 
ATOM      2  C1  UNL d   1      -3.728   0.450   2.982  0.00  0.00     0.020 A 
ATOM      3  C2  UNL d   1      -2.530  -0.249   3.140  0.00  0.00     0.034 A 
ATOM      4  C3  UNL d   1      -2.501  -1.438   3.878  0.00  0.00     0.017 A 
ATOM      5  C4  UNL d   1      -3.678  -1.925   4.458  0.00  0.00     0.017 A 
ATOM      6  C5  UNL d   1      -4.875  -1.221   4.296  0.00  0.00     0.034 A 
ATOM      7 Cl   UNL d   1      -3.720  -3.385   5.382  0.00  0.00    -0.070 Cl
ATOM      8 Cl1  UNL d   1      -0.984  -2.251   4.033  0.00  0.00    -0.070 Cl
ENDROOT
TORSDOF 0
ENDMDL
