MODEL 1
REMARK minimizedAffinity 0.957307935
REMARK minimizedRMSD -1
REMARK  0 active torsions:
REMARK  status: ('A' for Active; 'I' for Inactive)
ROOT
ATOM      1  C   UNL d   1      -3.177  -1.251   0.827  0.00  0.00     0.020 A 
ATOM      2  C1  UNL d   1      -3.175  -0.291  -0.183  0.00  0.00     0.020 A 
ATOM      3  C2  UNL d   1      -3.001   1.057   0.135  0.00  0.00     0.034 A 
ATOM      4  C3  UNL d   1      -2.828   1.449   1.468  0.00  0.00     0.017 A 
ATOM      5  C4  UNL d   1      -2.831   0.484   2.482  0.00  0.00     0.017 A 
ATOM      6  C5  UNL d   1      -3.005  -0.864   2.157  0.00  0.00     0.034 A 
ATOM      7 Cl   UNL d   1      -2.623   0.891   4.149  0.00  0.00    -0.070 Cl
ATOM      8 Cl1  UNL d   1      -2.617   3.134   1.789  0.00  0.00    -0.070 Cl
ENDROOT
TORSDOF 0
ENDMDL
