MODEL 1
REMARK minimizedAffinity -2.33767629
REMARK minimizedRMSD -1
REMARK  0 active torsions:
REMARK  status: ('A' for Active; 'I' for Inactive)
ROOT
ATOM      1  C   UNL d   1      -2.280   2.086  -0.484  0.00  0.00     0.020 A 
ATOM      2  C1  UNL d   1      -2.529   2.663   0.761  0.00  0.00     0.020 A 
ATOM      3  C2  UNL d   1      -2.611   1.858   1.899  0.00  0.00     0.034 A 
ATOM      4  C3  UNL d   1      -2.444   0.472   1.795  0.00  0.00     0.017 A 
ATOM      5  C4  UNL d   1      -2.194  -0.106   0.545  0.00  0.00     0.017 A 
ATOM      6  C5  UNL d   1      -2.113   0.705  -0.592  0.00  0.00     0.034 A 
ATOM      7 Cl   UNL d   1      -1.977  -1.808   0.337  0.00  0.00    -0.070 Cl
ATOM      8 Cl1  UNL d   1      -2.558  -0.463   3.244  0.00  0.00    -0.070 Cl
ENDROOT
TORSDOF 0
ENDMDL
