MODEL 1
REMARK minimizedAffinity 7.20455742
REMARK minimizedRMSD -1
REMARK  0 active torsions:
REMARK  status: ('A' for Active; 'I' for Inactive)
ROOT
ATOM      1  C   UNL d   1      -3.997  -0.804   3.678  0.00  0.00     0.020 A 
ATOM      2  C1  UNL d   1      -2.779  -0.165   3.909  0.00  0.00     0.020 A 
ATOM      3  C2  UNL d   1      -2.170   0.567   2.888  0.00  0.00     0.034 A 
ATOM      4  C3  UNL d   1      -2.778   0.663   1.631  0.00  0.00     0.017 A 
ATOM      5  C4  UNL d   1      -4.000   0.022   1.400  0.00  0.00     0.017 A 
ATOM      6  C5  UNL d   1      -4.606  -0.710   2.426  0.00  0.00     0.034 A 
ATOM      7 Cl   UNL d   1      -4.811   0.094  -0.125  0.00  0.00    -0.070 Cl
ATOM      8 Cl1  UNL d   1      -1.968   1.585   0.415  0.00  0.00    -0.070 Cl
ENDROOT
TORSDOF 0
ENDMDL
