MODEL 1
REMARK minimizedAffinity -1.15621197
REMARK minimizedRMSD -1
REMARK  0 active torsions:
REMARK  status: ('A' for Active; 'I' for Inactive)
ROOT
ATOM      1  C   UNL d   1      -2.973   3.166   0.590  0.00  0.00     0.020 A 
ATOM      2  C1  UNL d   1      -3.161   2.335  -0.514  0.00  0.00     0.020 A 
ATOM      3  C2  UNL d   1      -2.957   0.959  -0.396  0.00  0.00     0.034 A 
ATOM      4  C3  UNL d   1      -2.562   0.409   0.829  0.00  0.00     0.017 A 
ATOM      5  C4  UNL d   1      -2.373   1.243   1.937  0.00  0.00     0.017 A 
ATOM      6  C5  UNL d   1      -2.580   2.620   1.813  0.00  0.00     0.034 A 
ATOM      7 Cl   UNL d   1      -1.887   0.637   3.481  0.00  0.00    -0.070 Cl
ATOM      8 Cl1  UNL d   1      -2.328  -1.302   0.903  0.00  0.00    -0.070 Cl
ENDROOT
TORSDOF 0
ENDMDL
