MODEL 1
REMARK minimizedAffinity -1.41660464
REMARK minimizedRMSD -1
REMARK  0 active torsions:
REMARK  status: ('A' for Active; 'I' for Inactive)
ROOT
ATOM      1  C   UNL d   1      -3.171   2.538  -0.183  0.00  0.00     0.020 A 
ATOM      2  C1  UNL d   1      -3.128   3.209   1.038  0.00  0.00     0.020 A 
ATOM      3  C2  UNL d   1      -2.929   2.494   2.221  0.00  0.00     0.034 A 
ATOM      4  C3  UNL d   1      -2.774   1.103   2.185  0.00  0.00     0.017 A 
ATOM      5  C4  UNL d   1      -2.818   0.431   0.959  0.00  0.00     0.017 A 
ATOM      6  C5  UNL d   1      -3.016   1.152  -0.223  0.00  0.00     0.034 A 
ATOM      7 Cl   UNL d   1      -2.634  -1.283   0.834  0.00  0.00    -0.070 Cl
ATOM      8 Cl1  UNL d   1      -2.532   0.283   3.686  0.00  0.00    -0.070 Cl
ENDROOT
TORSDOF 0
ENDMDL
