MODEL 1
REMARK minimizedAffinity -1.5318532
REMARK minimizedRMSD -1
REMARK  0 active torsions:
REMARK  status: ('A' for Active; 'I' for Inactive)
ROOT
ATOM      1  C   UNL d   1      -2.483   2.257  -0.076  0.00  0.00     0.020 A 
ATOM      2  C1  UNL d   1      -2.589   2.792   1.207  0.00  0.00     0.020 A 
ATOM      3  C2  UNL d   1      -2.613   1.946   2.317  0.00  0.00     0.034 A 
ATOM      4  C3  UNL d   1      -2.530   0.559   2.146  0.00  0.00     0.017 A 
ATOM      5  C4  UNL d   1      -2.423   0.022   0.858  0.00  0.00     0.017 A 
ATOM      6  C5  UNL d   1      -2.400   0.875  -0.250  0.00  0.00     0.034 A 
ATOM      7 Cl   UNL d   1      -2.316  -1.678   0.568  0.00  0.00    -0.070 Cl
ATOM      8 Cl1  UNL d   1      -2.565  -0.429   3.564  0.00  0.00    -0.070 Cl
ENDROOT
TORSDOF 0
ENDMDL
