MODEL 1
REMARK minimizedAffinity -2.61161542
REMARK minimizedRMSD -1
REMARK  0 active torsions:
REMARK  status: ('A' for Active; 'I' for Inactive)
ROOT
ATOM      1  C   UNL d   1      -3.319  -0.842   3.367  0.00  0.00     0.020 A 
ATOM      2  C1  UNL d   1      -2.480  -0.159   2.488  0.00  0.00     0.020 A 
ATOM      3  C2  UNL d   1      -2.507   1.236   2.439  0.00  0.00     0.034 A 
ATOM      4  C3  UNL d   1      -3.375   1.953   3.270  0.00  0.00     0.017 A 
ATOM      5  C4  UNL d   1      -4.218   1.267   4.151  0.00  0.00     0.017 A 
ATOM      6  C5  UNL d   1      -4.187  -0.130   4.197  0.00  0.00     0.034 A 
ATOM      7 Cl   UNL d   1      -5.317   2.082   5.207  0.00  0.00    -0.070 Cl
ATOM      8 Cl1  UNL d   1      -3.356   3.677   3.156  0.00  0.00    -0.070 Cl
ENDROOT
TORSDOF 0
ENDMDL
