MODEL 1
REMARK minimizedAffinity 12.4049568
REMARK minimizedRMSD -1
REMARK  0 active torsions:
REMARK  status: ('A' for Active; 'I' for Inactive)
ROOT
ATOM      1  C   UNL d   1      -1.732   0.557   3.381  0.00  0.00     0.020 A 
ATOM      2  C1  UNL d   1      -2.133  -0.267   4.432  0.00  0.00     0.020 A 
ATOM      3  C2  UNL d   1      -3.380  -0.893   4.392  0.00  0.00     0.034 A 
ATOM      4  C3  UNL d   1      -4.232  -0.695   3.299  0.00  0.00     0.017 A 
ATOM      5  C4  UNL d   1      -3.829   0.132   2.245  0.00  0.00     0.017 A 
ATOM      6  C5  UNL d   1      -2.579   0.756   2.290  0.00  0.00     0.034 A 
ATOM      7 Cl   UNL d   1      -4.826   0.424   0.863  0.00  0.00    -0.070 Cl
ATOM      8 Cl1  UNL d   1      -5.761  -1.501   3.316  0.00  0.00    -0.070 Cl
ENDROOT
TORSDOF 0
ENDMDL
