MODEL 1
REMARK minimizedAffinity 2.22287607
REMARK minimizedRMSD -1
REMARK  0 active torsions:
REMARK  status: ('A' for Active; 'I' for Inactive)
ROOT
ATOM      1  C   UNL d   1      -3.141   0.543   0.597  0.00  0.00     0.020 A 
ATOM      2  C1  UNL d   1      -3.096   0.587   1.990  0.00  0.00     0.020 A 
ATOM      3  C2  UNL d   1      -2.988   1.815   2.647  0.00  0.00     0.034 A 
ATOM      4  C3  UNL d   1      -2.923   3.003   1.911  0.00  0.00     0.017 A 
ATOM      5  C4  UNL d   1      -2.967   2.958   0.513  0.00  0.00     0.017 A 
ATOM      6  C5  UNL d   1      -3.076   1.727  -0.140  0.00  0.00     0.034 A 
ATOM      7 Cl   UNL d   1      -2.892   4.383  -0.463  0.00  0.00    -0.070 Cl
ATOM      8 Cl1  UNL d   1      -2.789   4.486   2.789  0.00  0.00    -0.070 Cl
ENDROOT
TORSDOF 0
ENDMDL
