MODEL 1
REMARK minimizedAffinity 3.38087797
REMARK minimizedRMSD -1
REMARK  0 active torsions:
REMARK  status: ('A' for Active; 'I' for Inactive)
ROOT
ATOM      1  C   UNL d   1      -3.429  -0.242   2.748  0.00  0.00     0.020 A 
ATOM      2  C1  UNL d   1      -3.960  -0.652   3.970  0.00  0.00     0.020 A 
ATOM      3  C2  UNL d   1      -4.241   0.292   4.960  0.00  0.00     0.034 A 
ATOM      4  C3  UNL d   1      -3.992   1.650   4.730  0.00  0.00     0.017 A 
ATOM      5  C4  UNL d   1      -3.459   2.060   3.503  0.00  0.00     0.017 A 
ATOM      6  C5  UNL d   1      -3.179   1.111   2.514  0.00  0.00     0.034 A 
ATOM      7 Cl   UNL d   1      -3.124   3.717   3.145  0.00  0.00    -0.070 Cl
ATOM      8 Cl1  UNL d   1      -4.363   2.762   5.999  0.00  0.00    -0.070 Cl
ENDROOT
TORSDOF 0
ENDMDL
