MODEL 1
REMARK minimizedAffinity 4.96699476
REMARK minimizedRMSD -1
REMARK  0 active torsions:
REMARK  status: ('A' for Active; 'I' for Inactive)
ROOT
ATOM      1  C1  DEN d   1      -2.904   1.113   2.038  0.00  0.00     0.130 A 
ATOM      2  C2  DEN d   1      -3.825   2.226   1.823  0.00  0.00    -0.031 A 
ATOM      3  C3  DEN d   1      -3.869   3.028   3.061  0.00  0.00     0.027 A 
ATOM      4  C4  DEN d   1      -2.603   2.661   5.279  0.00  0.00     0.027 A 
ATOM      5  C5  DEN d   1      -1.716   1.843   5.942  0.00  0.00    -0.003 A 
ATOM      6  C6  DEN d   1      -1.193   0.715   5.368  0.00  0.00     0.001 A 
ATOM      7  C7  DEN d   1      -1.519   0.398   4.076  0.00  0.00     0.017 A 
ATOM      8  C8  DEN d   1      -2.418   1.214   3.403  0.00  0.00    -0.094 A 
ATOM      9  C9  DEN d   1      -2.926   2.357   3.996  0.00  0.00    -0.072 A 
ENDROOT
TORSDOF 0
ENDMDL
