MODEL 1
REMARK minimizedAffinity 1.13398242
REMARK minimizedRMSD -1
REMARK  0 active torsions:
REMARK  status: ('A' for Active; 'I' for Inactive)
ROOT
ATOM      1  C1  DEN d   1       1.346   2.816  -2.623  0.00  0.00     0.130 A 
ATOM      2  C2  DEN d   1       0.862   3.952  -1.844  0.00  0.00    -0.031 A 
ATOM      3  C3  DEN d   1       0.519   3.466  -0.492  0.00  0.00     0.027 A 
ATOM      4  C4  DEN d   1       0.696   1.079   0.467  0.00  0.00     0.027 A 
ATOM      5  C5  DEN d   1       1.041  -0.223   0.180  0.00  0.00    -0.003 A 
ATOM      6  C6  DEN d   1       1.478  -0.607  -1.061  0.00  0.00     0.001 A 
ATOM      7  C7  DEN d   1       1.622   0.331  -2.049  0.00  0.00     0.017 A 
ATOM      8  C8  DEN d   1       1.268   1.644  -1.770  0.00  0.00    -0.094 A 
ATOM      9  C9  DEN d   1       0.841   2.014  -0.506  0.00  0.00    -0.072 A 
ENDROOT
TORSDOF 0
ENDMDL
