MODEL 1
REMARK minimizedAffinity 4.48558617
REMARK minimizedRMSD -1
REMARK  0 active torsions:
REMARK  status: ('A' for Active; 'I' for Inactive)
ROOT
ATOM      1  C1  DEN d   1       1.657   0.090  -0.239  0.00  0.00     0.130 A 
ATOM      2  C2  DEN d   1       1.396  -0.234  -1.638  0.00  0.00    -0.031 A 
ATOM      3  C3  DEN d   1       1.006   1.010  -2.331  0.00  0.00     0.027 A 
ATOM      4  C4  DEN d   1       0.786   3.397  -1.377  0.00  0.00     0.027 A 
ATOM      5  C5  DEN d   1       0.892   4.165  -0.239  0.00  0.00    -0.003 A 
ATOM      6  C6  DEN d   1       1.225   3.628   0.976  0.00  0.00     0.001 A 
ATOM      7  C7  DEN d   1       1.508   2.291   1.073  0.00  0.00     0.017 A 
ATOM      8  C8  DEN d   1       1.395   1.508  -0.069  0.00  0.00    -0.094 A 
ATOM      9  C9  DEN d   1       1.069   2.072  -1.291  0.00  0.00    -0.072 A 
ENDROOT
TORSDOF 0
ENDMDL
