MODEL 1
REMARK minimizedAffinity 0.903900504
REMARK minimizedRMSD -1
REMARK  0 active torsions:
REMARK  status: ('A' for Active; 'I' for Inactive)
ROOT
ATOM      1  C1  DEN d   1       1.106  -0.024   0.387  0.00  0.00     0.130 A 
ATOM      2  C2  DEN d   1       1.133  -0.962  -0.732  0.00  0.00    -0.031 A 
ATOM      3  C3  DEN d   1       1.045  -0.182  -1.983  0.00  0.00     0.027 A 
ATOM      4  C4  DEN d   1       0.876   2.373  -2.294  0.00  0.00     0.027 A 
ATOM      5  C5  DEN d   1       0.807   3.582  -1.637  0.00  0.00    -0.003 A 
ATOM      6  C6  DEN d   1       0.798   3.670  -0.270  0.00  0.00     0.001 A 
ATOM      7  C7  DEN d   1       0.905   2.532   0.485  0.00  0.00     0.017 A 
ATOM      8  C8  DEN d   1       0.968   1.309  -0.171  0.00  0.00    -0.094 A 
ATOM      9  C9  DEN d   1       0.988   1.242  -1.553  0.00  0.00    -0.072 A 
ENDROOT
TORSDOF 0
ENDMDL
