MODEL 1
REMARK minimizedAffinity 8.35545826
REMARK minimizedRMSD -1
REMARK  0 active torsions:
REMARK  status: ('A' for Active; 'I' for Inactive)
ROOT
ATOM      1  C1  DEN d   1      -2.014   2.164   2.050  0.00  0.00     0.130 A 
ATOM      2  C2  DEN d   1      -3.341   2.657   1.693  0.00  0.00    -0.031 A 
ATOM      3  C3  DEN d   1      -4.211   2.525   2.879  0.00  0.00     0.027 A 
ATOM      4  C4  DEN d   1      -3.634   1.613   5.222  0.00  0.00     0.027 A 
ATOM      5  C5  DEN d   1      -2.637   1.067   5.999  0.00  0.00    -0.003 A 
ATOM      6  C6  DEN d   1      -1.382   0.819   5.509  0.00  0.00     0.001 A 
ATOM      7  C7  DEN d   1      -1.078   1.159   4.218  0.00  0.00     0.017 A 
ATOM      8  C8  DEN d   1      -2.080   1.703   3.425  0.00  0.00    -0.094 A 
ATOM      9  C9  DEN d   1      -3.339   1.958   3.943  0.00  0.00    -0.072 A 
ENDROOT
TORSDOF 0
ENDMDL
