MODEL 1
REMARK minimizedAffinity -3.01949692
REMARK minimizedRMSD -1
REMARK  0 active torsions:
REMARK  status: ('A' for Active; 'I' for Inactive)
ROOT
ATOM      1  C1  DEN d   1       1.083   0.127   0.878  0.00  0.00     0.130 A 
ATOM      2  C2  DEN d   1       1.056  -0.815  -0.237  0.00  0.00    -0.031 A 
ATOM      3  C3  DEN d   1       0.989  -0.036  -1.490  0.00  0.00     0.027 A 
ATOM      4  C4  DEN d   1       0.929   2.523  -1.810  0.00  0.00     0.027 A 
ATOM      5  C5  DEN d   1       0.921   3.735  -1.157  0.00  0.00    -0.003 A 
ATOM      6  C6  DEN d   1       0.932   3.829   0.209  0.00  0.00     0.001 A 
ATOM      7  C7  DEN d   1       0.997   2.690   0.967  0.00  0.00     0.017 A 
ATOM      8  C8  DEN d   1       0.998   1.463   0.317  0.00  0.00    -0.094 A 
ATOM      9  C9  DEN d   1       0.999   1.390  -1.066  0.00  0.00    -0.072 A 
ENDROOT
TORSDOF 0
ENDMDL
