MODEL 1
REMARK minimizedAffinity -5.46837521
REMARK minimizedRMSD -1
REMARK  0 active torsions:
REMARK  status: ('A' for Active; 'I' for Inactive)
ROOT
ATOM      1  C1  DEN d   1       1.878   1.994   1.121  0.00  0.00     0.130 A 
ATOM      2  C2  DEN d   1       1.460   3.386   0.979  0.00  0.00    -0.031 A 
ATOM      3  C3  DEN d   1       1.027   3.592  -0.418  0.00  0.00     0.027 A 
ATOM      4  C4  DEN d   1       0.960   1.899  -2.363  0.00  0.00     0.027 A 
ATOM      5  C5  DEN d   1       1.229   0.599  -2.729  0.00  0.00    -0.003 A 
ATOM      6  C6  DEN d   1       1.760  -0.311  -1.854  0.00  0.00     0.001 A 
ATOM      7  C7  DEN d   1       1.998   0.055  -0.555  0.00  0.00     0.017 A 
ATOM      8  C8  DEN d   1       1.736   1.366  -0.181  0.00  0.00    -0.094 A 
ATOM      9  C9  DEN d   1       1.188   2.268  -1.077  0.00  0.00    -0.072 A 
ENDROOT
TORSDOF 0
ENDMDL
