MODEL 1
REMARK minimizedAffinity 4.07232189
REMARK minimizedRMSD -1
REMARK  0 active torsions:
REMARK  status: ('A' for Active; 'I' for Inactive)
ROOT
ATOM      1  C1  DEN d   1       1.259   2.897  -0.399  0.00  0.00     0.130 A 
ATOM      2  C2  DEN d   1       1.158   3.101  -1.841  0.00  0.00    -0.031 A 
ATOM      3  C3  DEN d   1       0.863   1.796  -2.467  0.00  0.00     0.027 A 
ATOM      4  C4  DEN d   1       0.551  -0.507  -1.349  0.00  0.00     0.027 A 
ATOM      5  C5  DEN d   1       0.556  -1.181  -0.148  0.00  0.00    -0.003 A 
ATOM      6  C6  DEN d   1       0.827  -0.556   1.040  0.00  0.00     0.001 A 
ATOM      7  C7  DEN d   1       1.060   0.794   1.058  0.00  0.00     0.017 A 
ATOM      8  C8  DEN d   1       1.064   1.480  -0.149  0.00  0.00    -0.094 A 
ATOM      9  C9  DEN d   1       0.776   0.831  -1.338  0.00  0.00    -0.072 A 
ENDROOT
TORSDOF 0
ENDMDL
