MODEL 1
REMARK minimizedAffinity 2.92343473
REMARK minimizedRMSD -1
REMARK  0 active torsions:
REMARK  status: ('A' for Active; 'I' for Inactive)
ROOT
ATOM      1  C1  DEN d   1       0.881   2.006  -2.861  0.00  0.00     0.130 A 
ATOM      2  C2  DEN d   1       1.071   0.583  -2.595  0.00  0.00    -0.031 A 
ATOM      3  C3  DEN d   1       1.260   0.411  -1.141  0.00  0.00     0.027 A 
ATOM      4  C4  DEN d   1       1.272   2.201   0.716  0.00  0.00     0.027 A 
ATOM      5  C5  DEN d   1       1.163   3.549   0.977  0.00  0.00    -0.003 A 
ATOM      6  C6  DEN d   1       0.988   4.473  -0.019  0.00  0.00     0.001 A 
ATOM      7  C7  DEN d   1       0.871   4.057  -1.318  0.00  0.00     0.017 A 
ATOM      8  C8  DEN d   1       0.987   2.700  -1.590  0.00  0.00    -0.094 A 
ATOM      9  C9  DEN d   1       1.152   1.780  -0.568  0.00  0.00    -0.072 A 
ENDROOT
TORSDOF 0
ENDMDL
