MODEL 1
REMARK minimizedAffinity 13.2315273
REMARK minimizedRMSD -1
REMARK  0 active torsions:
REMARK  status: ('A' for Active; 'I' for Inactive)
ROOT
ATOM      1  C1  DEN d   1      -2.421   2.447  -1.858  0.00  0.00     0.130 A 
ATOM      2  C2  DEN d   1      -2.588   3.808  -2.362  0.00  0.00    -0.031 A 
ATOM      3  C3  DEN d   1      -1.247   4.364  -2.628  0.00  0.00     0.027 A 
ATOM      4  C4  DEN d   1       1.061   3.255  -2.314  0.00  0.00     0.027 A 
ATOM      5  C5  DEN d   1       1.711   2.113  -1.901  0.00  0.00    -0.003 A 
ATOM      6  C6  DEN d   1       1.036   1.024  -1.416  0.00  0.00     0.001 A 
ATOM      7  C7  DEN d   1      -0.333   1.037  -1.375  0.00  0.00     0.017 A 
ATOM      8  C8  DEN d   1      -0.995   2.187  -1.783  0.00  0.00    -0.094 A 
ATOM      9  C9  DEN d   1      -0.296   3.273  -2.281  0.00  0.00    -0.072 A 
ENDROOT
TORSDOF 0
ENDMDL
