MODEL 1
REMARK minimizedAffinity 0.980109453
REMARK minimizedRMSD -1
REMARK  0 active torsions:
REMARK  status: ('A' for Active; 'I' for Inactive)
ROOT
ATOM      1  C1  DEN d   1       1.025  -1.226  -1.870  0.00  0.00     0.130 A 
ATOM      2  C2  DEN d   1       1.135  -2.166  -0.758  0.00  0.00    -0.031 A 
ATOM      3  C3  DEN d   1       1.115  -1.391   0.499  0.00  0.00     0.027 A 
ATOM      4  C4  DEN d   1       0.919   1.160   0.828  0.00  0.00     0.027 A 
ATOM      5  C5  DEN d   1       0.813   2.371   0.180  0.00  0.00    -0.003 A 
ATOM      6  C6  DEN d   1       0.804   2.469  -1.186  0.00  0.00     0.001 A 
ATOM      7  C7  DEN d   1       0.858   1.333  -1.949  0.00  0.00     0.017 A 
ATOM      8  C8  DEN d   1       0.973   0.109  -1.303  0.00  0.00    -0.094 A 
ATOM      9  C9  DEN d   1       0.967   0.029   0.079  0.00  0.00    -0.072 A 
ENDROOT
TORSDOF 0
ENDMDL
