MODEL 1
REMARK minimizedAffinity 16.4155083
REMARK minimizedRMSD -1
REMARK  0 active torsions:
REMARK  status: ('A' for Active; 'I' for Inactive)
ROOT
ATOM      1  C1  DEN d   1       1.923   1.115  -0.981  0.00  0.00     0.130 A 
ATOM      2  C2  DEN d   1       1.388  -0.042  -1.693  0.00  0.00    -0.031 A 
ATOM      3  C3  DEN d   1       0.324   0.431  -2.601  0.00  0.00     0.027 A 
ATOM      4  C4  DEN d   1      -0.539   2.833  -2.975  0.00  0.00     0.027 A 
ATOM      5  C5  DEN d   1      -0.401   4.148  -2.590  0.00  0.00    -0.003 A 
ATOM      6  C6  DEN d   1       0.491   4.537  -1.625  0.00  0.00     0.001 A 
ATOM      7  C7  DEN d   1       1.311   3.606  -1.044  0.00  0.00     0.017 A 
ATOM      8  C8  DEN d   1       1.172   2.277  -1.422  0.00  0.00    -0.094 A 
ATOM      9  C9  DEN d   1       0.274   1.906  -2.408  0.00  0.00    -0.072 A 
ENDROOT
TORSDOF 0
ENDMDL
