MODEL 1
REMARK minimizedAffinity 5.21778631
REMARK minimizedRMSD -1
REMARK  0 active torsions:
REMARK  status: ('A' for Active; 'I' for Inactive)
ROOT
ATOM      1  C1  DEN d   1       1.447   2.419  -2.334  0.00  0.00     0.130 A 
ATOM      2  C2  DEN d   1       1.502   1.127  -1.655  0.00  0.00    -0.031 A 
ATOM      3  C3  DEN d   1       1.404   1.372  -0.202  0.00  0.00     0.027 A 
ATOM      4  C4  DEN d   1       1.171   3.612   1.055  0.00  0.00     0.027 A 
ATOM      5  C5  DEN d   1       1.093   4.979   0.907  0.00  0.00    -0.003 A 
ATOM      6  C6  DEN d   1       1.161   5.586  -0.319  0.00  0.00     0.001 A 
ATOM      7  C7  DEN d   1       1.267   4.821  -1.450  0.00  0.00     0.017 A 
ATOM      8  C8  DEN d   1       1.353   3.442  -1.308  0.00  0.00    -0.094 A 
ATOM      9  C9  DEN d   1       1.270   2.847  -0.061  0.00  0.00    -0.072 A 
ENDROOT
TORSDOF 0
ENDMDL
