MODEL 1
REMARK minimizedAffinity 2.09758306
REMARK minimizedRMSD -1
REMARK  2 active torsions:
REMARK  status: ('A' for Active; 'I' for Inactive)
REMARK    1  A    between atoms: C1_2  and  C2_3 
REMARK    2  A    between atoms: C2_3  and  C3_4 
ROOT
ATOM      1  C3  UNL d   1       0.661  -1.357  -1.250  0.00  0.00    -0.075 A 
ATOM      2  C4  UNL d   1       1.707  -2.184  -0.813  0.00  0.00     0.002 A 
ATOM      3  C5  UNL d   1       1.560  -3.571  -0.813  0.00  0.00     0.002 A 
ATOM      4  C6  UNL d   1       0.366  -4.149  -1.239  0.00  0.00    -0.004 A 
ATOM      5  C7  UNL d   1      -0.685  -3.337  -1.660  0.00  0.00     0.002 A 
ATOM      6  C8  UNL d   1      -0.539  -1.949  -1.665  0.00  0.00     0.002 A 
ENDROOT
BRANCH   1   7
ATOM      7  C2  UNL d   1       0.824   0.143  -1.281  0.00  0.00     0.056 C 
BRANCH   7   8
ATOM      8  C1  UNL d   1       2.004   0.660  -0.451  0.00  0.00     0.007 C 
ATOM      9  C   UNL d   1       1.605   1.099   0.952  0.00  0.00     0.009 C 
ENDBRANCH   7   8
ENDBRANCH   1   7
TORSDOF 2
ENDMDL
