MODEL 1
REMARK minimizedAffinity 6.05663157
REMARK minimizedRMSD -1
REMARK  2 active torsions:
REMARK  status: ('A' for Active; 'I' for Inactive)
REMARK    1  A    between atoms: C1_2  and  C2_3 
REMARK    2  A    between atoms: C2_3  and  C3_4 
ROOT
ATOM      1  C3  UNL d   1       1.372   2.345  -1.005  0.00  0.00    -0.075 A 
ATOM      2  C4  UNL d   1       1.835   2.220   0.313  0.00  0.00     0.002 A 
ATOM      3  C5  UNL d   1       2.075   0.960   0.862  0.00  0.00     0.002 A 
ATOM      4  C6  UNL d   1       1.847  -0.188   0.107  0.00  0.00    -0.004 A 
ATOM      5  C7  UNL d   1       1.372  -0.075  -1.198  0.00  0.00     0.002 A 
ATOM      6  C8  UNL d   1       1.134   1.184  -1.752  0.00  0.00     0.002 A 
ENDROOT
BRANCH   1   7
ATOM      7  C2  UNL d   1       1.138   3.707  -1.615  0.00  0.00     0.056 C 
BRANCH   7   8
ATOM      8  C1  UNL d   1       1.483   4.875  -0.686  0.00  0.00     0.007 C 
ATOM      9  C   UNL d   1       2.234   5.999  -1.387  0.00  0.00     0.009 C 
ENDBRANCH   7   8
ENDBRANCH   1   7
TORSDOF 2
ENDMDL
