MODEL 1
REMARK minimizedAffinity -3.72860241
REMARK minimizedRMSD -1
REMARK  2 active torsions:
REMARK  status: ('A' for Active; 'I' for Inactive)
REMARK    1  A    between atoms: C1_2  and  C2_3 
REMARK    2  A    between atoms: C2_3  and  C3_4 
ROOT
ATOM      1  C3  UNL d   1       1.483   2.548  -1.156  0.00  0.00    -0.075 A 
ATOM      2  C4  UNL d   1       1.464   2.398   0.238  0.00  0.00     0.002 A 
ATOM      3  C5  UNL d   1       1.254   1.143   0.812  0.00  0.00     0.002 A 
ATOM      4  C6  UNL d   1       1.051   0.028   0.002  0.00  0.00    -0.004 A 
ATOM      5  C7  UNL d   1       1.052   0.169  -1.384  0.00  0.00     0.002 A 
ATOM      6  C8  UNL d   1       1.266   1.422  -1.961  0.00  0.00     0.002 A 
ENDROOT
BRANCH   1   7
ATOM      7  C2  UNL d   1       1.739   3.898  -1.784  0.00  0.00     0.056 C 
BRANCH   7   8
ATOM      8  C1  UNL d   1       1.895   5.037  -0.771  0.00  0.00     0.007 C 
ATOM      9  C   UNL d   1       3.022   6.000  -1.119  0.00  0.00     0.009 C 
ENDBRANCH   7   8
ENDBRANCH   1   7
TORSDOF 2
ENDMDL
