MODEL 1
REMARK minimizedAffinity -1.99956322
REMARK minimizedRMSD -1
REMARK  2 active torsions:
REMARK  status: ('A' for Active; 'I' for Inactive)
REMARK    1  A    between atoms: C1_2  and  C2_3 
REMARK    2  A    between atoms: C2_3  and  C3_4 
ROOT
ATOM      1  C3  UNL d   1       1.504   2.454  -1.009  0.00  0.00    -0.075 A 
ATOM      2  C4  UNL d   1       1.254   2.635   0.359  0.00  0.00     0.002 A 
ATOM      3  C5  UNL d   1       0.984   1.541   1.181  0.00  0.00     0.002 A 
ATOM      4  C6  UNL d   1       0.951   0.255   0.646  0.00  0.00    -0.004 A 
ATOM      5  C7  UNL d   1       1.181   0.065  -0.715  0.00  0.00     0.002 A 
ATOM      6  C8  UNL d   1       1.456   1.158  -1.539  0.00  0.00     0.002 A 
ENDROOT
BRANCH   1   7
ATOM      7  C2  UNL d   1       1.825   3.631  -1.898  0.00  0.00     0.056 C 
BRANCH   7   8
ATOM      8  C1  UNL d   1       1.634   4.993  -1.223  0.00  0.00     0.007 C 
ATOM      9  C   UNL d   1       2.720   5.999  -1.582  0.00  0.00     0.009 C 
ENDBRANCH   7   8
ENDBRANCH   1   7
TORSDOF 2
ENDMDL
