MODEL 1
REMARK minimizedAffinity 4.54806614
REMARK minimizedRMSD -1
REMARK  2 active torsions:
REMARK  status: ('A' for Active; 'I' for Inactive)
REMARK    1  A    between atoms: C1_2  and  C2_3 
REMARK    2  A    between atoms: C2_3  and  C3_4 
ROOT
ATOM      1  C3  UNL d   1       1.598   2.218  -1.556  0.00  0.00    -0.075 A 
ATOM      2  C4  UNL d   1       2.076   1.754  -0.322  0.00  0.00     0.002 A 
ATOM      3  C5  UNL d   1       1.835   0.441   0.083  0.00  0.00     0.002 A 
ATOM      4  C6  UNL d   1       1.106  -0.420  -0.734  0.00  0.00    -0.004 A 
ATOM      5  C7  UNL d   1       0.613   0.034  -1.954  0.00  0.00     0.002 A 
ATOM      6  C8  UNL d   1       0.856   1.346  -2.364  0.00  0.00     0.002 A 
ENDROOT
BRANCH   1   7
ATOM      7  C2  UNL d   1       1.880   3.629  -2.013  0.00  0.00     0.056 C 
BRANCH   7   8
ATOM      8  C1  UNL d   1       2.199   4.602  -0.873  0.00  0.00     0.007 C 
ATOM      9  C   UNL d   1       2.561   5.999  -1.360  0.00  0.00     0.009 C 
ENDBRANCH   7   8
ENDBRANCH   1   7
TORSDOF 2
ENDMDL
