MODEL 1
REMARK minimizedAffinity -4.52006006
REMARK minimizedRMSD -1
REMARK  2 active torsions:
REMARK  status: ('A' for Active; 'I' for Inactive)
REMARK    1  A    between atoms: C1_2  and  C2_3 
REMARK    2  A    between atoms: C2_3  and  C3_4 
ROOT
ATOM      1  C3  UNL d   1       1.038   2.566  -0.827  0.00  0.00    -0.075 A 
ATOM      2  C4  UNL d   1       0.922   2.490   0.569  0.00  0.00     0.002 A 
ATOM      3  C5  UNL d   1       0.746   1.257   1.199  0.00  0.00     0.002 A 
ATOM      4  C6  UNL d   1       0.672   0.089   0.443  0.00  0.00    -0.004 A 
ATOM      5  C7  UNL d   1       0.769   0.155  -0.945  0.00  0.00     0.002 A 
ATOM      6  C8  UNL d   1       0.951   1.386  -1.578  0.00  0.00     0.002 A 
ENDROOT
BRANCH   1   7
ATOM      7  C2  UNL d   1       1.259   3.893  -1.513  0.00  0.00     0.056 C 
BRANCH   7   8
ATOM      8  C1  UNL d   1       1.662   5.026  -0.563  0.00  0.00     0.007 C 
ATOM      9  C   UNL d   1       2.677   5.985  -1.170  0.00  0.00     0.009 C 
ENDBRANCH   7   8
ENDBRANCH   1   7
TORSDOF 2
ENDMDL
