MODEL 1
REMARK minimizedAffinity -0.942495227
REMARK minimizedRMSD -1
REMARK  2 active torsions:
REMARK  status: ('A' for Active; 'I' for Inactive)
REMARK    1  A    between atoms: C1_2  and  C2_3 
REMARK    2  A    between atoms: C2_3  and  C3_4 
ROOT
ATOM      1  C3  UNL d   1       0.958   1.535  -0.982  0.00  0.00    -0.075 A 
ATOM      2  C4  UNL d   1       1.113   1.777   0.391  0.00  0.00     0.002 A 
ATOM      3  C5  UNL d   1       1.357   0.724   1.273  0.00  0.00     0.002 A 
ATOM      4  C6  UNL d   1       1.440  -0.582   0.797  0.00  0.00    -0.004 A 
ATOM      5  C7  UNL d   1       1.272  -0.837  -0.562  0.00  0.00     0.002 A 
ATOM      6  C8  UNL d   1       1.032   0.215  -1.448  0.00  0.00     0.002 A 
ENDROOT
BRANCH   1   7
ATOM      7  C2  UNL d   1       0.723   2.673  -1.946  0.00  0.00     0.056 C 
BRANCH   7   8
ATOM      8  C1  UNL d   1       1.904   3.642  -2.066  0.00  0.00     0.007 C 
ATOM      9  C   UNL d   1       1.651   4.984  -1.391  0.00  0.00     0.009 C 
ENDBRANCH   7   8
ENDBRANCH   1   7
TORSDOF 2
ENDMDL
