MODEL 1
REMARK minimizedAffinity -2.25739336
REMARK minimizedRMSD -1
REMARK  2 active torsions:
REMARK  status: ('A' for Active; 'I' for Inactive)
REMARK    1  A    between atoms: C1_2  and  C2_3 
REMARK    2  A    between atoms: C2_3  and  C3_4 
ROOT
ATOM      1  C3  UNL d   1       1.157   2.449  -1.085  0.00  0.00    -0.075 A 
ATOM      2  C4  UNL d   1       1.269   2.269   0.301  0.00  0.00     0.002 A 
ATOM      3  C5  UNL d   1       1.238   0.988   0.854  0.00  0.00     0.002 A 
ATOM      4  C6  UNL d   1       1.086  -0.126   0.030  0.00  0.00    -0.004 A 
ATOM      5  C7  UNL d   1       0.958   0.043  -1.347  0.00  0.00     0.002 A 
ATOM      6  C8  UNL d   1       0.993   1.323  -1.903  0.00  0.00     0.002 A 
ENDROOT
BRANCH   1   7
ATOM      7  C2  UNL d   1       1.219   3.831  -1.691  0.00  0.00     0.056 C 
BRANCH   7   8
ATOM      8  C1  UNL d   1       1.628   4.928  -0.703  0.00  0.00     0.007 C 
ATOM      9  C   UNL d   1       2.512   5.999  -1.327  0.00  0.00     0.009 C 
ENDBRANCH   7   8
ENDBRANCH   1   7
TORSDOF 2
ENDMDL
