MODEL 1
REMARK minimizedAffinity 1.63306451
REMARK minimizedRMSD -1
REMARK  2 active torsions:
REMARK  status: ('A' for Active; 'I' for Inactive)
REMARK    1  A    between atoms: C1_2  and  C2_3 
REMARK    2  A    between atoms: C2_3  and  C3_4 
ROOT
ATOM      1  C3  UNL d   1       1.353   0.989   1.129  0.00  0.00    -0.075 A 
ATOM      2  C4  UNL d   1       0.754   1.816   0.167  0.00  0.00     0.002 A 
ATOM      3  C5  UNL d   1       0.499   1.338  -1.118  0.00  0.00     0.002 A 
ATOM      4  C6  UNL d   1       0.847   0.034  -1.462  0.00  0.00    -0.004 A 
ATOM      5  C7  UNL d   1       1.457  -0.792  -0.520  0.00  0.00     0.002 A 
ATOM      6  C8  UNL d   1       1.710  -0.318   0.769  0.00  0.00     0.002 A 
ENDROOT
BRANCH   1   7
ATOM      7  C2  UNL d   1       1.605   1.490   2.530  0.00  0.00     0.056 C 
BRANCH   7   8
ATOM      8  C1  UNL d   1       2.734   2.522   2.630  0.00  0.00     0.007 C 
ATOM      9  C   UNL d   1       2.251   3.901   3.058  0.00  0.00     0.009 C 
ENDBRANCH   7   8
ENDBRANCH   1   7
TORSDOF 2
ENDMDL
