MODEL 1
REMARK minimizedAffinity 5.58488369
REMARK minimizedRMSD -1
REMARK  2 active torsions:
REMARK  status: ('A' for Active; 'I' for Inactive)
REMARK    1  A    between atoms: C1_2  and  C2_3 
REMARK    2  A    between atoms: C2_3  and  C3_4 
ROOT
ATOM      1  C3  UNL d   1       1.054   2.182  -1.399  0.00  0.00    -0.075 A 
ATOM      2  C4  UNL d   1       1.497   1.888  -0.102  0.00  0.00     0.002 A 
ATOM      3  C5  UNL d   1       1.601   0.565   0.329  0.00  0.00     0.002 A 
ATOM      4  C6  UNL d   1       1.255  -0.478  -0.527  0.00  0.00    -0.004 A 
ATOM      5  C7  UNL d   1       0.798  -0.197  -1.813  0.00  0.00     0.002 A 
ATOM      6  C8  UNL d   1       0.697   1.126  -2.248  0.00  0.00     0.002 A 
ENDROOT
BRANCH   1   7
ATOM      7  C2  UNL d   1       0.967   3.611  -1.881  0.00  0.00     0.056 C 
BRANCH   7   8
ATOM      8  C1  UNL d   1       1.418   4.647  -0.846  0.00  0.00     0.007 C 
ATOM      9  C   UNL d   1       1.761   5.998  -1.459  0.00  0.00     0.009 C 
ENDBRANCH   7   8
ENDBRANCH   1   7
TORSDOF 2
ENDMDL
