MODEL 1
REMARK minimizedAffinity 6.39012671
REMARK minimizedRMSD -1
REMARK  2 active torsions:
REMARK  status: ('A' for Active; 'I' for Inactive)
REMARK    1  A    between atoms: C1_2  and  C2_3 
REMARK    2  A    between atoms: C2_3  and  C3_4 
ROOT
ATOM      1  C3  UNL d   1       0.927   0.715  -1.648  0.00  0.00    -0.075 A 
ATOM      2  C4  UNL d   1       1.682   1.455  -0.728  0.00  0.00     0.002 A 
ATOM      3  C5  UNL d   1       1.541   2.841  -0.648  0.00  0.00     0.002 A 
ATOM      4  C6  UNL d   1       0.653   3.504  -1.492  0.00  0.00    -0.004 A 
ATOM      5  C7  UNL d   1      -0.090   2.780  -2.422  0.00  0.00     0.002 A 
ATOM      6  C8  UNL d   1       0.045   1.393  -2.501  0.00  0.00     0.002 A 
ENDROOT
BRANCH   1   7
ATOM      7  C2  UNL d   1       1.053  -0.788  -1.720  0.00  0.00     0.056 C 
BRANCH   7   8
ATOM      8  C1  UNL d   1       1.699  -1.419  -0.482  0.00  0.00     0.007 C 
ATOM      9  C   UNL d   1       0.975  -2.669   0.002  0.00  0.00     0.009 C 
ENDBRANCH   7   8
ENDBRANCH   1   7
TORSDOF 2
ENDMDL
