MODEL 1
REMARK minimizedAffinity -2.00121808
REMARK minimizedRMSD -1
REMARK  0 active torsions:
REMARK  status: ('A' for Active; 'I' for Inactive)
ROOT
ATOM      1  N1  IND d   1       0.221   2.474  -1.522  0.00  0.00    -0.196 N 
ATOM      2  C2  IND d   1      -0.070   3.768  -1.190  0.00  0.00     0.054 A 
ATOM      3  C3  IND d   1      -0.271   3.878   0.142  0.00  0.00    -0.031 A 
ATOM      4  C4  IND d   1      -0.072   2.086   1.980  0.00  0.00     0.051 A 
ATOM      5  C5  IND d   1       0.135   0.747   2.161  0.00  0.00    -0.031 A 
ATOM      6  C6  IND d   1       0.390  -0.101   1.103  0.00  0.00     0.015 A 
ATOM      7  C7  IND d   1       0.458   0.362  -0.181  0.00  0.00    -0.016 A 
ATOM      8  C8  IND d   1       0.241   1.720  -0.369  0.00  0.00    -0.047 A 
ATOM      9  C9  IND d   1      -0.060   2.578   0.696  0.00  0.00    -0.096 A 
ATOM     10  HN1 IND d   1       0.367   2.181  -2.317  0.00  0.00     0.298 HD
ENDROOT
TORSDOF 0
ENDMDL
