MODEL 1
REMARK minimizedAffinity -1.1803112
REMARK minimizedRMSD -1
REMARK  0 active torsions:
REMARK  status: ('A' for Active; 'I' for Inactive)
ROOT
ATOM      1  N1  IND d   1      -0.709   0.268  -1.064  0.00  0.00    -0.196 N 
ATOM      2  C2  IND d   1      -0.151  -0.900  -1.504  0.00  0.00     0.054 A 
ATOM      3  C3  IND d   1       0.659  -1.420  -0.555  0.00  0.00    -0.031 A 
ATOM      4  C4  IND d   1       1.137  -0.575   1.830  0.00  0.00     0.051 A 
ATOM      5  C5  IND d   1       0.887   0.471   2.673  0.00  0.00    -0.031 A 
ATOM      6  C6  IND d   1       0.072   1.523   2.306  0.00  0.00     0.015 A 
ATOM      7  C7  IND d   1      -0.533   1.563   1.082  0.00  0.00    -0.016 A 
ATOM      8  C8  IND d   1      -0.275   0.505   0.221  0.00  0.00    -0.047 A 
ATOM      9  C9  IND d   1       0.584  -0.544   0.572  0.00  0.00    -0.096 A 
ATOM     10  HN1 IND d   1      -1.242   0.771  -1.515  0.00  0.00     0.298 HD
ENDROOT
TORSDOF 0
ENDMDL
