MODEL 1
REMARK minimizedAffinity -2.07881832
REMARK minimizedRMSD -1
REMARK  0 active torsions:
REMARK  status: ('A' for Active; 'I' for Inactive)
ROOT
ATOM      1  N1  IND d   1       0.754  -0.049  -0.915  0.00  0.00    -0.196 N 
ATOM      2  C2  IND d   1       0.430   0.561   0.265  0.00  0.00     0.054 A 
ATOM      3  C3  IND d   1      -0.240  -0.295   1.069  0.00  0.00    -0.031 A 
ATOM      4  C4  IND d   1      -0.825  -2.774   0.693  0.00  0.00     0.051 A 
ATOM      5  C5  IND d   1      -0.769  -3.763  -0.248  0.00  0.00    -0.031 A 
ATOM      6  C6  IND d   1      -0.189  -3.561  -1.484  0.00  0.00     0.015 A 
ATOM      7  C7  IND d   1       0.370  -2.361  -1.822  0.00  0.00    -0.016 A 
ATOM      8  C8  IND d   1       0.309  -1.353  -0.871  0.00  0.00    -0.047 A 
ATOM      9  C9  IND d   1      -0.316  -1.538   0.369  0.00  0.00    -0.096 A 
ATOM     10  HN1 IND d   1       1.166   0.319  -1.573  0.00  0.00     0.298 HD
ENDROOT
TORSDOF 0
ENDMDL
