MODEL 1
REMARK minimizedAffinity -4.73092079
REMARK minimizedRMSD -1
REMARK  0 active torsions:
REMARK  status: ('A' for Active; 'I' for Inactive)
ROOT
ATOM      1  N1  IND d   1      -0.469   2.292  -1.688  0.00  0.00    -0.196 N 
ATOM      2  C2  IND d   1      -0.570   3.576  -1.231  0.00  0.00     0.054 A 
ATOM      3  C3  IND d   1      -0.512   3.601   0.120  0.00  0.00    -0.031 A 
ATOM      4  C4  IND d   1      -0.151   1.664   1.777  0.00  0.00     0.051 A 
ATOM      5  C5  IND d   1      -0.041   0.303   1.835  0.00  0.00    -0.031 A 
ATOM      6  C6  IND d   1      -0.066  -0.480   0.699  0.00  0.00     0.015 A 
ATOM      7  C7  IND d   1      -0.191   0.072  -0.544  0.00  0.00    -0.016 A 
ATOM      8  C8  IND d   1      -0.310   1.453  -0.607  0.00  0.00    -0.047 A 
ATOM      9  C9  IND d   1      -0.328   2.250   0.545  0.00  0.00    -0.096 A 
ATOM     10  HN1 IND d   1      -0.499   2.049  -2.512  0.00  0.00     0.298 HD
ENDROOT
TORSDOF 0
ENDMDL
