MODEL 1
REMARK minimizedAffinity -0.408176541
REMARK minimizedRMSD -1
REMARK  0 active torsions:
REMARK  status: ('A' for Active; 'I' for Inactive)
ROOT
ATOM      1  N1  IND d   1       0.766  -5.690   0.728  0.00  0.00    -0.196 N 
ATOM      2  C2  IND d   1       2.120  -5.506   0.770  0.00  0.00     0.054 A 
ATOM      3  C3  IND d   1       2.464  -4.393   0.084  0.00  0.00    -0.031 A 
ATOM      4  C4  IND d   1       0.961  -2.669  -1.099  0.00  0.00     0.051 A 
ATOM      5  C5  IND d   1      -0.341  -2.428  -1.438  0.00  0.00    -0.031 A 
ATOM      6  C6  IND d   1      -1.361  -3.278  -1.063  0.00  0.00     0.015 A 
ATOM      7  C7  IND d   1      -1.118  -4.399  -0.321  0.00  0.00    -0.016 A 
ATOM      8  C8  IND d   1       0.203  -4.651   0.019  0.00  0.00    -0.047 A 
ATOM      9  C9  IND d   1       1.248  -3.815  -0.395  0.00  0.00    -0.096 A 
ATOM     10  HN1 IND d   1       0.337  -6.345   1.085  0.00  0.00     0.298 HD
ENDROOT
TORSDOF 0
ENDMDL
