MODEL 1
REMARK minimizedAffinity -3.15357041
REMARK minimizedRMSD -1
REMARK  0 active torsions:
REMARK  status: ('A' for Active; 'I' for Inactive)
ROOT
ATOM      1  N1  IND d   1       0.171  -0.015  -1.194  0.00  0.00    -0.196 N 
ATOM      2  C2  IND d   1       0.492  -1.016  -0.320  0.00  0.00     0.054 A 
ATOM      3  C3  IND d   1       0.536  -0.540   0.944  0.00  0.00    -0.031 A 
ATOM      4  C4  IND d   1       0.018   1.824   1.821  0.00  0.00     0.051 A 
ATOM      5  C5  IND d   1      -0.285   3.088   1.397  0.00  0.00    -0.031 A 
ATOM      6  C6  IND d   1      -0.457   3.387   0.061  0.00  0.00     0.015 A 
ATOM      7  C7  IND d   1      -0.344   2.427  -0.904  0.00  0.00    -0.016 A 
ATOM      8  C8  IND d   1      -0.030   1.145  -0.478  0.00  0.00    -0.047 A 
ATOM      9  C9  IND d   1       0.188   0.844   0.872  0.00  0.00    -0.096 A 
ATOM     10  HN1 IND d   1       0.106  -0.096  -2.048  0.00  0.00     0.298 HD
ENDROOT
TORSDOF 0
ENDMDL
