MODEL 1
REMARK minimizedAffinity -3.6510272
REMARK minimizedRMSD -1
REMARK  1 active torsions:
REMARK  status: ('A' for Active; 'I' for Inactive)
REMARK    1  A    between atoms: C3_4  and  O_7 
ROOT
ATOM      1  C   UNL d   1       0.286  -2.339  -1.194  0.00  0.00    -0.033 A 
ATOM      2  C1  UNL d   1      -0.749  -1.485  -1.579  0.00  0.00     0.039 A 
ATOM      3  C2  UNL d   1      -0.681  -0.123  -1.282  0.00  0.00    -0.080 A 
ATOM      4  C3  UNL d   1       0.428   0.373  -0.601  0.00  0.00     0.150 A 
ATOM      5  C4  UNL d   1       1.465  -0.471  -0.217  0.00  0.00    -0.007 A 
ATOM      6  C5  UNL d   1       1.394  -1.832  -0.514  0.00  0.00     0.039 A 
ENDROOT
BRANCH   4   7
ATOM      7  O   UNL d   1       0.537   1.694  -0.284  0.00  0.00    -0.526 OA
ATOM      8  H5  UNL d   1      -0.266   2.151  -0.586  0.00  0.00     0.418 HD
ENDBRANCH   4   7
TORSDOF 1
ENDMDL
