MODEL 1
REMARK minimizedAffinity 5.57146502
REMARK minimizedRMSD -1
REMARK  1 active torsions:
REMARK  status: ('A' for Active; 'I' for Inactive)
REMARK    1  A    between atoms: C3_4  and  O_7 
ROOT
ATOM      1  C   UNL d   1       1.162  -3.080  -1.178  0.00  0.00    -0.033 A 
ATOM      2  C1  UNL d   1       1.977  -2.913  -2.300  0.00  0.00     0.039 A 
ATOM      3  C2  UNL d   1       2.947  -1.909  -2.316  0.00  0.00    -0.080 A 
ATOM      4  C3  UNL d   1       3.093  -1.081  -1.206  0.00  0.00     0.150 A 
ATOM      5  C4  UNL d   1       2.287  -1.245  -0.084  0.00  0.00    -0.007 A 
ATOM      6  C5  UNL d   1       1.318  -2.247  -0.070  0.00  0.00     0.039 A 
ENDROOT
BRANCH   4   7
ATOM      7  O   UNL d   1       4.023  -0.085  -1.178  0.00  0.00    -0.526 OA
ATOM      8  H5  UNL d   1       4.486  -0.072  -2.032  0.00  0.00     0.418 HD
ENDBRANCH   4   7
TORSDOF 1
ENDMDL
