MODEL 1
REMARK minimizedAffinity -4.10123587
REMARK minimizedRMSD -1
REMARK  1 active torsions:
REMARK  status: ('A' for Active; 'I' for Inactive)
REMARK    1  A    between atoms: C3_4  and  O_7 
ROOT
ATOM      1  C   UNL d   1       0.080  -2.426  -1.397  0.00  0.00    -0.033 A 
ATOM      2  C1  UNL d   1       1.396  -2.894  -1.415  0.00  0.00     0.039 A 
ATOM      3  C2  UNL d   1       2.459  -1.998  -1.299  0.00  0.00    -0.080 A 
ATOM      4  C3  UNL d   1       2.195  -0.637  -1.164  0.00  0.00     0.150 A 
ATOM      5  C4  UNL d   1       0.887  -0.165  -1.141  0.00  0.00    -0.007 A 
ATOM      6  C5  UNL d   1      -0.174  -1.061  -1.258  0.00  0.00     0.039 A 
ENDROOT
BRANCH   4   7
ATOM      7  O   UNL d   1       3.200   0.276  -1.052  0.00  0.00    -0.526 OA
ATOM      8  H5  UNL d   1       4.050  -0.192  -1.113  0.00  0.00     0.418 HD
ENDBRANCH   4   7
TORSDOF 1
ENDMDL
