MODEL 1
REMARK minimizedAffinity -1.48973739
REMARK minimizedRMSD -1
REMARK  1 active torsions:
REMARK  status: ('A' for Active; 'I' for Inactive)
REMARK    1  A    between atoms: C3_4  and  O_7 
ROOT
ATOM      1  C   UNL d   1      -1.133  -0.041   0.449  0.00  0.00    -0.033 A 
ATOM      2  C1  UNL d   1      -1.074  -0.955  -0.605  0.00  0.00     0.039 A 
ATOM      3  C2  UNL d   1       0.159  -1.308  -1.157  0.00  0.00    -0.080 A 
ATOM      4  C3  UNL d   1       1.324  -0.741  -0.646  0.00  0.00     0.150 A 
ATOM      5  C4  UNL d   1       1.272   0.167   0.406  0.00  0.00    -0.007 A 
ATOM      6  C5  UNL d   1       0.040   0.519   0.955  0.00  0.00     0.039 A 
ENDROOT
BRANCH   4   7
ATOM      7  O   UNL d   1       2.550  -1.051  -1.156  0.00  0.00    -0.526 OA
ATOM      8  H5  UNL d   1       2.428  -1.668  -1.896  0.00  0.00     0.418 HD
ENDBRANCH   4   7
TORSDOF 1
ENDMDL
