MODEL 1
REMARK minimizedAffinity 0.557353616
REMARK minimizedRMSD -1
REMARK  1 active torsions:
REMARK  status: ('A' for Active; 'I' for Inactive)
REMARK    1  A    between atoms: C3_4  and  O_7 
ROOT
ATOM      1  C   UNL d   1      -0.389  -0.185  -0.939  0.00  0.00    -0.033 A 
ATOM      2  C1  UNL d   1       0.064  -1.444  -1.340  0.00  0.00     0.039 A 
ATOM      3  C2  UNL d   1       1.419  -1.765  -1.242  0.00  0.00    -0.080 A 
ATOM      4  C3  UNL d   1       2.310  -0.820  -0.741  0.00  0.00     0.150 A 
ATOM      5  C4  UNL d   1       1.866   0.435  -0.336  0.00  0.00    -0.007 A 
ATOM      6  C5  UNL d   1       0.512   0.753  -0.435  0.00  0.00     0.039 A 
ENDROOT
BRANCH   4   7
ATOM      7  O   UNL d   1       3.643  -1.085  -0.631  0.00  0.00    -0.526 OA
ATOM      8  H5  UNL d   1       3.808  -1.979  -0.975  0.00  0.00     0.418 HD
ENDBRANCH   4   7
TORSDOF 1
ENDMDL
