MODEL 1
REMARK minimizedAffinity -2.9751606
REMARK minimizedRMSD -1
REMARK  1 active torsions:
REMARK  status: ('A' for Active; 'I' for Inactive)
REMARK    1  A    between atoms: C3_4  and  O_7 
ROOT
ATOM      1  C   UNL d   1      -0.759   1.932   0.058  0.00  0.00    -0.033 A 
ATOM      2  C1  UNL d   1      -1.392   0.956  -0.713  0.00  0.00     0.039 A 
ATOM      3  C2  UNL d   1      -0.841  -0.323  -0.815  0.00  0.00    -0.080 A 
ATOM      4  C3  UNL d   1       0.342  -0.613  -0.140  0.00  0.00     0.150 A 
ATOM      5  C4  UNL d   1       0.976   0.354   0.634  0.00  0.00    -0.007 A 
ATOM      6  C5  UNL d   1       0.425   1.630   0.733  0.00  0.00     0.039 A 
ENDROOT
BRANCH   4   7
ATOM      7  O   UNL d   1       0.920  -1.845  -0.213  0.00  0.00    -0.526 OA
ATOM      8  H5  UNL d   1       0.387  -2.401  -0.805  0.00  0.00     0.418 HD
ENDBRANCH   4   7
TORSDOF 1
ENDMDL
