MODEL 1
REMARK minimizedAffinity -5.62352562
REMARK minimizedRMSD -1
REMARK  1 active torsions:
REMARK  status: ('A' for Active; 'I' for Inactive)
REMARK    1  A    between atoms: C1_2  and  C2_3 
ROOT
ATOM      1  C2  UNL d   1      -0.159   0.288   0.063  0.00  0.00    -0.076 A 
ATOM      2  C3  UNL d   1      -0.208   1.565  -0.522  0.00  0.00     0.004 A 
ATOM      3  C4  UNL d   1      -0.924   2.601   0.075  0.00  0.00    -0.003 A 
ATOM      4  C5  UNL d   1      -1.602   2.377   1.268  0.00  0.00     0.000 A 
ATOM      5  C6  UNL d   1      -1.549   1.121   1.872  0.00  0.00     0.000 A 
ATOM      6  C7  UNL d   1      -0.819   0.070   1.291  0.00  0.00    -0.073 A 
ATOM      7  C8  UNL d   1      -0.801  -1.266   1.982  0.00  0.00     0.078 C 
ENDROOT
BRANCH   1   8
ATOM      8  C1  UNL d   1       0.611  -0.804  -0.645  0.00  0.00     0.053 C 
ATOM      9  C   UNL d   1      -0.217  -1.504  -1.711  0.00  0.00     0.018 C 
ENDBRANCH   1   8
TORSDOF 1
ENDMDL
