MODEL 1
REMARK minimizedAffinity -2.54728985
REMARK minimizedRMSD -1
REMARK  1 active torsions:
REMARK  status: ('A' for Active; 'I' for Inactive)
REMARK    1  A    between atoms: C1_2  and  C2_3 
ROOT
ATOM      1  C2  UNL d   1      -0.550   0.559   0.973  0.00  0.00    -0.076 A 
ATOM      2  C3  UNL d   1      -0.244   1.259  -0.206  0.00  0.00     0.004 A 
ATOM      3  C4  UNL d   1       0.684   0.758  -1.118  0.00  0.00    -0.003 A 
ATOM      4  C5  UNL d   1       1.320  -0.452  -0.865  0.00  0.00     0.000 A 
ATOM      5  C6  UNL d   1       1.015  -1.169   0.291  0.00  0.00     0.000 A 
ATOM      6  C7  UNL d   1       0.070  -0.686   1.213  0.00  0.00    -0.073 A 
ATOM      7  C8  UNL d   1      -0.216  -1.497   2.447  0.00  0.00     0.078 C 
ENDROOT
BRANCH   1   8
ATOM      8  C1  UNL d   1      -1.544   1.165   1.938  0.00  0.00     0.053 C 
ATOM      9  C   UNL d   1      -1.523   2.686   1.918  0.00  0.00     0.018 C 
ENDBRANCH   1   8
TORSDOF 1
ENDMDL
