MODEL 1
REMARK minimizedAffinity -2.99408722
REMARK minimizedRMSD -1
REMARK  1 active torsions:
REMARK  status: ('A' for Active; 'I' for Inactive)
REMARK    1  A    between atoms: C1_2  and  C2_3 
ROOT
ATOM      1  C2  UNL d   1      -0.499   0.380   0.318  0.00  0.00    -0.076 A 
ATOM      2  C3  UNL d   1      -0.374  -0.982   0.645  0.00  0.00     0.004 A 
ATOM      3  C4  UNL d   1       0.401  -1.838  -0.134  0.00  0.00    -0.003 A 
ATOM      4  C5  UNL d   1       1.065  -1.347  -1.253  0.00  0.00     0.000 A 
ATOM      5  C6  UNL d   1       0.967   0.004  -1.582  0.00  0.00     0.000 A 
ATOM      6  C7  UNL d   1       0.202   0.885  -0.798  0.00  0.00    -0.073 A 
ATOM      7  C8  UNL d   1       0.126   2.331  -1.202  0.00  0.00     0.078 C 
ENDROOT
BRANCH   1   8
ATOM      8  C1  UNL d   1      -1.376   1.255   1.185  0.00  0.00     0.053 C 
ATOM      9  C   UNL d   1      -0.891   1.321   2.625  0.00  0.00     0.018 C 
ENDBRANCH   1   8
TORSDOF 1
ENDMDL
