MODEL 1
REMARK minimizedAffinity -3.17561269
REMARK minimizedRMSD -1
REMARK  1 active torsions:
REMARK  status: ('A' for Active; 'I' for Inactive)
REMARK    1  A    between atoms: C1_2  and  C2_3 
ROOT
ATOM      1  C2  UNL d   1       0.033   0.061   0.037  0.00  0.00    -0.076 A 
ATOM      2  C3  UNL d   1      -0.612  -0.363   1.211  0.00  0.00     0.004 A 
ATOM      3  C4  UNL d   1      -1.568   0.437   1.834  0.00  0.00    -0.003 A 
ATOM      4  C5  UNL d   1      -1.894   1.676   1.293  0.00  0.00     0.000 A 
ATOM      5  C6  UNL d   1      -1.277   2.105   0.118  0.00  0.00     0.000 A 
ATOM      6  C7  UNL d   1      -0.323   1.303  -0.531  0.00  0.00    -0.073 A 
ATOM      7  C8  UNL d   1       0.316   1.819  -1.792  0.00  0.00     0.078 C 
ENDROOT
BRANCH   1   8
ATOM      8  C1  UNL d   1       1.081  -0.838  -0.580  0.00  0.00     0.053 C 
ATOM      9  C   UNL d   1       0.473  -1.948  -1.423  0.00  0.00     0.018 C 
ENDBRANCH   1   8
TORSDOF 1
ENDMDL
