MODEL 1
REMARK minimizedAffinity -5.91853809
REMARK minimizedRMSD -1
REMARK  1 active torsions:
REMARK  status: ('A' for Active; 'I' for Inactive)
REMARK    1  A    between atoms: C1_2  and  C2_3 
ROOT
ATOM      1  C2  UNL d   1      -0.481   0.791   1.108  0.00  0.00    -0.076 A 
ATOM      2  C3  UNL d   1      -1.178   1.889   1.641  0.00  0.00     0.004 A 
ATOM      3  C4  UNL d   1      -1.132   3.137   1.021  0.00  0.00    -0.003 A 
ATOM      4  C5  UNL d   1      -0.390   3.306  -0.143  0.00  0.00     0.000 A 
ATOM      5  C6  UNL d   1       0.293   2.223  -0.695  0.00  0.00     0.000 A 
ATOM      6  C7  UNL d   1       0.245   0.954  -0.091  0.00  0.00    -0.073 A 
ATOM      7  C8  UNL d   1       1.005  -0.177  -0.726  0.00  0.00     0.078 C 
ENDROOT
BRANCH   1   8
ATOM      8  C1  UNL d   1      -0.545  -0.531   1.839  0.00  0.00     0.053 C 
ATOM      9  C   UNL d   1       0.747  -0.856   2.571  0.00  0.00     0.018 C 
ENDBRANCH   1   8
TORSDOF 1
ENDMDL
