MODEL 1
REMARK minimizedAffinity -6.05016804
REMARK minimizedRMSD -1
REMARK  1 active torsions:
REMARK  status: ('A' for Active; 'I' for Inactive)
REMARK    1  A    between atoms: C1_2  and  C2_3 
ROOT
ATOM      1  C2  UNL d   1       0.184   0.808  -0.132  0.00  0.00    -0.076 A 
ATOM      2  C3  UNL d   1       0.037   2.031  -0.809  0.00  0.00     0.004 A 
ATOM      3  C4  UNL d   1      -0.832   3.014  -0.337  0.00  0.00    -0.003 A 
ATOM      4  C5  UNL d   1      -1.568   2.789   0.821  0.00  0.00     0.000 A 
ATOM      5  C6  UNL d   1      -1.422   1.588   1.516  0.00  0.00     0.000 A 
ATOM      6  C7  UNL d   1      -0.538   0.594   1.062  0.00  0.00    -0.073 A 
ATOM      7  C8  UNL d   1      -0.424  -0.684   1.847  0.00  0.00     0.078 C 
ENDROOT
BRANCH   1   8
ATOM      8  C1  UNL d   1       1.121  -0.230  -0.707  0.00  0.00     0.053 C 
ATOM      9  C   UNL d   1       0.382  -1.338  -1.442  0.00  0.00     0.018 C 
ENDBRANCH   1   8
TORSDOF 1
ENDMDL
