MODEL 1
REMARK minimizedAffinity -4.4666934
REMARK minimizedRMSD -1
REMARK  1 active torsions:
REMARK  status: ('A' for Active; 'I' for Inactive)
REMARK    1  A    between atoms: C1_2  and  C2_3 
ROOT
ATOM      1  C2  UNL d   1      -0.151   0.869   0.078  0.00  0.00    -0.076 A 
ATOM      2  C3  UNL d   1       0.028   1.983  -0.760  0.00  0.00     0.004 A 
ATOM      3  C4  UNL d   1      -0.534   3.218  -0.440  0.00  0.00    -0.003 A 
ATOM      4  C5  UNL d   1      -1.283   3.359   0.722  0.00  0.00     0.000 A 
ATOM      5  C6  UNL d   1      -1.456   2.269   1.574  0.00  0.00     0.000 A 
ATOM      6  C7  UNL d   1      -0.883   1.021   1.275  0.00  0.00    -0.073 A 
ATOM      7  C8  UNL d   1      -1.107  -0.123   2.227  0.00  0.00     0.078 C 
ENDROOT
BRANCH   1   8
ATOM      8  C1  UNL d   1       0.459  -0.452  -0.333  0.00  0.00     0.053 C 
ATOM      9  C   UNL d   1      -0.465  -1.268  -1.224  0.00  0.00     0.018 C 
ENDBRANCH   1   8
TORSDOF 1
ENDMDL
