MODEL 1
REMARK minimizedAffinity 9.35097218
REMARK minimizedRMSD -1
REMARK  0 active torsions:
REMARK  status: ('A' for Active; 'I' for Inactive)
ROOT
ATOM      1  C2' OXE d   1       3.391   0.032  -5.852  0.00  0.00     0.078 C 
ATOM      2  C1' OXE d   1       1.710   2.280  -5.834  0.00  0.00     0.078 C 
ATOM      3  C1  OXE d   1       3.198   2.515  -5.910  0.00  0.00    -0.078 A 
ATOM      4  C2  OXE d   1       4.015   1.411  -5.871  0.00  0.00    -0.078 A 
ATOM      5  C3  OXE d   1       5.393   1.569  -5.992  0.00  0.00     0.003 A 
ATOM      6  C4  OXE d   1       5.962   2.848  -5.999  0.00  0.00    -0.002 A 
ATOM      7  C5  OXE d   1       5.150   3.987  -6.000  0.00  0.00    -0.002 A 
ATOM      8  C6  OXE d   1       3.767   3.837  -5.998  0.00  0.00     0.003 A 
ENDROOT
TORSDOF 0
ENDMDL
