MODEL 1
REMARK minimizedAffinity 4.46805573
REMARK minimizedRMSD -1
REMARK  0 active torsions:
REMARK  status: ('A' for Active; 'I' for Inactive)
ROOT
ATOM      1  C2' OXE d   1       2.496   2.304  -2.827  0.00  0.00     0.078 C 
ATOM      2  C1' OXE d   1       4.937   1.272  -1.901  0.00  0.00     0.078 C 
ATOM      3  C1  OXE d   1       4.860   1.711  -3.342  0.00  0.00    -0.078 A 
ATOM      4  C2  OXE d   1       3.648   2.171  -3.799  0.00  0.00    -0.078 A 
ATOM      5  C3  OXE d   1       3.537   2.640  -5.105  0.00  0.00     0.003 A 
ATOM      6  C4  OXE d   1       4.605   2.504  -6.000  0.00  0.00    -0.002 A 
ATOM      7  C5  OXE d   1       5.836   2.001  -5.565  0.00  0.00    -0.002 A 
ATOM      8  C6  OXE d   1       5.993   1.641  -4.232  0.00  0.00     0.003 A 
ENDROOT
TORSDOF 0
ENDMDL
