MODEL 1
REMARK minimizedAffinity 7.16155815
REMARK minimizedRMSD -1
REMARK  0 active torsions:
REMARK  status: ('A' for Active; 'I' for Inactive)
ROOT
ATOM      1  C2' OXE d   1       1.058  -5.969  -5.969  0.00  0.00     0.078 C 
ATOM      2  C1' OXE d   1       1.048  -5.912  -3.163  0.00  0.00     0.078 C 
ATOM      3  C1  OXE d   1       2.385  -5.925  -3.862  0.00  0.00    -0.078 A 
ATOM      4  C2  OXE d   1       2.380  -6.000  -5.234  0.00  0.00    -0.078 A 
ATOM      5  C3  OXE d   1       3.585  -5.960  -5.930  0.00  0.00     0.003 A 
ATOM      6  C4  OXE d   1       4.803  -5.999  -5.242  0.00  0.00    -0.002 A 
ATOM      7  C5  OXE d   1       4.830  -5.963  -3.844  0.00  0.00    -0.002 A 
ATOM      8  C6  OXE d   1       3.633  -5.883  -3.141  0.00  0.00     0.003 A 
ENDROOT
TORSDOF 0
ENDMDL
