MODEL 1
REMARK minimizedAffinity 4.55347443
REMARK minimizedRMSD -1
REMARK  0 active torsions:
REMARK  status: ('A' for Active; 'I' for Inactive)
ROOT
ATOM      1  C2' OXE d   1      -2.502   2.251  -5.979  0.00  0.00     0.078 C 
ATOM      2  C1' OXE d   1      -5.309   2.209  -5.964  0.00  0.00     0.078 C 
ATOM      3  C1  OXE d   1      -4.626   3.553  -5.972  0.00  0.00    -0.078 A 
ATOM      4  C2  OXE d   1      -3.253   3.565  -5.932  0.00  0.00    -0.078 A 
ATOM      5  C3  OXE d   1      -2.572   4.777  -5.994  0.00  0.00     0.003 A 
ATOM      6  C4  OXE d   1      -3.273   5.988  -5.940  0.00  0.00    -0.002 A 
ATOM      7  C5  OXE d   1      -4.672   5.998  -5.941  0.00  0.00    -0.002 A 
ATOM      8  C6  OXE d   1      -5.362   4.793  -5.999  0.00  0.00     0.003 A 
ENDROOT
TORSDOF 0
ENDMDL
