MODEL 1
REMARK minimizedAffinity 9.79909706
REMARK minimizedRMSD -1
REMARK  0 active torsions:
REMARK  status: ('A' for Active; 'I' for Inactive)
ROOT
ATOM      1  C2' OXE d   1       1.288   0.872  -3.508  0.00  0.00     0.078 C 
ATOM      2  C1' OXE d   1       3.660  -0.425  -2.754  0.00  0.00     0.078 C 
ATOM      3  C1  OXE d   1       2.631  -0.162  -1.683  0.00  0.00    -0.078 A 
ATOM      4  C2  OXE d   1       1.494   0.515  -2.052  0.00  0.00    -0.078 A 
ATOM      5  C3  OXE d   1       0.489   0.735  -1.115  0.00  0.00     0.003 A 
ATOM      6  C4  OXE d   1       0.691   0.410   0.232  0.00  0.00    -0.002 A 
ATOM      7  C5  OXE d   1       1.860  -0.244   0.636  0.00  0.00    -0.002 A 
ATOM      8  C6  OXE d   1       2.819  -0.575  -0.314  0.00  0.00     0.003 A 
ENDROOT
TORSDOF 0
ENDMDL
