MODEL 1
REMARK minimizedAffinity 10.9738436
REMARK minimizedRMSD -1
REMARK  0 active torsions:
REMARK  status: ('A' for Active; 'I' for Inactive)
ROOT
ATOM      1  C2' OXE d   1      -1.665   5.225  -5.960  0.00  0.00     0.078 C 
ATOM      2  C1' OXE d   1      -1.426   2.428  -5.937  0.00  0.00     0.078 C 
ATOM      3  C1  OXE d   1      -2.815   3.015  -5.961  0.00  0.00    -0.078 A 
ATOM      4  C2  OXE d   1      -2.923   4.384  -5.924  0.00  0.00    -0.078 A 
ATOM      5  C3  OXE d   1      -4.180   4.979  -5.999  0.00  0.00     0.003 A 
ATOM      6  C4  OXE d   1      -5.338   4.194  -5.956  0.00  0.00    -0.002 A 
ATOM      7  C5  OXE d   1      -5.251   2.798  -5.953  0.00  0.00    -0.002 A 
ATOM      8  C6  OXE d   1      -4.000   2.194  -5.998  0.00  0.00     0.003 A 
ENDROOT
TORSDOF 0
ENDMDL
