MODEL 1
REMARK minimizedAffinity 5.01795006
REMARK minimizedRMSD -1
REMARK  0 active torsions:
REMARK  status: ('A' for Active; 'I' for Inactive)
ROOT
ATOM      1  C2' OXE d   1       0.479  -5.923  -3.724  0.00  0.00     0.078 C 
ATOM      2  C1' OXE d   1       2.526  -5.984  -1.804  0.00  0.00     0.078 C 
ATOM      3  C1  OXE d   1       2.926  -5.960  -3.258  0.00  0.00    -0.078 A 
ATOM      4  C2  OXE d   1       1.918  -5.977  -4.191  0.00  0.00    -0.078 A 
ATOM      5  C3  OXE d   1       2.231  -5.901  -5.546  0.00  0.00     0.003 A 
ATOM      6  C4  OXE d   1       3.564  -5.962  -5.969  0.00  0.00    -0.002 A 
ATOM      7  C5  OXE d   1       4.605  -5.984  -5.036  0.00  0.00    -0.002 A 
ATOM      8  C6  OXE d   1       4.305  -5.941  -3.679  0.00  0.00     0.003 A 
ENDROOT
TORSDOF 0
ENDMDL
