MODEL 1
REMARK minimizedAffinity 5.12822008
REMARK minimizedRMSD -1
REMARK  0 active torsions:
REMARK  status: ('A' for Active; 'I' for Inactive)
ROOT
ATOM      1  C2' OXE d   1       0.035   4.128  -5.998  0.00  0.00     0.078 C 
ATOM      2  C1' OXE d   1       2.842   4.090  -6.000  0.00  0.00     0.078 C 
ATOM      3  C1  OXE d   1       2.120   2.770  -5.892  0.00  0.00    -0.078 A 
ATOM      4  C2  OXE d   1       0.747   2.802  -5.845  0.00  0.00    -0.078 A 
ATOM      5  C3  OXE d   1       0.032   1.609  -5.801  0.00  0.00     0.003 A 
ATOM      6  C4  OXE d   1       0.698   0.387  -5.650  0.00  0.00    -0.002 A 
ATOM      7  C5  OXE d   1       2.096   0.336  -5.655  0.00  0.00    -0.002 A 
ATOM      8  C6  OXE d   1       2.821   1.512  -5.818  0.00  0.00     0.003 A 
ENDROOT
TORSDOF 0
ENDMDL
