MODEL 1
REMARK minimizedAffinity 12.4604759
REMARK minimizedRMSD -1
REMARK  0 active torsions:
REMARK  status: ('A' for Active; 'I' for Inactive)
ROOT
ATOM      1  C2' OXE d   1       3.243   4.087  -0.472  0.00  0.00     0.078 C 
ATOM      2  C1' OXE d   1       1.157   2.424  -1.346  0.00  0.00     0.078 C 
ATOM      3  C1  OXE d   1       1.888   2.033  -0.086  0.00  0.00    -0.078 A 
ATOM      4  C2  OXE d   1       2.938   2.827   0.309  0.00  0.00    -0.078 A 
ATOM      5  C3  OXE d   1       3.611   2.542   1.493  0.00  0.00     0.003 A 
ATOM      6  C4  OXE d   1       3.328   1.369   2.204  0.00  0.00    -0.002 A 
ATOM      7  C5  OXE d   1       2.289   0.525   1.797  0.00  0.00    -0.002 A 
ATOM      8  C6  OXE d   1       1.533   0.864   0.681  0.00  0.00     0.003 A 
ENDROOT
TORSDOF 0
ENDMDL
