MODEL 1
REMARK minimizedAffinity 2.24583197
REMARK minimizedRMSD -1
REMARK  0 active torsions:
REMARK  status: ('A' for Active; 'I' for Inactive)
ROOT
ATOM      1  C2' OXE d   1       5.294   4.099   4.101  0.00  0.00     0.078 C 
ATOM      2  C1' OXE d   1       3.401   4.400   2.050  0.00  0.00     0.078 C 
ATOM      3  C1  OXE d   1       3.042   4.917   3.421  0.00  0.00    -0.078 A 
ATOM      4  C2  OXE d   1       3.955   4.723   4.429  0.00  0.00    -0.078 A 
ATOM      5  C3  OXE d   1       3.697   5.229   5.700  0.00  0.00     0.003 A 
ATOM      6  C4  OXE d   1       2.452   5.797   5.997  0.00  0.00    -0.002 A 
ATOM      7  C5  OXE d   1       1.492   5.967   4.994  0.00  0.00    -0.002 A 
ATOM      8  C6  OXE d   1       1.787   5.572   3.694  0.00  0.00     0.003 A 
ENDROOT
TORSDOF 0
ENDMDL
