MODEL 1
REMARK minimizedAffinity 4.26034641
REMARK minimizedRMSD -1
REMARK  0 active torsions:
REMARK  status: ('A' for Active; 'I' for Inactive)
ROOT
ATOM      1  C2' OXE d   1       2.999   2.910   0.044  0.00  0.00     0.078 C 
ATOM      2  C1' OXE d   1       1.875   1.081   1.853  0.00  0.00     0.078 C 
ATOM      3  C1  OXE d   1       2.563   0.528   0.629  0.00  0.00    -0.078 A 
ATOM      4  C2  OXE d   1       3.069   1.432  -0.274  0.00  0.00    -0.078 A 
ATOM      5  C3  OXE d   1       3.761   0.975  -1.391  0.00  0.00     0.003 A 
ATOM      6  C4  OXE d   1       3.813  -0.394  -1.683  0.00  0.00    -0.002 A 
ATOM      7  C5  OXE d   1       3.269  -1.329  -0.796  0.00  0.00    -0.002 A 
ATOM      8  C6  OXE d   1       2.679  -0.888   0.383  0.00  0.00     0.003 A 
ENDROOT
TORSDOF 0
ENDMDL
