MODEL 1
REMARK minimizedAffinity 10.3978558
REMARK minimizedRMSD -1
REMARK  0 active torsions:
REMARK  status: ('A' for Active; 'I' for Inactive)
ROOT
ATOM      1  C2' OXE d   1       2.188   2.627  -0.410  0.00  0.00     0.078 C 
ATOM      2  C1' OXE d   1       3.377   5.147  -0.751  0.00  0.00     0.078 C 
ATOM      3  C1  OXE d   1       4.102   3.946  -1.306  0.00  0.00    -0.078 A 
ATOM      4  C2  OXE d   1       3.536   2.712  -1.093  0.00  0.00    -0.078 A 
ATOM      5  C3  OXE d   1       4.135   1.577  -1.631  0.00  0.00     0.003 A 
ATOM      6  C4  OXE d   1       5.386   1.663  -2.253  0.00  0.00    -0.002 A 
ATOM      7  C5  OXE d   1       6.000   2.905  -2.444  0.00  0.00    -0.002 A 
ATOM      8  C6  OXE d   1       5.352   4.058  -2.015  0.00  0.00     0.003 A 
ENDROOT
TORSDOF 0
ENDMDL
