MODEL 1
REMARK minimizedAffinity 12.8309202
REMARK minimizedRMSD -1
REMARK  0 active torsions:
REMARK  status: ('A' for Active; 'I' for Inactive)
ROOT
ATOM      1  C2' OXE d   1       4.885   5.871   5.999  0.00  0.00     0.078 C 
ATOM      2  C1' OXE d   1       3.122   5.328   3.884  0.00  0.00     0.078 C 
ATOM      3  C1  OXE d   1       4.108   4.255   4.270  0.00  0.00    -0.078 A 
ATOM      4  C2  OXE d   1       4.998   4.546   5.276  0.00  0.00    -0.078 A 
ATOM      5  C3  OXE d   1       5.893   3.571   5.708  0.00  0.00     0.003 A 
ATOM      6  C4  OXE d   1       5.997   2.353   5.027  0.00  0.00    -0.002 A 
ATOM      7  C5  OXE d   1       5.127   2.051   3.975  0.00  0.00    -0.002 A 
ATOM      8  C6  OXE d   1       4.151   2.972   3.612  0.00  0.00     0.003 A 
ENDROOT
TORSDOF 0
ENDMDL
