MODEL 1
REMARK minimizedAffinity 6.31148243
REMARK minimizedRMSD -1
REMARK  0 active torsions:
REMARK  status: ('A' for Active; 'I' for Inactive)
ROOT
ATOM      1  C2' OXE d   1      -0.680   1.917  -4.599  0.00  0.00     0.078 C 
ATOM      2  C1' OXE d   1      -1.139   3.340  -2.223  0.00  0.00     0.078 C 
ATOM      3  C1  OXE d   1       0.246   2.792  -2.459  0.00  0.00    -0.078 A 
ATOM      4  C2  OXE d   1       0.450   2.058  -3.602  0.00  0.00    -0.078 A 
ATOM      5  C3  OXE d   1       1.723   1.576  -3.894  0.00  0.00     0.003 A 
ATOM      6  C4  OXE d   1       2.760   1.701  -2.962  0.00  0.00    -0.002 A 
ATOM      7  C5  OXE d   1       2.563   2.412  -1.773  0.00  0.00    -0.002 A 
ATOM      8  C6  OXE d   1       1.327   2.998  -1.526  0.00  0.00     0.003 A 
ENDROOT
TORSDOF 0
ENDMDL
