MODEL 1
REMARK minimizedAffinity 0.407619655
REMARK minimizedRMSD -1
REMARK  0 active torsions:
REMARK  status: ('A' for Active; 'I' for Inactive)
ROOT
ATOM      1  C2' OXE d   1       5.728   3.362   4.500  0.00  0.00     0.078 C 
ATOM      2  C1' OXE d   1       3.415   2.963   2.960  0.00  0.00     0.078 C 
ATOM      3  C1  OXE d   1       3.385   4.049   4.006  0.00  0.00    -0.078 A 
ATOM      4  C2  OXE d   1       4.505   4.207   4.786  0.00  0.00    -0.078 A 
ATOM      5  C3  OXE d   1       4.550   5.230   5.729  0.00  0.00     0.003 A 
ATOM      6  C4  OXE d   1       3.411   6.000   5.994  0.00  0.00    -0.002 A 
ATOM      7  C5  OXE d   1       2.247   5.829   5.238  0.00  0.00    -0.002 A 
ATOM      8  C6  OXE d   1       2.231   4.889   4.214  0.00  0.00     0.003 A 
ENDROOT
TORSDOF 0
ENDMDL
