MODEL 1
REMARK minimizedAffinity 5.70753193
REMARK minimizedRMSD -1
REMARK  0 active torsions:
REMARK  status: ('A' for Active; 'I' for Inactive)
ROOT
ATOM      1  C2' OXE d   1       3.545   2.303   2.575  0.00  0.00     0.078 C 
ATOM      2  C1' OXE d   1       3.776   3.500   0.047  0.00  0.00     0.078 C 
ATOM      3  C1  OXE d   1       2.613   2.569   0.281  0.00  0.00    -0.078 A 
ATOM      4  C2  OXE d   1       2.534   1.951   1.506  0.00  0.00    -0.078 A 
ATOM      5  C3  OXE d   1       1.450   1.126   1.793  0.00  0.00     0.003 A 
ATOM      6  C4  OXE d   1       0.525   0.798   0.794  0.00  0.00    -0.002 A 
ATOM      7  C5  OXE d   1       0.610   1.385  -0.473  0.00  0.00    -0.002 A 
ATOM      8  C6  OXE d   1       1.621   2.303  -0.732  0.00  0.00     0.003 A 
ENDROOT
TORSDOF 0
ENDMDL
