MODEL 1
REMARK minimizedAffinity 12.4070053
REMARK minimizedRMSD -1
REMARK  0 active torsions:
REMARK  status: ('A' for Active; 'I' for Inactive)
ROOT
ATOM      1  C2' OXE d   1       3.761   2.765   2.989  0.00  0.00     0.078 C 
ATOM      2  C1' OXE d   1       1.833   4.787   3.260  0.00  0.00     0.078 C 
ATOM      3  C1  OXE d   1       3.084   4.891   4.097  0.00  0.00    -0.078 A 
ATOM      4  C2  OXE d   1       4.001   3.873   3.992  0.00  0.00    -0.078 A 
ATOM      5  C3  OXE d   1       5.197   3.947   4.701  0.00  0.00     0.003 A 
ATOM      6  C4  OXE d   1       5.406   4.970   5.634  0.00  0.00    -0.002 A 
ATOM      7  C5  OXE d   1       4.467   5.996   5.785  0.00  0.00    -0.002 A 
ATOM      8  C6  OXE d   1       3.323   5.994   4.995  0.00  0.00     0.003 A 
ENDROOT
TORSDOF 0
ENDMDL
