MODEL 1
REMARK minimizedAffinity 19.8831863
REMARK minimizedRMSD -1
REMARK  0 active torsions:
REMARK  status: ('A' for Active; 'I' for Inactive)
ROOT
ATOM      1  C2' OXE d   1      -4.636   1.650  -5.995  0.00  0.00     0.078 C 
ATOM      2  C1' OXE d   1      -1.993   2.584  -5.840  0.00  0.00     0.078 C 
ATOM      3  C1  OXE d   1      -3.100   3.608  -5.876  0.00  0.00    -0.078 A 
ATOM      4  C2  OXE d   1      -4.388   3.143  -5.999  0.00  0.00    -0.078 A 
ATOM      5  C3  OXE d   1      -5.450   4.042  -5.982  0.00  0.00     0.003 A 
ATOM      6  C4  OXE d   1      -5.211   5.422  -5.995  0.00  0.00    -0.002 A 
ATOM      7  C5  OXE d   1      -3.906   5.917  -5.910  0.00  0.00    -0.002 A 
ATOM      8  C6  OXE d   1      -2.844   5.025  -5.807  0.00  0.00     0.003 A 
ENDROOT
TORSDOF 0
ENDMDL
