MODEL 1
REMARK minimizedAffinity 18.9036884
REMARK minimizedRMSD -1
REMARK  0 active torsions:
REMARK  status: ('A' for Active; 'I' for Inactive)
ROOT
ATOM      1  C2' OXE d   1      -1.843   2.305  -5.895  0.00  0.00     0.078 C 
ATOM      2  C1' OXE d   1      -4.636   2.048  -5.992  0.00  0.00     0.078 C 
ATOM      3  C1  OXE d   1      -4.060   3.440  -5.927  0.00  0.00    -0.078 A 
ATOM      4  C2  OXE d   1      -2.694   3.555  -5.833  0.00  0.00    -0.078 A 
ATOM      5  C3  OXE d   1      -2.107   4.817  -5.825  0.00  0.00     0.003 A 
ATOM      6  C4  OXE d   1      -2.902   5.968  -5.757  0.00  0.00    -0.002 A 
ATOM      7  C5  OXE d   1      -4.296   5.872  -5.812  0.00  0.00    -0.002 A 
ATOM      8  C6  OXE d   1      -4.888   4.620  -5.939  0.00  0.00     0.003 A 
ENDROOT
TORSDOF 0
ENDMDL
