MODEL 1
REMARK minimizedAffinity 6.52362204
REMARK minimizedRMSD -1
REMARK  0 active torsions:
REMARK  status: ('A' for Active; 'I' for Inactive)
ROOT
ATOM      1  C   UNL d   1       0.928  -1.273   2.290  0.00  0.00     0.020 A 
ATOM      2  C1  UNL d   1       1.639  -0.685   3.335  0.00  0.00     0.020 A 
ATOM      3  C2  UNL d   1       1.031   0.284   4.136  0.00  0.00     0.034 A 
ATOM      4  C3  UNL d   1      -0.293   0.668   3.894  0.00  0.00     0.017 A 
ATOM      5  C4  UNL d   1      -1.007   0.077   2.845  0.00  0.00     0.017 A 
ATOM      6  C5  UNL d   1      -0.393  -0.893   2.046  0.00  0.00     0.034 A 
ATOM      7 Cl   UNL d   1      -2.644   0.498   2.485  0.00  0.00    -0.070 Cl
ATOM      8 Cl1  UNL d   1      -0.982   1.871   4.924  0.00  0.00    -0.070 Cl
ENDROOT
TORSDOF 0
ENDMDL
