MODEL 1
REMARK minimizedAffinity 15.5212688
REMARK minimizedRMSD -1
REMARK  0 active torsions:
REMARK  status: ('A' for Active; 'I' for Inactive)
ROOT
ATOM      1  C   UNL d   1       2.052  -2.325  -4.959  0.00  0.00     0.020 A 
ATOM      2  C1  UNL d   1       1.919  -3.444  -5.781  0.00  0.00     0.020 A 
ATOM      3  C2  UNL d   1       0.662  -4.019  -5.980  0.00  0.00     0.034 A 
ATOM      4  C3  UNL d   1      -0.467  -3.477  -5.356  0.00  0.00     0.017 A 
ATOM      5  C4  UNL d   1      -0.333  -2.354  -4.530  0.00  0.00     0.017 A 
ATOM      6  C5  UNL d   1       0.928  -1.782  -4.335  0.00  0.00     0.034 A 
ATOM      7 Cl   UNL d   1      -1.680  -1.629  -3.726  0.00  0.00    -0.070 Cl
ATOM      8 Cl1  UNL d   1      -1.990  -4.239  -5.647  0.00  0.00    -0.070 Cl
ENDROOT
TORSDOF 0
ENDMDL
