MODEL 1
REMARK minimizedAffinity 9.98864841
REMARK minimizedRMSD -1
REMARK  0 active torsions:
REMARK  status: ('A' for Active; 'I' for Inactive)
ROOT
ATOM      1  C   UNL d   1       2.740   0.526   3.133  0.00  0.00     0.020 A 
ATOM      2  C1  UNL d   1       1.815   1.189   2.327  0.00  0.00     0.020 A 
ATOM      3  C2  UNL d   1       0.559   0.624   2.096  0.00  0.00     0.034 A 
ATOM      4  C3  UNL d   1       0.224  -0.607   2.672  0.00  0.00     0.017 A 
ATOM      5  C4  UNL d   1       1.152  -1.271   3.481  0.00  0.00     0.017 A 
ATOM      6  C5  UNL d   1       2.409  -0.702   3.709  0.00  0.00     0.034 A 
ATOM      7 Cl   UNL d   1       0.811  -2.793   4.225  0.00  0.00    -0.070 Cl
ATOM      8 Cl1  UNL d   1      -1.348  -1.245   2.343  0.00  0.00    -0.070 Cl
ENDROOT
TORSDOF 0
ENDMDL
