MODEL 1
REMARK minimizedAffinity 8.50739765
REMARK minimizedRMSD -1
REMARK  0 active torsions:
REMARK  status: ('A' for Active; 'I' for Inactive)
ROOT
ATOM      1  C   UNL d   1      -0.314  -0.383   2.256  0.00  0.00     0.020 A 
ATOM      2  C1  UNL d   1       0.892  -0.924   1.812  0.00  0.00     0.020 A 
ATOM      3  C2  UNL d   1       2.078  -0.639   2.491  0.00  0.00     0.034 A 
ATOM      4  C3  UNL d   1       2.061   0.190   3.619  0.00  0.00     0.017 A 
ATOM      5  C4  UNL d   1       0.851   0.733   4.064  0.00  0.00     0.017 A 
ATOM      6  C5  UNL d   1      -0.334   0.444   3.380  0.00  0.00     0.034 A 
ATOM      7 Cl   UNL d   1       0.750   1.764   5.447  0.00  0.00    -0.070 Cl
ATOM      8 Cl1  UNL d   1       3.565   0.500   4.411  0.00  0.00    -0.070 Cl
ENDROOT
TORSDOF 0
ENDMDL
