MODEL 1
REMARK minimizedAffinity 10.2191906
REMARK minimizedRMSD -1
REMARK  0 active torsions:
REMARK  status: ('A' for Active; 'I' for Inactive)
ROOT
ATOM      1  C   UNL d   1       0.917  -1.054   2.997  0.00  0.00     0.020 A 
ATOM      2  C1  UNL d   1       0.704   0.309   3.197  0.00  0.00     0.020 A 
ATOM      3  C2  UNL d   1      -0.529   0.878   2.871  0.00  0.00     0.034 A 
ATOM      4  C3  UNL d   1      -1.554   0.083   2.344  0.00  0.00     0.017 A 
ATOM      5  C4  UNL d   1      -1.338  -1.285   2.144  0.00  0.00     0.017 A 
ATOM      6  C5  UNL d   1      -0.102  -1.849   2.472  0.00  0.00     0.034 A 
ATOM      7 Cl   UNL d   1      -2.554  -2.330   1.497  0.00  0.00    -0.070 Cl
ATOM      8 Cl1  UNL d   1      -3.053   0.853   1.964  0.00  0.00    -0.070 Cl
ENDROOT
TORSDOF 0
ENDMDL
