MODEL 1
REMARK minimizedAffinity 16.6298504
REMARK minimizedRMSD -1
REMARK  0 active torsions:
REMARK  status: ('A' for Active; 'I' for Inactive)
ROOT
ATOM      1  C   UNL d   1       0.006   1.870   5.999  0.00  0.00     0.020 A 
ATOM      2  C1  UNL d   1      -0.731   3.048   5.892  0.00  0.00     0.020 A 
ATOM      3  C2  UNL d   1      -1.366   3.368   4.690  0.00  0.00     0.034 A 
ATOM      4  C3  UNL d   1      -1.265   2.508   3.590  0.00  0.00     0.017 A 
ATOM      5  C4  UNL d   1      -0.524   1.325   3.699  0.00  0.00     0.017 A 
ATOM      6  C5  UNL d   1       0.109   1.010   4.905  0.00  0.00     0.034 A 
ATOM      7 Cl   UNL d   1      -0.354   0.214   2.386  0.00  0.00    -0.070 Cl
ATOM      8 Cl1  UNL d   1      -2.076   2.966   2.135  0.00  0.00    -0.070 Cl
ENDROOT
TORSDOF 0
ENDMDL
