MODEL 1
REMARK minimizedAffinity 8.49712944
REMARK minimizedRMSD -1
REMARK  0 active torsions:
REMARK  status: ('A' for Active; 'I' for Inactive)
ROOT
ATOM      1  C   UNL d   1      -3.120  -2.111   0.982  0.00  0.00     0.020 A 
ATOM      2  C1  UNL d   1      -3.210  -1.138   1.977  0.00  0.00     0.020 A 
ATOM      3  C2  UNL d   1      -3.632   0.153   1.654  0.00  0.00     0.034 A 
ATOM      4  C3  UNL d   1      -3.965   0.476   0.334  0.00  0.00     0.017 A 
ATOM      5  C4  UNL d   1      -3.874  -0.501  -0.664  0.00  0.00     0.017 A 
ATOM      6  C5  UNL d   1      -3.451  -1.793  -0.336  0.00  0.00     0.034 A 
ATOM      7 Cl   UNL d   1      -4.269  -0.179  -2.316  0.00  0.00    -0.070 Cl
ATOM      8 Cl1  UNL d   1      -4.480   2.093   0.007  0.00  0.00    -0.070 Cl
ENDROOT
TORSDOF 0
ENDMDL
