MODEL 1
REMARK minimizedAffinity 12.2617846
REMARK minimizedRMSD -1
REMARK  0 active torsions:
REMARK  status: ('A' for Active; 'I' for Inactive)
ROOT
ATOM      1  C   UNL d   1       0.747  -0.028  -4.513  0.00  0.00     0.020 A 
ATOM      2  C1  UNL d   1       0.492  -0.484  -5.806  0.00  0.00     0.020 A 
ATOM      3  C2  UNL d   1      -0.202  -1.680  -6.000  0.00  0.00     0.034 A 
ATOM      4  C3  UNL d   1      -0.643  -2.424  -4.900  0.00  0.00     0.017 A 
ATOM      5  C4  UNL d   1      -0.387  -1.965  -3.602  0.00  0.00     0.017 A 
ATOM      6  C5  UNL d   1       0.309  -0.767  -3.414  0.00  0.00     0.034 A 
ATOM      7 Cl   UNL d   1      -0.900  -2.829  -2.196  0.00  0.00    -0.070 Cl
ATOM      8 Cl1  UNL d   1      -1.496  -3.894  -5.214  0.00  0.00    -0.070 Cl
ENDROOT
TORSDOF 0
ENDMDL
