MODEL 1
REMARK minimizedAffinity 17.3478699
REMARK minimizedRMSD -1
REMARK  0 active torsions:
REMARK  status: ('A' for Active; 'I' for Inactive)
ROOT
ATOM      1  C   UNL d   1       0.350   0.555   2.260  0.00  0.00     0.020 A 
ATOM      2  C1  UNL d   1       1.422  -0.069   2.897  0.00  0.00     0.020 A 
ATOM      3  C2  UNL d   1       1.244  -1.314   3.504  0.00  0.00     0.034 A 
ATOM      4  C3  UNL d   1      -0.008  -1.939   3.476  0.00  0.00     0.017 A 
ATOM      5  C4  UNL d   1      -1.083  -1.311   2.836  0.00  0.00     0.017 A 
ATOM      6  C5  UNL d   1      -0.900  -0.064   2.230  0.00  0.00     0.034 A 
ATOM      7 Cl   UNL d   1      -2.658  -2.019   2.759  0.00  0.00    -0.070 Cl
ATOM      8 Cl1  UNL d   1      -0.157  -3.478   4.246  0.00  0.00    -0.070 Cl
ENDROOT
TORSDOF 0
ENDMDL
