MODEL 1
REMARK minimizedAffinity 13.744525
REMARK minimizedRMSD -1
REMARK  0 active torsions:
REMARK  status: ('A' for Active; 'I' for Inactive)
ROOT
ATOM      1  C   UNL d   1       0.738   0.239  -3.827  0.00  0.00     0.020 A 
ATOM      2  C1  UNL d   1       0.499  -1.132  -3.750  0.00  0.00     0.020 A 
ATOM      3  C2  UNL d   1       1.468  -2.036  -4.190  0.00  0.00     0.034 A 
ATOM      4  C3  UNL d   1       2.681  -1.570  -4.710  0.00  0.00     0.017 A 
ATOM      5  C4  UNL d   1       2.920  -0.193  -4.787  0.00  0.00     0.017 A 
ATOM      6  C5  UNL d   1       1.946   0.707  -4.345  0.00  0.00     0.034 A 
ATOM      7 Cl   UNL d   1       4.393   0.457  -5.416  0.00  0.00    -0.070 Cl
ATOM      8 Cl1  UNL d   1       3.834  -2.745  -5.235  0.00  0.00    -0.070 Cl
ENDROOT
TORSDOF 0
ENDMDL
