MODEL 1
REMARK minimizedAffinity 1.96160555
REMARK minimizedRMSD -1
REMARK  0 active torsions:
REMARK  status: ('A' for Active; 'I' for Inactive)
ROOT
ATOM      1  C2' OXE d   1      -1.322   0.534  -1.227  0.00  0.00     0.078 C 
ATOM      2  C1' OXE d   1      -0.554   3.027  -0.189  0.00  0.00     0.078 C 
ATOM      3  C1  OXE d   1       0.213   1.810   0.264  0.00  0.00    -0.078 A 
ATOM      4  C2  OXE d   1      -0.200   0.589  -0.212  0.00  0.00    -0.078 A 
ATOM      5  C3  OXE d   1       0.507  -0.560   0.131  0.00  0.00     0.003 A 
ATOM      6  C4  OXE d   1       1.538  -0.502   1.077  0.00  0.00    -0.002 A 
ATOM      7  C5  OXE d   1       1.948   0.727   1.606  0.00  0.00    -0.002 A 
ATOM      8  C6  OXE d   1       1.325   1.894   1.178  0.00  0.00     0.003 A 
ENDROOT
TORSDOF 0
ENDMDL
