MODEL 1
REMARK minimizedAffinity 7.7276001
REMARK minimizedRMSD -1
REMARK  0 active torsions:
REMARK  status: ('A' for Active; 'I' for Inactive)
ROOT
ATOM      1  C2' OXE d   1      -2.700   2.943   2.845  0.00  0.00     0.078 C 
ATOM      2  C1' OXE d   1      -1.435   1.996   0.525  0.00  0.00     0.078 C 
ATOM      3  C1  OXE d   1      -2.876   1.612   0.747  0.00  0.00    -0.078 A 
ATOM      4  C2  OXE d   1      -3.474   2.041   1.908  0.00  0.00    -0.078 A 
ATOM      5  C3  OXE d   1      -4.818   1.761   2.135  0.00  0.00     0.003 A 
ATOM      6  C4  OXE d   1      -5.523   0.918   1.268  0.00  0.00    -0.002 A 
ATOM      7  C5  OXE d   1      -4.922   0.438   0.100  0.00  0.00    -0.002 A 
ATOM      8  C6  OXE d   1      -3.615   0.810  -0.196  0.00  0.00     0.003 A 
ENDROOT
TORSDOF 0
ENDMDL
