MODEL 1
REMARK minimizedAffinity 3.75456977
REMARK minimizedRMSD -1
REMARK  0 active torsions:
REMARK  status: ('A' for Active; 'I' for Inactive)
ROOT
ATOM      1  C2' OXE d   1      -2.972   2.625  -5.350  0.00  0.00     0.078 C 
ATOM      2  C1' OXE d   1      -3.563   1.189  -3.012  0.00  0.00     0.078 C 
ATOM      3  C1  OXE d   1      -4.337   2.457  -3.273  0.00  0.00    -0.078 A 
ATOM      4  C2  OXE d   1      -4.009   3.178  -4.396  0.00  0.00    -0.078 A 
ATOM      5  C3  OXE d   1      -4.729   4.327  -4.713  0.00  0.00     0.003 A 
ATOM      6  C4  OXE d   1      -5.678   4.837  -3.820  0.00  0.00    -0.002 A 
ATOM      7  C5  OXE d   1      -6.000   4.139  -2.650  0.00  0.00    -0.002 A 
ATOM      8  C6  OXE d   1      -5.370   2.929  -2.384  0.00  0.00     0.003 A 
ENDROOT
TORSDOF 0
ENDMDL
