MODEL 1
REMARK minimizedAffinity 3.64063644
REMARK minimizedRMSD -1
REMARK  0 active torsions:
REMARK  status: ('A' for Active; 'I' for Inactive)
ROOT
ATOM      1  C2' OXE d   1      -0.442   2.210  -0.384  0.00  0.00     0.078 C 
ATOM      2  C1' OXE d   1      -2.286   0.519  -1.656  0.00  0.00     0.078 C 
ATOM      3  C1  OXE d   1      -2.697   1.153  -0.351  0.00  0.00    -0.078 A 
ATOM      4  C2  OXE d   1      -1.771   1.942   0.288  0.00  0.00    -0.078 A 
ATOM      5  C3  OXE d   1      -2.118   2.594   1.468  0.00  0.00     0.003 A 
ATOM      6  C4  OXE d   1      -3.346   2.333   2.087  0.00  0.00    -0.002 A 
ATOM      7  C5  OXE d   1      -4.289   1.502   1.473  0.00  0.00    -0.002 A 
ATOM      8  C6  OXE d   1      -3.997   0.939   0.236  0.00  0.00     0.003 A 
ENDROOT
TORSDOF 0
ENDMDL
