MODEL 1
REMARK minimizedAffinity 0.40307042
REMARK minimizedRMSD -1
REMARK  0 active torsions:
REMARK  status: ('A' for Active; 'I' for Inactive)
ROOT
ATOM      1  C2' OXE d   1      -2.707   2.459   2.279  0.00  0.00     0.078 C 
ATOM      2  C1' OXE d   1      -1.019   1.794   0.137  0.00  0.00     0.078 C 
ATOM      3  C1  OXE d   1      -2.437   1.281   0.101  0.00  0.00    -0.078 A 
ATOM      4  C2  OXE d   1      -3.242   1.572   1.175  0.00  0.00    -0.078 A 
ATOM      5  C3  OXE d   1      -4.575   1.169   1.167  0.00  0.00     0.003 A 
ATOM      6  C4  OXE d   1      -5.058   0.340   0.148  0.00  0.00    -0.002 A 
ATOM      7  C5  OXE d   1      -4.243  -0.001  -0.937  0.00  0.00    -0.002 A 
ATOM      8  C6  OXE d   1      -2.946   0.495  -0.996  0.00  0.00     0.003 A 
ENDROOT
TORSDOF 0
ENDMDL
