MODEL 1
REMARK minimizedAffinity 6.77945948
REMARK minimizedRMSD -1
REMARK  0 active torsions:
REMARK  status: ('A' for Active; 'I' for Inactive)
ROOT
ATOM      1  C2' OXE d   1       2.301   0.735  -0.038  0.00  0.00     0.078 C 
ATOM      2  C1' OXE d   1       3.608  -1.515   1.015  0.00  0.00     0.078 C 
ATOM      3  C1  OXE d   1       2.346  -1.742   0.220  0.00  0.00    -0.078 A 
ATOM      4  C2  OXE d   1       1.688  -0.632  -0.252  0.00  0.00    -0.078 A 
ATOM      5  C3  OXE d   1       0.550  -0.788  -1.037  0.00  0.00     0.003 A 
ATOM      6  C4  OXE d   1      -0.016  -2.055  -1.222  0.00  0.00    -0.002 A 
ATOM      7  C5  OXE d   1       0.616  -3.196  -0.716  0.00  0.00    -0.002 A 
ATOM      8  C6  OXE d   1       1.819  -3.061  -0.031  0.00  0.00     0.003 A 
ENDROOT
TORSDOF 0
ENDMDL
