MODEL 1
REMARK minimizedAffinity 4.79855394
REMARK minimizedRMSD -1
REMARK  0 active torsions:
REMARK  status: ('A' for Active; 'I' for Inactive)
ROOT
ATOM      1  C2' OXE d   1       1.824   1.186   0.389  0.00  0.00     0.078 C 
ATOM      2  C1' OXE d   1       0.695   0.010   2.675  0.00  0.00     0.078 C 
ATOM      3  C1  OXE d   1       0.158   1.349   2.234  0.00  0.00    -0.078 A 
ATOM      4  C2  OXE d   1       0.748   1.939   1.142  0.00  0.00    -0.078 A 
ATOM      5  C3  OXE d   1       0.254   3.148   0.661  0.00  0.00     0.003 A 
ATOM      6  C4  OXE d   1      -0.735   3.842   1.369  0.00  0.00    -0.002 A 
ATOM      7  C5  OXE d   1      -1.322   3.277   2.507  0.00  0.00    -0.002 A 
ATOM      8  C6  OXE d   1      -0.917   2.015   2.927  0.00  0.00     0.003 A 
ENDROOT
TORSDOF 0
ENDMDL
