MODEL 1
REMARK minimizedAffinity -1.51674771
REMARK minimizedRMSD -1
REMARK  0 active torsions:
REMARK  status: ('A' for Active; 'I' for Inactive)
ROOT
ATOM      1  C2' OXE d   1      -0.462   1.946   1.123  0.00  0.00     0.078 C 
ATOM      2  C1' OXE d   1      -2.234   2.897   3.082  0.00  0.00     0.078 C 
ATOM      3  C1  OXE d   1      -2.802   2.047   1.973  0.00  0.00    -0.078 A 
ATOM      4  C2  OXE d   1      -1.936   1.625   0.993  0.00  0.00    -0.078 A 
ATOM      5  C3  OXE d   1      -2.397   0.792  -0.023  0.00  0.00     0.003 A 
ATOM      6  C4  OXE d   1      -3.763   0.508  -0.141  0.00  0.00    -0.002 A 
ATOM      7  C5  OXE d   1      -4.668   0.961   0.824  0.00  0.00    -0.002 A 
ATOM      8  C6  OXE d   1      -4.199   1.694   1.909  0.00  0.00     0.003 A 
ENDROOT
TORSDOF 0
ENDMDL
