MODEL 1
REMARK minimizedAffinity 2.06118464
REMARK minimizedRMSD -1
REMARK  0 active torsions:
REMARK  status: ('A' for Active; 'I' for Inactive)
ROOT
ATOM      1  C2' OXE d   1      -3.744   0.077  -2.171  0.00  0.00     0.078 C 
ATOM      2  C1' OXE d   1      -5.916   0.089  -0.392  0.00  0.00     0.078 C 
ATOM      3  C1  OXE d   1      -4.574   0.534   0.133  0.00  0.00    -0.078 A 
ATOM      4  C2  OXE d   1      -3.507   0.481  -0.731  0.00  0.00    -0.078 A 
ATOM      5  C3  OXE d   1      -2.259   0.933  -0.314  0.00  0.00     0.003 A 
ATOM      6  C4  OXE d   1      -2.046   1.295   1.022  0.00  0.00    -0.002 A 
ATOM      7  C5  OXE d   1      -3.110   1.319   1.929  0.00  0.00    -0.002 A 
ATOM      8  C6  OXE d   1      -4.387   0.983   1.491  0.00  0.00     0.003 A 
ENDROOT
TORSDOF 0
ENDMDL
