MODEL 1
REMARK minimizedAffinity 1.0738349
REMARK minimizedRMSD -1
REMARK  0 active torsions:
REMARK  status: ('A' for Active; 'I' for Inactive)
ROOT
ATOM      1  C2' OXE d   1      -2.063   0.624  -2.799  0.00  0.00     0.078 C 
ATOM      2  C1' OXE d   1      -4.663  -0.096  -2.026  0.00  0.00     0.078 C 
ATOM      3  C1  OXE d   1      -4.514   0.922  -3.129  0.00  0.00    -0.078 A 
ATOM      4  C2  OXE d   1      -3.238   1.303  -3.468  0.00  0.00    -0.078 A 
ATOM      5  C3  OXE d   1      -3.042   2.198  -4.516  0.00  0.00     0.003 A 
ATOM      6  C4  OXE d   1      -4.135   2.829  -5.123  0.00  0.00    -0.002 A 
ATOM      7  C5  OXE d   1      -5.442   2.485  -4.765  0.00  0.00    -0.002 A 
ATOM      8  C6  OXE d   1      -5.649   1.504  -3.801  0.00  0.00     0.003 A 
ENDROOT
TORSDOF 0
ENDMDL
