MODEL 1
REMARK minimizedAffinity 2.46883416
REMARK minimizedRMSD -1
REMARK  0 active torsions:
REMARK  status: ('A' for Active; 'I' for Inactive)
ROOT
ATOM      1  C2' OXE d   1       2.820  -2.905   0.546  0.00  0.00     0.078 C 
ATOM      2  C1' OXE d   1       0.063  -3.433   0.503  0.00  0.00     0.078 C 
ATOM      3  C1  OXE d   1       0.654  -2.686  -0.666  0.00  0.00    -0.078 A 
ATOM      4  C2  OXE d   1       1.995  -2.391  -0.614  0.00  0.00    -0.078 A 
ATOM      5  C3  OXE d   1       2.602  -1.751  -1.691  0.00  0.00     0.003 A 
ATOM      6  C4  OXE d   1       1.831  -1.270  -2.756  0.00  0.00    -0.002 A 
ATOM      7  C5  OXE d   1       0.457  -1.524  -2.809  0.00  0.00    -0.002 A 
ATOM      8  C6  OXE d   1      -0.138  -2.266  -1.795  0.00  0.00     0.003 A 
ENDROOT
TORSDOF 0
ENDMDL
