MODEL 1
REMARK minimizedAffinity 15.6105127
REMARK minimizedRMSD -1
REMARK  0 active torsions:
REMARK  status: ('A' for Active; 'I' for Inactive)
ROOT
ATOM      1  C2' OXE d   1      -2.302   2.261   2.950  0.00  0.00     0.078 C 
ATOM      2  C1' OXE d   1      -0.121   0.632   3.638  0.00  0.00     0.078 C 
ATOM      3  C1  OXE d   1       0.055   1.597   2.492  0.00  0.00    -0.078 A 
ATOM      4  C2  OXE d   1      -1.032   2.356   2.132  0.00  0.00    -0.078 A 
ATOM      5  C3  OXE d   1      -0.908   3.301   1.117  0.00  0.00     0.003 A 
ATOM      6  C4  OXE d   1       0.267   3.375   0.358  0.00  0.00    -0.002 A 
ATOM      7  C5  OXE d   1       1.373   2.582   0.682  0.00  0.00    -0.002 A 
ATOM      8  C6  OXE d   1       1.298   1.720   1.771  0.00  0.00     0.003 A 
ENDROOT
TORSDOF 0
ENDMDL
