MODEL 1
REMARK minimizedAffinity 4.74373531
REMARK minimizedRMSD -1
REMARK  0 active torsions:
REMARK  status: ('A' for Active; 'I' for Inactive)
ROOT
ATOM      1  C2' OXE d   1       3.291  -0.459   0.323  0.00  0.00     0.078 C 
ATOM      2  C1' OXE d   1       2.781  -2.641   2.013  0.00  0.00     0.078 C 
ATOM      3  C1  OXE d   1       1.951  -2.512   0.760  0.00  0.00    -0.078 A 
ATOM      4  C2  OXE d   1       2.175  -1.416  -0.037  0.00  0.00    -0.078 A 
ATOM      5  C3  OXE d   1       1.475  -1.278  -1.232  0.00  0.00     0.003 A 
ATOM      6  C4  OXE d   1       0.438  -2.162  -1.552  0.00  0.00    -0.002 A 
ATOM      7  C5  OXE d   1       0.166  -3.264  -0.734  0.00  0.00    -0.002 A 
ATOM      8  C6  OXE d   1       0.940  -3.476   0.402  0.00  0.00     0.003 A 
ENDROOT
TORSDOF 0
ENDMDL
