MODEL 1
REMARK minimizedAffinity -5.50936079
REMARK minimizedRMSD -1
REMARK  0 active torsions:
REMARK  status: ('A' for Active; 'I' for Inactive)
ROOT
ATOM      1  N1  IND d   1       0.600   0.003  -1.231  0.00  0.00    -0.196 N 
ATOM      2  C2  IND d   1      -0.463   0.801  -0.911  0.00  0.00     0.054 A 
ATOM      3  C3  IND d   1      -0.741   0.707   0.409  0.00  0.00    -0.031 A 
ATOM      4  C4  IND d   1       0.482  -0.616   2.248  0.00  0.00     0.051 A 
ATOM      5  C5  IND d   1       1.489  -1.521   2.435  0.00  0.00    -0.031 A 
ATOM      6  C6  IND d   1       2.268  -1.971   1.389  0.00  0.00     0.015 A 
ATOM      7  C7  IND d   1       2.076  -1.523   0.113  0.00  0.00    -0.016 A 
ATOM      8  C8  IND d   1       1.050  -0.609  -0.082  0.00  0.00    -0.047 A 
ATOM      9  C9  IND d   1       0.229  -0.181   0.968  0.00  0.00    -0.096 A 
ATOM     10  HN1 IND d   1       0.931  -0.100  -2.018  0.00  0.00     0.298 HD
ENDROOT
TORSDOF 0
ENDMDL
