MODEL 1
REMARK minimizedAffinity -5.09595156
REMARK minimizedRMSD -1
REMARK  0 active torsions:
REMARK  status: ('A' for Active; 'I' for Inactive)
ROOT
ATOM      1  N1  IND d   1      -0.635  -0.749   3.075  0.00  0.00    -0.196 N 
ATOM      2  C2  IND d   1       0.647  -0.825   3.542  0.00  0.00     0.054 A 
ATOM      3  C3  IND d   1       1.526  -0.603   2.539  0.00  0.00    -0.031 A 
ATOM      4  C4  IND d   1       1.080   0.005   0.078  0.00  0.00     0.051 A 
ATOM      5  C5  IND d   1       0.068   0.154  -0.829  0.00  0.00    -0.031 A 
ATOM      6  C6  IND d   1      -1.257   0.009  -0.472  0.00  0.00     0.015 A 
ATOM      7  C7  IND d   1      -1.622  -0.280   0.812  0.00  0.00    -0.016 A 
ATOM      8  C8  IND d   1      -0.596  -0.439   1.734  0.00  0.00    -0.047 A 
ATOM      9  C9  IND d   1       0.752  -0.335   1.369  0.00  0.00    -0.096 A 
ATOM     10  HN1 IND d   1      -1.347  -0.874   3.542  0.00  0.00     0.298 HD
ENDROOT
TORSDOF 0
ENDMDL
