MODEL 1
REMARK minimizedAffinity -2.53304982
REMARK minimizedRMSD -1
REMARK  0 active torsions:
REMARK  status: ('A' for Active; 'I' for Inactive)
ROOT
ATOM      1  N1  IND d   1      -1.246   0.134  -0.160  0.00  0.00    -0.196 N 
ATOM      2  C2  IND d   1      -0.959   0.169  -1.496  0.00  0.00     0.054 A 
ATOM      3  C3  IND d   1       0.361  -0.040  -1.700  0.00  0.00    -0.031 A 
ATOM      4  C4  IND d   1       2.217  -0.560   0.007  0.00  0.00     0.051 A 
ATOM      5  C5  IND d   1       2.447  -0.660   1.351  0.00  0.00    -0.031 A 
ATOM      6  C6  IND d   1       1.438  -0.499   2.278  0.00  0.00     0.015 A 
ATOM      7  C7  IND d   1       0.152  -0.243   1.894  0.00  0.00    -0.016 A 
ATOM      8  C8  IND d   1      -0.085  -0.134   0.531  0.00  0.00    -0.047 A 
ATOM      9  C9  IND d   1       0.944  -0.254  -0.413  0.00  0.00    -0.096 A 
ATOM     10  HN1 IND d   1      -2.021   0.259   0.190  0.00  0.00     0.298 HD
ENDROOT
TORSDOF 0
ENDMDL
