MODEL 1
REMARK minimizedAffinity -2.93195486
REMARK minimizedRMSD -1
REMARK  0 active torsions:
REMARK  status: ('A' for Active; 'I' for Inactive)
ROOT
ATOM      1  N1  IND d   1       0.925   0.219  -0.493  0.00  0.00    -0.196 N 
ATOM      2  C2  IND d   1      -0.246   0.489  -1.145  0.00  0.00     0.054 A 
ATOM      3  C3  IND d   1      -1.295  -0.003  -0.448  0.00  0.00    -0.031 A 
ATOM      4  C4  IND d   1      -1.330  -1.195   1.833  0.00  0.00     0.051 A 
ATOM      5  C5  IND d   1      -0.504  -1.700   2.797  0.00  0.00    -0.031 A 
ATOM      6  C6  IND d   1       0.869  -1.587   2.713  0.00  0.00     0.015 A 
ATOM      7  C7  IND d   1       1.469  -0.951   1.663  0.00  0.00    -0.016 A 
ATOM      8  C8  IND d   1       0.633  -0.443   0.679  0.00  0.00    -0.047 A 
ATOM      9  C9  IND d   1      -0.759  -0.592   0.737  0.00  0.00    -0.096 A 
ATOM     10  HN1 IND d   1       1.712   0.428  -0.769  0.00  0.00     0.298 HD
ENDROOT
TORSDOF 0
ENDMDL
