MODEL 1
REMARK minimizedAffinity -3.71780801
REMARK minimizedRMSD -1
REMARK  0 active torsions:
REMARK  status: ('A' for Active; 'I' for Inactive)
ROOT
ATOM      1  C   UNL d   1      -0.353  -0.590   0.317  0.00  0.00     0.172 C 
ATOM      2  N   UNL d   1       0.574  -0.670  -0.787  0.00  0.00    -0.070 N 
ATOM      3  C1  UNL d   1       0.981   0.381  -1.565  0.00  0.00    -0.004 A 
ATOM      4  C2  UNL d   1       1.863  -0.106  -2.505  0.00  0.00    -0.047 A 
ATOM      5  C3  UNL d   1       1.990  -1.499  -2.285  0.00  0.00    -0.047 A 
ATOM      6  C4  UNL d   1       1.181  -1.821  -1.216  0.00  0.00    -0.004 A 
ENDROOT
TORSDOF 0
ENDMDL
