MODEL 1
REMARK minimizedAffinity -3.18550968
REMARK minimizedRMSD -1
REMARK  0 active torsions:
REMARK  status: ('A' for Active; 'I' for Inactive)
ROOT
ATOM      1  C   UNL d   1      -0.157   0.129   0.404  0.00  0.00     0.172 C 
ATOM      2  N   UNL d   1       0.729  -0.037  -0.723  0.00  0.00    -0.070 N 
ATOM      3  C1  UNL d   1       0.776  -1.130  -1.547  0.00  0.00    -0.004 A 
ATOM      4  C2  UNL d   1       1.749  -0.901  -2.496  0.00  0.00    -0.047 A 
ATOM      5  C3  UNL d   1       2.307   0.373  -2.233  0.00  0.00    -0.047 A 
ATOM      6  C4  UNL d   1       1.657   0.885  -1.130  0.00  0.00    -0.004 A 
ENDROOT
TORSDOF 0
ENDMDL
