MODEL 1
REMARK minimizedAffinity -3.29747915
REMARK minimizedRMSD -1
REMARK  0 active torsions:
REMARK  status: ('A' for Active; 'I' for Inactive)
ROOT
ATOM      1  C   UNL d   1      -0.531  -0.493   1.429  0.00  0.00     0.172 C 
ATOM      2  N   UNL d   1      -0.464   0.252   0.194  0.00  0.00    -0.070 N 
ATOM      3  C1  UNL d   1      -1.347   1.220  -0.203  0.00  0.00    -0.004 A 
ATOM      4  C2  UNL d   1      -0.937   1.687  -1.433  0.00  0.00    -0.047 A 
ATOM      5  C3  UNL d   1       0.232   0.974  -1.788  0.00  0.00    -0.047 A 
ATOM      6  C4  UNL d   1       0.503   0.092  -0.763  0.00  0.00    -0.004 A 
ENDROOT
TORSDOF 0
ENDMDL
