MODEL 1
REMARK minimizedAffinity -2.40674734
REMARK minimizedRMSD -1
REMARK  0 active torsions:
REMARK  status: ('A' for Active; 'I' for Inactive)
ROOT
ATOM      1  C   UNL d   1      -0.370  -0.398   1.034  0.00  0.00     0.172 C 
ATOM      2  N   UNL d   1       0.272  -0.047  -0.211  0.00  0.00    -0.070 N 
ATOM      3  C1  UNL d   1       0.417  -0.872  -1.295  0.00  0.00    -0.004 A 
ATOM      4  C2  UNL d   1       1.078  -0.167  -2.277  0.00  0.00    -0.047 A 
ATOM      5  C3  UNL d   1       1.341   1.126  -1.765  0.00  0.00    -0.047 A 
ATOM      6  C4  UNL d   1       0.831   1.173  -0.485  0.00  0.00    -0.004 A 
ENDROOT
TORSDOF 0
ENDMDL
