MODEL 1
REMARK minimizedAffinity -2.64111137
REMARK minimizedRMSD -1
REMARK  0 active torsions:
REMARK  status: ('A' for Active; 'I' for Inactive)
ROOT
ATOM      1  C   UNL d   1      -0.619  -0.013   0.840  0.00  0.00     0.172 C 
ATOM      2  N   UNL d   1       0.328   0.177  -0.233  0.00  0.00    -0.070 N 
ATOM      3  C1  UNL d   1       0.828  -0.810  -1.040  0.00  0.00    -0.004 A 
ATOM      4  C2  UNL d   1       1.698  -0.223  -1.934  0.00  0.00    -0.047 A 
ATOM      5  C3  UNL d   1       1.722   1.164  -1.654  0.00  0.00    -0.047 A 
ATOM      6  C4  UNL d   1       0.865   1.384  -0.596  0.00  0.00    -0.004 A 
ENDROOT
TORSDOF 0
ENDMDL
