MODEL 1
REMARK minimizedAffinity -3.54255724
REMARK minimizedRMSD -1
REMARK  0 active torsions:
REMARK  status: ('A' for Active; 'I' for Inactive)
ROOT
ATOM      1  C   UNL d   1      -1.088   0.570  -0.717  0.00  0.00     0.172 C 
ATOM      2  N   UNL d   1      -1.761   0.502   0.558  0.00  0.00    -0.070 N 
ATOM      3  C1  UNL d   1      -1.215   0.039   1.726  0.00  0.00    -0.004 A 
ATOM      4  C2  UNL d   1      -2.176   0.139   2.709  0.00  0.00    -0.047 A 
ATOM      5  C3  UNL d   1      -3.339   0.679   2.112  0.00  0.00    -0.047 A 
ATOM      6  C4  UNL d   1      -3.055   0.894   0.780  0.00  0.00    -0.004 A 
ENDROOT
TORSDOF 0
ENDMDL
