MODEL 1
REMARK minimizedAffinity -3.44352865
REMARK minimizedRMSD -1
REMARK  0 active torsions:
REMARK  status: ('A' for Active; 'I' for Inactive)
ROOT
ATOM      1  C   UNL d   1       1.288   0.487  -1.163  0.00  0.00     0.172 C 
ATOM      2  N   UNL d   1       0.252   0.303  -0.173  0.00  0.00    -0.070 N 
ATOM      3  C1  UNL d   1       0.423  -0.247   1.069  0.00  0.00    -0.004 A 
ATOM      4  C2  UNL d   1      -0.800  -0.242   1.704  0.00  0.00    -0.047 A 
ATOM      5  C3  UNL d   1      -1.739   0.329   0.812  0.00  0.00    -0.047 A 
ATOM      6  C4  UNL d   1      -1.060   0.658  -0.342  0.00  0.00    -0.004 A 
ENDROOT
TORSDOF 0
ENDMDL
