MODEL 1
REMARK minimizedAffinity -3.62068629
REMARK minimizedRMSD -1
REMARK  0 active torsions:
REMARK  status: ('A' for Active; 'I' for Inactive)
ROOT
ATOM      1  C   UNL d   1       0.467   1.947   0.715  0.00  0.00     0.172 C 
ATOM      2  N   UNL d   1       0.587   0.595   0.221  0.00  0.00    -0.070 N 
ATOM      3  C1  UNL d   1       0.977   0.238  -1.042  0.00  0.00    -0.004 A 
ATOM      4  C2  UNL d   1       0.964  -1.138  -1.115  0.00  0.00    -0.047 A 
ATOM      5  C3  UNL d   1       0.550  -1.625   0.148  0.00  0.00    -0.047 A 
ATOM      6  C4  UNL d   1       0.324  -0.531   0.956  0.00  0.00    -0.004 A 
ENDROOT
TORSDOF 0
ENDMDL
