MODEL 1
REMARK minimizedAffinity -0.245543316
REMARK minimizedRMSD -1
REMARK  0 active torsions:
REMARK  status: ('A' for Active; 'I' for Inactive)
ROOT
ATOM      1  C   UNL d   1      -0.610  -0.292   0.788  0.00  0.00     0.172 C 
ATOM      2  N   UNL d   1      -1.988   0.039   1.066  0.00  0.00    -0.070 N 
ATOM      3  C1  UNL d   1      -3.001   0.079   0.146  0.00  0.00    -0.004 A 
ATOM      4  C2  UNL d   1      -4.158   0.433   0.807  0.00  0.00    -0.047 A 
ATOM      5  C3  UNL d   1      -3.828   0.613   2.171  0.00  0.00    -0.047 A 
ATOM      6  C4  UNL d   1      -2.479   0.362   2.304  0.00  0.00    -0.004 A 
ENDROOT
TORSDOF 0
ENDMDL
