MODEL 1
REMARK minimizedAffinity -1.92257798
REMARK minimizedRMSD -1
REMARK  0 active torsions:
REMARK  status: ('A' for Active; 'I' for Inactive)
ROOT
ATOM      1  C   UNL d   1      -0.735  -0.229   0.502  0.00  0.00     0.172 C 
ATOM      2  N   UNL d   1      -1.879   0.256   1.239  0.00  0.00    -0.070 N 
ATOM      3  C1  UNL d   1      -1.847   1.196   2.234  0.00  0.00    -0.004 A 
ATOM      4  C2  UNL d   1      -3.138   1.381   2.680  0.00  0.00    -0.047 A 
ATOM      5  C3  UNL d   1      -3.974   0.522   1.929  0.00  0.00    -0.047 A 
ATOM      6  C4  UNL d   1      -3.168  -0.164   1.044  0.00  0.00    -0.004 A 
ENDROOT
TORSDOF 0
ENDMDL
