MODEL 1
REMARK minimizedAffinity -3.52923203
REMARK minimizedRMSD -1
REMARK  0 active torsions:
REMARK  status: ('A' for Active; 'I' for Inactive)
ROOT
ATOM      1  C   UNL d   1      -1.032   0.248   0.805  0.00  0.00     0.172 C 
ATOM      2  N   UNL d   1      -0.026   0.272  -0.231  0.00  0.00    -0.070 N 
ATOM      3  C1  UNL d   1       0.926   1.242  -0.397  0.00  0.00    -0.004 A 
ATOM      4  C2  UNL d   1       1.689   0.901  -1.493  0.00  0.00    -0.047 A 
ATOM      5  C3  UNL d   1       1.177  -0.315  -2.004  0.00  0.00    -0.047 A 
ATOM      6  C4  UNL d   1       0.115  -0.682  -1.204  0.00  0.00    -0.004 A 
ENDROOT
TORSDOF 0
ENDMDL
