MODEL 1
REMARK minimizedAffinity -3.37853122
REMARK minimizedRMSD -1
REMARK  0 active torsions:
REMARK  status: ('A' for Active; 'I' for Inactive)
ROOT
ATOM      1  C   UNL d   1      -3.295   0.693  -0.450  0.00  0.00     0.172 C 
ATOM      2  N   UNL d   1      -1.882   0.542  -0.193  0.00  0.00    -0.070 N 
ATOM      3  C1  UNL d   1      -0.873   0.888  -1.052  0.00  0.00    -0.004 A 
ATOM      4  C2  UNL d   1       0.325   0.588  -0.439  0.00  0.00    -0.047 A 
ATOM      5  C3  UNL d   1       0.025   0.042   0.832  0.00  0.00    -0.047 A 
ATOM      6  C4  UNL d   1      -1.348   0.025   0.958  0.00  0.00    -0.004 A 
ENDROOT
TORSDOF 0
ENDMDL
