MODEL 1
REMARK minimizedAffinity 15.8098488
REMARK minimizedRMSD -1
REMARK  0 active torsions:
REMARK  status: ('A' for Active; 'I' for Inactive)
ROOT
ATOM      1  O1  BZF d   1      -4.248   3.108   3.990  0.00  0.00    -0.204 OA
ATOM      2  C2  BZF d   1      -4.508   3.925   5.074  0.00  0.00     0.174 A 
ATOM      3  C3  BZF d   1      -5.243   3.274   5.998  0.00  0.00    -0.012 A 
ATOM      4  C3A BZF d   1      -5.378   1.940   5.501  0.00  0.00    -0.107 A 
ATOM      5  C4  BZF d   1      -5.989   0.816   5.980  0.00  0.00     0.055 A 
ATOM      6  C5  BZF d   1      -6.000  -0.307   5.215  0.00  0.00    -0.016 A 
ATOM      7  C6  BZF d   1      -5.414  -0.341   3.966  0.00  0.00     0.022 A 
ATOM      8  C7  BZF d   1      -4.792   0.747   3.451  0.00  0.00     0.029 A 
ATOM      9  C7A BZF d   1      -4.751   1.874   4.235  0.00  0.00     0.058 A 
ENDROOT
TORSDOF 0
ENDMDL
