MODEL 1
REMARK minimizedAffinity 12.9826164
REMARK minimizedRMSD -1
REMARK  0 active torsions:
REMARK  status: ('A' for Active; 'I' for Inactive)
ROOT
ATOM      1  O1  BZF d   1       3.334  -0.259  -0.294  0.00  0.00    -0.204 OA
ATOM      2  C2  BZF d   1       3.553   0.411  -1.482  0.00  0.00     0.174 A 
ATOM      3  C3  BZF d   1       2.951   1.617  -1.470  0.00  0.00    -0.012 A 
ATOM      4  C3A BZF d   1       2.393   1.746  -0.158  0.00  0.00    -0.107 A 
ATOM      5  C4  BZF d   1       1.687   2.732   0.469  0.00  0.00     0.055 A 
ATOM      6  C5  BZF d   1       1.226   2.515   1.729  0.00  0.00    -0.016 A 
ATOM      7  C6  BZF d   1       1.448   1.323   2.388  0.00  0.00     0.022 A 
ATOM      8  C7  BZF d   1       2.148   0.318   1.808  0.00  0.00     0.029 A 
ATOM      9  C7A BZF d   1       2.644   0.547   0.548  0.00  0.00     0.058 A 
ENDROOT
TORSDOF 0
ENDMDL
