MODEL 1
REMARK minimizedAffinity 18.0479584
REMARK minimizedRMSD -1
REMARK  0 active torsions:
REMARK  status: ('A' for Active; 'I' for Inactive)
ROOT
ATOM      1  O1  BZF d   1      -3.477   4.219  -0.290  0.00  0.00    -0.204 OA
ATOM      2  C2  BZF d   1      -2.248   4.569  -0.815  0.00  0.00     0.174 A 
ATOM      3  C3  BZF d   1      -1.258   4.298   0.060  0.00  0.00    -0.012 A 
ATOM      4  C3A BZF d   1      -1.901   3.658   1.168  0.00  0.00    -0.107 A 
ATOM      5  C4  BZF d   1      -1.445   3.139   2.346  0.00  0.00     0.055 A 
ATOM      6  C5  BZF d   1      -2.341   2.651   3.243  0.00  0.00    -0.016 A 
ATOM      7  C6  BZF d   1      -3.698   2.671   2.998  0.00  0.00     0.022 A 
ATOM      8  C7  BZF d   1      -4.198   3.171   1.841  0.00  0.00     0.029 A 
ATOM      9  C7A BZF d   1      -3.292   3.635   0.918  0.00  0.00     0.058 A 
ENDROOT
TORSDOF 0
ENDMDL
