MODEL 1
REMARK minimizedAffinity 13.4037981
REMARK minimizedRMSD -1
REMARK  0 active torsions:
REMARK  status: ('A' for Active; 'I' for Inactive)
ROOT
ATOM      1  O1  BZF d   1       2.104   5.089  -3.795  0.00  0.00    -0.204 OA
ATOM      2  C2  BZF d   1       1.973   5.659  -5.047  0.00  0.00     0.174 A 
ATOM      3  C3  BZF d   1       2.465   4.840  -5.999  0.00  0.00    -0.012 A 
ATOM      4  C3A BZF d   1       2.847   3.647  -5.308  0.00  0.00    -0.107 A 
ATOM      5  C4  BZF d   1       3.387   2.459  -5.713  0.00  0.00     0.055 A 
ATOM      6  C5  BZF d   1       3.709   1.527  -4.778  0.00  0.00    -0.016 A 
ATOM      7  C6  BZF d   1       3.511   1.751  -3.432  0.00  0.00     0.022 A 
ATOM      8  C7  BZF d   1       2.973   2.911  -2.982  0.00  0.00     0.029 A 
ATOM      9  C7A BZF d   1       2.616   3.842  -3.927  0.00  0.00     0.058 A 
ENDROOT
TORSDOF 0
ENDMDL
