MODEL 1
REMARK minimizedAffinity 8.05007648
REMARK minimizedRMSD -1
REMARK  0 active torsions:
REMARK  status: ('A' for Active; 'I' for Inactive)
ROOT
ATOM      1  O1  BZF d   1      -4.872  -5.959  -0.613  0.00  0.00    -0.204 OA
ATOM      2  C2  BZF d   1      -4.390  -5.972  -1.907  0.00  0.00     0.174 A 
ATOM      3  C3  BZF d   1      -3.042  -5.934  -1.916  0.00  0.00    -0.012 A 
ATOM      4  C3A BZF d   1      -2.655  -5.989  -0.540  0.00  0.00    -0.107 A 
ATOM      5  C4  BZF d   1      -1.446  -6.000   0.096  0.00  0.00     0.055 A 
ATOM      6  C5  BZF d   1      -1.415  -5.984   1.454  0.00  0.00    -0.016 A 
ATOM      7  C6  BZF d   1      -2.570  -5.951   2.208  0.00  0.00     0.022 A 
ATOM      8  C7  BZF d   1      -3.792  -5.944   1.622  0.00  0.00     0.029 A 
ATOM      9  C7A BZF d   1      -3.828  -5.993   0.250  0.00  0.00     0.058 A 
ENDROOT
TORSDOF 0
ENDMDL
