MODEL 1
REMARK minimizedAffinity 16.7835732
REMARK minimizedRMSD -1
REMARK  0 active torsions:
REMARK  status: ('A' for Active; 'I' for Inactive)
ROOT
ATOM      1  O1  BZF d   1       1.841   2.831  -3.394  0.00  0.00    -0.204 OA
ATOM      2  C2  BZF d   1       1.721   3.250  -2.083  0.00  0.00     0.174 A 
ATOM      3  C3  BZF d   1       2.654   2.664  -1.306  0.00  0.00    -0.012 A 
ATOM      4  C3A BZF d   1       3.463   1.897  -2.202  0.00  0.00    -0.107 A 
ATOM      5  C4  BZF d   1       4.561   1.103  -2.031  0.00  0.00     0.055 A 
ATOM      6  C5  BZF d   1       5.068   0.437  -3.102  0.00  0.00    -0.016 A 
ATOM      7  C6  BZF d   1       4.500   0.537  -4.355  0.00  0.00     0.022 A 
ATOM      8  C7  BZF d   1       3.413   1.316  -4.575  0.00  0.00     0.029 A 
ATOM      9  C7A BZF d   1       2.918   2.017  -3.502  0.00  0.00     0.058 A 
ENDROOT
TORSDOF 0
ENDMDL
