MODEL 1
REMARK minimizedAffinity 6.7393589
REMARK minimizedRMSD -1
REMARK  0 active torsions:
REMARK  status: ('A' for Active; 'I' for Inactive)
ROOT
ATOM      1  O1  BZF d   1       0.160   2.876   2.919  0.00  0.00    -0.204 OA
ATOM      2  C2  BZF d   1       0.965   3.514   1.996  0.00  0.00     0.174 A 
ATOM      3  C3  BZF d   1       2.201   2.974   1.985  0.00  0.00    -0.012 A 
ATOM      4  C3A BZF d   1       2.138   1.873   2.897  0.00  0.00    -0.107 A 
ATOM      5  C4  BZF d   1       3.047   0.938   3.304  0.00  0.00     0.055 A 
ATOM      6  C5  BZF d   1       2.689   0.043   4.262  0.00  0.00    -0.016 A 
ATOM      7  C6  BZF d   1       1.436   0.057   4.838  0.00  0.00     0.022 A 
ATOM      8  C7  BZF d   1       0.499   0.962   4.463  0.00  0.00     0.029 A 
ATOM      9  C7A BZF d   1       0.847   1.847   3.472  0.00  0.00     0.058 A 
ENDROOT
TORSDOF 0
ENDMDL
