MODEL 1
REMARK minimizedAffinity 20.1183662
REMARK minimizedRMSD -1
REMARK  0 active torsions:
REMARK  status: ('A' for Active; 'I' for Inactive)
ROOT
ATOM      1  O1  BZF d   1       2.119   3.300  -5.468  0.00  0.00    -0.204 OA
ATOM      2  C2  BZF d   1       1.535   4.088  -4.495  0.00  0.00     0.174 A 
ATOM      3  C3  BZF d   1       1.948   3.715  -3.266  0.00  0.00    -0.012 A 
ATOM      4  C3A BZF d   1       2.917   2.686  -3.492  0.00  0.00    -0.107 A 
ATOM      5  C4  BZF d   1       3.695   1.931  -2.661  0.00  0.00     0.055 A 
ATOM      6  C5  BZF d   1       4.483   0.961  -3.195  0.00  0.00    -0.016 A 
ATOM      7  C6  BZF d   1       4.514   0.716  -4.552  0.00  0.00     0.022 A 
ATOM      8  C7  BZF d   1       3.764   1.442  -5.416  0.00  0.00     0.029 A 
ATOM      9  C7A BZF d   1       2.991   2.445  -4.883  0.00  0.00     0.058 A 
ENDROOT
TORSDOF 0
ENDMDL
