MODEL 1
REMARK minimizedAffinity 24.6389599
REMARK minimizedRMSD -1
REMARK  0 active torsions:
REMARK  status: ('A' for Active; 'I' for Inactive)
ROOT
ATOM      1  O1  BZF d   1      -4.592  -3.408  -4.077  0.00  0.00    -0.204 OA
ATOM      2  C2  BZF d   1      -3.357  -2.853  -3.797  0.00  0.00     0.174 A 
ATOM      3  C3  BZF d   1      -2.856  -3.356  -2.650  0.00  0.00    -0.012 A 
ATOM      4  C3A BZF d   1      -3.796  -4.350  -2.232  0.00  0.00    -0.107 A 
ATOM      5  C4  BZF d   1      -3.846  -5.207  -1.170  0.00  0.00     0.055 A 
ATOM      6  C5  BZF d   1      -4.939  -6.000  -1.012  0.00  0.00    -0.016 A 
ATOM      7  C6  BZF d   1      -6.000  -5.957  -1.893  0.00  0.00     0.022 A 
ATOM      8  C7  BZF d   1      -5.994  -5.127  -2.963  0.00  0.00     0.029 A 
ATOM      9  C7A BZF d   1      -4.877  -4.348  -3.144  0.00  0.00     0.058 A 
ENDROOT
TORSDOF 0
ENDMDL
