MODEL 1
REMARK minimizedAffinity 23.454628
REMARK minimizedRMSD -1
REMARK  0 active torsions:
REMARK  status: ('A' for Active; 'I' for Inactive)
ROOT
ATOM      1  O1  BZF d   1      -0.778  -3.017   1.568  0.00  0.00    -0.204 OA
ATOM      2  C2  BZF d   1      -1.266  -2.350   0.460  0.00  0.00     0.174 A 
ATOM      3  C3  BZF d   1      -2.343  -2.985  -0.045  0.00  0.00    -0.012 A 
ATOM      4  C3A BZF d   1      -2.596  -4.069   0.854  0.00  0.00    -0.107 A 
ATOM      5  C4  BZF d   1      -3.544  -5.051   0.898  0.00  0.00     0.055 A 
ATOM      6  C5  BZF d   1      -3.469  -6.000   1.868  0.00  0.00    -0.016 A 
ATOM      7  C6  BZF d   1      -2.457  -6.000   2.806  0.00  0.00     0.022 A 
ATOM      8  C7  BZF d   1      -1.497  -5.043   2.806  0.00  0.00     0.029 A 
ATOM      9  C7A BZF d   1      -1.590  -4.064   1.848  0.00  0.00     0.058 A 
ENDROOT
TORSDOF 0
ENDMDL
