MODEL 1
REMARK minimizedAffinity 14.6340246
REMARK minimizedRMSD -1
REMARK  0 active torsions:
REMARK  status: ('A' for Active; 'I' for Inactive)
ROOT
ATOM      1  O1  BZF d   1      -1.489  -1.904  -2.813  0.00  0.00    -0.204 OA
ATOM      2  C2  BZF d   1      -2.578  -2.623  -3.266  0.00  0.00     0.174 A 
ATOM      3  C3  BZF d   1      -3.141  -3.323  -2.261  0.00  0.00    -0.012 A 
ATOM      4  C3A BZF d   1      -2.411  -2.952  -1.088  0.00  0.00    -0.107 A 
ATOM      5  C4  BZF d   1      -2.508  -3.302   0.228  0.00  0.00     0.055 A 
ATOM      6  C5  BZF d   1      -1.595  -2.817   1.110  0.00  0.00    -0.016 A 
ATOM      7  C6  BZF d   1      -0.570  -1.985   0.709  0.00  0.00     0.022 A 
ATOM      8  C7  BZF d   1      -0.435  -1.607  -0.585  0.00  0.00     0.029 A 
ATOM      9  C7A BZF d   1      -1.376  -2.069  -1.473  0.00  0.00     0.058 A 
ENDROOT
TORSDOF 0
ENDMDL
