MODEL 1
REMARK minimizedAffinity 8.24582767
REMARK minimizedRMSD -1
REMARK  0 active torsions:
REMARK  status: ('A' for Active; 'I' for Inactive)
ROOT
ATOM      1  O1  BZF d   1      -0.492  -4.625   2.047  0.00  0.00    -0.204 OA
ATOM      2  C2  BZF d   1      -1.285  -5.660   1.589  0.00  0.00     0.174 A 
ATOM      3  C3  BZF d   1      -2.322  -5.185   0.869  0.00  0.00    -0.012 A 
ATOM      4  C3A BZF d   1      -2.116  -3.771   0.800  0.00  0.00    -0.107 A 
ATOM      5  C4  BZF d   1      -2.803  -2.750   0.207  0.00  0.00     0.055 A 
ATOM      6  C5  BZF d   1      -2.377  -1.473   0.392  0.00  0.00    -0.016 A 
ATOM      7  C6  BZF d   1      -1.273  -1.180   1.166  0.00  0.00     0.022 A 
ATOM      8  C7  BZF d   1      -0.557  -2.160   1.770  0.00  0.00     0.029 A 
ATOM      9  C7A BZF d   1      -0.966  -3.454   1.558  0.00  0.00     0.058 A 
ENDROOT
TORSDOF 0
ENDMDL
