MODEL 1
REMARK minimizedAffinity 6.49422836
REMARK minimizedRMSD -1
REMARK  0 active torsions:
REMARK  status: ('A' for Active; 'I' for Inactive)
ROOT
ATOM      1  O1  BZF d   1      -1.378  -2.511  -4.200  0.00  0.00    -0.204 OA
ATOM      2  C2  BZF d   1      -0.266  -2.984  -4.868  0.00  0.00     0.174 A 
ATOM      3  C3  BZF d   1       0.721  -3.287  -4.000  0.00  0.00    -0.012 A 
ATOM      4  C3A BZF d   1       0.159  -3.072  -2.702  0.00  0.00    -0.107 A 
ATOM      5  C4  BZF d   1       0.644  -3.216  -1.434  0.00  0.00     0.055 A 
ATOM      6  C5  BZF d   1      -0.137  -2.851  -0.383  0.00  0.00    -0.016 A 
ATOM      7  C6  BZF d   1      -1.403  -2.335  -0.564  0.00  0.00     0.022 A 
ATOM      8  C7  BZF d   1      -1.929  -2.177  -1.803  0.00  0.00     0.029 A 
ATOM      9  C7A BZF d   1      -1.155  -2.576  -2.865  0.00  0.00     0.058 A 
ENDROOT
TORSDOF 0
ENDMDL
