MODEL 1
REMARK minimizedAffinity 5.20277262
REMARK minimizedRMSD -1
REMARK  0 active torsions:
REMARK  status: ('A' for Active; 'I' for Inactive)
ROOT
ATOM      1  O1  BZF d   1       2.532   2.405   1.510  0.00  0.00    -0.204 OA
ATOM      2  C2  BZF d   1       1.740   1.373   1.974  0.00  0.00     0.174 A 
ATOM      3  C3  BZF d   1       2.421   0.208   1.968  0.00  0.00    -0.012 A 
ATOM      4  C3A BZF d   1       3.748   0.550   1.557  0.00  0.00    -0.107 A 
ATOM      5  C4  BZF d   1       4.891  -0.175   1.375  0.00  0.00     0.055 A 
ATOM      6  C5  BZF d   1       5.999   0.448   0.896  0.00  0.00    -0.016 A 
ATOM      7  C6  BZF d   1       6.000   1.792   0.585  0.00  0.00     0.022 A 
ATOM      8  C7  BZF d   1       4.892   2.554   0.754  0.00  0.00     0.029 A 
ATOM      9  C7A BZF d   1       3.779   1.934   1.269  0.00  0.00     0.058 A 
ENDROOT
TORSDOF 0
ENDMDL
