MODEL 1
REMARK minimizedAffinity 19.3451748
REMARK minimizedRMSD -1
REMARK  0 active torsions:
REMARK  status: ('A' for Active; 'I' for Inactive)
ROOT
ATOM      1  O1  BZF d   1      -0.981  -2.636   0.825  0.00  0.00    -0.204 OA
ATOM      2  C2  BZF d   1      -1.869  -1.883   0.081  0.00  0.00     0.174 A 
ATOM      3  C3  BZF d   1      -2.990  -2.586  -0.179  0.00  0.00    -0.012 A 
ATOM      4  C3A BZF d   1      -2.829  -3.824   0.520  0.00  0.00    -0.107 A 
ATOM      5  C4  BZF d   1      -3.615  -4.932   0.660  0.00  0.00     0.055 A 
ATOM      6  C5  BZF d   1      -3.134  -6.000   1.350  0.00  0.00    -0.016 A 
ATOM      7  C6  BZF d   1      -1.871  -5.996   1.907  0.00  0.00     0.022 A 
ATOM      8  C7  BZF d   1      -1.057  -4.918   1.798  0.00  0.00     0.029 A 
ATOM      9  C7A BZF d   1      -1.553  -3.825   1.130  0.00  0.00     0.058 A 
ENDROOT
TORSDOF 0
ENDMDL
