MODEL 1
REMARK minimizedAffinity 14.1580429
REMARK minimizedRMSD -1
REMARK  0 active torsions:
REMARK  status: ('A' for Active; 'I' for Inactive)
ROOT
ATOM      1  O1  BZF d   1       0.111   1.966   4.145  0.00  0.00    -0.204 OA
ATOM      2  C2  BZF d   1       0.500   0.883   4.910  0.00  0.00     0.174 A 
ATOM      3  C3  BZF d   1       1.487   0.196   4.300  0.00  0.00    -0.012 A 
ATOM      4  C3A BZF d   1       1.794   0.947   3.121  0.00  0.00    -0.107 A 
ATOM      5  C4  BZF d   1       2.701   0.782   2.112  0.00  0.00     0.055 A 
ATOM      6  C5  BZF d   1       2.695   1.654   1.070  0.00  0.00    -0.016 A 
ATOM      7  C6  BZF d   1       1.794   2.697   1.001  0.00  0.00     0.022 A 
ATOM      8  C7  BZF d   1       0.880   2.904   1.980  0.00  0.00     0.029 A 
ATOM      9  C7A BZF d   1       0.905   2.044   3.051  0.00  0.00     0.058 A 
ENDROOT
TORSDOF 0
ENDMDL
