MODEL 1
REMARK minimizedAffinity 4.25986433
REMARK minimizedRMSD -1
REMARK  0 active torsions:
REMARK  status: ('A' for Active; 'I' for Inactive)
ROOT
ATOM      1  O1  BZF d   1       3.006   5.156  -5.956  0.00  0.00    -0.204 OA
ATOM      2  C2  BZF d   1       4.121   5.973  -5.960  0.00  0.00     0.174 A 
ATOM      3  C3  BZF d   1       5.252   5.239  -5.921  0.00  0.00    -0.012 A 
ATOM      4  C3A BZF d   1       4.819   3.877  -5.984  0.00  0.00    -0.107 A 
ATOM      5  C4  BZF d   1       5.479   2.681  -5.999  0.00  0.00     0.055 A 
ATOM      6  C5  BZF d   1       4.759   1.529  -5.992  0.00  0.00    -0.016 A 
ATOM      7  C6  BZF d   1       3.380   1.535  -5.965  0.00  0.00     0.022 A 
ATOM      8  C7  BZF d   1       2.680   2.696  -5.954  0.00  0.00     0.029 A 
ATOM      9  C7A BZF d   1       3.405   3.862  -5.995  0.00  0.00     0.058 A 
ENDROOT
TORSDOF 0
ENDMDL
