MODEL 1
REMARK minimizedAffinity -1.92402291
REMARK minimizedRMSD -1
REMARK  0 active torsions:
REMARK  status: ('A' for Active; 'I' for Inactive)
ROOT
ATOM      1  N1  IND d   1       2.352  -2.310   0.569  0.00  0.00    -0.196 N 
ATOM      2  C2  IND d   1       1.317  -2.789  -0.185  0.00  0.00     0.054 A 
ATOM      3  C3  IND d   1       0.422  -1.807  -0.435  0.00  0.00    -0.031 A 
ATOM      4  C4  IND d   1       0.506   0.684   0.209  0.00  0.00     0.051 A 
ATOM      5  C5  IND d   1       1.237   1.586   0.930  0.00  0.00    -0.031 A 
ATOM      6  C6  IND d   1       2.402   1.229   1.578  0.00  0.00     0.015 A 
ATOM      7  C7  IND d   1       2.887  -0.047   1.520  0.00  0.00    -0.016 A 
ATOM      8  C8  IND d   1       2.144  -0.967   0.794  0.00  0.00    -0.047 A 
ATOM      9  C9  IND d   1       0.939  -0.620   0.170  0.00  0.00    -0.096 A 
ATOM     10  HN1 IND d   1       3.020  -2.770   0.854  0.00  0.00     0.298 HD
ENDROOT
TORSDOF 0
ENDMDL
