MODEL 1
REMARK minimizedAffinity -3.53393531
REMARK minimizedRMSD -1
REMARK  0 active torsions:
REMARK  status: ('A' for Active; 'I' for Inactive)
ROOT
ATOM      1  N1  IND d   1      -2.012  -1.212   0.129  0.00  0.00    -0.196 N 
ATOM      2  C2  IND d   1      -2.639  -0.145  -0.452  0.00  0.00     0.054 A 
ATOM      3  C3  IND d   1      -1.795   0.908  -0.534  0.00  0.00    -0.031 A 
ATOM      4  C4  IND d   1       0.687   1.071   0.131  0.00  0.00     0.051 A 
ATOM      5  C5  IND d   1       1.688   0.365   0.737  0.00  0.00    -0.031 A 
ATOM      6  C6  IND d   1       1.504  -0.929   1.178  0.00  0.00     0.015 A 
ATOM      7  C7  IND d   1       0.310  -1.574   1.018  0.00  0.00    -0.016 A 
ATOM      8  C8  IND d   1      -0.711  -0.858   0.409  0.00  0.00    -0.047 A 
ATOM      9  C9  IND d   1      -0.543   0.471  -0.002  0.00  0.00    -0.096 A 
ATOM     10  HN1 IND d   1      -2.371  -1.977   0.291  0.00  0.00     0.298 HD
ENDROOT
TORSDOF 0
ENDMDL
