MODEL 1
REMARK minimizedAffinity -5.36924982
REMARK minimizedRMSD -1
REMARK  0 active torsions:
REMARK  status: ('A' for Active; 'I' for Inactive)
ROOT
ATOM      1  N1  IND d   1       0.241   1.179  -0.165  0.00  0.00    -0.196 N 
ATOM      2  C2  IND d   1       1.314   2.026  -0.186  0.00  0.00     0.054 A 
ATOM      3  C3  IND d   1       2.285   1.576   0.640  0.00  0.00    -0.031 A 
ATOM      4  C4  IND d   1       2.366  -0.578   2.047  0.00  0.00     0.051 A 
ATOM      5  C5  IND d   1       1.605  -1.650   2.421  0.00  0.00    -0.031 A 
ATOM      6  C6  IND d   1       0.326  -1.839   1.940  0.00  0.00     0.015 A 
ATOM      7  C7  IND d   1      -0.239  -0.965   1.054  0.00  0.00    -0.016 A 
ATOM      8  C8  IND d   1       0.529   0.128   0.678  0.00  0.00    -0.047 A 
ATOM      9  C9  IND d   1       1.812   0.348   1.196  0.00  0.00    -0.096 A 
ATOM     10  HN1 IND d   1      -0.491   1.285  -0.604  0.00  0.00     0.298 HD
ENDROOT
TORSDOF 0
ENDMDL
