MODEL 1
REMARK minimizedAffinity -2.97687411
REMARK minimizedRMSD -1
REMARK  0 active torsions:
REMARK  status: ('A' for Active; 'I' for Inactive)
ROOT
ATOM      1  N1  IND d   1      -0.712  -0.946  -0.249  0.00  0.00    -0.196 N 
ATOM      2  C2  IND d   1      -1.644  -0.094  -0.772  0.00  0.00     0.054 A 
ATOM      3  C3  IND d   1      -1.191   1.179  -0.734  0.00  0.00    -0.031 A 
ATOM      4  C4  IND d   1       1.090   2.081   0.048  0.00  0.00     0.051 A 
ATOM      5  C5  IND d   1       2.257   1.690   0.640  0.00  0.00    -0.031 A 
ATOM      6  C6  IND d   1       2.501   0.372   0.971  0.00  0.00     0.015 A 
ATOM      7  C7  IND d   1       1.586  -0.608   0.710  0.00  0.00    -0.016 A 
ATOM      8  C8  IND d   1       0.397  -0.213   0.115  0.00  0.00    -0.047 A 
ATOM      9  C9  IND d   1       0.126   1.128  -0.184  0.00  0.00    -0.096 A 
ATOM     10  HN1 IND d   1      -0.803  -1.797  -0.161  0.00  0.00     0.298 HD
ENDROOT
TORSDOF 0
ENDMDL
