MODEL 1
REMARK minimizedAffinity -3.90037537
REMARK minimizedRMSD -1
REMARK  0 active torsions:
REMARK  status: ('A' for Active; 'I' for Inactive)
ROOT
ATOM      1  N1  IND d   1      -0.217   1.158   0.297  0.00  0.00    -0.196 N 
ATOM      2  C2  IND d   1      -1.316   0.381   0.059  0.00  0.00     0.054 A 
ATOM      3  C3  IND d   1      -0.974  -0.927   0.049  0.00  0.00    -0.031 A 
ATOM      4  C4  IND d   1       1.311  -2.023   0.502  0.00  0.00     0.051 A 
ATOM      5  C5  IND d   1       2.624  -1.722   0.730  0.00  0.00    -0.031 A 
ATOM      6  C6  IND d   1       3.066  -0.418   0.830  0.00  0.00     0.015 A 
ATOM      7  C7  IND d   1       2.205   0.637   0.716  0.00  0.00    -0.016 A 
ATOM      8  C8  IND d   1       0.872   0.334   0.478  0.00  0.00    -0.047 A 
ATOM      9  C9  IND d   1       0.425  -0.986   0.333  0.00  0.00    -0.096 A 
ATOM     10  HN1 IND d   1      -0.207   2.017   0.328  0.00  0.00     0.298 HD
ENDROOT
TORSDOF 0
ENDMDL
