MODEL 1
REMARK minimizedAffinity -5.41259766
REMARK minimizedRMSD -1
REMARK  0 active torsions:
REMARK  status: ('A' for Active; 'I' for Inactive)
ROOT
ATOM      1  N1  IND d   1      -0.687  -0.732   0.498  0.00  0.00    -0.196 N 
ATOM      2  C2  IND d   1      -0.726   0.488  -0.119  0.00  0.00     0.054 A 
ATOM      3  C3  IND d   1       0.505   1.047  -0.133  0.00  0.00    -0.031 A 
ATOM      4  C4  IND d   1       2.744   0.095   0.708  0.00  0.00     0.051 A 
ATOM      5  C5  IND d   1       3.278  -0.970   1.379  0.00  0.00    -0.031 A 
ATOM      6  C6  IND d   1       2.502  -2.032   1.797  0.00  0.00     0.015 A 
ATOM      7  C7  IND d   1       1.159  -2.074   1.548  0.00  0.00    -0.016 A 
ATOM      8  C8  IND d   1       0.613  -0.992   0.873  0.00  0.00    -0.047 A 
ATOM      9  C9  IND d   1       1.388   0.108   0.484  0.00  0.00    -0.096 A 
ATOM     10  HN1 IND d   1      -1.361  -1.249   0.630  0.00  0.00     0.298 HD
ENDROOT
TORSDOF 0
ENDMDL
