MODEL 1
REMARK minimizedAffinity -5.92566013
REMARK minimizedRMSD -1
REMARK  0 active torsions:
REMARK  status: ('A' for Active; 'I' for Inactive)
ROOT
ATOM      1  N1  IND d   1      -0.445  -1.753   1.761  0.00  0.00    -0.196 N 
ATOM      2  C2  IND d   1      -1.585  -1.200   1.248  0.00  0.00     0.054 A 
ATOM      3  C3  IND d   1      -1.292  -0.074   0.560  0.00  0.00    -0.031 A 
ATOM      4  C4  IND d   1       0.999   0.990   0.061  0.00  0.00     0.051 A 
ATOM      5  C5  IND d   1       2.329   0.866   0.348  0.00  0.00    -0.031 A 
ATOM      6  C6  IND d   1       2.813  -0.159   1.135  0.00  0.00     0.015 A 
ATOM      7  C7  IND d   1       1.982  -1.110   1.656  0.00  0.00    -0.016 A 
ATOM      8  C8  IND d   1       0.630  -0.984   1.373  0.00  0.00    -0.047 A 
ATOM      9  C9  IND d   1       0.127   0.079   0.610  0.00  0.00    -0.096 A 
ATOM     10  HN1 IND d   1      -0.405  -2.463   2.245  0.00  0.00     0.298 HD
ENDROOT
TORSDOF 0
ENDMDL
