MODEL 1
REMARK minimizedAffinity -5.72642756
REMARK minimizedRMSD -1
REMARK  0 active torsions:
REMARK  status: ('A' for Active; 'I' for Inactive)
ROOT
ATOM      1  N1  IND d   1      -0.971  -0.440   0.400  0.00  0.00    -0.196 N 
ATOM      2  C2  IND d   1      -1.351   0.869   0.292  0.00  0.00     0.054 A 
ATOM      3  C3  IND d   1      -0.271   1.679   0.360  0.00  0.00    -0.031 A 
ATOM      4  C4  IND d   1       2.223   1.068   0.545  0.00  0.00     0.051 A 
ATOM      5  C5  IND d   1       3.061   0.001   0.709  0.00  0.00    -0.031 A 
ATOM      6  C6  IND d   1       2.589  -1.294   0.778  0.00  0.00     0.015 A 
ATOM      7  C7  IND d   1       1.256  -1.572   0.672  0.00  0.00    -0.016 A 
ATOM      8  C8  IND d   1       0.401  -0.491   0.512  0.00  0.00    -0.047 A 
ATOM      9  C9  IND d   1       0.870   0.829   0.485  0.00  0.00    -0.096 A 
ATOM     10  HN1 IND d   1      -1.500  -1.118   0.398  0.00  0.00     0.298 HD
ENDROOT
TORSDOF 0
ENDMDL
