MODEL 1
REMARK minimizedAffinity -5.43895721
REMARK minimizedRMSD -1
REMARK  0 active torsions:
REMARK  status: ('A' for Active; 'I' for Inactive)
ROOT
ATOM      1  N1  IND d   1      -0.938  -0.503  -0.102  0.00  0.00    -0.196 N 
ATOM      2  C2  IND d   1      -1.383   0.779   0.060  0.00  0.00     0.054 A 
ATOM      3  C3  IND d   1      -0.354   1.599   0.368  0.00  0.00    -0.031 A 
ATOM      4  C4  IND d   1       2.158   1.070   0.559  0.00  0.00     0.051 A 
ATOM      5  C5  IND d   1       3.045   0.030   0.533  0.00  0.00    -0.031 A 
ATOM      6  C6  IND d   1       2.642  -1.266   0.286  0.00  0.00     0.015 A 
ATOM      7  C7  IND d   1       1.332  -1.571   0.043  0.00  0.00    -0.016 A 
ATOM      8  C8  IND d   1       0.428  -0.519   0.076  0.00  0.00    -0.047 A 
ATOM      9  C9  IND d   1       0.825   0.792   0.369  0.00  0.00    -0.096 A 
ATOM     10  HN1 IND d   1      -1.429  -1.185  -0.285  0.00  0.00     0.298 HD
ENDROOT
TORSDOF 0
ENDMDL
