MODEL 1
REMARK minimizedAffinity -4.92882681
REMARK minimizedRMSD -1
REMARK  0 active torsions:
REMARK  status: ('A' for Active; 'I' for Inactive)
ROOT
ATOM      1  N1  IND d   1      -2.995  -0.199  -3.975  0.00  0.00    -0.196 N 
ATOM      2  C2  IND d   1      -2.375  -1.058  -3.112  0.00  0.00     0.054 A 
ATOM      3  C3  IND d   1      -2.269  -0.499  -1.886  0.00  0.00    -0.031 A 
ATOM      4  C4  IND d   1      -3.135   1.776  -1.046  0.00  0.00     0.051 A 
ATOM      5  C5  IND d   1      -3.733   2.926  -1.477  0.00  0.00    -0.031 A 
ATOM      6  C6  IND d   1      -4.127   3.096  -2.788  0.00  0.00     0.015 A 
ATOM      7  C7  IND d   1      -3.946   2.113  -3.720  0.00  0.00    -0.016 A 
ATOM      8  C8  IND d   1      -3.332   0.946  -3.287  0.00  0.00    -0.047 A 
ATOM      9  C9  IND d   1      -2.892   0.784  -1.967  0.00  0.00    -0.096 A 
ATOM     10  HN1 IND d   1      -3.149  -0.348  -4.808  0.00  0.00     0.298 HD
ENDROOT
TORSDOF 0
ENDMDL
