MODEL 1
REMARK minimizedAffinity -5.73767328
REMARK minimizedRMSD -1
REMARK  0 active torsions:
REMARK  status: ('A' for Active; 'I' for Inactive)
ROOT
ATOM      1  N1  IND d   1      -0.721  -0.758   0.177  0.00  0.00    -0.196 N 
ATOM      2  C2  IND d   1      -0.804   0.487  -0.381  0.00  0.00     0.054 A 
ATOM      3  C3  IND d   1       0.379   1.132  -0.272  0.00  0.00    -0.031 A 
ATOM      4  C4  IND d   1       2.614   0.295   0.694  0.00  0.00     0.051 A 
ATOM      5  C5  IND d   1       3.174  -0.763   1.352  0.00  0.00    -0.031 A 
ATOM      6  C6  IND d   1       2.451  -1.899   1.656  0.00  0.00     0.015 A 
ATOM      7  C7  IND d   1       1.137  -2.022   1.301  0.00  0.00    -0.016 A 
ATOM      8  C8  IND d   1       0.563  -0.946   0.639  0.00  0.00    -0.047 A 
ATOM      9  C9  IND d   1       1.281   0.225   0.366  0.00  0.00    -0.096 A 
ATOM     10  HN1 IND d   1      -1.363  -1.328   0.230  0.00  0.00     0.298 HD
ENDROOT
TORSDOF 0
ENDMDL
