MODEL 1
REMARK minimizedAffinity -5.10022306
REMARK minimizedRMSD -1
REMARK  0 active torsions:
REMARK  status: ('A' for Active; 'I' for Inactive)
ROOT
ATOM      1  N1  IND d   1      -0.833  -1.404   0.845  0.00  0.00    -0.196 N 
ATOM      2  C2  IND d   1      -0.584  -2.486   1.642  0.00  0.00     0.054 A 
ATOM      3  C3  IND d   1       0.668  -2.419   2.148  0.00  0.00    -0.031 A 
ATOM      4  C4  IND d   1       2.443  -0.573   1.883  0.00  0.00     0.051 A 
ATOM      5  C5  IND d   1       2.690   0.596   1.220  0.00  0.00    -0.031 A 
ATOM      6  C6  IND d   1       1.756   1.172   0.383  0.00  0.00     0.015 A 
ATOM      7  C7  IND d   1       0.529   0.603   0.186  0.00  0.00    -0.016 A 
ATOM      8  C8  IND d   1       0.277  -0.588   0.852  0.00  0.00    -0.047 A 
ATOM      9  C9  IND d   1       1.238  -1.199   1.669  0.00  0.00    -0.096 A 
ATOM     10  HN1 IND d   1      -1.561  -1.257   0.412  0.00  0.00     0.298 HD
ENDROOT
TORSDOF 0
ENDMDL
