MODEL 1
REMARK minimizedAffinity 10.0405073
REMARK minimizedRMSD -1
REMARK  0 active torsions:
REMARK  status: ('A' for Active; 'I' for Inactive)
ROOT
ATOM      1  C   UNL d   1      -2.210   1.088   0.171  0.00  0.00     0.077 C 
ATOM      2  C1  UNL d   1      -2.081   0.239   1.400  0.00  0.00    -0.074 A 
ATOM      3  C2  UNL d   1      -0.829  -0.195   1.846  0.00  0.00    -0.005 A 
ATOM      4  C3  UNL d   1      -0.723  -0.976   2.996  0.00  0.00     0.006 A 
ATOM      5  C4  UNL d   1      -1.868  -1.332   3.711  0.00  0.00    -0.005 A 
ATOM      6  C5  UNL d   1      -3.129  -0.908   3.280  0.00  0.00    -0.074 A 
ATOM      7  C6  UNL d   1      -4.368  -1.273   4.042  0.00  0.00     0.077 C 
ATOM      8  C7  UNL d   1      -3.226  -0.117   2.128  0.00  0.00    -0.001 A 
ENDROOT
TORSDOF 0
ENDMDL
