MODEL 1
REMARK minimizedAffinity 5.00967789
REMARK minimizedRMSD -1
REMARK  0 active torsions:
REMARK  status: ('A' for Active; 'I' for Inactive)
ROOT
ATOM      1  C   UNL d   1      -0.373  -1.082   4.354  0.00  0.00     0.077 C 
ATOM      2  C1  UNL d   1      -0.657  -0.485   3.008  0.00  0.00    -0.074 A 
ATOM      3  C2  UNL d   1      -1.914   0.049   2.709  0.00  0.00    -0.005 A 
ATOM      4  C3  UNL d   1      -2.161   0.610   1.456  0.00  0.00     0.006 A 
ATOM      5  C4  UNL d   1      -1.153   0.642   0.491  0.00  0.00    -0.005 A 
ATOM      6  C5  UNL d   1       0.111   0.114   0.772  0.00  0.00    -0.074 A 
ATOM      7  C6  UNL d   1       1.207   0.150  -0.251  0.00  0.00     0.077 C 
ATOM      8  C7  UNL d   1       0.352  -0.441   2.036  0.00  0.00    -0.001 A 
ENDROOT
TORSDOF 0
ENDMDL
