MODEL 1
REMARK minimizedAffinity 9.88469982
REMARK minimizedRMSD -1
REMARK  0 active torsions:
REMARK  status: ('A' for Active; 'I' for Inactive)
ROOT
ATOM      1  C   UNL d   1      -3.767   0.844  -0.057  0.00  0.00     0.077 C 
ATOM      2  C1  UNL d   1      -2.823   0.438   1.036  0.00  0.00    -0.074 A 
ATOM      3  C2  UNL d   1      -1.599   1.093   1.209  0.00  0.00    -0.005 A 
ATOM      4  C3  UNL d   1      -0.736   0.711   2.236  0.00  0.00     0.006 A 
ATOM      5  C4  UNL d   1      -1.088  -0.327   3.099  0.00  0.00    -0.005 A 
ATOM      6  C5  UNL d   1      -2.308  -0.993   2.943  0.00  0.00    -0.074 A 
ATOM      7  C6  UNL d   1      -2.706  -2.104   3.868  0.00  0.00     0.077 C 
ATOM      8  C7  UNL d   1      -3.173  -0.598   1.913  0.00  0.00    -0.001 A 
ENDROOT
TORSDOF 0
ENDMDL
