MODEL 1
REMARK minimizedAffinity 10.7505808
REMARK minimizedRMSD -1
REMARK  0 active torsions:
REMARK  status: ('A' for Active; 'I' for Inactive)
ROOT
ATOM      1  C   UNL d   1      -2.473  -0.759  -1.155  0.00  0.00     0.077 C 
ATOM      2  C1  UNL d   1      -1.697  -0.025  -0.102  0.00  0.00    -0.074 A 
ATOM      3  C2  UNL d   1      -2.340   0.524   1.013  0.00  0.00    -0.005 A 
ATOM      4  C3  UNL d   1      -1.604   1.195   1.988  0.00  0.00     0.006 A 
ATOM      5  C4  UNL d   1      -0.220   1.325   1.860  0.00  0.00    -0.005 A 
ATOM      6  C5  UNL d   1       0.439   0.782   0.753  0.00  0.00    -0.074 A 
ATOM      7  C6  UNL d   1       1.927   0.904   0.604  0.00  0.00     0.077 C 
ATOM      8  C7  UNL d   1      -0.306   0.102  -0.220  0.00  0.00    -0.001 A 
ENDROOT
TORSDOF 0
ENDMDL
