MODEL 1
REMARK minimizedAffinity 8.58038044
REMARK minimizedRMSD -1
REMARK  0 active torsions:
REMARK  status: ('A' for Active; 'I' for Inactive)
ROOT
ATOM      1  C   UNL d   1       2.969   1.194  -0.055  0.00  0.00     0.077 C 
ATOM      2  C1  UNL d   1       3.296   2.312   0.890  0.00  0.00    -0.074 A 
ATOM      3  C2  UNL d   1       2.909   3.626   0.611  0.00  0.00    -0.005 A 
ATOM      4  C3  UNL d   1       3.212   4.654   1.504  0.00  0.00     0.006 A 
ATOM      5  C4  UNL d   1       3.905   4.378   2.684  0.00  0.00    -0.005 A 
ATOM      6  C5  UNL d   1       4.300   3.069   2.980  0.00  0.00    -0.074 A 
ATOM      7  C6  UNL d   1       5.037   2.754   4.248  0.00  0.00     0.077 C 
ATOM      8  C7  UNL d   1       3.985   2.041   2.081  0.00  0.00    -0.001 A 
ENDROOT
TORSDOF 0
ENDMDL
