MODEL 1
REMARK minimizedAffinity 1.19993746
REMARK minimizedRMSD -1
REMARK  0 active torsions:
REMARK  status: ('A' for Active; 'I' for Inactive)
ROOT
ATOM      1  C   UNL d   1       1.087  -1.133   3.618  0.00  0.00     0.077 C 
ATOM      2  C1  UNL d   1      -0.069  -0.528   2.879  0.00  0.00    -0.074 A 
ATOM      3  C2  UNL d   1      -1.167  -0.004   3.569  0.00  0.00    -0.005 A 
ATOM      4  C3  UNL d   1      -2.231   0.564   2.868  0.00  0.00     0.006 A 
ATOM      5  C4  UNL d   1      -2.208   0.613   1.474  0.00  0.00    -0.005 A 
ATOM      6  C5  UNL d   1      -1.119   0.094   0.767  0.00  0.00    -0.074 A 
ATOM      7  C6  UNL d   1      -1.073   0.147  -0.731  0.00  0.00     0.077 C 
ATOM      8  C7  UNL d   1      -0.050  -0.469   1.479  0.00  0.00    -0.001 A 
ENDROOT
TORSDOF 0
ENDMDL
