MODEL 1
REMARK minimizedAffinity 7.30237913
REMARK minimizedRMSD -1
REMARK  0 active torsions:
REMARK  status: ('A' for Active; 'I' for Inactive)
ROOT
ATOM      1  C   UNL d   1       0.389  -1.328   4.492  0.00  0.00     0.077 C 
ATOM      2  C1  UNL d   1      -0.835  -0.984   3.697  0.00  0.00    -0.074 A 
ATOM      3  C2  UNL d   1      -2.112  -1.308   4.165  0.00  0.00    -0.005 A 
ATOM      4  C3  UNL d   1      -3.241  -0.972   3.419  0.00  0.00     0.006 A 
ATOM      5  C4  UNL d   1      -3.105  -0.310   2.198  0.00  0.00    -0.005 A 
ATOM      6  C5  UNL d   1      -1.836   0.024   1.714  0.00  0.00    -0.074 A 
ATOM      7  C6  UNL d   1      -1.673   0.744   0.409  0.00  0.00     0.077 C 
ATOM      8  C7  UNL d   1      -0.707  -0.311   2.473  0.00  0.00    -0.001 A 
ENDROOT
TORSDOF 0
ENDMDL
