MODEL 1
REMARK minimizedAffinity 3.93430233
REMARK minimizedRMSD -1
REMARK  0 active torsions:
REMARK  status: ('A' for Active; 'I' for Inactive)
ROOT
ATOM      1  C   UNL d   1      -3.682  -0.036  -2.401  0.00  0.00     0.172 C 
ATOM      2  N   UNL d   1      -3.668   1.309  -2.926  0.00  0.00    -0.070 N 
ATOM      3  C1  UNL d   1      -4.074   1.681  -4.180  0.00  0.00    -0.004 A 
ATOM      4  C2  UNL d   1      -3.905   3.044  -4.291  0.00  0.00    -0.047 A 
ATOM      5  C3  UNL d   1      -3.379   3.507  -3.062  0.00  0.00    -0.047 A 
ATOM      6  C4  UNL d   1      -3.242   2.412  -2.235  0.00  0.00    -0.004 A 
ENDROOT
TORSDOF 0
ENDMDL
