MODEL 1
REMARK minimizedAffinity 3.36121964
REMARK minimizedRMSD -1
REMARK  0 active torsions:
REMARK  status: ('A' for Active; 'I' for Inactive)
ROOT
ATOM      1  C   UNL d   1      -1.136   1.140   2.497  0.00  0.00     0.172 C 
ATOM      2  N   UNL d   1      -0.270   2.265   2.239  0.00  0.00    -0.070 N 
ATOM      3  C1  UNL d   1      -0.616   3.398   1.552  0.00  0.00    -0.004 A 
ATOM      4  C2  UNL d   1       0.484   4.228   1.525  0.00  0.00    -0.047 A 
ATOM      5  C3  UNL d   1       1.528   3.570   2.218  0.00  0.00    -0.047 A 
ATOM      6  C4  UNL d   1       1.034   2.358   2.650  0.00  0.00    -0.004 A 
ENDROOT
TORSDOF 0
ENDMDL
