MODEL 1
REMARK minimizedAffinity 5.31361675
REMARK minimizedRMSD -1
REMARK  0 active torsions:
REMARK  status: ('A' for Active; 'I' for Inactive)
ROOT
ATOM      1  C   UNL d   1      -2.867   2.709  -3.067  0.00  0.00     0.172 C 
ATOM      2  N   UNL d   1      -1.729   2.627  -3.952  0.00  0.00    -0.070 N 
ATOM      3  C1  UNL d   1      -0.461   3.056  -3.664  0.00  0.00    -0.004 A 
ATOM      4  C2  UNL d   1       0.331   2.802  -4.763  0.00  0.00    -0.047 A 
ATOM      5  C3  UNL d   1      -0.491   2.201  -5.747  0.00  0.00    -0.047 A 
ATOM      6  C4  UNL d   1      -1.761   2.105  -5.218  0.00  0.00    -0.004 A 
ENDROOT
TORSDOF 0
ENDMDL
