MODEL 1
REMARK minimizedAffinity 3.43708968
REMARK minimizedRMSD -1
REMARK  0 active torsions:
REMARK  status: ('A' for Active; 'I' for Inactive)
ROOT
ATOM      1  C   UNL d   1       4.450  -3.004   3.567  0.00  0.00     0.172 C 
ATOM      2  N   UNL d   1       3.535  -3.068   2.452  0.00  0.00    -0.070 N 
ATOM      3  C1  UNL d   1       3.460  -4.085   1.538  0.00  0.00    -0.004 A 
ATOM      4  C2  UNL d   1       2.465  -3.772   0.638  0.00  0.00    -0.047 A 
ATOM      5  C3  UNL d   1       1.922  -2.523   1.025  0.00  0.00    -0.047 A 
ATOM      6  C4  UNL d   1       2.603  -2.110   2.150  0.00  0.00    -0.004 A 
ENDROOT
TORSDOF 0
ENDMDL
