MODEL 1
REMARK minimizedAffinity 3.60805011
REMARK minimizedRMSD -1
REMARK  0 active torsions:
REMARK  status: ('A' for Active; 'I' for Inactive)
ROOT
ATOM      1  C   UNL d   1       2.736  -5.113   0.139  0.00  0.00     0.172 C 
ATOM      2  N   UNL d   1       2.584  -3.797   0.715  0.00  0.00    -0.070 N 
ATOM      3  C1  UNL d   1       3.375  -3.259   1.695  0.00  0.00    -0.004 A 
ATOM      4  C2  UNL d   1       2.906  -1.992   1.967  0.00  0.00    -0.047 A 
ATOM      5  C3  UNL d   1       1.794  -1.761   1.122  0.00  0.00    -0.047 A 
ATOM      6  C4  UNL d   1       1.617  -2.895   0.358  0.00  0.00    -0.004 A 
ENDROOT
TORSDOF 0
ENDMDL
