MODEL 1
REMARK minimizedAffinity 1.8343761
REMARK minimizedRMSD -1
REMARK  0 active torsions:
REMARK  status: ('A' for Active; 'I' for Inactive)
ROOT
ATOM      1  C   UNL d   1      -2.222   0.150  -2.862  0.00  0.00     0.172 C 
ATOM      2  N   UNL d   1      -3.360  -0.730  -2.740  0.00  0.00    -0.070 N 
ATOM      3  C1  UNL d   1      -4.254  -1.023  -3.735  0.00  0.00    -0.004 A 
ATOM      4  C2  UNL d   1      -5.188  -1.897  -3.220  0.00  0.00    -0.047 A 
ATOM      5  C3  UNL d   1      -4.844  -2.136  -1.869  0.00  0.00    -0.047 A 
ATOM      6  C4  UNL d   1      -3.709  -1.402  -1.597  0.00  0.00    -0.004 A 
ENDROOT
TORSDOF 0
ENDMDL
