MODEL 1
REMARK minimizedAffinity -2.11553407
REMARK minimizedRMSD -1
REMARK  0 active torsions:
REMARK  status: ('A' for Active; 'I' for Inactive)
ROOT
ATOM      1  C   UNL d   1       5.765   5.707  -5.994  0.00  0.00     0.172 C 
ATOM      2  N   UNL d   1       4.425   5.169  -5.996  0.00  0.00    -0.070 N 
ATOM      3  C1  UNL d   1       4.099   3.839  -5.997  0.00  0.00    -0.004 A 
ATOM      4  C2  UNL d   1       2.724   3.742  -5.998  0.00  0.00    -0.047 A 
ATOM      5  C3  UNL d   1       2.206   5.059  -6.000  0.00  0.00    -0.047 A 
ATOM      6  C4  UNL d   1       3.281   5.923  -5.999  0.00  0.00    -0.004 A 
ENDROOT
TORSDOF 0
ENDMDL
