MODEL 1
REMARK minimizedAffinity 9.35993576
REMARK minimizedRMSD -1
REMARK  0 active torsions:
REMARK  status: ('A' for Active; 'I' for Inactive)
ROOT
ATOM      1  N1  IND d   1      -0.492  -0.094   0.917  0.00  0.00    -0.196 N 
ATOM      2  C2  IND d   1       0.807  -0.505   0.804  0.00  0.00     0.054 A 
ATOM      3  C3  IND d   1       1.606   0.234   1.606  0.00  0.00    -0.031 A 
ATOM      4  C4  IND d   1       0.981   2.102   3.263  0.00  0.00     0.051 A 
ATOM      5  C5  IND d   1      -0.078   2.854   3.691  0.00  0.00    -0.031 A 
ATOM      6  C6  IND d   1      -1.355   2.655   3.207  0.00  0.00     0.015 A 
ATOM      7  C7  IND d   1      -1.624   1.685   2.283  0.00  0.00    -0.016 A 
ATOM      8  C8  IND d   1      -0.550   0.925   1.842  0.00  0.00    -0.047 A 
ATOM      9  C9  IND d   1       0.755   1.151   2.297  0.00  0.00    -0.096 A 
ATOM     10  HN1 IND d   1      -1.160  -0.417   0.483  0.00  0.00     0.298 HD
ENDROOT
TORSDOF 0
ENDMDL
