MODEL 1
REMARK minimizedAffinity 7.7409277
REMARK minimizedRMSD -1
REMARK  0 active torsions:
REMARK  status: ('A' for Active; 'I' for Inactive)
ROOT
ATOM      1  N1  IND d   1      -2.502   1.395   1.277  0.00  0.00    -0.196 N 
ATOM      2  C2  IND d   1      -2.213   0.393   0.393  0.00  0.00     0.054 A 
ATOM      3  C3  IND d   1      -0.979  -0.105   0.633  0.00  0.00    -0.031 A 
ATOM      4  C4  IND d   1       0.699   0.506   2.488  0.00  0.00     0.051 A 
ATOM      5  C5  IND d   1       0.898   1.387   3.513  0.00  0.00    -0.031 A 
ATOM      6  C6  IND d   1      -0.047   2.334   3.854  0.00  0.00     0.015 A 
ATOM      7  C7  IND d   1      -1.235   2.427   3.187  0.00  0.00    -0.016 A 
ATOM      8  C8  IND d   1      -1.438   1.538   2.141  0.00  0.00    -0.047 A 
ATOM      9  C9  IND d   1      -0.465   0.603   1.763  0.00  0.00    -0.096 A 
ATOM     10  HN1 IND d   1      -3.226   1.857   1.292  0.00  0.00     0.298 HD
ENDROOT
TORSDOF 0
ENDMDL
