MODEL 1
REMARK minimizedAffinity 18.8140507
REMARK minimizedRMSD -1
REMARK  0 active torsions:
REMARK  status: ('A' for Active; 'I' for Inactive)
ROOT
ATOM      1  N1  IND d   1       3.224  -0.887   1.754  0.00  0.00    -0.196 N 
ATOM      2  C2  IND d   1       3.708  -0.512   0.532  0.00  0.00     0.054 A 
ATOM      3  C3  IND d   1       2.797   0.242  -0.124  0.00  0.00    -0.031 A 
ATOM      4  C4  IND d   1       0.489   1.068   0.660  0.00  0.00     0.051 A 
ATOM      5  C5  IND d   1      -0.404   0.954   1.689  0.00  0.00    -0.031 A 
ATOM      6  C6  IND d   1      -0.126   0.207   2.816  0.00  0.00     0.015 A 
ATOM      7  C7  IND d   1       1.065  -0.447   2.962  0.00  0.00    -0.016 A 
ATOM      8  C8  IND d   1       1.970  -0.339   1.916  0.00  0.00    -0.047 A 
ATOM      9  C9  IND d   1       1.677   0.383   0.751  0.00  0.00    -0.096 A 
ATOM     10  HN1 IND d   1       3.633  -1.383   2.325  0.00  0.00     0.298 HD
ENDROOT
TORSDOF 0
ENDMDL
