MODEL 1
REMARK minimizedAffinity 7.09650564
REMARK minimizedRMSD -1
REMARK  0 active torsions:
REMARK  status: ('A' for Active; 'I' for Inactive)
ROOT
ATOM      1  N1  IND d   1      -2.777   2.355   1.781  0.00  0.00    -0.196 N 
ATOM      2  C2  IND d   1      -3.030   1.329   0.914  0.00  0.00     0.054 A 
ATOM      3  C3  IND d   1      -1.937   0.544   0.783  0.00  0.00    -0.031 A 
ATOM      4  C4  IND d   1       0.341   0.700   1.973  0.00  0.00     0.051 A 
ATOM      5  C5  IND d   1       1.058   1.490   2.827  0.00  0.00    -0.031 A 
ATOM      6  C6  IND d   1       0.522   2.630   3.390  0.00  0.00     0.015 A 
ATOM      7  C7  IND d   1      -0.761   3.018   3.127  0.00  0.00    -0.016 A 
ATOM      8  C8  IND d   1      -1.490   2.222   2.254  0.00  0.00    -0.047 A 
ATOM      9  C9  IND d   1      -0.937   1.088   1.647  0.00  0.00    -0.096 A 
ATOM     10  HN1 IND d   1      -3.329   2.978   1.995  0.00  0.00     0.298 HD
ENDROOT
TORSDOF 0
ENDMDL
