MODEL 1
REMARK minimizedAffinity 7.02993631
REMARK minimizedRMSD -1
REMARK  0 active torsions:
REMARK  status: ('A' for Active; 'I' for Inactive)
ROOT
ATOM      1  N1  IND d   1      -2.535   0.505   0.924  0.00  0.00    -0.196 N 
ATOM      2  C2  IND d   1      -1.314   0.773   1.476  0.00  0.00     0.054 A 
ATOM      3  C3  IND d   1      -1.429   0.946   2.812  0.00  0.00    -0.031 A 
ATOM      4  C4  IND d   1      -3.508   0.733   4.315  0.00  0.00     0.051 A 
ATOM      5  C5  IND d   1      -4.860   0.538   4.262  0.00  0.00    -0.031 A 
ATOM      6  C6  IND d   1      -5.519   0.315   3.071  0.00  0.00     0.015 A 
ATOM      7  C7  IND d   1      -4.846   0.267   1.883  0.00  0.00    -0.016 A 
ATOM      8  C8  IND d   1      -3.474   0.471   1.931  0.00  0.00    -0.047 A 
ATOM      9  C9  IND d   1      -2.806   0.741   3.133  0.00  0.00    -0.096 A 
ATOM     10  HN1 IND d   1      -2.691   0.378   0.088  0.00  0.00     0.298 HD
ENDROOT
TORSDOF 0
ENDMDL
