MODEL 1
REMARK minimizedAffinity 5.87574816
REMARK minimizedRMSD -1
REMARK  0 active torsions:
REMARK  status: ('A' for Active; 'I' for Inactive)
ROOT
ATOM      1  N1  IND d   1      -2.931   0.782   0.700  0.00  0.00    -0.196 N 
ATOM      2  C2  IND d   1      -2.187  -0.014  -0.125  0.00  0.00     0.054 A 
ATOM      3  C3  IND d   1      -0.931  -0.149   0.358  0.00  0.00    -0.031 A 
ATOM      4  C4  IND d   1       0.089   0.766   2.537  0.00  0.00     0.051 A 
ATOM      5  C5  IND d   1      -0.191   1.579   3.600  0.00  0.00    -0.031 A 
ATOM      6  C6  IND d   1      -1.425   2.177   3.755  0.00  0.00     0.015 A 
ATOM      7  C7  IND d   1      -2.433   1.975   2.855  0.00  0.00    -0.016 A 
ATOM      8  C8  IND d   1      -2.149   1.156   1.771  0.00  0.00    -0.047 A 
ATOM      9  C9  IND d   1      -0.886   0.581   1.586  0.00  0.00    -0.096 A 
ATOM     10  HN1 IND d   1      -3.750   1.011   0.572  0.00  0.00     0.298 HD
ENDROOT
TORSDOF 0
ENDMDL
