MODEL 1
REMARK minimizedAffinity 8.10491657
REMARK minimizedRMSD -1
REMARK  0 active torsions:
REMARK  status: ('A' for Active; 'I' for Inactive)
ROOT
ATOM      1  N1  IND d   1      -2.790   0.778   1.601  0.00  0.00    -0.196 N 
ATOM      2  C2  IND d   1      -2.023   0.201   0.627  0.00  0.00     0.054 A 
ATOM      3  C3  IND d   1      -0.710   0.366   0.904  0.00  0.00    -0.031 A 
ATOM      4  C4  IND d   1       0.406   1.460   2.950  0.00  0.00     0.051 A 
ATOM      5  C5  IND d   1       0.118   2.160   4.088  0.00  0.00    -0.031 A 
ATOM      6  C6  IND d   1      -1.180   2.438   4.464  0.00  0.00     0.015 A 
ATOM      7  C7  IND d   1      -2.244   2.015   3.719  0.00  0.00    -0.016 A 
ATOM      8  C8  IND d   1      -1.955   1.310   2.559  0.00  0.00    -0.047 A 
ATOM      9  C9  IND d   1      -0.639   1.062   2.150  0.00  0.00    -0.096 A 
ATOM     10  HN1 IND d   1      -3.649   0.804   1.613  0.00  0.00     0.298 HD
ENDROOT
TORSDOF 0
ENDMDL
