MODEL 1
REMARK minimizedAffinity 4.81676865
REMARK minimizedRMSD -1
REMARK  0 active torsions:
REMARK  status: ('A' for Active; 'I' for Inactive)
ROOT
ATOM      1  N1  IND d   1       1.533   1.467  -5.999  0.00  0.00    -0.196 N 
ATOM      2  C2  IND d   1       1.924   2.725  -5.632  0.00  0.00     0.054 A 
ATOM      3  C3  IND d   1       2.701   2.672  -4.527  0.00  0.00    -0.031 A 
ATOM      4  C4  IND d   1       3.543   0.622  -3.217  0.00  0.00     0.051 A 
ATOM      5  C5  IND d   1       3.422  -0.738  -3.149  0.00  0.00    -0.031 A 
ATOM      6  C6  IND d   1       2.651  -1.446  -4.048  0.00  0.00     0.015 A 
ATOM      7  C7  IND d   1       1.979  -0.820  -5.060  0.00  0.00    -0.016 A 
ATOM      8  C8  IND d   1       2.094   0.561  -5.127  0.00  0.00    -0.047 A 
ATOM      9  C9  IND d   1       2.840   1.290  -4.192  0.00  0.00    -0.096 A 
ATOM     10  HN1 IND d   1       1.022   1.275  -6.664  0.00  0.00     0.298 HD
ENDROOT
TORSDOF 0
ENDMDL
