MODEL 1
REMARK minimizedAffinity 5.93965769
REMARK minimizedRMSD -1
REMARK  0 active torsions:
REMARK  status: ('A' for Active; 'I' for Inactive)
ROOT
ATOM      1  N1  IND d   1      -2.737   1.917   2.384  0.00  0.00    -0.196 N 
ATOM      2  C2  IND d   1      -2.901   0.906   1.479  0.00  0.00     0.054 A 
ATOM      3  C3  IND d   1      -1.700   0.420   1.094  0.00  0.00    -0.031 A 
ATOM      4  C4  IND d   1       0.659   1.065   1.899  0.00  0.00     0.051 A 
ATOM      5  C5  IND d   1       1.319   1.961   2.692  0.00  0.00    -0.031 A 
ATOM      6  C6  IND d   1       0.647   2.905   3.441  0.00  0.00     0.015 A 
ATOM      7  C7  IND d   1      -0.717   2.982   3.432  0.00  0.00    -0.016 A 
ATOM      8  C8  IND d   1      -1.390   2.078   2.622  0.00  0.00    -0.047 A 
ATOM      9  C9  IND d   1      -0.711   1.145   1.828  0.00  0.00    -0.096 A 
ATOM     10  HN1 IND d   1      -3.369   2.376   2.744  0.00  0.00     0.298 HD
ENDROOT
TORSDOF 0
ENDMDL
