MODEL 1
REMARK minimizedAffinity 4.31691217
REMARK minimizedRMSD -1
REMARK  0 active torsions:
REMARK  status: ('A' for Active; 'I' for Inactive)
ROOT
ATOM      1  N1  IND d   1       1.770  -1.987  -5.456  0.00  0.00    -0.196 N 
ATOM      2  C2  IND d   1       2.199  -2.907  -4.540  0.00  0.00     0.054 A 
ATOM      3  C3  IND d   1       3.068  -2.338  -3.674  0.00  0.00    -0.031 A 
ATOM      4  C4  IND d   1       3.849   0.109  -3.511  0.00  0.00     0.051 A 
ATOM      5  C5  IND d   1       3.760   1.313  -4.150  0.00  0.00    -0.031 A 
ATOM      6  C6  IND d   1       2.985   1.483  -5.279  0.00  0.00     0.015 A 
ATOM      7  C7  IND d   1       2.258   0.453  -5.806  0.00  0.00    -0.016 A 
ATOM      8  C8  IND d   1       2.352  -0.773  -5.163  0.00  0.00    -0.047 A 
ATOM      9  C9  IND d   1       3.171  -0.962  -4.042  0.00  0.00    -0.096 A 
ATOM     10  HN1 IND d   1       1.228  -2.141  -6.106  0.00  0.00     0.298 HD
ENDROOT
TORSDOF 0
ENDMDL
