MODEL 1
REMARK minimizedAffinity 6.59747839
REMARK minimizedRMSD -1
REMARK  0 active torsions:
REMARK  status: ('A' for Active; 'I' for Inactive)
ROOT
ATOM      1  N1  IND d   1       0.630   1.036   2.896  0.00  0.00    -0.196 N 
ATOM      2  C2  IND d   1       1.306   0.452   1.861  0.00  0.00     0.054 A 
ATOM      3  C3  IND d   1       0.467   0.207   0.830  0.00  0.00    -0.031 A 
ATOM      4  C4  IND d   1      -2.032   0.776   0.584  0.00  0.00     0.051 A 
ATOM      5  C5  IND d   1      -3.095   1.279   1.279  0.00  0.00    -0.031 A 
ATOM      6  C6  IND d   1      -2.968   1.740   2.574  0.00  0.00     0.015 A 
ATOM      7  C7  IND d   1      -1.765   1.724   3.220  0.00  0.00    -0.016 A 
ATOM      8  C8  IND d   1      -0.684   1.206   2.520  0.00  0.00    -0.047 A 
ATOM      9  C9  IND d   1      -0.816   0.698   1.221  0.00  0.00    -0.096 A 
ATOM     10  HN1 IND d   1       0.969   1.260   3.654  0.00  0.00     0.298 HD
ENDROOT
TORSDOF 0
ENDMDL
