MODEL 1
REMARK minimizedAffinity 2.9879005
REMARK minimizedRMSD -1
REMARK  0 active torsions:
REMARK  status: ('A' for Active; 'I' for Inactive)
ROOT
ATOM      1  N1  IND d   1       0.838   1.180   1.345  0.00  0.00    -0.196 N 
ATOM      2  C2  IND d   1       0.191   0.438   2.293  0.00  0.00     0.054 A 
ATOM      3  C3  IND d   1       1.075  -0.316   2.985  0.00  0.00    -0.031 A 
ATOM      4  C4  IND d   1       3.641  -0.411   2.797  0.00  0.00     0.051 A 
ATOM      5  C5  IND d   1       4.685   0.059   2.051  0.00  0.00    -0.031 A 
ATOM      6  C6  IND d   1       4.496   0.948   1.012  0.00  0.00     0.015 A 
ATOM      7  C7  IND d   1       3.252   1.410   0.687  0.00  0.00    -0.016 A 
ATOM      8  C8  IND d   1       2.189   0.928   1.438  0.00  0.00    -0.047 A 
ATOM      9  C9  IND d   1       2.370  -0.006   2.465  0.00  0.00    -0.096 A 
ATOM     10  HN1 IND d   1       0.464   1.715   0.785  0.00  0.00     0.298 HD
ENDROOT
TORSDOF 0
ENDMDL
