MODEL 1
REMARK minimizedAffinity 7.27431631
REMARK minimizedRMSD -1
REMARK  0 active torsions:
REMARK  status: ('A' for Active; 'I' for Inactive)
ROOT
ATOM      1  N1  IND d   1      -2.476  -0.295   0.436  0.00  0.00    -0.196 N 
ATOM      2  C2  IND d   1      -1.707   0.791   0.748  0.00  0.00     0.054 A 
ATOM      3  C3  IND d   1      -2.398   1.644   1.538  0.00  0.00    -0.031 A 
ATOM      4  C4  IND d   1      -4.764   1.409   2.524  0.00  0.00     0.051 A 
ATOM      5  C5  IND d   1      -5.869   0.606   2.492  0.00  0.00    -0.031 A 
ATOM      6  C6  IND d   1      -5.899  -0.564   1.761  0.00  0.00     0.015 A 
ATOM      7  C7  IND d   1      -4.817  -0.982   1.040  0.00  0.00    -0.016 A 
ATOM      8  C8  IND d   1      -3.695  -0.165   1.064  0.00  0.00    -0.047 A 
ATOM      9  C9  IND d   1      -3.673   1.045   1.770  0.00  0.00    -0.096 A 
ATOM     10  HN1 IND d   1      -2.238  -0.950  -0.068  0.00  0.00     0.298 HD
ENDROOT
TORSDOF 0
ENDMDL
