MODEL 1
REMARK minimizedAffinity 4.49749708
REMARK minimizedRMSD -1
REMARK  0 active torsions:
REMARK  status: ('A' for Active; 'I' for Inactive)
ROOT
ATOM      1  N1  IND d   1      -1.663   2.180   2.257  0.00  0.00    -0.196 N 
ATOM      2  C2  IND d   1      -2.831   1.469   2.273  0.00  0.00     0.054 A 
ATOM      3  C3  IND d   1      -2.579   0.147   2.142  0.00  0.00    -0.031 A 
ATOM      4  C4  IND d   1      -0.321  -1.080   1.989  0.00  0.00     0.051 A 
ATOM      5  C5  IND d   1       1.023  -0.855   1.897  0.00  0.00    -0.031 A 
ATOM      6  C6  IND d   1       1.552   0.420   1.924  0.00  0.00     0.015 A 
ATOM      7  C7  IND d   1       0.753   1.520   2.056  0.00  0.00    -0.016 A 
ATOM      8  C8  IND d   1      -0.613   1.295   2.142  0.00  0.00    -0.047 A 
ATOM      9  C9  IND d   1      -1.159   0.007   2.073  0.00  0.00    -0.096 A 
ATOM     10  HN1 IND d   1      -1.595   3.035   2.310  0.00  0.00     0.298 HD
ENDROOT
TORSDOF 0
ENDMDL
