MODEL 1
REMARK minimizedAffinity 5.83513927
REMARK minimizedRMSD -1
REMARK  0 active torsions:
REMARK  status: ('A' for Active; 'I' for Inactive)
ROOT
ATOM      1  N1  IND d   1      -4.083   1.455   1.971  0.00  0.00    -0.196 N 
ATOM      2  C2  IND d   1      -4.168   2.117   3.165  0.00  0.00     0.054 A 
ATOM      3  C3  IND d   1      -2.935   2.311   3.684  0.00  0.00    -0.031 A 
ATOM      4  C4  IND d   1      -0.633   1.718   2.698  0.00  0.00     0.051 A 
ATOM      5  C5  IND d   1      -0.045   1.071   1.646  0.00  0.00    -0.031 A 
ATOM      6  C6  IND d   1      -0.789   0.511   0.627  0.00  0.00     0.015 A 
ATOM      7  C7  IND d   1      -2.153   0.586   0.617  0.00  0.00    -0.016 A 
ATOM      8  C8  IND d   1      -2.753   1.236   1.686  0.00  0.00    -0.047 A 
ATOM      9  C9  IND d   1      -2.006   1.769   2.744  0.00  0.00    -0.096 A 
ATOM     10  HN1 IND d   1      -4.748   1.216   1.482  0.00  0.00     0.298 HD
ENDROOT
TORSDOF 0
ENDMDL
