MODEL 1
REMARK minimizedAffinity 8.964674
REMARK minimizedRMSD -1
REMARK  0 active torsions:
REMARK  status: ('A' for Active; 'I' for Inactive)
ROOT
ATOM      1  N1  IND d   1       0.679   0.898   2.963  0.00  0.00    -0.196 N 
ATOM      2  C2  IND d   1       1.364   0.142   2.053  0.00  0.00     0.054 A 
ATOM      3  C3  IND d   1       0.545  -0.242   1.048  0.00  0.00    -0.031 A 
ATOM      4  C4  IND d   1      -1.929   0.340   0.642  0.00  0.00     0.051 A 
ATOM      5  C5  IND d   1      -2.996   0.972   1.217  0.00  0.00    -0.031 A 
ATOM      6  C6  IND d   1      -2.889   1.628   2.427  0.00  0.00     0.015 A 
ATOM      7  C7  IND d   1      -1.703   1.685   3.104  0.00  0.00    -0.016 A 
ATOM      8  C8  IND d   1      -0.620   1.038   2.526  0.00  0.00    -0.047 A 
ATOM      9  C9  IND d   1      -0.733   0.335   1.320  0.00  0.00    -0.096 A 
ATOM     10  HN1 IND d   1       1.004   1.230   3.686  0.00  0.00     0.298 HD
ENDROOT
TORSDOF 0
ENDMDL
