MODEL 1
REMARK minimizedAffinity 4.12033892
REMARK minimizedRMSD -1
REMARK  0 active torsions:
REMARK  status: ('A' for Active; 'I' for Inactive)
ROOT
ATOM      1  N1  IND d   1      -3.047   1.165   0.902  0.00  0.00    -0.196 N 
ATOM      2  C2  IND d   1      -2.638   0.120   0.120  0.00  0.00     0.054 A 
ATOM      3  C3  IND d   1      -1.343  -0.177   0.371  0.00  0.00    -0.031 A 
ATOM      4  C4  IND d   1       0.267   0.855   2.094  0.00  0.00     0.051 A 
ATOM      5  C5  IND d   1       0.361   1.863   3.012  0.00  0.00    -0.031 A 
ATOM      6  C6  IND d   1      -0.699   2.705   3.281  0.00  0.00     0.015 A 
ATOM      7  C7  IND d   1      -1.901   2.562   2.647  0.00  0.00    -0.016 A 
ATOM      8  C8  IND d   1      -1.997   1.544   1.709  0.00  0.00    -0.047 A 
ATOM      9  C9  IND d   1      -0.912   0.714   1.401  0.00  0.00    -0.096 A 
ATOM     10  HN1 IND d   1      -3.828   1.524   0.890  0.00  0.00     0.298 HD
ENDROOT
TORSDOF 0
ENDMDL
