MODEL 1
REMARK minimizedAffinity 10.4063406
REMARK minimizedRMSD -1
REMARK  0 active torsions:
REMARK  status: ('A' for Active; 'I' for Inactive)
ROOT
ATOM      1  N1  IND d   1      -5.884   0.065   1.937  0.00  0.00    -0.196 N 
ATOM      2  C2  IND d   1      -5.998  -1.285   1.761  0.00  0.00     0.054 A 
ATOM      3  C3  IND d   1      -5.998  -1.917   2.956  0.00  0.00    -0.031 A 
ATOM      4  C4  IND d   1      -5.922  -0.926   5.331  0.00  0.00     0.051 A 
ATOM      5  C5  IND d   1      -5.778   0.257   6.000  0.00  0.00    -0.031 A 
ATOM      6  C6  IND d   1      -5.663   1.461   5.336  0.00  0.00     0.015 A 
ATOM      7  C7  IND d   1      -5.698   1.529   3.972  0.00  0.00    -0.016 A 
ATOM      8  C8  IND d   1      -5.837   0.329   3.289  0.00  0.00    -0.047 A 
ATOM      9  C9  IND d   1      -5.912  -0.901   3.956  0.00  0.00    -0.096 A 
ATOM     10  HN1 IND d   1      -5.848   0.652   1.310  0.00  0.00     0.298 HD
ENDROOT
TORSDOF 0
ENDMDL
