MODEL 1
REMARK minimizedAffinity -2.18092108
REMARK minimizedRMSD -1
REMARK  1 active torsions:
REMARK  status: ('A' for Active; 'I' for Inactive)
REMARK    1  A    between atoms: C1_2  and  C2_3 
ROOT
ATOM      1  C2  UNL d   1       0.819   0.266   1.126  0.00  0.00    -0.076 A 
ATOM      2  C3  UNL d   1      -0.266  -0.524   1.544  0.00  0.00     0.004 A 
ATOM      3  C4  UNL d   1      -1.474   0.059   1.924  0.00  0.00    -0.003 A 
ATOM      4  C5  UNL d   1      -1.617   1.441   1.890  0.00  0.00     0.000 A 
ATOM      5  C6  UNL d   1      -0.557   2.240   1.461  0.00  0.00     0.000 A 
ATOM      6  C7  UNL d   1       0.662   1.667   1.059  0.00  0.00    -0.073 A 
ATOM      7  C8  UNL d   1       1.774   2.576   0.611  0.00  0.00     0.078 C 
ENDROOT
BRANCH   1   8
ATOM      8  C1  UNL d   1       2.113  -0.421   0.752  0.00  0.00     0.053 C 
ATOM      9  C   UNL d   1       3.154  -0.345   1.859  0.00  0.00     0.018 C 
ENDBRANCH   1   8
TORSDOF 1
ENDMDL
