MODEL 1
REMARK minimizedAffinity 7.24043751
REMARK minimizedRMSD -1
REMARK  1 active torsions:
REMARK  status: ('A' for Active; 'I' for Inactive)
REMARK    1  A    between atoms: C1_2  and  C2_3 
ROOT
ATOM      1  C2  UNL d   1      -2.142   2.059   2.912  0.00  0.00    -0.076 A 
ATOM      2  C3  UNL d   1      -1.716   0.739   3.139  0.00  0.00     0.004 A 
ATOM      3  C4  UNL d   1      -1.011   0.035   2.164  0.00  0.00    -0.003 A 
ATOM      4  C5  UNL d   1      -0.719   0.641   0.947  0.00  0.00     0.000 A 
ATOM      5  C6  UNL d   1      -1.119   1.956   0.712  0.00  0.00     0.000 A 
ATOM      6  C7  UNL d   1      -1.816   2.685   1.690  0.00  0.00    -0.073 A 
ATOM      7  C8  UNL d   1      -2.228   4.098   1.381  0.00  0.00     0.078 C 
ENDROOT
BRANCH   1   8
ATOM      8  C1  UNL d   1      -2.927   2.763   3.996  0.00  0.00     0.053 C 
ATOM      9  C   UNL d   1      -4.084   1.924   4.515  0.00  0.00     0.018 C 
ENDBRANCH   1   8
TORSDOF 1
ENDMDL
