MODEL 1
REMARK minimizedAffinity -0.558174491
REMARK minimizedRMSD -1
REMARK  1 active torsions:
REMARK  status: ('A' for Active; 'I' for Inactive)
REMARK    1  A    between atoms: C1_2  and  C2_3 
ROOT
ATOM      1  C2  UNL d   1      -0.504   1.288   1.962  0.00  0.00    -0.076 A 
ATOM      2  C3  UNL d   1      -1.140   2.542   1.982  0.00  0.00     0.004 A 
ATOM      3  C4  UNL d   1      -2.452   2.673   2.434  0.00  0.00    -0.003 A 
ATOM      4  C5  UNL d   1      -3.150   1.553   2.874  0.00  0.00     0.000 A 
ATOM      5  C6  UNL d   1      -2.528   0.305   2.878  0.00  0.00     0.000 A 
ATOM      6  C7  UNL d   1      -1.200   0.158   2.441  0.00  0.00    -0.073 A 
ATOM      7  C8  UNL d   1      -0.582  -1.213   2.461  0.00  0.00     0.078 C 
ENDROOT
BRANCH   1   8
ATOM      8  C1  UNL d   1       0.911   1.203   1.436  0.00  0.00     0.053 C 
ATOM      9  C   UNL d   1       1.263   2.365   0.521  0.00  0.00     0.018 C 
ENDBRANCH   1   8
TORSDOF 1
ENDMDL
