MODEL 1
REMARK minimizedAffinity 0.144693062
REMARK minimizedRMSD -1
REMARK  1 active torsions:
REMARK  status: ('A' for Active; 'I' for Inactive)
REMARK    1  A    between atoms: C1_2  and  C2_3 
ROOT
ATOM      1  C2  UNL d   1      -1.623   1.733   2.066  0.00  0.00    -0.076 A 
ATOM      2  C3  UNL d   1      -0.431   2.430   1.802  0.00  0.00     0.004 A 
ATOM      3  C4  UNL d   1       0.752   1.748   1.521  0.00  0.00    -0.003 A 
ATOM      4  C5  UNL d   1       0.762   0.358   1.500  0.00  0.00     0.000 A 
ATOM      5  C6  UNL d   1      -0.415  -0.350   1.742  0.00  0.00     0.000 A 
ATOM      6  C7  UNL d   1      -1.619   0.322   2.011  0.00  0.00    -0.073 A 
ATOM      7  C8  UNL d   1      -2.858  -0.491   2.271  0.00  0.00     0.078 C 
ENDROOT
BRANCH   1   8
ATOM      8  C1  UNL d   1      -2.869   2.525   2.391  0.00  0.00     0.053 C 
ATOM      9  C   UNL d   1      -3.734   1.846   3.441  0.00  0.00     0.018 C 
ENDBRANCH   1   8
TORSDOF 1
ENDMDL
