MODEL 1
REMARK minimizedAffinity 6.572227
REMARK minimizedRMSD -1
REMARK  1 active torsions:
REMARK  status: ('A' for Active; 'I' for Inactive)
REMARK    1  A    between atoms: C1_2  and  C2_3 
ROOT
ATOM      1  C2  UNL d   1      -3.539  -1.842  -3.180  0.00  0.00    -0.076 A 
ATOM      2  C3  UNL d   1      -3.798  -0.464  -3.285  0.00  0.00     0.004 A 
ATOM      3  C4  UNL d   1      -4.435   0.226  -2.255  0.00  0.00    -0.003 A 
ATOM      4  C5  UNL d   1      -4.825  -0.450  -1.104  0.00  0.00     0.000 A 
ATOM      5  C6  UNL d   1      -4.561  -1.813  -0.976  0.00  0.00     0.000 A 
ATOM      6  C7  UNL d   1      -3.904  -2.521  -1.998  0.00  0.00    -0.073 A 
ATOM      7  C8  UNL d   1      -3.650  -3.992  -1.809  0.00  0.00     0.078 C 
ENDROOT
BRANCH   1   8
ATOM      8  C1  UNL d   1      -2.869  -2.543  -4.340  0.00  0.00     0.053 C 
ATOM      9  C   UNL d   1      -3.835  -2.846  -5.475  0.00  0.00     0.018 C 
ENDBRANCH   1   8
TORSDOF 1
ENDMDL
