MODEL 1
REMARK minimizedAffinity 0.689549804
REMARK minimizedRMSD -1
REMARK  1 active torsions:
REMARK  status: ('A' for Active; 'I' for Inactive)
REMARK    1  A    between atoms: C1_2  and  C2_3 
ROOT
ATOM      1  C2  UNL d   1      -0.813   1.674   1.504  0.00  0.00    -0.076 A 
ATOM      2  C3  UNL d   1       0.389   2.399   1.429  0.00  0.00     0.004 A 
ATOM      3  C4  UNL d   1       1.579   1.779   1.053  0.00  0.00    -0.003 A 
ATOM      4  C5  UNL d   1       1.586   0.422   0.746  0.00  0.00     0.000 A 
ATOM      5  C6  UNL d   1       0.400  -0.309   0.799  0.00  0.00     0.000 A 
ATOM      6  C7  UNL d   1      -0.811   0.305   1.159  0.00  0.00    -0.073 A 
ATOM      7  C8  UNL d   1      -2.060  -0.532   1.205  0.00  0.00     0.078 C 
ENDROOT
BRANCH   1   8
ATOM      8  C1  UNL d   1      -2.068   2.395   1.943  0.00  0.00     0.053 C 
ATOM      9  C   UNL d   1      -2.508   1.997   3.344  0.00  0.00     0.018 C 
ENDBRANCH   1   8
TORSDOF 1
ENDMDL
