MODEL 1
REMARK minimizedAffinity -2.61087513
REMARK minimizedRMSD -1
REMARK  1 active torsions:
REMARK  status: ('A' for Active; 'I' for Inactive)
REMARK    1  A    between atoms: C1_2  and  C2_3 
ROOT
ATOM      1  C2  UNL d   1      -1.934   0.918   2.524  0.00  0.00    -0.076 A 
ATOM      2  C3  UNL d   1      -1.598   2.267   2.320  0.00  0.00     0.004 A 
ATOM      3  C4  UNL d   1      -0.370   2.625   1.766  0.00  0.00    -0.003 A 
ATOM      4  C5  UNL d   1       0.542   1.638   1.406  0.00  0.00     0.000 A 
ATOM      5  C6  UNL d   1       0.217   0.294   1.585  0.00  0.00     0.000 A 
ATOM      6  C7  UNL d   1      -1.023  -0.084   2.127  0.00  0.00    -0.073 A 
ATOM      7  C8  UNL d   1      -1.318  -1.548   2.303  0.00  0.00     0.078 C 
ENDROOT
BRANCH   1   8
ATOM      8  C1  UNL d   1      -3.270   0.591   3.154  0.00  0.00     0.053 C 
ATOM      9  C   UNL d   1      -3.756   1.688   4.089  0.00  0.00     0.018 C 
ENDBRANCH   1   8
TORSDOF 1
ENDMDL
