MODEL 1
REMARK minimizedAffinity -4.76222515
REMARK minimizedRMSD -1
REMARK  1 active torsions:
REMARK  status: ('A' for Active; 'I' for Inactive)
REMARK    1  A    between atoms: C1_2  and  C2_3 
ROOT
ATOM      1  C2  UNL d   1      -1.535   2.490   1.818  0.00  0.00    -0.076 A 
ATOM      2  C3  UNL d   1      -2.707   2.067   2.469  0.00  0.00     0.004 A 
ATOM      3  C4  UNL d   1      -2.847   0.752   2.911  0.00  0.00    -0.003 A 
ATOM      4  C5  UNL d   1      -1.818  -0.160   2.710  0.00  0.00     0.000 A 
ATOM      5  C6  UNL d   1      -0.641   0.246   2.082  0.00  0.00     0.000 A 
ATOM      6  C7  UNL d   1      -0.477   1.572   1.645  0.00  0.00    -0.073 A 
ATOM      7  C8  UNL d   1       0.811   1.954   0.968  0.00  0.00     0.078 C 
ENDROOT
BRANCH   1   8
ATOM      8  C1  UNL d   1      -1.450   3.920   1.336  0.00  0.00     0.053 C 
ATOM      9  C   UNL d   1      -2.585   4.285   0.391  0.00  0.00     0.018 C 
ENDBRANCH   1   8
TORSDOF 1
ENDMDL
