MODEL 1
REMARK minimizedAffinity 5.31325674
REMARK minimizedRMSD -1
REMARK  1 active torsions:
REMARK  status: ('A' for Active; 'I' for Inactive)
REMARK    1  A    between atoms: C1_2  and  C2_3 
ROOT
ATOM      1  C2  UNL d   1      -2.381   0.910   2.762  0.00  0.00    -0.076 A 
ATOM      2  C3  UNL d   1      -2.609   2.205   2.264  0.00  0.00     0.004 A 
ATOM      3  C4  UNL d   1      -1.627   2.878   1.539  0.00  0.00    -0.003 A 
ATOM      4  C5  UNL d   1      -0.401   2.267   1.300  0.00  0.00     0.000 A 
ATOM      5  C6  UNL d   1      -0.164   0.976   1.771  0.00  0.00     0.000 A 
ATOM      6  C7  UNL d   1      -1.149   0.277   2.489  0.00  0.00    -0.073 A 
ATOM      7  C8  UNL d   1      -0.838  -1.111   2.979  0.00  0.00     0.078 C 
ENDROOT
BRANCH   1   8
ATOM      8  C1  UNL d   1      -3.473   0.240   3.564  0.00  0.00     0.053 C 
ATOM      9  C   UNL d   1      -4.473   1.235   4.132  0.00  0.00     0.018 C 
ENDBRANCH   1   8
TORSDOF 1
ENDMDL
