MODEL 1
REMARK minimizedAffinity 1.8133961
REMARK minimizedRMSD -1
REMARK  1 active torsions:
REMARK  status: ('A' for Active; 'I' for Inactive)
REMARK    1  A    between atoms: C1_2  and  C2_3 
ROOT
ATOM      1  C2  UNL d   1       1.104  -0.065   1.447  0.00  0.00    -0.076 A 
ATOM      2  C3  UNL d   1       0.092  -1.039   1.511  0.00  0.00     0.004 A 
ATOM      3  C4  UNL d   1      -1.237  -0.710   1.253  0.00  0.00    -0.003 A 
ATOM      4  C5  UNL d   1      -1.577   0.598   0.927  0.00  0.00     0.000 A 
ATOM      5  C6  UNL d   1      -0.585   1.574   0.842  0.00  0.00     0.000 A 
ATOM      6  C7  UNL d   1       0.763   1.256   1.083  0.00  0.00    -0.073 A 
ATOM      7  C8  UNL d   1       1.792   2.349   0.983  0.00  0.00     0.078 C 
ENDROOT
BRANCH   1   8
ATOM      8  C1  UNL d   1       2.525  -0.474   1.763  0.00  0.00     0.053 C 
ATOM      9  C   UNL d   1       2.845  -0.371   3.246  0.00  0.00     0.018 C 
ENDBRANCH   1   8
TORSDOF 1
ENDMDL
