MODEL 1
REMARK minimizedAffinity 6.51344061
REMARK minimizedRMSD -1
REMARK  1 active torsions:
REMARK  status: ('A' for Active; 'I' for Inactive)
REMARK    1  A    between atoms: C1_2  and  C2_3 
ROOT
ATOM      1  C2  UNL d   1      -0.534   1.412   1.467  0.00  0.00    -0.076 A 
ATOM      2  C3  UNL d   1      -1.030   0.194   1.966  0.00  0.00     0.004 A 
ATOM      3  C4  UNL d   1      -0.201  -0.919   2.094  0.00  0.00    -0.003 A 
ATOM      4  C5  UNL d   1       1.137  -0.833   1.726  0.00  0.00     0.000 A 
ATOM      5  C6  UNL d   1       1.650   0.372   1.246  0.00  0.00     0.000 A 
ATOM      6  C7  UNL d   1       0.832   1.508   1.126  0.00  0.00    -0.073 A 
ATOM      7  C8  UNL d   1       1.436   2.780   0.597  0.00  0.00     0.078 C 
ENDROOT
BRANCH   1   8
ATOM      8  C1  UNL d   1      -1.487   2.577   1.326  0.00  0.00     0.053 C 
ATOM      9  C   UNL d   1      -2.621   2.529   2.337  0.00  0.00     0.018 C 
ENDBRANCH   1   8
TORSDOF 1
ENDMDL
