MODEL 1
REMARK minimizedAffinity 5.54179335
REMARK minimizedRMSD -1
REMARK  1 active torsions:
REMARK  status: ('A' for Active; 'I' for Inactive)
REMARK    1  A    between atoms: C1_2  and  C2_3 
ROOT
ATOM      1  C2  UNL d   1      -1.097   1.482   1.728  0.00  0.00    -0.076 A 
ATOM      2  C3  UNL d   1       0.172   1.990   1.402  0.00  0.00     0.004 A 
ATOM      3  C4  UNL d   1       1.292   1.161   1.378  0.00  0.00    -0.003 A 
ATOM      4  C5  UNL d   1       1.161  -0.190   1.681  0.00  0.00     0.000 A 
ATOM      5  C6  UNL d   1      -0.094  -0.714   1.990  0.00  0.00     0.000 A 
ATOM      6  C7  UNL d   1      -1.236   0.105   2.002  0.00  0.00    -0.073 A 
ATOM      7  C8  UNL d   1      -2.563  -0.512   2.348  0.00  0.00     0.078 C 
ENDROOT
BRANCH   1   8
ATOM      8  C1  UNL d   1      -2.271   2.435   1.764  0.00  0.00     0.053 C 
ATOM      9  C   UNL d   1      -3.120   2.267   3.014  0.00  0.00     0.018 C 
ENDBRANCH   1   8
TORSDOF 1
ENDMDL
