MODEL 1
REMARK minimizedAffinity 8.16584873
REMARK minimizedRMSD -1
REMARK  1 active torsions:
REMARK  status: ('A' for Active; 'I' for Inactive)
REMARK    1  A    between atoms: C1_2  and  C2_3 
ROOT
ATOM      1  C2  UNL d   1      -0.771  -0.117   2.456  0.00  0.00    -0.076 A 
ATOM      2  C3  UNL d   1      -1.650   0.902   2.051  0.00  0.00     0.004 A 
ATOM      3  C4  UNL d   1      -1.169   2.087   1.498  0.00  0.00    -0.003 A 
ATOM      4  C5  UNL d   1       0.200   2.273   1.341  0.00  0.00     0.000 A 
ATOM      5  C6  UNL d   1       1.086   1.266   1.721  0.00  0.00     0.000 A 
ATOM      6  C7  UNL d   1       0.616   0.058   2.265  0.00  0.00    -0.073 A 
ATOM      7  C8  UNL d   1       1.617  -0.992   2.663  0.00  0.00     0.078 C 
ENDROOT
BRANCH   1   8
ATOM      8  C1  UNL d   1      -1.350  -1.370   3.074  0.00  0.00     0.053 C 
ATOM      9  C   UNL d   1      -2.870  -1.365   3.086  0.00  0.00     0.018 C 
ENDBRANCH   1   8
TORSDOF 1
ENDMDL
