MODEL 1
REMARK minimizedAffinity 1.99341476
REMARK minimizedRMSD -1
REMARK  1 active torsions:
REMARK  status: ('A' for Active; 'I' for Inactive)
REMARK    1  A    between atoms: C1_2  and  C2_3 
ROOT
ATOM      1  C2  UNL d   1      -2.267   2.265   2.779  0.00  0.00    -0.076 A 
ATOM      2  C3  UNL d   1      -1.308   1.532   3.498  0.00  0.00     0.004 A 
ATOM      3  C4  UNL d   1       0.040   1.571   3.143  0.00  0.00    -0.003 A 
ATOM      4  C5  UNL d   1       0.450   2.344   2.063  0.00  0.00     0.000 A 
ATOM      5  C6  UNL d   1      -0.486   3.092   1.349  0.00  0.00     0.000 A 
ATOM      6  C7  UNL d   1      -1.846   3.077   1.704  0.00  0.00    -0.073 A 
ATOM      7  C8  UNL d   1      -2.812   3.898   0.895  0.00  0.00     0.078 C 
ENDROOT
BRANCH   1   8
ATOM      8  C1  UNL d   1      -3.718   2.163   3.193  0.00  0.00     0.053 C 
ATOM      9  C   UNL d   1      -3.881   1.885   4.680  0.00  0.00     0.018 C 
ENDBRANCH   1   8
TORSDOF 1
ENDMDL
