MODEL 1
REMARK minimizedAffinity -4.52767992
REMARK minimizedRMSD -1
REMARK  1 active torsions:
REMARK  status: ('A' for Active; 'I' for Inactive)
REMARK    1  A    between atoms: C1_2  and  C2_3 
ROOT
ATOM      1  C2  UNL d   1       1.114   1.236   1.077  0.00  0.00    -0.081 A 
ATOM      2  C3  UNL d   1       0.645  -0.041   0.744  0.00  0.00     0.006 A 
ATOM      3  C4  UNL d   1       0.848  -0.558  -0.538  0.00  0.00     0.002 A 
ATOM      4  C5  UNL d   1       1.530   0.188  -1.505  0.00  0.00    -0.080 A 
ATOM      5  C6  UNL d   1       1.781  -0.368  -2.875  0.00  0.00     0.076 C 
ATOM      6  C7  UNL d   1       1.983   1.471  -1.178  0.00  0.00     0.002 A 
ATOM      7  C8  UNL d   1       1.779   1.989   0.103  0.00  0.00     0.006 A 
ENDROOT
BRANCH   1   8
ATOM      8  C1  UNL d   1       0.953   1.771   2.477  0.00  0.00     0.054 C 
ATOM      9  C   UNL d   1       1.824   2.998   2.703  0.00  0.00     0.018 C 
ENDBRANCH   1   8
TORSDOF 1
ENDMDL
