MODEL 1
REMARK minimizedAffinity -2.69086766
REMARK minimizedRMSD -1
REMARK  1 active torsions:
REMARK  status: ('A' for Active; 'I' for Inactive)
REMARK    1  A    between atoms: C1_2  and  C2_3 
ROOT
ATOM      1  C2  UNL d   1      -0.772  -0.451   0.538  0.00  0.00    -0.081 A 
ATOM      2  C3  UNL d   1      -0.439   0.884   0.277  0.00  0.00     0.006 A 
ATOM      3  C4  UNL d   1       0.628   1.195  -0.569  0.00  0.00     0.002 A 
ATOM      4  C5  UNL d   1       1.375   0.178  -1.173  0.00  0.00    -0.080 A 
ATOM      5  C6  UNL d   1       2.504   0.499  -2.107  0.00  0.00     0.076 C 
ATOM      6  C7  UNL d   1       1.054  -1.156  -0.898  0.00  0.00     0.002 A 
ATOM      7  C8  UNL d   1      -0.013  -1.467  -0.053  0.00  0.00     0.006 A 
ENDROOT
BRANCH   1   8
ATOM      8  C1  UNL d   1      -1.963  -0.790   1.398  0.00  0.00     0.054 C 
ATOM      9  C   UNL d   1      -3.204  -0.032   0.947  0.00  0.00     0.018 C 
ENDBRANCH   1   8
TORSDOF 1
ENDMDL
