MODEL 1
REMARK minimizedAffinity -4.61993599
REMARK minimizedRMSD -1
REMARK  1 active torsions:
REMARK  status: ('A' for Active; 'I' for Inactive)
REMARK    1  A    between atoms: C1_2  and  C2_3 
ROOT
ATOM      1  C2  UNL d   1       0.705   0.496   0.683  0.00  0.00    -0.081 A 
ATOM      2  C3  UNL d   1       0.437  -0.782   0.178  0.00  0.00     0.006 A 
ATOM      3  C4  UNL d   1       0.859  -1.140  -1.104  0.00  0.00     0.002 A 
ATOM      4  C5  UNL d   1       1.563  -0.230  -1.900  0.00  0.00    -0.080 A 
ATOM      5  C6  UNL d   1       2.048  -0.612  -3.266  0.00  0.00     0.076 C 
ATOM      6  C7  UNL d   1       1.815   1.053  -1.403  0.00  0.00     0.002 A 
ATOM      7  C8  UNL d   1       1.393   1.412  -0.121  0.00  0.00     0.006 A 
ENDROOT
BRANCH   1   8
ATOM      8  C1  UNL d   1       0.307   0.864   2.089  0.00  0.00     0.054 C 
ATOM      9  C   UNL d   1       1.517   1.271   2.918  0.00  0.00     0.018 C 
ENDBRANCH   1   8
TORSDOF 1
ENDMDL
