MODEL 1
REMARK minimizedAffinity 0.290737092
REMARK minimizedRMSD -1
REMARK  1 active torsions:
REMARK  status: ('A' for Active; 'I' for Inactive)
REMARK    1  A    between atoms: C1_2  and  C2_3 
ROOT
ATOM      1  C2  UNL d   1      -1.930   0.290   1.405  0.00  0.00    -0.081 A 
ATOM      2  C3  UNL d   1      -1.765   1.006   0.213  0.00  0.00     0.006 A 
ATOM      3  C4  UNL d   1      -0.774   0.640  -0.701  0.00  0.00     0.002 A 
ATOM      4  C5  UNL d   1       0.062  -0.452  -0.443  0.00  0.00    -0.080 A 
ATOM      5  C6  UNL d   1       1.110  -0.874  -1.430  0.00  0.00     0.076 C 
ATOM      6  C7  UNL d   1      -0.092  -1.156   0.756  0.00  0.00     0.002 A 
ATOM      7  C8  UNL d   1      -1.082  -0.790   1.670  0.00  0.00     0.006 A 
ENDROOT
BRANCH   1   8
ATOM      8  C1  UNL d   1      -3.040   0.642   2.362  0.00  0.00     0.054 C 
ATOM      9  C   UNL d   1      -3.848   1.830   1.860  0.00  0.00     0.018 C 
ENDBRANCH   1   8
TORSDOF 1
ENDMDL
