MODEL 1
REMARK minimizedAffinity 2.72756648
REMARK minimizedRMSD -1
REMARK  1 active torsions:
REMARK  status: ('A' for Active; 'I' for Inactive)
REMARK    1  A    between atoms: C1_2  and  C2_3 
ROOT
ATOM      1  C2  UNL d   1      -2.730   0.578   1.364  0.00  0.00    -0.081 A 
ATOM      2  C3  UNL d   1      -1.397   0.907   1.641  0.00  0.00     0.006 A 
ATOM      3  C4  UNL d   1      -0.358   0.327   0.910  0.00  0.00     0.002 A 
ATOM      4  C5  UNL d   1      -0.633  -0.584  -0.115  0.00  0.00    -0.080 A 
ATOM      5  C6  UNL d   1       0.472  -1.191  -0.928  0.00  0.00     0.076 C 
ATOM      6  C7  UNL d   1      -1.964  -0.926  -0.381  0.00  0.00     0.002 A 
ATOM      7  C8  UNL d   1      -3.003  -0.347   0.350  0.00  0.00     0.006 A 
ENDROOT
BRANCH   1   8
ATOM      8  C1  UNL d   1      -3.855   1.251   2.107  0.00  0.00     0.054 C 
ATOM      9  C   UNL d   1      -3.326   2.178   3.192  0.00  0.00     0.018 C 
ENDBRANCH   1   8
TORSDOF 1
ENDMDL
