MODEL 1
REMARK minimizedAffinity -1.19044995
REMARK minimizedRMSD -1
REMARK  1 active torsions:
REMARK  status: ('A' for Active; 'I' for Inactive)
REMARK    1  A    between atoms: C1_2  and  C2_3 
ROOT
ATOM      1  C2  UNL d   1      -0.589  -0.199   0.621  0.00  0.00    -0.081 A 
ATOM      2  C3  UNL d   1       0.142   0.950   0.297  0.00  0.00     0.006 A 
ATOM      3  C4  UNL d   1       0.872   1.013  -0.893  0.00  0.00     0.002 A 
ATOM      4  C5  UNL d   1       0.877  -0.068  -1.781  0.00  0.00    -0.080 A 
ATOM      5  C6  UNL d   1       1.632  -0.002  -3.075  0.00  0.00     0.076 C 
ATOM      6  C7  UNL d   1       0.161  -1.223  -1.449  0.00  0.00     0.002 A 
ATOM      7  C8  UNL d   1      -0.569  -1.286  -0.260  0.00  0.00     0.006 A 
ENDROOT
BRANCH   1   8
ATOM      8  C1  UNL d   1      -1.430  -0.245   1.871  0.00  0.00     0.054 C 
ATOM      9  C   UNL d   1      -2.895   0.028   1.563  0.00  0.00     0.018 C 
ENDBRANCH   1   8
TORSDOF 1
ENDMDL
