MODEL 1
REMARK minimizedAffinity -1.44354904
REMARK minimizedRMSD -1
REMARK  1 active torsions:
REMARK  status: ('A' for Active; 'I' for Inactive)
REMARK    1  A    between atoms: C1_2  and  C2_3 
ROOT
ATOM      1  C2  UNL d   1      -0.513   0.835   1.356  0.00  0.00    -0.081 A 
ATOM      2  C3  UNL d   1      -0.556   0.758   2.753  0.00  0.00     0.006 A 
ATOM      3  C4  UNL d   1       0.322   1.516   3.532  0.00  0.00     0.002 A 
ATOM      4  C5  UNL d   1       1.252   2.368   2.927  0.00  0.00    -0.080 A 
ATOM      5  C6  UNL d   1       2.180   3.210   3.752  0.00  0.00     0.076 C 
ATOM      6  C7  UNL d   1       1.307   2.432   1.531  0.00  0.00     0.002 A 
ATOM      7  C8  UNL d   1       0.430   1.675   0.752  0.00  0.00     0.006 A 
ENDROOT
BRANCH   1   8
ATOM      8  C1  UNL d   1      -1.501   0.069   0.515  0.00  0.00     0.054 C 
ATOM      9  C   UNL d   1      -2.927   0.284   1.002  0.00  0.00     0.018 C 
ENDBRANCH   1   8
TORSDOF 1
ENDMDL
