MODEL 1
REMARK minimizedAffinity -2.78848457
REMARK minimizedRMSD -1
REMARK  1 active torsions:
REMARK  status: ('A' for Active; 'I' for Inactive)
REMARK    1  A    between atoms: C1_2  and  C2_3 
ROOT
ATOM      1  C2  UNL d   1       0.591   0.515   0.776  0.00  0.00    -0.081 A 
ATOM      2  C3  UNL d   1       0.130  -0.621   0.100  0.00  0.00     0.006 A 
ATOM      3  C4  UNL d   1       0.510  -0.862  -1.222  0.00  0.00     0.002 A 
ATOM      4  C5  UNL d   1       1.362   0.025  -1.888  0.00  0.00    -0.080 A 
ATOM      5  C6  UNL d   1       1.802  -0.238  -3.298  0.00  0.00     0.076 C 
ATOM      6  C7  UNL d   1       1.809   1.169  -1.220  0.00  0.00     0.002 A 
ATOM      7  C8  UNL d   1       1.429   1.411   0.102  0.00  0.00     0.006 A 
ENDROOT
BRANCH   1   8
ATOM      8  C1  UNL d   1       0.236   0.744   2.223  0.00  0.00     0.054 C 
ATOM      9  C   UNL d   1       1.443   1.216   3.021  0.00  0.00     0.018 C 
ENDBRANCH   1   8
TORSDOF 1
ENDMDL
