MODEL 1
REMARK minimizedAffinity -3.52902055
REMARK minimizedRMSD -1
REMARK  1 active torsions:
REMARK  status: ('A' for Active; 'I' for Inactive)
REMARK    1  A    between atoms: C1_2  and  C2_3 
ROOT
ATOM      1  C2  UNL d   1       0.991   1.119   1.135  0.00  0.00    -0.081 A 
ATOM      2  C3  UNL d   1      -0.019   0.242   0.721  0.00  0.00     0.006 A 
ATOM      3  C4  UNL d   1      -0.014  -0.282  -0.574  0.00  0.00     0.002 A 
ATOM      4  C5  UNL d   1       1.004   0.055  -1.473  0.00  0.00    -0.080 A 
ATOM      5  C6  UNL d   1       1.038  -0.524  -2.856  0.00  0.00     0.076 C 
ATOM      6  C7  UNL d   1       2.004   0.945  -1.064  0.00  0.00     0.002 A 
ATOM      7  C8  UNL d   1       1.999   1.470   0.230  0.00  0.00     0.006 A 
ENDROOT
BRANCH   1   8
ATOM      8  C1  UNL d   1       1.025   1.635   2.551  0.00  0.00     0.054 C 
ATOM      9  C   UNL d   1       2.439   1.615   3.114  0.00  0.00     0.018 C 
ENDBRANCH   1   8
TORSDOF 1
ENDMDL
