MODEL 1
REMARK minimizedAffinity -4.25664806
REMARK minimizedRMSD -1
REMARK  1 active torsions:
REMARK  status: ('A' for Active; 'I' for Inactive)
REMARK    1  A    between atoms: C1_2  and  C2_3 
ROOT
ATOM      1  C2  UNL d   1       0.591   0.165   1.164  0.00  0.00    -0.081 A 
ATOM      2  C3  UNL d   1       0.126  -1.035   0.613  0.00  0.00     0.006 A 
ATOM      3  C4  UNL d   1       0.203  -1.260  -0.764  0.00  0.00     0.002 A 
ATOM      4  C5  UNL d   1       0.753  -0.292  -1.611  0.00  0.00    -0.080 A 
ATOM      5  C6  UNL d   1       0.869  -0.532  -3.087  0.00  0.00     0.076 C 
ATOM      6  C7  UNL d   1       1.202   0.915  -1.063  0.00  0.00     0.002 A 
ATOM      7  C8  UNL d   1       1.124   1.140   0.313  0.00  0.00     0.006 A 
ENDROOT
BRANCH   1   8
ATOM      8  C1  UNL d   1       0.569   0.383   2.655  0.00  0.00     0.054 C 
ATOM      9  C   UNL d   1       1.696   1.306   3.096  0.00  0.00     0.018 C 
ENDBRANCH   1   8
TORSDOF 1
ENDMDL
