MODEL 1
REMARK minimizedAffinity -1.52143121
REMARK minimizedRMSD -1
REMARK  1 active torsions:
REMARK  status: ('A' for Active; 'I' for Inactive)
REMARK    1  A    between atoms: C1_2  and  C2_3 
ROOT
ATOM      1  C2  UNL d   1       0.602   0.772   1.785  0.00  0.00    -0.081 A 
ATOM      2  C3  UNL d   1       0.000  -0.482   1.626  0.00  0.00     0.006 A 
ATOM      3  C4  UNL d   1      -0.152  -1.039   0.354  0.00  0.00     0.002 A 
ATOM      4  C5  UNL d   1       0.302  -0.355  -0.779  0.00  0.00    -0.080 A 
ATOM      5  C6  UNL d   1       0.172  -0.955  -2.148  0.00  0.00     0.076 C 
ATOM      6  C7  UNL d   1       0.887   0.906  -0.622  0.00  0.00     0.002 A 
ATOM      7  C8  UNL d   1       1.039   1.463   0.649  0.00  0.00     0.006 A 
ENDROOT
BRANCH   1   8
ATOM      8  C1  UNL d   1       0.826   1.346   3.160  0.00  0.00     0.054 C 
ATOM      9  C   UNL d   1       2.048   2.254   3.189  0.00  0.00     0.018 C 
ENDBRANCH   1   8
TORSDOF 1
ENDMDL
