MODEL 1
REMARK minimizedAffinity -1.27214718
REMARK minimizedRMSD -1
REMARK  1 active torsions:
REMARK  status: ('A' for Active; 'I' for Inactive)
REMARK    1  A    between atoms: C1_2  and  C2_3 
ROOT
ATOM      1  C2  UNL d   1      -4.019   3.397  -5.863  0.00  0.00    -0.081 A 
ATOM      2  C3  UNL d   1      -5.412   3.257  -5.875  0.00  0.00     0.006 A 
ATOM      3  C4  UNL d   1      -5.995   1.989  -5.931  0.00  0.00     0.002 A 
ATOM      4  C5  UNL d   1      -5.197   0.841  -5.967  0.00  0.00    -0.080 A 
ATOM      5  C6  UNL d   1      -5.810  -0.527  -5.997  0.00  0.00     0.076 C 
ATOM      6  C7  UNL d   1      -3.805   0.982  -5.972  0.00  0.00     0.002 A 
ATOM      7  C8  UNL d   1      -3.221   2.250  -5.917  0.00  0.00     0.006 A 
ENDROOT
BRANCH   1   8
ATOM      8  C1  UNL d   1      -3.387   4.760  -5.737  0.00  0.00     0.054 C 
ATOM      9  C   UNL d   1      -4.422   5.866  -5.889  0.00  0.00     0.018 C 
ENDBRANCH   1   8
TORSDOF 1
ENDMDL
