MODEL 1
REMARK minimizedAffinity 10.0210371
REMARK minimizedRMSD -1
REMARK  1 active torsions:
REMARK  status: ('A' for Active; 'I' for Inactive)
REMARK    1  A    between atoms: C1_2  and  C2_3 
ROOT
ATOM      1  C2  UNL d   1      -3.555   3.912  -5.746  0.00  0.00    -0.081 A 
ATOM      2  C3  UNL d   1      -2.983   2.714  -5.301  0.00  0.00     0.006 A 
ATOM      3  C4  UNL d   1      -3.774   1.575  -5.124  0.00  0.00     0.002 A 
ATOM      4  C5  UNL d   1      -5.145   1.614  -5.396  0.00  0.00    -0.080 A 
ATOM      5  C6  UNL d   1      -5.999   0.391  -5.238  0.00  0.00     0.076 C 
ATOM      6  C7  UNL d   1      -5.719   2.816  -5.823  0.00  0.00     0.002 A 
ATOM      7  C8  UNL d   1      -4.930   3.955  -6.000  0.00  0.00     0.006 A 
ENDROOT
BRANCH   1   8
ATOM      8  C1  UNL d   1      -2.694   5.123  -6.000  0.00  0.00     0.054 C 
ATOM      9  C   UNL d   1      -1.215   4.767  -5.975  0.00  0.00     0.018 C 
ENDBRANCH   1   8
TORSDOF 1
ENDMDL
