MODEL 1
REMARK minimizedAffinity -5.84822035
REMARK minimizedRMSD -1
REMARK  1 active torsions:
REMARK  status: ('A' for Active; 'I' for Inactive)
REMARK    1  A    between atoms: N_2  and  C1_3 
ROOT
ATOM      1  C1  UNL d   1      -1.597   1.124   2.366  0.00  0.00     0.143 A 
ATOM      2  C2  UNL d   1      -0.367   1.558   1.859  0.00  0.00    -0.057 A 
ATOM      3  C3  UNL d   1       0.375   0.765   0.976  0.00  0.00     0.033 A 
ATOM      4  C4  UNL d   1      -0.088  -0.493   0.605  0.00  0.00    -0.042 A 
ATOM      5  C5  UNL d   1      -1.295  -0.956   1.115  0.00  0.00     0.033 A 
ATOM      6  C6  UNL d   1      -2.035  -0.156   1.992  0.00  0.00    -0.057 A 
ENDROOT
BRANCH   1   7
ATOM      7  N   UNL d   1      -2.335   1.824   3.324  0.00  0.00    -0.732 N 
ATOM      8  C   UNL d   1      -3.758   1.603   3.464  0.00  0.00     0.284 C 
ATOM      9  H3  UNL d   1      -1.839   1.911   4.208  0.00  0.00     0.395 HD
ENDBRANCH   1   7
TORSDOF 1
ENDMDL
