MODEL 1
REMARK minimizedAffinity -1.63053918
REMARK minimizedRMSD -1
REMARK  1 active torsions:
REMARK  status: ('A' for Active; 'I' for Inactive)
REMARK    1  A    between atoms: N_2  and  C1_3 
ROOT
ATOM      1  C1  UNL d   1      -0.586   0.392   2.088  0.00  0.00     0.143 A 
ATOM      2  C2  UNL d   1      -1.276  -0.743   2.526  0.00  0.00    -0.057 A 
ATOM      3  C3  UNL d   1      -2.617  -0.671   2.920  0.00  0.00     0.033 A 
ATOM      4  C4  UNL d   1      -3.286   0.548   2.910  0.00  0.00    -0.042 A 
ATOM      5  C5  UNL d   1      -2.613   1.695   2.502  0.00  0.00     0.033 A 
ATOM      6  C6  UNL d   1      -1.275   1.615   2.104  0.00  0.00    -0.057 A 
ENDROOT
BRANCH   1   7
ATOM      7  N   UNL d   1       0.776   0.403   1.777  0.00  0.00    -0.732 N 
ATOM      8  C   UNL d   1       1.268   1.159   0.645  0.00  0.00     0.284 C 
ATOM      9  H3  UNL d   1       1.363   0.467   2.606  0.00  0.00     0.395 HD
ENDBRANCH   1   7
TORSDOF 1
ENDMDL
