MODEL 1
REMARK minimizedAffinity -1.9303478
REMARK minimizedRMSD -1
REMARK  1 active torsions:
REMARK  status: ('A' for Active; 'I' for Inactive)
REMARK    1  A    between atoms: N_2  and  C1_3 
ROOT
ATOM      1  C1  UNL d   1      -1.643   1.656   2.035  0.00  0.00     0.143 A 
ATOM      2  C2  UNL d   1      -0.486   2.181   1.449  0.00  0.00    -0.057 A 
ATOM      3  C3  UNL d   1       0.523   1.344   0.957  0.00  0.00     0.033 A 
ATOM      4  C4  UNL d   1       0.406  -0.037   1.071  0.00  0.00    -0.042 A 
ATOM      5  C5  UNL d   1      -0.724  -0.581   1.673  0.00  0.00     0.033 A 
ATOM      6  C6  UNL d   1      -1.731   0.261   2.155  0.00  0.00    -0.057 A 
ENDROOT
BRANCH   1   7
ATOM      7  N   UNL d   1      -2.636   2.437   2.631  0.00  0.00    -0.732 N 
ATOM      8  C   UNL d   1      -3.606   1.841   3.523  0.00  0.00     0.284 C 
ATOM      9  H3  UNL d   1      -2.285   3.341   2.941  0.00  0.00     0.395 HD
ENDBRANCH   1   7
TORSDOF 1
ENDMDL
