MODEL 1
REMARK minimizedAffinity -4.04041147
REMARK minimizedRMSD -1
REMARK  1 active torsions:
REMARK  status: ('A' for Active; 'I' for Inactive)
REMARK    1  A    between atoms: N_2  and  C1_3 
ROOT
ATOM      1  C1  UNL d   1      -1.466   1.651   2.036  0.00  0.00     0.143 A 
ATOM      2  C2  UNL d   1      -0.427   2.152   1.244  0.00  0.00    -0.057 A 
ATOM      3  C3  UNL d   1       0.513   1.298   0.655  0.00  0.00     0.033 A 
ATOM      4  C4  UNL d   1       0.449  -0.074   0.874  0.00  0.00    -0.042 A 
ATOM      5  C5  UNL d   1      -0.560  -0.591   1.678  0.00  0.00     0.033 A 
ATOM      6  C6  UNL d   1      -1.501   0.266   2.258  0.00  0.00    -0.057 A 
ENDROOT
BRANCH   1   7
ATOM      7  N   UNL d   1      -2.374   2.456   2.729  0.00  0.00    -0.732 N 
ATOM      8  C   UNL d   1      -3.293   1.877   3.685  0.00  0.00     0.284 C 
ATOM      9  H3  UNL d   1      -1.961   3.337   3.029  0.00  0.00     0.395 HD
ENDBRANCH   1   7
TORSDOF 1
ENDMDL
