MODEL 1
REMARK minimizedAffinity -4.45390987
REMARK minimizedRMSD -1
REMARK  1 active torsions:
REMARK  status: ('A' for Active; 'I' for Inactive)
REMARK    1  A    between atoms: N_2  and  C1_3 
ROOT
ATOM      1  C1  UNL d   1      -1.978   1.563   2.772  0.00  0.00     0.143 A 
ATOM      2  C2  UNL d   1      -1.027   0.691   2.231  0.00  0.00    -0.057 A 
ATOM      3  C3  UNL d   1      -0.041   1.149   1.348  0.00  0.00     0.033 A 
ATOM      4  C4  UNL d   1      -0.007   2.486   0.967  0.00  0.00    -0.042 A 
ATOM      5  C5  UNL d   1      -0.958   3.366   1.472  0.00  0.00     0.033 A 
ATOM      6  C6  UNL d   1      -1.936   2.904   2.359  0.00  0.00    -0.057 A 
ENDROOT
BRANCH   1   7
ATOM      7  N   UNL d   1      -3.043   1.151   3.577  0.00  0.00    -0.732 N 
ATOM      8  C   UNL d   1      -3.807   2.114   4.339  0.00  0.00     0.284 C 
ATOM      9  H3  UNL d   1      -3.607   0.428   3.134  0.00  0.00     0.395 HD
ENDBRANCH   1   7
TORSDOF 1
ENDMDL
