MODEL 1
REMARK minimizedAffinity -4.56834507
REMARK minimizedRMSD -1
REMARK  1 active torsions:
REMARK  status: ('A' for Active; 'I' for Inactive)
REMARK    1  A    between atoms: N_2  and  C1_3 
ROOT
ATOM      1  C1  UNL d   1      -0.262   0.874   1.076  0.00  0.00     0.143 A 
ATOM      2  C2  UNL d   1      -0.863   2.053   1.529  0.00  0.00    -0.057 A 
ATOM      3  C3  UNL d   1      -2.088   2.029   2.208  0.00  0.00     0.033 A 
ATOM      4  C4  UNL d   1      -2.749   0.824   2.420  0.00  0.00    -0.042 A 
ATOM      5  C5  UNL d   1      -2.182  -0.358   1.956  0.00  0.00     0.033 A 
ATOM      6  C6  UNL d   1      -0.956  -0.328   1.285  0.00  0.00    -0.057 A 
ENDROOT
BRANCH   1   7
ATOM      7  N   UNL d   1       0.905   0.841   0.309  0.00  0.00    -0.732 N 
ATOM      8  C   UNL d   1       1.714  -0.357   0.249  0.00  0.00     0.284 C 
ATOM      9  H3  UNL d   1       0.796   1.314  -0.585  0.00  0.00     0.395 HD
ENDBRANCH   1   7
TORSDOF 1
ENDMDL
