MODEL 1
REMARK minimizedAffinity -1.26849723
REMARK minimizedRMSD -1
REMARK  1 active torsions:
REMARK  status: ('A' for Active; 'I' for Inactive)
REMARK    1  A    between atoms: N_2  and  C1_3 
ROOT
ATOM      1  C1  UNL d   1      -1.969   1.834   2.799  0.00  0.00     0.143 A 
ATOM      2  C2  UNL d   1      -0.972   2.501   2.078  0.00  0.00    -0.057 A 
ATOM      3  C3  UNL d   1      -0.115   1.810   1.214  0.00  0.00     0.033 A 
ATOM      4  C4  UNL d   1      -0.221   0.430   1.077  0.00  0.00    -0.042 A 
ATOM      5  C5  UNL d   1      -1.188  -0.258   1.802  0.00  0.00     0.033 A 
ATOM      6  C6  UNL d   1      -2.045   0.440   2.658  0.00  0.00    -0.057 A 
ENDROOT
BRANCH   1   7
ATOM      7  N   UNL d   1      -2.787   2.451   3.748  0.00  0.00    -0.732 N 
ATOM      8  C   UNL d   1      -3.983   1.793   4.229  0.00  0.00     0.284 C 
ATOM      9  H3  UNL d   1      -2.253   2.925   4.473  0.00  0.00     0.395 HD
ENDBRANCH   1   7
TORSDOF 1
ENDMDL
