MODEL 1
REMARK minimizedAffinity -3.22227645
REMARK minimizedRMSD -1
REMARK  1 active torsions:
REMARK  status: ('A' for Active; 'I' for Inactive)
REMARK    1  A    between atoms: N_2  and  C1_3 
ROOT
ATOM      1  C1  UNL d   1      -1.247   0.560   1.660  0.00  0.00     0.143 A 
ATOM      2  C2  UNL d   1      -0.393  -0.124   0.787  0.00  0.00    -0.057 A 
ATOM      3  C3  UNL d   1       0.881   0.371   0.482  0.00  0.00     0.033 A 
ATOM      4  C4  UNL d   1       1.313   1.577   1.024  0.00  0.00    -0.042 A 
ATOM      5  C5  UNL d   1       0.471   2.286   1.873  0.00  0.00     0.033 A 
ATOM      6  C6  UNL d   1      -0.797   1.783   2.179  0.00  0.00    -0.057 A 
ENDROOT
BRANCH   1   7
ATOM      7  N   UNL d   1      -2.562   0.170   1.925  0.00  0.00    -0.732 N 
ATOM      8  C   UNL d   1      -2.960  -0.221   3.260  0.00  0.00     0.284 C 
ATOM      9  H3  UNL d   1      -3.244   0.749   1.441  0.00  0.00     0.395 HD
ENDBRANCH   1   7
TORSDOF 1
ENDMDL
