MODEL 1
REMARK minimizedAffinity -2.35572815
REMARK minimizedRMSD -1
REMARK  1 active torsions:
REMARK  status: ('A' for Active; 'I' for Inactive)
REMARK    1  A    between atoms: N_2  and  C1_3 
ROOT
ATOM      1  C1  UNL d   1      -0.058  -3.714  -3.463  0.00  0.00     0.143 A 
ATOM      2  C2  UNL d   1      -1.104  -2.868  -3.846  0.00  0.00    -0.057 A 
ATOM      3  C3  UNL d   1      -2.157  -2.573  -2.971  0.00  0.00     0.033 A 
ATOM      4  C4  UNL d   1      -2.196  -3.143  -1.703  0.00  0.00    -0.042 A 
ATOM      5  C5  UNL d   1      -1.179  -4.006  -1.310  0.00  0.00     0.033 A 
ATOM      6  C6  UNL d   1      -0.128  -4.292  -2.186  0.00  0.00    -0.057 A 
ENDROOT
BRANCH   1   7
ATOM      7  N   UNL d   1       0.965  -4.124  -4.321  0.00  0.00    -0.732 N 
ATOM      8  C   UNL d   1       2.268  -4.477  -3.800  0.00  0.00     0.284 C 
ATOM      9  H3  UNL d   1       0.630  -4.742  -5.057  0.00  0.00     0.395 HD
ENDBRANCH   1   7
TORSDOF 1
ENDMDL
