MODEL 1
REMARK minimizedAffinity -0.675988376
REMARK minimizedRMSD -1
REMARK  1 active torsions:
REMARK  status: ('A' for Active; 'I' for Inactive)
REMARK    1  A    between atoms: N_2  and  C1_3 
ROOT
ATOM      1  C1  UNL d   1      -2.114   2.138   2.580  0.00  0.00     0.143 A 
ATOM      2  C2  UNL d   1      -1.575   0.847   2.542  0.00  0.00    -0.057 A 
ATOM      3  C3  UNL d   1      -0.570   0.507   1.629  0.00  0.00     0.033 A 
ATOM      4  C4  UNL d   1      -0.105   1.446   0.715  0.00  0.00    -0.042 A 
ATOM      5  C5  UNL d   1      -0.643   2.728   0.719  0.00  0.00     0.033 A 
ATOM      6  C6  UNL d   1      -1.642   3.064   1.637  0.00  0.00    -0.057 A 
ENDROOT
BRANCH   1   7
ATOM      7  N   UNL d   1      -3.184   2.510   3.398  0.00  0.00    -0.732 N 
ATOM      8  C   UNL d   1      -3.881   1.523   4.195  0.00  0.00     0.284 C 
ATOM      9  H3  UNL d   1      -3.016   3.390   3.880  0.00  0.00     0.395 HD
ENDBRANCH   1   7
TORSDOF 1
ENDMDL
