MODEL 1
REMARK minimizedAffinity 3.29730964
REMARK minimizedRMSD -1
REMARK  1 active torsions:
REMARK  status: ('A' for Active; 'I' for Inactive)
REMARK    1  A    between atoms: N_2  and  C1_3 
ROOT
ATOM      1  C1  UNL d   1       0.849  -1.773   2.160  0.00  0.00     0.143 A 
ATOM      2  C2  UNL d   1       1.149  -0.522   2.711  0.00  0.00    -0.057 A 
ATOM      3  C3  UNL d   1       0.152   0.275   3.287  0.00  0.00     0.033 A 
ATOM      4  C4  UNL d   1      -1.171  -0.153   3.297  0.00  0.00    -0.042 A 
ATOM      5  C5  UNL d   1      -1.496  -1.382   2.733  0.00  0.00     0.033 A 
ATOM      6  C6  UNL d   1      -0.495  -2.176   2.165  0.00  0.00    -0.057 A 
ENDROOT
BRANCH   1   7
ATOM      7  N   UNL d   1       1.778  -2.568   1.485  0.00  0.00    -0.732 N 
ATOM      8  C   UNL d   1       2.284  -2.172   0.189  0.00  0.00     0.284 C 
ATOM      9  H3  UNL d   1       2.485  -2.953   2.108  0.00  0.00     0.395 HD
ENDBRANCH   1   7
TORSDOF 1
ENDMDL
