MODEL 1
REMARK minimizedAffinity 5.25736094
REMARK minimizedRMSD -1
REMARK  1 active torsions:
REMARK  status: ('A' for Active; 'I' for Inactive)
REMARK    1  A    between atoms: N_2  and  C1_3 
ROOT
ATOM      1  C1  UNL d   1       0.016   3.607  -3.600  0.00  0.00     0.143 A 
ATOM      2  C2  UNL d   1       0.145   2.536  -2.709  0.00  0.00    -0.057 A 
ATOM      3  C3  UNL d   1      -0.970   1.795  -2.298  0.00  0.00     0.033 A 
ATOM      4  C4  UNL d   1      -2.242   2.131  -2.751  0.00  0.00    -0.042 A 
ATOM      5  C5  UNL d   1      -2.397   3.208  -3.617  0.00  0.00     0.033 A 
ATOM      6  C6  UNL d   1      -1.279   3.940  -4.029  0.00  0.00    -0.057 A 
ENDROOT
BRANCH   1   7
ATOM      7  N   UNL d   1       1.072   4.444  -3.968  0.00  0.00    -0.732 N 
ATOM      8  C   UNL d   1       1.438   4.599  -5.360  0.00  0.00     0.284 C 
ATOM      9  H3  UNL d   1       1.085   5.311  -3.436  0.00  0.00     0.395 HD
ENDBRANCH   1   7
TORSDOF 1
ENDMDL
