MODEL 1
REMARK minimizedAffinity 6.74188566
REMARK minimizedRMSD -1
REMARK  1 active torsions:
REMARK  status: ('A' for Active; 'I' for Inactive)
REMARK    1  A    between atoms: N_2  and  C1_3 
ROOT
ATOM      1  C1  UNL d   1       1.965  -3.919   0.980  0.00  0.00     0.143 A 
ATOM      2  C2  UNL d   1       2.172  -3.412   2.268  0.00  0.00    -0.057 A 
ATOM      3  C3  UNL d   1       2.172  -2.034   2.514  0.00  0.00     0.033 A 
ATOM      4  C4  UNL d   1       1.994  -1.134   1.468  0.00  0.00    -0.042 A 
ATOM      5  C5  UNL d   1       1.811  -1.615   0.176  0.00  0.00     0.033 A 
ATOM      6  C6  UNL d   1       1.805  -2.993  -0.062  0.00  0.00    -0.057 A 
ENDROOT
BRANCH   1   7
ATOM      7  N   UNL d   1       2.051  -5.275   0.655  0.00  0.00    -0.732 N 
ATOM      8  C   UNL d   1       3.231  -5.803   0.005  0.00  0.00     0.284 C 
ATOM      9  H3  UNL d   1       1.676  -5.874   1.387  0.00  0.00     0.395 HD
ENDBRANCH   1   7
TORSDOF 1
ENDMDL
