MODEL 1
REMARK minimizedAffinity 1.87852693
REMARK minimizedRMSD -1
REMARK  1 active torsions:
REMARK  status: ('A' for Active; 'I' for Inactive)
REMARK    1  A    between atoms: N_2  and  C1_3 
ROOT
ATOM      1  C1  UNL d   1      -2.322   0.022   3.356  0.00  0.00     0.143 A 
ATOM      2  C2  UNL d   1      -1.030  -0.107   3.877  0.00  0.00    -0.057 A 
ATOM      3  C3  UNL d   1      -0.106  -0.995   3.313  0.00  0.00     0.033 A 
ATOM      4  C4  UNL d   1      -0.468  -1.794   2.233  0.00  0.00    -0.042 A 
ATOM      5  C5  UNL d   1      -1.755  -1.700   1.715  0.00  0.00     0.033 A 
ATOM      6  C6  UNL d   1      -2.671  -0.806   2.278  0.00  0.00    -0.057 A 
ENDROOT
BRANCH   1   7
ATOM      7  N   UNL d   1      -3.318   0.815   3.933  0.00  0.00    -0.732 N 
ATOM      8  C   UNL d   1      -4.330   1.442   3.110  0.00  0.00     0.284 C 
ATOM      9  H3  UNL d   1      -3.673   0.421   4.801  0.00  0.00     0.395 HD
ENDBRANCH   1   7
TORSDOF 1
ENDMDL
