MODEL 1
REMARK minimizedAffinity 5.76887274
REMARK minimizedRMSD -1
REMARK  1 active torsions:
REMARK  status: ('A' for Active; 'I' for Inactive)
REMARK    1  A    between atoms: N_2  and  C1_3 
ROOT
ATOM      1  C1  UNL d   1       0.263  -1.928   2.329  0.00  0.00     0.143 A 
ATOM      2  C2  UNL d   1       0.471  -1.203   1.151  0.00  0.00    -0.057 A 
ATOM      3  C3  UNL d   1       1.381  -1.640   0.181  0.00  0.00     0.033 A 
ATOM      4  C4  UNL d   1       2.123  -2.798   0.386  0.00  0.00    -0.042 A 
ATOM      5  C5  UNL d   1       1.951  -3.522   1.560  0.00  0.00     0.033 A 
ATOM      6  C6  UNL d   1       1.035  -3.084   2.523  0.00  0.00    -0.057 A 
ENDROOT
BRANCH   1   7
ATOM      7  N   UNL d   1      -0.555  -1.495   3.376  0.00  0.00    -0.732 N 
ATOM      8  C   UNL d   1      -1.250  -0.228   3.292  0.00  0.00     0.284 C 
ATOM      9  H3  UNL d   1      -1.111  -2.249   3.772  0.00  0.00     0.395 HD
ENDBRANCH   1   7
TORSDOF 1
ENDMDL
