MODEL 1
REMARK minimizedAffinity 3.31334138
REMARK minimizedRMSD -1
REMARK  1 active torsions:
REMARK  status: ('A' for Active; 'I' for Inactive)
REMARK    1  A    between atoms: N_2  and  C1_3 
ROOT
ATOM      1  C1  UNL d   1       1.275  -2.299   1.779  0.00  0.00     0.143 A 
ATOM      2  C2  UNL d   1       1.375  -3.679   1.573  0.00  0.00    -0.057 A 
ATOM      3  C3  UNL d   1       2.333  -4.216   0.706  0.00  0.00     0.033 A 
ATOM      4  C4  UNL d   1       3.193  -3.378   0.005  0.00  0.00    -0.042 A 
ATOM      5  C5  UNL d   1       3.096  -2.001   0.175  0.00  0.00     0.033 A 
ATOM      6  C6  UNL d   1       2.141  -1.471   1.048  0.00  0.00    -0.057 A 
ENDROOT
BRANCH   1   7
ATOM      7  N   UNL d   1       0.279  -1.698   2.553  0.00  0.00    -0.732 N 
ATOM      8  C   UNL d   1      -1.055  -2.257   2.601  0.00  0.00     0.284 C 
ATOM      9  H3  UNL d   1       0.627  -1.375   3.453  0.00  0.00     0.395 HD
ENDBRANCH   1   7
TORSDOF 1
ENDMDL
