MODEL 1
REMARK minimizedAffinity 4.77577353
REMARK minimizedRMSD -1
REMARK  1 active torsions:
REMARK  status: ('A' for Active; 'I' for Inactive)
REMARK    1  A    between atoms: N_2  and  C1_3 
ROOT
ATOM      1  C1  UNL d   1       3.298  -4.037   1.843  0.00  0.00     0.143 A 
ATOM      2  C2  UNL d   1       3.105  -5.221   1.123  0.00  0.00    -0.057 A 
ATOM      3  C3  UNL d   1       4.189  -6.000   0.701  0.00  0.00     0.033 A 
ATOM      4  C4  UNL d   1       5.492  -5.592   0.968  0.00  0.00    -0.042 A 
ATOM      5  C5  UNL d   1       5.709  -4.406   1.661  0.00  0.00     0.033 A 
ATOM      6  C6  UNL d   1       4.621  -3.636   2.085  0.00  0.00    -0.057 A 
ENDROOT
BRANCH   1   7
ATOM      7  N   UNL d   1       2.265  -3.169   2.204  0.00  0.00    -0.732 N 
ATOM      8  C   UNL d   1       1.616  -2.342   1.210  0.00  0.00     0.284 C 
ATOM      9  H3  UNL d   1       1.628  -3.584   2.880  0.00  0.00     0.395 HD
ENDBRANCH   1   7
TORSDOF 1
ENDMDL
