MODEL 1
REMARK minimizedAffinity 0.484022528
REMARK minimizedRMSD -1
REMARK  1 active torsions:
REMARK  status: ('A' for Active; 'I' for Inactive)
REMARK    1  A    between atoms: N_2  and  C1_3 
ROOT
ATOM      1  C1  UNL d   1      -0.940  -0.686   3.461  0.00  0.00     0.143 A 
ATOM      2  C2  UNL d   1       0.269  -0.165   3.935  0.00  0.00    -0.057 A 
ATOM      3  C3  UNL d   1       1.481  -0.831   3.717  0.00  0.00     0.033 A 
ATOM      4  C4  UNL d   1       1.503  -2.048   3.045  0.00  0.00    -0.042 A 
ATOM      5  C5  UNL d   1       0.311  -2.597   2.587  0.00  0.00     0.033 A 
ATOM      6  C6  UNL d   1      -0.896  -1.925   2.801  0.00  0.00    -0.057 A 
ENDROOT
BRANCH   1   7
ATOM      7  N   UNL d   1      -2.189  -0.122   3.730  0.00  0.00    -0.732 N 
ATOM      8  C   UNL d   1      -2.861   0.688   2.737  0.00  0.00     0.284 C 
ATOM      9  H3  UNL d   1      -2.803  -0.759   4.232  0.00  0.00     0.395 HD
ENDBRANCH   1   7
TORSDOF 1
ENDMDL
