MODEL 1
REMARK minimizedAffinity -1.59259796
REMARK minimizedRMSD -1
REMARK  1 active torsions:
REMARK  status: ('A' for Active; 'I' for Inactive)
REMARK    1  A    between atoms: N_2  and  C1_3 
ROOT
ATOM      1  C1  UNL d   1       4.326  -3.843   1.176  0.00  0.00     0.143 A 
ATOM      2  C2  UNL d   1       4.296  -2.611   0.513  0.00  0.00    -0.057 A 
ATOM      3  C3  UNL d   1       3.090  -1.938   0.286  0.00  0.00     0.033 A 
ATOM      4  C4  UNL d   1       1.885  -2.501   0.694  0.00  0.00    -0.042 A 
ATOM      5  C5  UNL d   1       1.888  -3.735   1.333  0.00  0.00     0.033 A 
ATOM      6  C6  UNL d   1       3.097  -4.399   1.563  0.00  0.00    -0.057 A 
ENDROOT
BRANCH   1   7
ATOM      7  N   UNL d   1       5.483  -4.607   1.345  0.00  0.00    -0.732 N 
ATOM      8  C   UNL d   1       5.510  -6.000   0.952  0.00  0.00     0.284 C 
ATOM      9  H3  UNL d   1       6.327  -4.092   1.107  0.00  0.00     0.395 HD
ENDBRANCH   1   7
TORSDOF 1
ENDMDL
