MODEL 1
REMARK minimizedAffinity 3.30278516
REMARK minimizedRMSD -1
REMARK  1 active torsions:
REMARK  status: ('A' for Active; 'I' for Inactive)
REMARK    1  A    between atoms: N_2  and  C1_3 
ROOT
ATOM      1  C1  UNL d   1       1.935  -2.947   1.789  0.00  0.00     0.143 A 
ATOM      2  C2  UNL d   1       2.124  -2.312   0.557  0.00  0.00    -0.057 A 
ATOM      3  C3  UNL d   1       1.317  -1.239   0.161  0.00  0.00     0.033 A 
ATOM      4  C4  UNL d   1       0.283  -0.799   0.982  0.00  0.00    -0.042 A 
ATOM      5  C5  UNL d   1       0.061  -1.431   2.200  0.00  0.00     0.033 A 
ATOM      6  C6  UNL d   1       0.875  -2.498   2.592  0.00  0.00    -0.057 A 
ENDROOT
BRANCH   1   7
ATOM      7  N   UNL d   1       2.641  -4.082   2.196  0.00  0.00    -0.732 N 
ATOM      8  C   UNL d   1       2.570  -5.308   1.430  0.00  0.00     0.284 C 
ATOM      9  H3  UNL d   1       3.573  -3.858   2.536  0.00  0.00     0.395 HD
ENDBRANCH   1   7
TORSDOF 1
ENDMDL
