MODEL 1
REMARK minimizedAffinity 1.59143233
REMARK minimizedRMSD -1
REMARK  1 active torsions:
REMARK  status: ('A' for Active; 'I' for Inactive)
REMARK    1  A    between atoms: C1_2  and  C2_3 
ROOT
ATOM      1  C2  UNL d   1       2.104   5.038  -4.905  0.00  0.00    -0.076 A 
ATOM      2  C3  UNL d   1       2.919   5.990  -5.541  0.00  0.00     0.004 A 
ATOM      3  C4  UNL d   1       4.299   6.000  -5.343  0.00  0.00    -0.003 A 
ATOM      4  C5  UNL d   1       4.886   5.058  -4.506  0.00  0.00     0.000 A 
ATOM      5  C6  UNL d   1       4.094   4.095  -3.880  0.00  0.00     0.000 A 
ATOM      6  C7  UNL d   1       2.704   4.061  -4.082  0.00  0.00    -0.073 A 
ATOM      7  C8  UNL d   1       1.898   3.004  -3.377  0.00  0.00     0.078 C 
ENDROOT
BRANCH   1   8
ATOM      8  C1  UNL d   1       0.611   5.093  -5.136  0.00  0.00     0.053 C 
ATOM      9  C   UNL d   1      -0.100   5.999  -4.143  0.00  0.00     0.018 C 
ENDBRANCH   1   8
TORSDOF 1
ENDMDL
