MODEL 1
REMARK minimizedAffinity 0.00372128002
REMARK minimizedRMSD -1
REMARK  1 active torsions:
REMARK  status: ('A' for Active; 'I' for Inactive)
REMARK    1  A    between atoms: C1_2  and  C2_3 
ROOT
ATOM      1  C2  UNL d   1       4.515   4.083  -4.983  0.00  0.00    -0.076 A 
ATOM      2  C3  UNL d   1       3.247   3.541  -4.710  0.00  0.00     0.004 A 
ATOM      3  C4  UNL d   1       2.084   4.221  -5.067  0.00  0.00    -0.003 A 
ATOM      4  C5  UNL d   1       2.169   5.454  -5.704  0.00  0.00     0.000 A 
ATOM      5  C6  UNL d   1       3.419   5.999  -5.999  0.00  0.00     0.000 A 
ATOM      6  C7  UNL d   1       4.601   5.319  -5.660  0.00  0.00    -0.073 A 
ATOM      7  C8  UNL d   1       5.922   5.956  -5.996  0.00  0.00     0.078 C 
ENDROOT
BRANCH   1   8
ATOM      8  C1  UNL d   1       5.741   3.313  -4.548  0.00  0.00     0.053 C 
ATOM      9  C   UNL d   1       5.723   1.870  -5.027  0.00  0.00     0.018 C 
ENDBRANCH   1   8
TORSDOF 1
ENDMDL
