MODEL 1
REMARK minimizedAffinity -3.11373901
REMARK minimizedRMSD -1
REMARK  1 active torsions:
REMARK  status: ('A' for Active; 'I' for Inactive)
REMARK    1  A    between atoms: C1_2  and  C2_3 
ROOT
ATOM      1  C2  UNL d   1       2.602   5.059  -5.367  0.00  0.00    -0.076 A 
ATOM      2  C3  UNL d   1       3.472   5.975  -5.983  0.00  0.00     0.004 A 
ATOM      3  C4  UNL d   1       4.830   5.998  -5.669  0.00  0.00    -0.003 A 
ATOM      4  C5  UNL d   1       5.340   5.103  -4.734  0.00  0.00     0.000 A 
ATOM      5  C6  UNL d   1       4.494   4.175  -4.127  0.00  0.00     0.000 A 
ATOM      6  C7  UNL d   1       3.126   4.129  -4.444  0.00  0.00    -0.073 A 
ATOM      7  C8  UNL d   1       2.259   3.111  -3.755  0.00  0.00     0.078 C 
ENDROOT
BRANCH   1   8
ATOM      8  C1  UNL d   1       1.134   5.100  -5.728  0.00  0.00     0.053 C 
ATOM      9  C   UNL d   1       0.332   6.000  -4.801  0.00  0.00     0.018 C 
ENDBRANCH   1   8
TORSDOF 1
ENDMDL
