MODEL 1
REMARK minimizedAffinity 2.28442049
REMARK minimizedRMSD -1
REMARK  1 active torsions:
REMARK  status: ('A' for Active; 'I' for Inactive)
REMARK    1  A    between atoms: C1_2  and  C2_3 
ROOT
ATOM      1  C2  UNL d   1      -1.475   5.984  -3.872  0.00  0.00    -0.076 A 
ATOM      2  C3  UNL d   1      -2.559   5.993  -4.766  0.00  0.00     0.004 A 
ATOM      3  C4  UNL d   1      -3.873   5.982  -4.300  0.00  0.00    -0.003 A 
ATOM      4  C5  UNL d   1      -4.123   5.961  -2.933  0.00  0.00     0.000 A 
ATOM      5  C6  UNL d   1      -3.059   5.969  -2.031  0.00  0.00     0.000 A 
ATOM      6  C7  UNL d   1      -1.729   5.998  -2.484  0.00  0.00    -0.073 A 
ATOM      7  C8  UNL d   1      -0.621   6.000  -1.468  0.00  0.00     0.078 C 
ENDROOT
BRANCH   1   8
ATOM      8  C1  UNL d   1      -0.072   5.970  -4.436  0.00  0.00     0.053 C 
ATOM      9  C   UNL d   1      -0.054   5.879  -5.954  0.00  0.00     0.018 C 
ENDBRANCH   1   8
TORSDOF 1
ENDMDL
