MODEL 1
REMARK minimizedAffinity 2.15244031
REMARK minimizedRMSD -1
REMARK  1 active torsions:
REMARK  status: ('A' for Active; 'I' for Inactive)
REMARK    1  A    between atoms: C1_2  and  C2_3 
ROOT
ATOM      1  C2  UNL d   1      -1.004   5.984  -3.845  0.00  0.00    -0.076 A 
ATOM      2  C3  UNL d   1      -1.939   6.000  -4.894  0.00  0.00     0.004 A 
ATOM      3  C4  UNL d   1      -3.308   5.993  -4.635  0.00  0.00    -0.003 A 
ATOM      4  C5  UNL d   1      -3.765   5.972  -3.321  0.00  0.00     0.000 A 
ATOM      5  C6  UNL d   1      -2.851   5.974  -2.268  0.00  0.00     0.000 A 
ATOM      6  C7  UNL d   1      -1.467   5.997  -2.512  0.00  0.00    -0.073 A 
ATOM      7  C8  UNL d   1      -0.527   5.992  -1.338  0.00  0.00     0.078 C 
ENDROOT
BRANCH   1   8
ATOM      8  C1  UNL d   1       0.469   5.965  -4.187  0.00  0.00     0.053 C 
ATOM      9  C   UNL d   1       0.719   5.999  -5.687  0.00  0.00     0.018 C 
ENDBRANCH   1   8
TORSDOF 1
ENDMDL
