MODEL 1
REMARK minimizedAffinity 4.54607582
REMARK minimizedRMSD -1
REMARK  1 active torsions:
REMARK  status: ('A' for Active; 'I' for Inactive)
REMARK    1  A    between atoms: C1_2  and  C2_3 
ROOT
ATOM      1  C2  UNL d   1       1.201   1.071   0.296  0.00  0.00    -0.076 A 
ATOM      2  C3  UNL d   1       0.785   2.395   0.524  0.00  0.00     0.004 A 
ATOM      3  C4  UNL d   1       0.802   3.339  -0.502  0.00  0.00    -0.003 A 
ATOM      4  C5  UNL d   1       1.234   2.974  -1.772  0.00  0.00     0.000 A 
ATOM      5  C6  UNL d   1       1.633   1.661  -2.021  0.00  0.00     0.000 A 
ATOM      6  C7  UNL d   1       1.607   0.693  -1.002  0.00  0.00    -0.073 A 
ATOM      7  C8  UNL d   1       2.054  -0.706  -1.324  0.00  0.00     0.078 C 
ENDROOT
BRANCH   1   8
ATOM      8  C1  UNL d   1       1.187   0.099   1.453  0.00  0.00     0.053 C 
ATOM      9  C   UNL d   1       0.838   0.769   2.774  0.00  0.00     0.018 C 
ENDBRANCH   1   8
TORSDOF 1
ENDMDL
