MODEL 1
REMARK minimizedAffinity 0.374835402
REMARK minimizedRMSD -1
REMARK  1 active torsions:
REMARK  status: ('A' for Active; 'I' for Inactive)
REMARK    1  A    between atoms: C1_2  and  C2_3 
ROOT
ATOM      1  C2  UNL d   1       0.761   1.145   1.200  0.00  0.00    -0.076 A 
ATOM      2  C3  UNL d   1       1.247   2.428   0.895  0.00  0.00     0.004 A 
ATOM      3  C4  UNL d   1       1.484   2.811  -0.424  0.00  0.00    -0.003 A 
ATOM      4  C5  UNL d   1       1.238   1.916  -1.460  0.00  0.00     0.000 A 
ATOM      5  C6  UNL d   1       0.739   0.645  -1.177  0.00  0.00     0.000 A 
ATOM      6  C7  UNL d   1       0.479   0.249   0.146  0.00  0.00    -0.073 A 
ATOM      7  C8  UNL d   1      -0.053  -1.135   0.394  0.00  0.00     0.078 C 
ENDROOT
BRANCH   1   8
ATOM      8  C1  UNL d   1       0.549   0.777   2.651  0.00  0.00     0.053 C 
ATOM      9  C   UNL d   1      -0.917   0.823   3.055  0.00  0.00     0.018 C 
ENDBRANCH   1   8
TORSDOF 1
ENDMDL
