MODEL 1
REMARK minimizedAffinity 3.28074145
REMARK minimizedRMSD -1
REMARK  1 active torsions:
REMARK  status: ('A' for Active; 'I' for Inactive)
REMARK    1  A    between atoms: C1_2  and  C2_3 
ROOT
ATOM      1  C2  UNL d   1       0.441   1.443   2.147  0.00  0.00    -0.076 A 
ATOM      2  C3  UNL d   1       0.959   2.748   2.202  0.00  0.00     0.004 A 
ATOM      3  C4  UNL d   1       1.470   3.366   1.061  0.00  0.00    -0.003 A 
ATOM      4  C5  UNL d   1       1.471   2.687  -0.153  0.00  0.00     0.000 A 
ATOM      5  C6  UNL d   1       0.945   1.398  -0.229  0.00  0.00     0.000 A 
ATOM      6  C7  UNL d   1       0.411   0.767   0.908  0.00  0.00    -0.073 A 
ATOM      7  C8  UNL d   1      -0.137  -0.626   0.770  0.00  0.00     0.078 C 
ENDROOT
BRANCH   1   8
ATOM      8  C1  UNL d   1      -0.074   0.814   3.422  0.00  0.00     0.053 C 
ATOM      9  C   UNL d   1       0.787   1.153   4.629  0.00  0.00     0.018 C 
ENDBRANCH   1   8
TORSDOF 1
ENDMDL
