MODEL 1
REMARK minimizedAffinity 6.27196598
REMARK minimizedRMSD -1
REMARK  1 active torsions:
REMARK  status: ('A' for Active; 'I' for Inactive)
REMARK    1  A    between atoms: C1_2  and  C2_3 
ROOT
ATOM      1  C2  UNL d   1      -0.016   5.471  -3.211  0.00  0.00    -0.076 A 
ATOM      2  C3  UNL d   1       1.233   5.340  -3.842  0.00  0.00     0.004 A 
ATOM      3  C4  UNL d   1       1.365   5.527  -5.217  0.00  0.00    -0.003 A 
ATOM      4  C5  UNL d   1       0.250   5.848  -5.983  0.00  0.00     0.000 A 
ATOM      5  C6  UNL d   1      -0.994   5.999  -5.371  0.00  0.00     0.000 A 
ATOM      6  C7  UNL d   1      -1.141   5.831  -3.983  0.00  0.00    -0.073 A 
ATOM      7  C8  UNL d   1      -2.507   6.000  -3.376  0.00  0.00     0.078 C 
ENDROOT
BRANCH   1   8
ATOM      8  C1  UNL d   1      -0.103   5.230  -1.720  0.00  0.00     0.053 C 
ATOM      9  C   UNL d   1       0.560   3.927  -1.301  0.00  0.00     0.018 C 
ENDBRANCH   1   8
TORSDOF 1
ENDMDL
