MODEL 1
REMARK minimizedAffinity -3.63743162
REMARK minimizedRMSD -1
REMARK  1 active torsions:
REMARK  status: ('A' for Active; 'I' for Inactive)
REMARK    1  A    between atoms: C1_2  and  C2_3 
ROOT
ATOM      1  C2  UNL d   1      -0.207   5.961  -3.586  0.00  0.00    -0.076 A 
ATOM      2  C3  UNL d   1       1.193   5.978  -3.462  0.00  0.00     0.004 A 
ATOM      3  C4  UNL d   1       2.013   5.996  -4.589  0.00  0.00    -0.003 A 
ATOM      4  C5  UNL d   1       1.446   5.998  -5.858  0.00  0.00     0.000 A 
ATOM      5  C6  UNL d   1       0.058   6.000  -6.000  0.00  0.00     0.000 A 
ATOM      6  C7  UNL d   1      -0.783   5.998  -4.874  0.00  0.00    -0.073 A 
ATOM      7  C8  UNL d   1      -2.272   5.994  -5.085  0.00  0.00     0.078 C 
ENDROOT
BRANCH   1   8
ATOM      8  C1  UNL d   1      -1.045   5.914  -2.328  0.00  0.00     0.053 C 
ATOM      9  C   UNL d   1      -2.537   5.965  -2.620  0.00  0.00     0.018 C 
ENDBRANCH   1   8
TORSDOF 1
ENDMDL
