MODEL 1
REMARK minimizedAffinity 2.81119418
REMARK minimizedRMSD -1
REMARK  1 active torsions:
REMARK  status: ('A' for Active; 'I' for Inactive)
REMARK    1  A    between atoms: C1_2  and  C2_3 
ROOT
ATOM      1  C2  UNL d   1       4.088   4.051  -4.749  0.00  0.00    -0.076 A 
ATOM      2  C3  UNL d   1       2.827   3.431  -4.714  0.00  0.00     0.004 A 
ATOM      3  C4  UNL d   1       1.716   4.030  -5.304  0.00  0.00    -0.003 A 
ATOM      4  C5  UNL d   1       1.847   5.260  -5.940  0.00  0.00     0.000 A 
ATOM      5  C6  UNL d   1       3.094   5.881  -6.000  0.00  0.00     0.000 A 
ATOM      6  C7  UNL d   1       4.228   5.282  -5.424  0.00  0.00    -0.073 A 
ATOM      7  C8  UNL d   1       5.547   6.000  -5.513  0.00  0.00     0.078 C 
ENDROOT
BRANCH   1   8
ATOM      8  C1  UNL d   1       5.251   3.366  -4.068  0.00  0.00     0.053 C 
ATOM      9  C   UNL d   1       5.129   1.850  -4.090  0.00  0.00     0.018 C 
ENDBRANCH   1   8
TORSDOF 1
ENDMDL
