MODEL 1
REMARK minimizedAffinity -2.30672145
REMARK minimizedRMSD -1
REMARK  1 active torsions:
REMARK  status: ('A' for Active; 'I' for Inactive)
REMARK    1  A    between atoms: C1_2  and  C2_3 
ROOT
ATOM      1  C2  UNL d   1       3.221   5.024  -5.319  0.00  0.00    -0.076 A 
ATOM      2  C3  UNL d   1       4.035   5.947  -6.000  0.00  0.00     0.004 A 
ATOM      3  C4  UNL d   1       5.413   5.978  -5.793  0.00  0.00    -0.003 A 
ATOM      4  C5  UNL d   1       6.000   5.087  -4.902  0.00  0.00     0.000 A 
ATOM      5  C6  UNL d   1       5.211   4.153  -4.231  0.00  0.00     0.000 A 
ATOM      6  C7  UNL d   1       3.822   4.097  -4.441  0.00  0.00    -0.073 A 
ATOM      7  C8  UNL d   1       3.019   3.073  -3.687  0.00  0.00     0.078 C 
ENDROOT
BRANCH   1   8
ATOM      8  C1  UNL d   1       1.730   5.055  -5.564  0.00  0.00     0.053 C 
ATOM      9  C   UNL d   1       1.004   5.999  -4.619  0.00  0.00     0.018 C 
ENDBRANCH   1   8
TORSDOF 1
ENDMDL
