MODEL 1
REMARK minimizedAffinity 11.5092354
REMARK minimizedRMSD -1
REMARK  1 active torsions:
REMARK  status: ('A' for Active; 'I' for Inactive)
REMARK    1  A    between atoms: C1_2  and  C2_3 
ROOT
ATOM      1  C2  UNL d   1      -1.459   5.785  -1.665  0.00  0.00    -0.076 A 
ATOM      2  C3  UNL d   1      -2.656   5.753  -0.930  0.00  0.00     0.004 A 
ATOM      3  C4  UNL d   1      -3.892   5.852  -1.567  0.00  0.00    -0.003 A 
ATOM      4  C5  UNL d   1      -3.950   5.983  -2.950  0.00  0.00     0.000 A 
ATOM      5  C6  UNL d   1      -2.772   5.999  -3.697  0.00  0.00     0.000 A 
ATOM      6  C7  UNL d   1      -1.519   5.884  -3.071  0.00  0.00    -0.073 A 
ATOM      7  C8  UNL d   1      -0.281   5.912  -3.925  0.00  0.00     0.078 C 
ENDROOT
BRANCH   1   8
ATOM      8  C1  UNL d   1      -0.147   5.701  -0.917  0.00  0.00     0.053 C 
ATOM      9  C   UNL d   1       0.048   4.357  -0.232  0.00  0.00     0.018 C 
ENDBRANCH   1   8
TORSDOF 1
ENDMDL
