MODEL 1
REMARK minimizedAffinity 3.58843184
REMARK minimizedRMSD -1
REMARK  1 active torsions:
REMARK  status: ('A' for Active; 'I' for Inactive)
REMARK    1  A    between atoms: C1_2  and  C2_3 
ROOT
ATOM      1  C2  UNL d   1      -2.344   5.959  -2.297  0.00  0.00    -0.076 A 
ATOM      2  C3  UNL d   1      -2.572   5.936  -3.684  0.00  0.00     0.004 A 
ATOM      3  C4  UNL d   1      -1.510   5.953  -4.586  0.00  0.00    -0.003 A 
ATOM      4  C5  UNL d   1      -0.202   5.993  -4.116  0.00  0.00     0.000 A 
ATOM      5  C6  UNL d   1       0.044   5.999  -2.744  0.00  0.00     0.000 A 
ATOM      6  C7  UNL d   1      -1.015   5.966  -1.820  0.00  0.00    -0.073 A 
ATOM      7  C8  UNL d   1      -0.693   5.980  -0.351  0.00  0.00     0.078 C 
ENDROOT
BRANCH   1   8
ATOM      8  C1  UNL d   1      -3.535   5.967  -1.367  0.00  0.00     0.053 C 
ATOM      9  C   UNL d   1      -4.859   5.913  -2.114  0.00  0.00     0.018 C 
ENDBRANCH   1   8
TORSDOF 1
ENDMDL
