MODEL 1
REMARK minimizedAffinity 2.65394711
REMARK minimizedRMSD -1
REMARK  1 active torsions:
REMARK  status: ('A' for Active; 'I' for Inactive)
REMARK    1  A    between atoms: C1_2  and  C2_3 
ROOT
ATOM      1  C2  UNL d   1       2.045   5.231  -4.917  0.00  0.00    -0.076 A 
ATOM      2  C3  UNL d   1       2.882   5.996  -5.747  0.00  0.00     0.004 A 
ATOM      3  C4  UNL d   1       4.208   5.627  -5.965  0.00  0.00    -0.003 A 
ATOM      4  C5  UNL d   1       4.718   4.485  -5.358  0.00  0.00     0.000 A 
ATOM      5  C6  UNL d   1       3.897   3.703  -4.546  0.00  0.00     0.000 A 
ATOM      6  C7  UNL d   1       2.553   4.053  -4.328  0.00  0.00    -0.073 A 
ATOM      7  C8  UNL d   1       1.714   3.178  -3.438  0.00  0.00     0.078 C 
ENDROOT
BRANCH   1   8
ATOM      8  C1  UNL d   1       0.623   5.696  -4.696  0.00  0.00     0.053 C 
ATOM      9  C   UNL d   1      -0.118   5.947  -6.000  0.00  0.00     0.018 C 
ENDBRANCH   1   8
TORSDOF 1
ENDMDL
