MODEL 1
REMARK minimizedAffinity 0.574933887
REMARK minimizedRMSD -1
REMARK  0 active torsions:
REMARK  status: ('A' for Active; 'I' for Inactive)
ROOT
ATOM      1  C1  DEN d   1      -0.775   2.156   2.861  0.00  0.00     0.130 A 
ATOM      2  C2  DEN d   1      -1.735   2.828   1.989  0.00  0.00    -0.031 A 
ATOM      3  C3  DEN d   1      -1.947   1.977   0.801  0.00  0.00     0.027 A 
ATOM      4  C4  DEN d   1      -0.890  -0.306   0.232  0.00  0.00     0.027 A 
ATOM      5  C5  DEN d   1      -0.009  -1.273   0.661  0.00  0.00    -0.003 A 
ATOM      6  C6  DEN d   1       0.699  -1.151   1.828  0.00  0.00     0.001 A 
ATOM      7  C7  DEN d   1       0.503  -0.056   2.628  0.00  0.00     0.017 A 
ATOM      8  C8  DEN d   1      -0.379   0.927   2.199  0.00  0.00    -0.094 A 
ATOM      9  C9  DEN d   1      -1.094   0.778   1.022  0.00  0.00    -0.072 A 
ENDROOT
TORSDOF 0
ENDMDL
