MODEL 1
REMARK minimizedAffinity 8.1883688
REMARK minimizedRMSD -1
REMARK  0 active torsions:
REMARK  status: ('A' for Active; 'I' for Inactive)
ROOT
ATOM      1  C1  DEN d   1       0.302   2.881   1.619  0.00  0.00     0.130 A 
ATOM      2  C2  DEN d   1      -0.846   3.247   2.444  0.00  0.00    -0.031 A 
ATOM      3  C3  DEN d   1      -2.072   2.861   1.717  0.00  0.00     0.027 A 
ATOM      4  C4  DEN d   1      -2.303   1.734  -0.592  0.00  0.00     0.027 A 
ATOM      5  C5  DEN d   1      -1.609   1.242  -1.675  0.00  0.00    -0.003 A 
ATOM      6  C6  DEN d   1      -0.242   1.293  -1.751  0.00  0.00     0.001 A 
ATOM      7  C7  DEN d   1       0.477   1.806  -0.705  0.00  0.00     0.017 A 
ATOM      8  C8  DEN d   1      -0.216   2.311   0.388  0.00  0.00    -0.094 A 
ATOM      9  C9  DEN d   1      -1.597   2.239   0.451  0.00  0.00    -0.072 A 
ENDROOT
TORSDOF 0
ENDMDL
