MODEL 1
REMARK minimizedAffinity -4.29247379
REMARK minimizedRMSD -1
REMARK  0 active torsions:
REMARK  status: ('A' for Active; 'I' for Inactive)
ROOT
ATOM      1  C1  DEN d   1       0.354   0.020  -0.603  0.00  0.00     0.130 A 
ATOM      2  C2  DEN d   1       0.910  -0.780   0.485  0.00  0.00    -0.031 A 
ATOM      3  C3  DEN d   1       0.493  -0.166   1.762  0.00  0.00     0.027 A 
ATOM      4  C4  DEN d   1      -0.955   1.931   2.157  0.00  0.00     0.027 A 
ATOM      5  C5  DEN d   1      -1.646   2.951   1.540  0.00  0.00    -0.003 A 
ATOM      6  C6  DEN d   1      -1.690   3.083   0.178  0.00  0.00     0.001 A 
ATOM      7  C7  DEN d   1      -1.068   2.155  -0.615  0.00  0.00     0.017 A 
ATOM      8  C8  DEN d   1      -0.363   1.128  -0.000  0.00  0.00    -0.094 A 
ATOM      9  C9  DEN d   1      -0.341   1.005   1.379  0.00  0.00    -0.072 A 
ENDROOT
TORSDOF 0
ENDMDL
