MODEL 1
REMARK minimizedAffinity 0.73517549
REMARK minimizedRMSD -1
REMARK  0 active torsions:
REMARK  status: ('A' for Active; 'I' for Inactive)
ROOT
ATOM      1  C1  DEN d   1      -0.087  -0.715   0.708  0.00  0.00     0.130 A 
ATOM      2  C2  DEN d   1       0.357  -0.930   2.083  0.00  0.00    -0.031 A 
ATOM      3  C3  DEN d   1      -0.025   0.255   2.877  0.00  0.00     0.027 A 
ATOM      4  C4  DEN d   1      -1.260   2.388   2.117  0.00  0.00     0.027 A 
ATOM      5  C5  DEN d   1      -1.828   3.033   1.040  0.00  0.00    -0.003 A 
ATOM      6  C6  DEN d   1      -1.826   2.493  -0.219  0.00  0.00     0.001 A 
ATOM      7  C7  DEN d   1      -1.283   1.252  -0.424  0.00  0.00     0.017 A 
ATOM      8  C8  DEN d   1      -0.702   0.599   0.655  0.00  0.00    -0.094 A 
ATOM      9  C9  DEN d   1      -0.725   1.156   1.922  0.00  0.00    -0.072 A 
ENDROOT
TORSDOF 0
ENDMDL
