MODEL 1
REMARK minimizedAffinity -3.9576478
REMARK minimizedRMSD -1
REMARK  0 active torsions:
REMARK  status: ('A' for Active; 'I' for Inactive)
ROOT
ATOM      1  C1  DEN d   1       0.077  -0.382  -0.609  0.00  0.00     0.130 A 
ATOM      2  C2  DEN d   1       0.766  -1.295   0.300  0.00  0.00    -0.031 A 
ATOM      3  C3  DEN d   1       0.492  -0.854   1.682  0.00  0.00     0.027 A 
ATOM      4  C4  DEN d   1      -0.927   1.138   2.500  0.00  0.00     0.027 A 
ATOM      5  C5  DEN d   1      -1.699   2.206   2.099  0.00  0.00    -0.003 A 
ATOM      6  C6  DEN d   1      -1.903   2.504   0.778  0.00  0.00     0.001 A 
ATOM      7  C7  DEN d   1      -1.365   1.698  -0.191  0.00  0.00     0.017 A 
ATOM      8  C8  DEN d   1      -0.580   0.623   0.206  0.00  0.00    -0.094 A 
ATOM      9  C9  DEN d   1      -0.396   0.332   1.547  0.00  0.00    -0.072 A 
ENDROOT
TORSDOF 0
ENDMDL
