MODEL 1
REMARK minimizedAffinity -3.09794283
REMARK minimizedRMSD -1
REMARK  0 active torsions:
REMARK  status: ('A' for Active; 'I' for Inactive)
ROOT
ATOM      1  C1  DEN d   1       1.389  -0.677  -1.150  0.00  0.00     0.130 A 
ATOM      2  C2  DEN d   1       1.075  -2.080  -1.402  0.00  0.00    -0.031 A 
ATOM      3  C3  DEN d   1      -0.261  -2.358  -0.836  0.00  0.00     0.027 A 
ATOM      4  C4  DEN d   1      -1.867  -0.757   0.394  0.00  0.00     0.027 A 
ATOM      5  C5  DEN d   1      -2.033   0.529   0.857  0.00  0.00    -0.003 A 
ATOM      6  C6  DEN d   1      -1.064   1.487   0.715  0.00  0.00     0.001 A 
ATOM      7  C7  DEN d   1       0.097   1.185   0.054  0.00  0.00     0.017 A 
ATOM      8  C8  DEN d   1       0.275  -0.112  -0.409  0.00  0.00    -0.094 A 
ATOM      9  C9  DEN d   1      -0.721  -1.063  -0.266  0.00  0.00    -0.072 A 
ENDROOT
TORSDOF 0
ENDMDL
