MODEL 1
REMARK minimizedAffinity -5.4820466
REMARK minimizedRMSD -1
REMARK  0 active torsions:
REMARK  status: ('A' for Active; 'I' for Inactive)
ROOT
ATOM      1  C1  DEN d   1      -1.958   1.867   0.308  0.00  0.00     0.130 A 
ATOM      2  C2  DEN d   1      -2.266   2.114   1.714  0.00  0.00    -0.031 A 
ATOM      3  C3  DEN d   1      -1.549   1.106   2.522  0.00  0.00     0.027 A 
ATOM      4  C4  DEN d   1       0.003  -0.798   1.737  0.00  0.00     0.027 A 
ATOM      5  C5  DEN d   1       0.558  -1.412   0.636  0.00  0.00    -0.003 A 
ATOM      6  C6  DEN d   1       0.289  -1.000  -0.643  0.00  0.00     0.001 A 
ATOM      7  C7  DEN d   1      -0.523   0.083  -0.850  0.00  0.00     0.017 A 
ATOM      8  C8  DEN d   1      -1.092   0.703   0.254  0.00  0.00    -0.094 A 
ATOM      9  C9  DEN d   1      -0.798   0.280   1.539  0.00  0.00    -0.072 A 
ENDROOT
TORSDOF 0
ENDMDL
