MODEL 1
REMARK minimizedAffinity -4.77730417
REMARK minimizedRMSD -1
REMARK  0 active torsions:
REMARK  status: ('A' for Active; 'I' for Inactive)
ROOT
ATOM      1  C1  DEN d   1      -1.116   1.138   2.712  0.00  0.00     0.130 A 
ATOM      2  C2  DEN d   1      -1.828   2.160   1.950  0.00  0.00    -0.031 A 
ATOM      3  C3  DEN d   1      -1.646   1.868   0.514  0.00  0.00     0.027 A 
ATOM      4  C4  DEN d   1      -0.341  -0.059  -0.597  0.00  0.00     0.027 A 
ATOM      5  C5  DEN d   1       0.439  -1.169  -0.361  0.00  0.00    -0.003 A 
ATOM      6  C6  DEN d   1       0.781  -1.565   0.905  0.00  0.00     0.001 A 
ATOM      7  C7  DEN d   1       0.304  -0.871   1.985  0.00  0.00     0.017 A 
ATOM      8  C8  DEN d   1      -0.477   0.254   1.755  0.00  0.00    -0.094 A 
ATOM      9  C9  DEN d   1      -0.822   0.631   0.468  0.00  0.00    -0.072 A 
ENDROOT
TORSDOF 0
ENDMDL
