MODEL 1
REMARK minimizedAffinity -5.55510664
REMARK minimizedRMSD -1
REMARK  0 active torsions:
REMARK  status: ('A' for Active; 'I' for Inactive)
ROOT
ATOM      1  C1  DEN d   1      -0.124   0.040  -0.909  0.00  0.00     0.130 A 
ATOM      2  C2  DEN d   1       0.804  -1.080  -0.784  0.00  0.00    -0.031 A 
ATOM      3  C3  DEN d   1       1.041  -1.320   0.654  0.00  0.00     0.027 A 
ATOM      4  C4  DEN d   1       0.060  -0.074   2.688  0.00  0.00     0.027 A 
ATOM      5  C5  DEN d   1      -0.766   0.955   3.083  0.00  0.00    -0.003 A 
ATOM      6  C6  DEN d   1      -1.403   1.766   2.183  0.00  0.00     0.001 A 
ATOM      7  C7  DEN d   1      -1.261   1.533   0.840  0.00  0.00     0.017 A 
ATOM      8  C8  DEN d   1      -0.425   0.502   0.434  0.00  0.00    -0.094 A 
ATOM      9  C9  DEN d   1       0.201  -0.315   1.360  0.00  0.00    -0.072 A 
ENDROOT
TORSDOF 0
ENDMDL
