MODEL 1
REMARK minimizedAffinity -5.51480532
REMARK minimizedRMSD -1
REMARK  0 active torsions:
REMARK  status: ('A' for Active; 'I' for Inactive)
ROOT
ATOM      1  C1  DEN d   1       0.340  -1.068   1.134  0.00  0.00     0.130 A 
ATOM      2  C2  DEN d   1      -0.174  -1.394   2.461  0.00  0.00    -0.031 A 
ATOM      3  C3  DEN d   1      -1.131  -0.340   2.853  0.00  0.00     0.027 A 
ATOM      4  C4  DEN d   1      -1.867   1.753   1.537  0.00  0.00     0.027 A 
ATOM      5  C5  DEN d   1      -1.695   2.462   0.369  0.00  0.00    -0.003 A 
ATOM      6  C6  DEN d   1      -0.816   2.066  -0.604  0.00  0.00     0.001 A 
ATOM      7  C7  DEN d   1      -0.107   0.905  -0.445  0.00  0.00     0.017 A 
ATOM      8  C8  DEN d   1      -0.268   0.188   0.733  0.00  0.00    -0.094 A 
ATOM      9  C9  DEN d   1      -1.172   0.598   1.699  0.00  0.00    -0.072 A 
ENDROOT
TORSDOF 0
ENDMDL
