MODEL 1
REMARK minimizedAffinity -5.03971338
REMARK minimizedRMSD -1
REMARK  0 active torsions:
REMARK  status: ('A' for Active; 'I' for Inactive)
ROOT
ATOM      1  C1  DEN d   1       0.065   0.060  -1.254  0.00  0.00     0.130 A 
ATOM      2  C2  DEN d   1       0.895  -1.116  -1.006  0.00  0.00    -0.031 A 
ATOM      3  C3  DEN d   1       0.840  -1.418   0.438  0.00  0.00     0.027 A 
ATOM      4  C4  DEN d   1      -0.448  -0.189   2.304  0.00  0.00     0.027 A 
ATOM      5  C5  DEN d   1      -1.282   0.872   2.582  0.00  0.00    -0.003 A 
ATOM      6  C6  DEN d   1      -1.694   1.750   1.614  0.00  0.00     0.001 A 
ATOM      7  C7  DEN d   1      -1.310   1.555   0.313  0.00  0.00     0.017 A 
ATOM      8  C8  DEN d   1      -0.463   0.492   0.027  0.00  0.00    -0.094 A 
ATOM      9  C9  DEN d   1      -0.068  -0.391   1.018  0.00  0.00    -0.072 A 
ENDROOT
TORSDOF 0
ENDMDL
