MODEL 1
REMARK minimizedAffinity -1.31133997
REMARK minimizedRMSD -1
REMARK  0 active torsions:
REMARK  status: ('A' for Active; 'I' for Inactive)
ROOT
ATOM      1  C1  DEN d   1       0.241  -0.226  -2.046  0.00  0.00     0.130 A 
ATOM      2  C2  DEN d   1       0.627   0.324  -0.750  0.00  0.00    -0.031 A 
ATOM      3  C3  DEN d   1       1.172  -0.777   0.070  0.00  0.00     0.027 A 
ATOM      4  C4  DEN d   1       1.459  -3.267  -0.543  0.00  0.00     0.027 A 
ATOM      5  C5  DEN d   1       1.264  -4.210  -1.527  0.00  0.00    -0.003 A 
ATOM      6  C6  DEN d   1       0.688  -3.901  -2.731  0.00  0.00     0.001 A 
ATOM      7  C7  DEN d   1       0.327  -2.607  -2.999  0.00  0.00     0.017 A 
ATOM      8  C8  DEN d   1       0.514  -1.652  -2.008  0.00  0.00    -0.094 A 
ATOM      9  C9  DEN d   1       1.110  -1.981  -0.803  0.00  0.00    -0.072 A 
ENDROOT
TORSDOF 0
ENDMDL
