MODEL 1
REMARK minimizedAffinity 14.77283
REMARK minimizedRMSD -1
REMARK  3 active torsions:
REMARK  status: ('A' for Active; 'I' for Inactive)
REMARK    1  A    between atoms: C3'_2  and  C2'_3 
REMARK    2  A    between atoms: C2'_3  and  C1'_4 
REMARK    3  A    between atoms: C1'_4  and  C1_5 
ROOT
ATOM      1  C1  N4B d   1      -4.732  -0.275  -1.969  0.00  0.00    -0.075 A 
ATOM      2  C2  N4B d   1      -5.568  -0.256  -3.107  0.00  0.00     0.002 A 
ATOM      3  C3  N4B d   1      -5.410  -1.200  -4.091  0.00  0.00     0.002 A 
ATOM      4  C4  N4B d   1      -4.414  -2.157  -3.970  0.00  0.00    -0.004 A 
ATOM      5  C5  N4B d   1      -3.626  -2.184  -2.856  0.00  0.00     0.002 A 
ATOM      6  C6  N4B d   1      -3.777  -1.244  -1.857  0.00  0.00     0.002 A 
ENDROOT
BRANCH   1   7
ATOM      7  C1' N4B d   1      -4.811   0.788  -0.908  0.00  0.00     0.057 C 
BRANCH   7   8
ATOM      8  C2' N4B d   1      -4.378   0.193   0.429  0.00  0.00     0.009 C 
BRANCH   8   9
ATOM      9  C3' N4B d   1      -4.948   0.967   1.606  0.00  0.00     0.004 C 
ATOM     10  C4' N4B d   1      -4.339   0.564   2.916  0.00  0.00     0.003 C 
ENDBRANCH   8   9
ENDBRANCH   7   8
ENDBRANCH   1   7
TORSDOF 3
ENDMDL
