MODEL 1
REMARK minimizedAffinity -4.74955082
REMARK minimizedRMSD -1
REMARK  3 active torsions:
REMARK  status: ('A' for Active; 'I' for Inactive)
REMARK    1  A    between atoms: C3'_2  and  C2'_3 
REMARK    2  A    between atoms: C2'_3  and  C1'_4 
REMARK    3  A    between atoms: C1'_4  and  C1_5 
ROOT
ATOM      1  C1  N4B d   1       3.624  -2.950   3.958  0.00  0.00    -0.075 A 
ATOM      2  C2  N4B d   1       4.689  -2.983   3.032  0.00  0.00     0.002 A 
ATOM      3  C3  N4B d   1       4.451  -3.326   1.724  0.00  0.00     0.002 A 
ATOM      4  C4  N4B d   1       3.165  -3.657   1.324  0.00  0.00    -0.004 A 
ATOM      5  C5  N4B d   1       2.137  -3.598   2.219  0.00  0.00     0.002 A 
ATOM      6  C6  N4B d   1       2.361  -3.251   3.537  0.00  0.00     0.002 A 
ENDROOT
BRANCH   1   7
ATOM      7  C1' N4B d   1       3.849  -2.665   5.418  0.00  0.00     0.057 C 
BRANCH   7   8
ATOM      8  C2' N4B d   1       4.773  -3.731   6.000  0.00  0.00     0.009 C 
BRANCH   8   9
ATOM      9  C3' N4B d   1       4.126  -5.105   6.000  0.00  0.00     0.004 C 
ATOM     10  C4' N4B d   1       4.662  -6.000   4.922  0.00  0.00     0.003 C 
ENDBRANCH   8   9
ENDBRANCH   7   8
ENDBRANCH   1   7
TORSDOF 3
ENDMDL
