MODEL 1
REMARK minimizedAffinity 4.24644804
REMARK minimizedRMSD -1
REMARK  3 active torsions:
REMARK  status: ('A' for Active; 'I' for Inactive)
REMARK    1  A    between atoms: C3'_2  and  C2'_3 
REMARK    2  A    between atoms: C2'_3  and  C1'_4 
REMARK    3  A    between atoms: C1'_4  and  C1_5 
ROOT
ATOM      1  C1  N4B d   1      -3.672  -1.463  -2.041  0.00  0.00    -0.075 A 
ATOM      2  C2  N4B d   1      -4.478  -0.337  -2.315  0.00  0.00     0.002 A 
ATOM      3  C3  N4B d   1      -5.340  -0.353  -3.384  0.00  0.00     0.002 A 
ATOM      4  C4  N4B d   1      -5.399  -1.472  -4.200  0.00  0.00    -0.004 A 
ATOM      5  C5  N4B d   1      -4.636  -2.566  -3.914  0.00  0.00     0.002 A 
ATOM      6  C6  N4B d   1      -3.768  -2.565  -2.841  0.00  0.00     0.002 A 
ENDROOT
BRANCH   1   7
ATOM      7  C1' N4B d   1      -2.652  -1.460  -0.935  0.00  0.00     0.057 C 
BRANCH   7   8
ATOM      8  C2' N4B d   1      -1.662  -0.323  -1.170  0.00  0.00     0.009 C 
BRANCH   8   9
ATOM      9  C3' N4B d   1      -0.236  -0.737  -0.852  0.00  0.00     0.004 C 
ATOM     10  C4' N4B d   1       0.781   0.231  -1.381  0.00  0.00     0.003 C 
ENDBRANCH   8   9
ENDBRANCH   7   8
ENDBRANCH   1   7
TORSDOF 3
ENDMDL
