MODEL 1
REMARK minimizedAffinity 9.75989532
REMARK minimizedRMSD -1
REMARK  3 active torsions:
REMARK  status: ('A' for Active; 'I' for Inactive)
REMARK    1  A    between atoms: C3'_2  and  C2'_3 
REMARK    2  A    between atoms: C2'_3  and  C1'_4 
REMARK    3  A    between atoms: C1'_4  and  C1_5 
ROOT
ATOM      1  C1  N4B d   1       3.923  -3.875   1.629  0.00  0.00    -0.075 A 
ATOM      2  C2  N4B d   1       3.457  -2.647   2.148  0.00  0.00     0.002 A 
ATOM      3  C3  N4B d   1       2.154  -2.264   1.941  0.00  0.00     0.002 A 
ATOM      4  C4  N4B d   1       1.309  -3.080   1.205  0.00  0.00    -0.004 A 
ATOM      5  C5  N4B d   1       1.760  -4.277   0.729  0.00  0.00     0.002 A 
ATOM      6  C6  N4B d   1       3.065  -4.676   0.933  0.00  0.00     0.002 A 
ENDROOT
BRANCH   1   7
ATOM      7  C1' N4B d   1       5.362  -4.295   1.757  0.00  0.00     0.057 C 
BRANCH   7   8
ATOM      8  C2' N4B d   1       5.978  -4.402   0.365  0.00  0.00     0.009 C 
BRANCH   8   9
ATOM      9  C3' N4B d   1       5.962  -5.829  -0.156  0.00  0.00     0.004 C 
ATOM     10  C4' N4B d   1       5.999  -5.901  -1.653  0.00  0.00     0.003 C 
ENDBRANCH   8   9
ENDBRANCH   7   8
ENDBRANCH   1   7
TORSDOF 3
ENDMDL
