MODEL 1
REMARK minimizedAffinity -2.38015175
REMARK minimizedRMSD -1
REMARK  3 active torsions:
REMARK  status: ('A' for Active; 'I' for Inactive)
REMARK    1  A    between atoms: C3'_2  and  C2'_3 
REMARK    2  A    between atoms: C2'_3  and  C1'_4 
REMARK    3  A    between atoms: C1'_4  and  C1_5 
ROOT
ATOM      1  C1  N4B d   1       3.808  -4.506   3.459  0.00  0.00    -0.075 A 
ATOM      2  C2  N4B d   1       3.416  -3.750   4.585  0.00  0.00     0.002 A 
ATOM      3  C3  N4B d   1       3.808  -4.138   5.843  0.00  0.00     0.002 A 
ATOM      4  C4  N4B d   1       4.573  -5.284   6.000  0.00  0.00    -0.004 A 
ATOM      5  C5  N4B d   1       4.969  -5.995   4.905  0.00  0.00     0.002 A 
ATOM      6  C6  N4B d   1       4.585  -5.614   3.634  0.00  0.00     0.002 A 
ENDROOT
BRANCH   1   7
ATOM      7  C1' N4B d   1       3.332  -4.170   2.072  0.00  0.00     0.057 C 
BRANCH   7   8
ATOM      8  C2' N4B d   1       1.823  -3.942   2.102  0.00  0.00     0.009 C 
BRANCH   8   9
ATOM      9  C3' N4B d   1       1.468  -2.472   1.960  0.00  0.00     0.004 C 
ATOM     10  C4' N4B d   1       0.509  -2.003   3.013  0.00  0.00     0.003 C 
ENDBRANCH   8   9
ENDBRANCH   7   8
ENDBRANCH   1   7
TORSDOF 3
ENDMDL
