MODEL 1
REMARK minimizedAffinity 3.29574823
REMARK minimizedRMSD -1
REMARK  1 active torsions:
REMARK  status: ('A' for Active; 'I' for Inactive)
REMARK    1  A    between atoms: C3_4  and  O_7 
ROOT
ATOM      1  C   UNL d   1      -5.805  -5.985  -4.781  0.00  0.00    -0.033 A 
ATOM      2  C1  UNL d   1      -5.997  -5.295  -5.980  0.00  0.00     0.039 A 
ATOM      3  C2  UNL d   1      -5.948  -3.900  -6.000  0.00  0.00    -0.080 A 
ATOM      4  C3  UNL d   1      -5.706  -3.207  -4.817  0.00  0.00     0.150 A 
ATOM      5  C4  UNL d   1      -5.510  -3.888  -3.619  0.00  0.00    -0.007 A 
ATOM      6  C5  UNL d   1      -5.561  -5.282  -3.601  0.00  0.00     0.039 A 
ENDROOT
BRANCH   4   7
ATOM      7  O   UNL d   1      -5.654  -1.846  -4.786  0.00  0.00    -0.526 OA
ATOM      8  H5  UNL d   1      -5.836  -1.510  -5.680  0.00  0.00     0.418 HD
ENDBRANCH   4   7
TORSDOF 1
ENDMDL
