MODEL 1
REMARK minimizedAffinity 4.38783455
REMARK minimizedRMSD -1
REMARK  1 active torsions:
REMARK  status: ('A' for Active; 'I' for Inactive)
REMARK    1  A    between atoms: C3_4  and  O_7 
ROOT
ATOM      1  C   UNL d   1      -4.351   4.593  -4.116  0.00  0.00    -0.033 A 
ATOM      2  C1  UNL d   1      -4.539   4.351  -2.754  0.00  0.00     0.039 A 
ATOM      3  C2  UNL d   1      -4.142   3.133  -2.198  0.00  0.00    -0.080 A 
ATOM      4  C3  UNL d   1      -3.557   2.168  -3.014  0.00  0.00     0.150 A 
ATOM      5  C4  UNL d   1      -3.362   2.405  -4.371  0.00  0.00    -0.007 A 
ATOM      6  C5  UNL d   1      -3.761   3.621  -4.924  0.00  0.00     0.039 A 
ENDROOT
BRANCH   4   7
ATOM      7  O   UNL d   1      -3.157   0.963  -2.518  0.00  0.00    -0.526 OA
ATOM      8  H5  UNL d   1      -3.380   0.930  -1.573  0.00  0.00     0.418 HD
ENDBRANCH   4   7
TORSDOF 1
ENDMDL
