MODEL 1
REMARK minimizedAffinity 0.674474001
REMARK minimizedRMSD -1
REMARK  1 active torsions:
REMARK  status: ('A' for Active; 'I' for Inactive)
REMARK    1  A    between atoms: C3_4  and  O_7 
ROOT
ATOM      1  C   UNL d   1       1.949  -3.247   5.850  0.00  0.00    -0.033 A 
ATOM      2  C1  UNL d   1       2.686  -3.880   4.846  0.00  0.00     0.039 A 
ATOM      3  C2  UNL d   1       2.625  -3.411   3.532  0.00  0.00    -0.080 A 
ATOM      4  C3  UNL d   1       1.826  -2.310   3.236  0.00  0.00     0.150 A 
ATOM      5  C4  UNL d   1       1.093  -1.672   4.231  0.00  0.00    -0.007 A 
ATOM      6  C5  UNL d   1       1.154  -2.143   5.543  0.00  0.00     0.039 A 
ENDROOT
BRANCH   4   7
ATOM      7  O   UNL d   1       1.731  -1.819   1.968  0.00  0.00    -0.526 OA
ATOM      8  H5  UNL d   1       2.269  -2.377   1.381  0.00  0.00     0.418 HD
ENDBRANCH   4   7
TORSDOF 1
ENDMDL
