MODEL 1
REMARK minimizedAffinity 8.4812994
REMARK minimizedRMSD -1
REMARK  1 active torsions:
REMARK  status: ('A' for Active; 'I' for Inactive)
REMARK    1  A    between atoms: C3_4  and  O_7 
ROOT
ATOM      1  C   UNL d   1      -3.756   4.083  -2.195  0.00  0.00    -0.033 A 
ATOM      2  C1  UNL d   1      -3.827   2.697  -2.343  0.00  0.00     0.039 A 
ATOM      3  C2  UNL d   1      -3.887   2.130  -3.618  0.00  0.00    -0.080 A 
ATOM      4  C3  UNL d   1      -3.874   2.960  -4.735  0.00  0.00     0.150 A 
ATOM      5  C4  UNL d   1      -3.800   4.342  -4.596  0.00  0.00    -0.007 A 
ATOM      6  C5  UNL d   1      -3.741   4.906  -3.322  0.00  0.00     0.039 A 
ENDROOT
BRANCH   4   7
ATOM      7  O   UNL d   1      -3.936   2.454  -6.000  0.00  0.00    -0.526 OA
ATOM      8  H5  UNL d   1      -4.013   1.487  -5.940  0.00  0.00     0.418 HD
ENDBRANCH   4   7
TORSDOF 1
ENDMDL
