MODEL 1
REMARK minimizedAffinity 6.67642307
REMARK minimizedRMSD -1
REMARK  1 active torsions:
REMARK  status: ('A' for Active; 'I' for Inactive)
REMARK    1  A    between atoms: C3_4  and  O_7 
ROOT
ATOM      1  C   UNL d   1       5.640  -4.537  -1.095  0.00  0.00    -0.033 A 
ATOM      2  C1  UNL d   1       4.361  -4.430  -1.644  0.00  0.00     0.039 A 
ATOM      3  C2  UNL d   1       3.437  -3.536  -1.099  0.00  0.00    -0.080 A 
ATOM      4  C3  UNL d   1       3.805  -2.755  -0.007  0.00  0.00     0.150 A 
ATOM      5  C4  UNL d   1       5.079  -2.853   0.543  0.00  0.00    -0.007 A 
ATOM      6  C5  UNL d   1       6.000  -3.747  -0.002  0.00  0.00     0.039 A 
ENDROOT
BRANCH   4   7
ATOM      7  O   UNL d   1       2.937  -1.872   0.562  0.00  0.00    -0.526 OA
ATOM      8  H5  UNL d   1       2.086  -1.933   0.096  0.00  0.00     0.418 HD
ENDBRANCH   4   7
TORSDOF 1
ENDMDL
