MODEL 1
REMARK minimizedAffinity 6.13112116
REMARK minimizedRMSD -1
REMARK  1 active torsions:
REMARK  status: ('A' for Active; 'I' for Inactive)
REMARK    1  A    between atoms: C3_4  and  O_7 
ROOT
ATOM      1  C   UNL d   1      -4.105   4.720  -3.971  0.00  0.00    -0.033 A 
ATOM      2  C1  UNL d   1      -4.347   4.424  -2.628  0.00  0.00     0.039 A 
ATOM      3  C2  UNL d   1      -3.978   3.182  -2.107  0.00  0.00    -0.080 A 
ATOM      4  C3  UNL d   1      -3.368   2.247  -2.939  0.00  0.00     0.150 A 
ATOM      5  C4  UNL d   1      -3.120   2.537  -4.277  0.00  0.00    -0.007 A 
ATOM      6  C5  UNL d   1      -3.491   3.777  -4.795  0.00  0.00     0.039 A 
ENDROOT
BRANCH   4   7
ATOM      7  O   UNL d   1      -2.994   1.020  -2.477  0.00  0.00    -0.526 OA
ATOM      8  H5  UNL d   1      -3.254   0.950  -1.543  0.00  0.00     0.418 HD
ENDBRANCH   4   7
TORSDOF 1
ENDMDL
