MODEL 1
REMARK minimizedAffinity 7.52871895
REMARK minimizedRMSD -1
REMARK  1 active torsions:
REMARK  status: ('A' for Active; 'I' for Inactive)
REMARK    1  A    between atoms: C3_4  and  O_7 
ROOT
ATOM      1  C   UNL d   1       1.492  -2.060   2.055  0.00  0.00    -0.033 A 
ATOM      2  C1  UNL d   1       1.985  -3.329   2.366  0.00  0.00     0.039 A 
ATOM      3  C2  UNL d   1       1.957  -3.787   3.685  0.00  0.00    -0.080 A 
ATOM      4  C3  UNL d   1       1.434  -2.968   4.682  0.00  0.00     0.150 A 
ATOM      5  C4  UNL d   1       0.938  -1.704   4.378  0.00  0.00    -0.007 A 
ATOM      6  C5  UNL d   1       0.967  -1.248   3.061  0.00  0.00     0.039 A 
ENDROOT
BRANCH   4   7
ATOM      7  O   UNL d   1       1.389  -3.369   5.984  0.00  0.00    -0.526 OA
ATOM      8  H5  UNL d   1       1.792  -4.251   6.047  0.00  0.00     0.418 HD
ENDBRANCH   4   7
TORSDOF 1
ENDMDL
