MODEL 1
REMARK minimizedAffinity 5.04485846
REMARK minimizedRMSD -1
REMARK  1 active torsions:
REMARK  status: ('A' for Active; 'I' for Inactive)
REMARK    1  A    between atoms: C3_4  and  O_7 
ROOT
ATOM      1  C   UNL d   1       5.932  -5.908  -4.010  0.00  0.00    -0.033 A 
ATOM      2  C1  UNL d   1       5.998  -5.776  -5.399  0.00  0.00     0.039 A 
ATOM      3  C2  UNL d   1       5.717  -4.548  -5.999  0.00  0.00    -0.080 A 
ATOM      4  C3  UNL d   1       5.374  -3.460  -5.202  0.00  0.00     0.150 A 
ATOM      5  C4  UNL d   1       5.310  -3.583  -3.818  0.00  0.00    -0.007 A 
ATOM      6  C5  UNL d   1       5.590  -4.811  -3.220  0.00  0.00     0.039 A 
ENDROOT
BRANCH   4   7
ATOM      7  O   UNL d   1       5.086  -2.242  -5.743  0.00  0.00    -0.526 OA
ATOM      8  H5  UNL d   1       5.143  -2.314  -6.710  0.00  0.00     0.418 HD
ENDBRANCH   4   7
TORSDOF 1
ENDMDL
