MODEL 1
REMARK minimizedAffinity 6.15128231
REMARK minimizedRMSD -1
REMARK  1 active torsions:
REMARK  status: ('A' for Active; 'I' for Inactive)
REMARK    1  A    between atoms: C3_4  and  O_7 
ROOT
ATOM      1  C   UNL d   1       1.852  -2.301   1.875  0.00  0.00    -0.033 A 
ATOM      2  C1  UNL d   1       1.284  -1.270   2.625  0.00  0.00     0.039 A 
ATOM      3  C2  UNL d   1       1.090  -1.428   3.998  0.00  0.00    -0.080 A 
ATOM      4  C3  UNL d   1       1.469  -2.620   4.609  0.00  0.00     0.150 A 
ATOM      5  C4  UNL d   1       2.039  -3.650   3.869  0.00  0.00    -0.007 A 
ATOM      6  C5  UNL d   1       2.231  -3.491   2.497  0.00  0.00     0.039 A 
ENDROOT
BRANCH   4   7
ATOM      7  O   UNL d   1       1.296  -2.822   5.946  0.00  0.00    -0.526 OA
ATOM      8  H5  UNL d   1       0.866  -2.037   6.323  0.00  0.00     0.418 HD
ENDBRANCH   4   7
TORSDOF 1
ENDMDL
