MODEL 1
REMARK minimizedAffinity 8.39167309
REMARK minimizedRMSD -1
REMARK  1 active torsions:
REMARK  status: ('A' for Active; 'I' for Inactive)
REMARK    1  A    between atoms: C3_4  and  O_7 
ROOT
ATOM      1  C   UNL d   1       1.906  -3.432   6.000  0.00  0.00    -0.033 A 
ATOM      2  C1  UNL d   1       2.319  -4.003   4.795  0.00  0.00     0.039 A 
ATOM      3  C2  UNL d   1       1.937  -3.428   3.581  0.00  0.00    -0.080 A 
ATOM      4  C3  UNL d   1       1.145  -2.283   3.586  0.00  0.00     0.150 A 
ATOM      5  C4  UNL d   1       0.734  -1.707   4.783  0.00  0.00    -0.007 A 
ATOM      6  C5  UNL d   1       1.114  -2.283   5.994  0.00  0.00     0.039 A 
ENDROOT
BRANCH   4   7
ATOM      7  O   UNL d   1       0.744  -1.689   2.426  0.00  0.00    -0.526 OA
ATOM      8  H5  UNL d   1       1.080  -2.213   1.680  0.00  0.00     0.418 HD
ENDBRANCH   4   7
TORSDOF 1
ENDMDL
