MODEL 1
REMARK minimizedAffinity -3.19852829
REMARK minimizedRMSD -1
REMARK  0 active torsions:
REMARK  status: ('A' for Active; 'I' for Inactive)
ROOT
ATOM      1  C   UNL d   1       2.287  -6.000  -5.354  0.00  0.00     0.172 C 
ATOM      2  N   UNL d   1       3.595  -5.668  -4.840  0.00  0.00    -0.070 N 
ATOM      3  C1  UNL d   1       4.012  -5.841  -3.547  0.00  0.00    -0.004 A 
ATOM      4  C2  UNL d   1       5.317  -5.405  -3.463  0.00  0.00    -0.047 A 
ATOM      5  C3  UNL d   1       5.696  -4.954  -4.749  0.00  0.00    -0.047 A 
ATOM      6  C4  UNL d   1       4.611  -5.128  -5.582  0.00  0.00    -0.004 A 
ENDROOT
TORSDOF 0
ENDMDL
