MODEL 1
REMARK minimizedAffinity -1.40601242
REMARK minimizedRMSD -1
REMARK  0 active torsions:
REMARK  status: ('A' for Active; 'I' for Inactive)
ROOT
ATOM      1  C   UNL d   1       2.386  -5.295  -5.589  0.00  0.00     0.172 C 
ATOM      2  N   UNL d   1       3.818  -5.153  -5.465  0.00  0.00    -0.070 N 
ATOM      3  C1  UNL d   1       4.753  -6.000  -5.998  0.00  0.00    -0.004 A 
ATOM      4  C2  UNL d   1       5.999  -5.519  -5.658  0.00  0.00    -0.047 A 
ATOM      5  C3  UNL d   1       5.807  -4.344  -4.894  0.00  0.00    -0.047 A 
ATOM      6  C4  UNL d   1       4.447  -4.140  -4.790  0.00  0.00    -0.004 A 
ENDROOT
TORSDOF 0
ENDMDL
