MODEL 1
REMARK minimizedAffinity 11.0780487
REMARK minimizedRMSD -1
REMARK  0 active torsions:
REMARK  status: ('A' for Active; 'I' for Inactive)
ROOT
ATOM      1  C   UNL d   1      -1.630   0.714   2.183  0.00  0.00     0.172 C 
ATOM      2  N   UNL d   1      -0.746   1.477   1.334  0.00  0.00    -0.070 N 
ATOM      3  C1  UNL d   1       0.595   1.253   1.171  0.00  0.00    -0.004 A 
ATOM      4  C2  UNL d   1       1.075   2.192   0.284  0.00  0.00    -0.047 A 
ATOM      5  C3  UNL d   1      -0.015   3.009  -0.099  0.00  0.00    -0.047 A 
ATOM      6  C4  UNL d   1      -1.130   2.545   0.566  0.00  0.00    -0.004 A 
ENDROOT
TORSDOF 0
ENDMDL
