MODEL 1
REMARK minimizedAffinity 8.66118431
REMARK minimizedRMSD -1
REMARK  0 active torsions:
REMARK  status: ('A' for Active; 'I' for Inactive)
ROOT
ATOM      1  C   UNL d   1       2.001   1.877   3.354  0.00  0.00     0.172 C 
ATOM      2  N   UNL d   1       1.225   1.990   2.142  0.00  0.00    -0.070 N 
ATOM      3  C1  UNL d   1       1.697   1.798   0.871  0.00  0.00    -0.004 A 
ATOM      4  C2  UNL d   1       0.650   1.997  -0.003  0.00  0.00    -0.047 A 
ATOM      5  C3  UNL d   1      -0.491   2.321   0.769  0.00  0.00    -0.047 A 
ATOM      6  C4  UNL d   1      -0.106   2.310   2.094  0.00  0.00    -0.004 A 
ENDROOT
TORSDOF 0
ENDMDL
