MODEL 1
REMARK minimizedAffinity 1.09040523
REMARK minimizedRMSD -1
REMARK  0 active torsions:
REMARK  status: ('A' for Active; 'I' for Inactive)
ROOT
ATOM      1  C   UNL d   1       2.467  -5.997  -5.231  0.00  0.00     0.172 C 
ATOM      2  N   UNL d   1       3.837  -5.544  -5.165  0.00  0.00    -0.070 N 
ATOM      3  C1  UNL d   1       4.335  -4.635  -4.270  0.00  0.00    -0.004 A 
ATOM      4  C2  UNL d   1       5.678  -4.474  -4.535  0.00  0.00    -0.047 A 
ATOM      5  C3  UNL d   1       5.998  -5.316  -5.627  0.00  0.00    -0.047 A 
ATOM      6  C4  UNL d   1       4.840  -5.967  -5.997  0.00  0.00    -0.004 A 
ENDROOT
TORSDOF 0
ENDMDL
