MODEL 1
REMARK minimizedAffinity 2.80795217
REMARK minimizedRMSD -1
REMARK  0 active torsions:
REMARK  status: ('A' for Active; 'I' for Inactive)
ROOT
ATOM      1  C   UNL d   1       2.993  -5.284  -2.448  0.00  0.00     0.172 C 
ATOM      2  N   UNL d   1       2.984  -5.285  -3.892  0.00  0.00    -0.070 N 
ATOM      3  C1  UNL d   1       2.106  -5.976  -4.685  0.00  0.00    -0.004 A 
ATOM      4  C2  UNL d   1       2.428  -5.713  -5.999  0.00  0.00    -0.047 A 
ATOM      5  C3  UNL d   1       3.537  -4.835  -5.996  0.00  0.00    -0.047 A 
ATOM      6  C4  UNL d   1       3.861  -4.586  -4.679  0.00  0.00    -0.004 A 
ENDROOT
TORSDOF 0
ENDMDL
