MODEL 1
REMARK minimizedAffinity 1.96172237
REMARK minimizedRMSD -1
REMARK  0 active torsions:
REMARK  status: ('A' for Active; 'I' for Inactive)
ROOT
ATOM      1  C   UNL d   1      -2.801   5.976  -6.000  0.00  0.00     0.172 C 
ATOM      2  N   UNL d   1      -3.917   5.059  -5.999  0.00  0.00    -0.070 N 
ATOM      3  C1  UNL d   1      -5.240   5.413  -5.999  0.00  0.00    -0.004 A 
ATOM      4  C2  UNL d   1      -5.986   4.254  -5.999  0.00  0.00    -0.047 A 
ATOM      5  C3  UNL d   1      -5.081   3.167  -5.996  0.00  0.00    -0.047 A 
ATOM      6  C4  UNL d   1      -3.806   3.694  -5.997  0.00  0.00    -0.004 A 
ENDROOT
TORSDOF 0
ENDMDL
