MODEL 1
REMARK minimizedAffinity -1.44065619
REMARK minimizedRMSD -1
REMARK  0 active torsions:
REMARK  status: ('A' for Active; 'I' for Inactive)
ROOT
ATOM      1  C   UNL d   1      -5.754   2.664  -5.992  0.00  0.00     0.172 C 
ATOM      2  N   UNL d   1      -4.396   2.874  -5.547  0.00  0.00    -0.070 N 
ATOM      3  C1  UNL d   1      -3.550   3.851  -6.000  0.00  0.00    -0.004 A 
ATOM      4  C2  UNL d   1      -2.353   3.716  -5.330  0.00  0.00    -0.047 A 
ATOM      5  C3  UNL d   1      -2.484   2.619  -4.445  0.00  0.00    -0.047 A 
ATOM      6  C4  UNL d   1      -3.759   2.117  -4.600  0.00  0.00    -0.004 A 
ENDROOT
TORSDOF 0
ENDMDL
