MODEL 1
REMARK minimizedAffinity 2.92673445
REMARK minimizedRMSD -1
REMARK  0 active torsions:
REMARK  status: ('A' for Active; 'I' for Inactive)
ROOT
ATOM      1  C   UNL d   1       0.381   1.351   1.042  0.00  0.00     0.172 C 
ATOM      2  N   UNL d   1       1.740   1.620   0.635  0.00  0.00    -0.070 N 
ATOM      3  C1  UNL d   1       2.784   1.904   1.475  0.00  0.00    -0.004 A 
ATOM      4  C2  UNL d   1       3.908   2.096   0.701  0.00  0.00    -0.047 A 
ATOM      5  C3  UNL d   1       3.526   1.924  -0.651  0.00  0.00    -0.047 A 
ATOM      6  C4  UNL d   1       2.179   1.630  -0.663  0.00  0.00    -0.004 A 
ENDROOT
TORSDOF 0
ENDMDL
