MODEL 1
REMARK minimizedAffinity 1.77572536
REMARK minimizedRMSD -1
REMARK  0 active torsions:
REMARK  status: ('A' for Active; 'I' for Inactive)
ROOT
ATOM      1  C   UNL d   1      -5.954   5.902  -5.996  0.00  0.00     0.172 C 
ATOM      2  N   UNL d   1      -5.336   4.597  -5.991  0.00  0.00    -0.070 N 
ATOM      3  C1  UNL d   1      -5.999   3.399  -5.976  0.00  0.00    -0.004 A 
ATOM      4  C2  UNL d   1      -5.055   2.395  -5.976  0.00  0.00    -0.047 A 
ATOM      5  C3  UNL d   1      -3.781   3.010  -5.991  0.00  0.00    -0.047 A 
ATOM      6  C4  UNL d   1      -3.984   4.374  -6.000  0.00  0.00    -0.004 A 
ENDROOT
TORSDOF 0
ENDMDL
