MODEL 1
REMARK minimizedAffinity 0.554359615
REMARK minimizedRMSD -1
REMARK  0 active torsions:
REMARK  status: ('A' for Active; 'I' for Inactive)
ROOT
ATOM      1  C   UNL d   1       0.245  -5.885   5.018  0.00  0.00     0.172 C 
ATOM      2  N   UNL d   1       0.049  -5.319   3.704  0.00  0.00    -0.070 N 
ATOM      3  C1  UNL d   1      -0.440  -5.985   2.613  0.00  0.00    -0.004 A 
ATOM      4  C2  UNL d   1      -0.474  -5.099   1.558  0.00  0.00    -0.047 A 
ATOM      5  C3  UNL d   1       0.013  -3.857   2.032  0.00  0.00    -0.047 A 
ATOM      6  C4  UNL d   1       0.330  -4.022   3.364  0.00  0.00    -0.004 A 
ENDROOT
TORSDOF 0
ENDMDL
