MODEL 1
REMARK minimizedAffinity 5.58813143
REMARK minimizedRMSD -1
REMARK  0 active torsions:
REMARK  status: ('A' for Active; 'I' for Inactive)
ROOT
ATOM      1  C   UNL d   1       4.509   3.727  -6.000  0.00  0.00     0.172 C 
ATOM      2  N   UNL d   1       4.213   2.774  -4.957  0.00  0.00    -0.070 N 
ATOM      3  C1  UNL d   1       5.076   2.372  -3.973  0.00  0.00    -0.004 A 
ATOM      4  C2  UNL d   1       4.417   1.459  -3.179  0.00  0.00    -0.047 A 
ATOM      5  C3  UNL d   1       3.112   1.305  -3.705  0.00  0.00    -0.047 A 
ATOM      6  C4  UNL d   1       3.012   2.131  -4.805  0.00  0.00    -0.004 A 
ENDROOT
TORSDOF 0
ENDMDL
