MODEL 1
REMARK minimizedAffinity 1.90727758
REMARK minimizedRMSD -1
REMARK  0 active torsions:
REMARK  status: ('A' for Active; 'I' for Inactive)
ROOT
ATOM      1  C   UNL d   1       2.006  -0.899  -2.286  0.00  0.00     0.172 C 
ATOM      2  N   UNL d   1       2.306   0.105  -1.292  0.00  0.00    -0.070 N 
ATOM      3  C1  UNL d   1       2.681  -0.140   0.002  0.00  0.00    -0.004 A 
ATOM      4  C2  UNL d   1       2.875   1.075   0.622  0.00  0.00    -0.047 A 
ATOM      5  C3  UNL d   1       2.607   2.085  -0.332  0.00  0.00    -0.047 A 
ATOM      6  C4  UNL d   1       2.257   1.457  -1.508  0.00  0.00    -0.004 A 
ENDROOT
TORSDOF 0
ENDMDL
