MODEL 1
REMARK minimizedAffinity 1.0107305
REMARK minimizedRMSD -1
REMARK  0 active torsions:
REMARK  status: ('A' for Active; 'I' for Inactive)
ROOT
ATOM      1  C   UNL d   1       2.192  -0.307   0.078  0.00  0.00     0.172 C 
ATOM      2  N   UNL d   1       1.931   1.105   0.226  0.00  0.00    -0.070 N 
ATOM      3  C1  UNL d   1       0.693   1.687   0.285  0.00  0.00    -0.004 A 
ATOM      4  C2  UNL d   1       0.871   3.046   0.428  0.00  0.00    -0.047 A 
ATOM      5  C3  UNL d   1       2.264   3.290   0.456  0.00  0.00    -0.047 A 
ATOM      6  C4  UNL d   1       2.897   2.071   0.328  0.00  0.00    -0.004 A 
ENDROOT
TORSDOF 0
ENDMDL
