MODEL 1
REMARK minimizedAffinity 6.0509944
REMARK minimizedRMSD -1
REMARK  0 active torsions:
REMARK  status: ('A' for Active; 'I' for Inactive)
ROOT
ATOM      1  C   UNL d   1      -0.613   3.345  -0.277  0.00  0.00     0.172 C 
ATOM      2  N   UNL d   1       0.638   2.887   0.281  0.00  0.00    -0.070 N 
ATOM      3  C1  UNL d   1       1.882   3.338  -0.070  0.00  0.00    -0.004 A 
ATOM      4  C2  UNL d   1       2.808   2.656   0.689  0.00  0.00    -0.047 A 
ATOM      5  C3  UNL d   1       2.096   1.763   1.524  0.00  0.00    -0.047 A 
ATOM      6  C4  UNL d   1       0.754   1.927   1.252  0.00  0.00    -0.004 A 
ENDROOT
TORSDOF 0
ENDMDL
