MODEL 1
REMARK minimizedAffinity 8.93243122
REMARK minimizedRMSD -1
REMARK  0 active torsions:
REMARK  status: ('A' for Active; 'I' for Inactive)
ROOT
ATOM      1  C2' OXE d   1       3.229  -3.009  -0.582  0.00  0.00     0.078 C 
ATOM      2  C1' OXE d   1       5.999  -3.444  -0.727  0.00  0.00     0.078 C 
ATOM      3  C1  OXE d   1       5.296  -2.968  -1.973  0.00  0.00    -0.078 A 
ATOM      4  C2  OXE d   1       3.933  -2.802  -1.906  0.00  0.00    -0.078 A 
ATOM      5  C3  OXE d   1       3.243  -2.312  -3.012  0.00  0.00     0.003 A 
ATOM      6  C4  OXE d   1       3.900  -2.133  -4.235  0.00  0.00    -0.002 A 
ATOM      7  C5  OXE d   1       5.280  -2.334  -4.336  0.00  0.00    -0.002 A 
ATOM      8  C6  OXE d   1       5.999  -2.709  -3.206  0.00  0.00     0.003 A 
ENDROOT
TORSDOF 0
ENDMDL
