MODEL 1
REMARK minimizedAffinity 11.179039
REMARK minimizedRMSD -1
REMARK  0 active torsions:
REMARK  status: ('A' for Active; 'I' for Inactive)
ROOT
ATOM      1  C2' OXE d   1       0.905  -0.026  -1.999  0.00  0.00     0.078 C 
ATOM      2  C1' OXE d   1      -0.138   1.306   0.241  0.00  0.00     0.078 C 
ATOM      3  C1  OXE d   1      -0.726  -0.036  -0.116  0.00  0.00    -0.078 A 
ATOM      4  C2  OXE d   1      -0.242  -0.659  -1.241  0.00  0.00    -0.078 A 
ATOM      5  C3  OXE d   1      -0.711  -1.924  -1.584  0.00  0.00     0.003 A 
ATOM      6  C4  OXE d   1      -1.778  -2.499  -0.883  0.00  0.00    -0.002 A 
ATOM      7  C5  OXE d   1      -2.313  -1.862   0.242  0.00  0.00    -0.002 A 
ATOM      8  C6  OXE d   1      -1.770  -0.653   0.664  0.00  0.00     0.003 A 
ENDROOT
TORSDOF 0
ENDMDL
