MODEL 1
REMARK minimizedAffinity 1.39831555
REMARK minimizedRMSD -1
REMARK  0 active torsions:
REMARK  status: ('A' for Active; 'I' for Inactive)
ROOT
ATOM      1  C2' OXE d   1      -3.117  -2.311  -0.274  0.00  0.00     0.078 C 
ATOM      2  C1' OXE d   1      -2.790  -0.379   1.737  0.00  0.00     0.078 C 
ATOM      3  C1  OXE d   1      -1.638  -0.613   0.791  0.00  0.00    -0.078 A 
ATOM      4  C2  OXE d   1      -1.790  -1.592  -0.160  0.00  0.00    -0.078 A 
ATOM      5  C3  OXE d   1      -0.779  -1.811  -1.092  0.00  0.00     0.003 A 
ATOM      6  C4  OXE d   1       0.449  -1.149  -0.974  0.00  0.00    -0.002 A 
ATOM      7  C5  OXE d   1       0.639  -0.176   0.013  0.00  0.00    -0.002 A 
ATOM      8  C6  OXE d   1      -0.407   0.134   0.875  0.00  0.00     0.003 A 
ENDROOT
TORSDOF 0
ENDMDL
