MODEL 1
REMARK minimizedAffinity 10.6223507
REMARK minimizedRMSD -1
REMARK  0 active torsions:
REMARK  status: ('A' for Active; 'I' for Inactive)
ROOT
ATOM      1  C2' OXE d   1      -4.938   1.132   3.081  0.00  0.00     0.078 C 
ATOM      2  C1' OXE d   1      -3.311  -0.931   4.069  0.00  0.00     0.078 C 
ATOM      3  C1  OXE d   1      -2.916  -0.288   2.763  0.00  0.00    -0.078 A 
ATOM      4  C2  OXE d   1      -3.743   0.689   2.264  0.00  0.00    -0.078 A 
ATOM      5  C3  OXE d   1      -3.397   1.353   1.091  0.00  0.00     0.003 A 
ATOM      6  C4  OXE d   1      -2.296   0.931   0.336  0.00  0.00    -0.002 A 
ATOM      7  C5  OXE d   1      -1.462  -0.089   0.807  0.00  0.00    -0.002 A 
ATOM      8  C6  OXE d   1      -1.733  -0.678   2.036  0.00  0.00     0.003 A 
ENDROOT
TORSDOF 0
ENDMDL
