MODEL 1
REMARK minimizedAffinity 7.49140549
REMARK minimizedRMSD -1
REMARK  0 active torsions:
REMARK  status: ('A' for Active; 'I' for Inactive)
ROOT
ATOM      1  C2' OXE d   1      -0.328  -1.654  -1.063  0.00  0.00     0.078 C 
ATOM      2  C1' OXE d   1      -1.943  -0.850   1.088  0.00  0.00     0.078 C 
ATOM      3  C1  OXE d   1      -2.554  -1.758   0.051  0.00  0.00    -0.078 A 
ATOM      4  C2  OXE d   1      -1.771  -2.109  -1.023  0.00  0.00    -0.078 A 
ATOM      5  C3  OXE d   1      -2.268  -2.989  -1.980  0.00  0.00     0.003 A 
ATOM      6  C4  OXE d   1      -3.607  -3.397  -1.941  0.00  0.00    -0.002 A 
ATOM      7  C5  OXE d   1      -4.433  -3.019  -0.877  0.00  0.00    -0.002 A 
ATOM      8  C6  OXE d   1      -3.911  -2.236   0.147  0.00  0.00     0.003 A 
ENDROOT
TORSDOF 0
ENDMDL
