MODEL 1
REMARK minimizedAffinity 1.87159908
REMARK minimizedRMSD -1
REMARK  0 active torsions:
REMARK  status: ('A' for Active; 'I' for Inactive)
ROOT
ATOM      1  C2' OXE d   1      -2.963   0.361   2.282  0.00  0.00     0.078 C 
ATOM      2  C1' OXE d   1      -4.954   1.604   3.821  0.00  0.00     0.078 C 
ATOM      3  C1  OXE d   1      -4.357   0.322   4.346  0.00  0.00    -0.078 A 
ATOM      4  C2  OXE d   1      -3.417  -0.304   3.563  0.00  0.00    -0.078 A 
ATOM      5  C3  OXE d   1      -2.795  -1.460   4.026  0.00  0.00     0.003 A 
ATOM      6  C4  OXE d   1      -3.228  -2.074   5.207  0.00  0.00    -0.002 A 
ATOM      7  C5  OXE d   1      -4.212  -1.474   6.000  0.00  0.00    -0.002 A 
ATOM      8  C6  OXE d   1      -4.756  -0.256   5.605  0.00  0.00     0.003 A 
ENDROOT
TORSDOF 0
ENDMDL
