MODEL 1
REMARK minimizedAffinity 16.494318
REMARK minimizedRMSD -1
REMARK  0 active torsions:
REMARK  status: ('A' for Active; 'I' for Inactive)
ROOT
ATOM      1  C2' OXE d   1      -0.443  -1.680  -3.608  0.00  0.00     0.078 C 
ATOM      2  C1' OXE d   1       1.582  -0.129  -2.437  0.00  0.00     0.078 C 
ATOM      3  C1  OXE d   1       0.513  -0.689  -1.533  0.00  0.00    -0.078 A 
ATOM      4  C2  OXE d   1      -0.500  -1.408  -2.121  0.00  0.00    -0.078 A 
ATOM      5  C3  OXE d   1      -1.482  -1.993  -1.326  0.00  0.00     0.003 A 
ATOM      6  C4  OXE d   1      -1.533  -1.727   0.048  0.00  0.00    -0.002 A 
ATOM      7  C5  OXE d   1      -0.533  -0.964   0.661  0.00  0.00    -0.002 A 
ATOM      8  C6  OXE d   1       0.518  -0.475  -0.106  0.00  0.00     0.003 A 
ENDROOT
TORSDOF 0
ENDMDL
