MODEL 1
REMARK minimizedAffinity 10.7997513
REMARK minimizedRMSD -1
REMARK  0 active torsions:
REMARK  status: ('A' for Active; 'I' for Inactive)
ROOT
ATOM      1  C2' OXE d   1       3.417  -3.140  -5.864  0.00  0.00     0.078 C 
ATOM      2  C1' OXE d   1       5.999  -4.217  -5.635  0.00  0.00     0.078 C 
ATOM      3  C1  OXE d   1       5.351  -3.672  -4.387  0.00  0.00    -0.078 A 
ATOM      4  C2  OXE d   1       4.106  -3.104  -4.517  0.00  0.00    -0.078 A 
ATOM      5  C3  OXE d   1       3.441  -2.636  -3.388  0.00  0.00     0.003 A 
ATOM      6  C4  OXE d   1       4.089  -2.597  -2.147  0.00  0.00    -0.002 A 
ATOM      7  C5  OXE d   1       5.373  -3.134  -2.001  0.00  0.00    -0.002 A 
ATOM      8  C6  OXE d   1       5.999  -3.713  -3.099  0.00  0.00     0.003 A 
ENDROOT
TORSDOF 0
ENDMDL
