MODEL 1
REMARK minimizedAffinity 4.73515701
REMARK minimizedRMSD -1
REMARK  0 active torsions:
REMARK  status: ('A' for Active; 'I' for Inactive)
ROOT
ATOM      1  C2' OXE d   1       0.921   1.041  -2.359  0.00  0.00     0.078 C 
ATOM      2  C1' OXE d   1      -0.795   1.620  -0.214  0.00  0.00     0.078 C 
ATOM      3  C1  OXE d   1      -0.706   0.187  -0.676  0.00  0.00    -0.078 A 
ATOM      4  C2  OXE d   1       0.100  -0.079  -1.756  0.00  0.00    -0.078 A 
ATOM      5  C3  OXE d   1       0.261  -1.393  -2.189  0.00  0.00     0.003 A 
ATOM      6  C4  OXE d   1      -0.509  -2.421  -1.633  0.00  0.00    -0.002 A 
ATOM      7  C5  OXE d   1      -1.366  -2.165  -0.558  0.00  0.00    -0.002 A 
ATOM      8  C6  OXE d   1      -1.444  -0.877  -0.041  0.00  0.00     0.003 A 
ENDROOT
TORSDOF 0
ENDMDL
