MODEL 1
REMARK minimizedAffinity 10.0653687
REMARK minimizedRMSD -1
REMARK  0 active torsions:
REMARK  status: ('A' for Active; 'I' for Inactive)
ROOT
ATOM      1  C2' OXE d   1       0.651   1.023   0.446  0.00  0.00     0.078 C 
ATOM      2  C1' OXE d   1       1.929  -0.731  -1.334  0.00  0.00     0.078 C 
ATOM      3  C1  OXE d   1       0.477  -0.985  -1.018  0.00  0.00    -0.078 A 
ATOM      4  C2  OXE d   1      -0.128  -0.149  -0.110  0.00  0.00    -0.078 A 
ATOM      5  C3  OXE d   1      -1.481  -0.305   0.176  0.00  0.00     0.003 A 
ATOM      6  C4  OXE d   1      -2.192  -1.398  -0.335  0.00  0.00    -0.002 A 
ATOM      7  C5  OXE d   1      -1.585  -2.284  -1.230  0.00  0.00    -0.002 A 
ATOM      8  C6  OXE d   1      -0.266  -2.068  -1.614  0.00  0.00     0.003 A 
ENDROOT
TORSDOF 0
ENDMDL
