MODEL 1
REMARK minimizedAffinity 7.09289789
REMARK minimizedRMSD -1
REMARK  0 active torsions:
REMARK  status: ('A' for Active; 'I' for Inactive)
ROOT
ATOM      1  C2' OXE d   1      -4.328  -3.373  -1.524  0.00  0.00     0.078 C 
ATOM      2  C1' OXE d   1      -2.261  -3.399  -3.423  0.00  0.00     0.078 C 
ATOM      3  C1  OXE d   1      -2.047  -2.601  -2.161  0.00  0.00    -0.078 A 
ATOM      4  C2  OXE d   1      -3.082  -2.556  -1.259  0.00  0.00    -0.078 A 
ATOM      5  C3  OXE d   1      -2.916  -1.879  -0.053  0.00  0.00     0.003 A 
ATOM      6  C4  OXE d   1      -1.764  -1.118   0.180  0.00  0.00    -0.002 A 
ATOM      7  C5  OXE d   1      -0.714  -1.118  -0.744  0.00  0.00    -0.002 A 
ATOM      8  C6  OXE d   1      -0.822  -1.887  -1.898  0.00  0.00     0.003 A 
ENDROOT
TORSDOF 0
ENDMDL
