MODEL 1
REMARK minimizedAffinity 13.2248068
REMARK minimizedRMSD -1
REMARK  0 active torsions:
REMARK  status: ('A' for Active; 'I' for Inactive)
ROOT
ATOM      1  C2' OXE d   1      -4.441  -0.422   6.000  0.00  0.00     0.078 C 
ATOM      2  C1' OXE d   1      -2.511  -2.062   4.790  0.00  0.00     0.078 C 
ATOM      3  C1  OXE d   1      -3.092  -0.937   3.970  0.00  0.00    -0.078 A 
ATOM      4  C2  OXE d   1      -4.069  -0.168   4.555  0.00  0.00    -0.078 A 
ATOM      5  C3  OXE d   1      -4.599   0.916   3.862  0.00  0.00     0.003 A 
ATOM      6  C4  OXE d   1      -4.258   1.137   2.522  0.00  0.00    -0.002 A 
ATOM      7  C5  OXE d   1      -3.293   0.342   1.895  0.00  0.00    -0.002 A 
ATOM      8  C6  OXE d   1      -2.671  -0.671   2.617  0.00  0.00     0.003 A 
ENDROOT
TORSDOF 0
ENDMDL
