MODEL 1
REMARK minimizedAffinity 6.01236582
REMARK minimizedRMSD -1
REMARK  0 active torsions:
REMARK  status: ('A' for Active; 'I' for Inactive)
ROOT
ATOM      1  C2' OXE d   1       1.593   1.022  -1.999  0.00  0.00     0.078 C 
ATOM      2  C1' OXE d   1       0.642   1.646   0.568  0.00  0.00     0.078 C 
ATOM      3  C1  OXE d   1       0.100   0.408  -0.102  0.00  0.00    -0.078 A 
ATOM      4  C2  OXE d   1       0.536   0.135  -1.376  0.00  0.00    -0.078 A 
ATOM      5  C3  OXE d   1       0.110  -1.024  -2.018  0.00  0.00     0.003 A 
ATOM      6  C4  OXE d   1      -0.875  -1.833  -1.439  0.00  0.00    -0.002 A 
ATOM      7  C5  OXE d   1      -1.363  -1.552  -0.158  0.00  0.00    -0.002 A 
ATOM      8  C6  OXE d   1      -0.855  -0.462   0.540  0.00  0.00     0.003 A 
ENDROOT
TORSDOF 0
ENDMDL
