MODEL 1
REMARK minimizedAffinity 7.21593332
REMARK minimizedRMSD -1
REMARK  0 active torsions:
REMARK  status: ('A' for Active; 'I' for Inactive)
ROOT
ATOM      1  C2' OXE d   1       6.000  -3.917  -3.015  0.00  0.00     0.078 C 
ATOM      2  C1' OXE d   1       5.998  -2.569  -0.552  0.00  0.00     0.078 C 
ATOM      3  C1  OXE d   1       4.683  -2.711  -1.278  0.00  0.00    -0.078 A 
ATOM      4  C2  OXE d   1       4.701  -3.331  -2.504  0.00  0.00    -0.078 A 
ATOM      5  C3  OXE d   1       3.508  -3.537  -3.190  0.00  0.00     0.003 A 
ATOM      6  C4  OXE d   1       2.313  -2.983  -2.715  0.00  0.00    -0.002 A 
ATOM      7  C5  OXE d   1       2.279  -2.313  -1.488  0.00  0.00    -0.002 A 
ATOM      8  C6  OXE d   1       3.445  -2.206  -0.738  0.00  0.00     0.003 A 
ENDROOT
TORSDOF 0
ENDMDL
