MODEL 1
REMARK minimizedAffinity 6.08690023
REMARK minimizedRMSD -1
REMARK  0 active torsions:
REMARK  status: ('A' for Active; 'I' for Inactive)
ROOT
ATOM      1  C2' OXE d   1      -3.767  -3.407  -1.914  0.00  0.00     0.078 C 
ATOM      2  C1' OXE d   1      -1.717  -3.477  -3.829  0.00  0.00     0.078 C 
ATOM      3  C1  OXE d   1      -1.432  -2.785  -2.520  0.00  0.00    -0.078 A 
ATOM      4  C2  OXE d   1      -2.457  -2.715  -1.607  0.00  0.00    -0.078 A 
ATOM      5  C3  OXE d   1      -2.231  -2.136  -0.361  0.00  0.00     0.003 A 
ATOM      6  C4  OXE d   1      -1.020  -1.489  -0.089  0.00  0.00    -0.002 A 
ATOM      7  C5  OXE d   1       0.024  -1.515  -1.020  0.00  0.00    -0.002 A 
ATOM      8  C6  OXE d   1      -0.151  -2.194  -2.221  0.00  0.00     0.003 A 
ENDROOT
TORSDOF 0
ENDMDL
