MODEL 1
REMARK minimizedAffinity 7.26354361
REMARK minimizedRMSD -1
REMARK  0 active torsions:
REMARK  status: ('A' for Active; 'I' for Inactive)
ROOT
ATOM      1  C2' OXE d   1       0.024   0.834   0.848  0.00  0.00     0.078 C 
ATOM      2  C1' OXE d   1      -2.571  -0.221   1.032  0.00  0.00     0.078 C 
ATOM      3  C1  OXE d   1      -1.613  -0.876   0.069  0.00  0.00    -0.078 A 
ATOM      4  C2  OXE d   1      -0.360  -0.324  -0.049  0.00  0.00    -0.078 A 
ATOM      5  C3  OXE d   1       0.581  -0.922  -0.882  0.00  0.00     0.003 A 
ATOM      6  C4  OXE d   1       0.215  -1.986  -1.715  0.00  0.00    -0.002 A 
ATOM      7  C5  OXE d   1      -1.068  -2.538  -1.640  0.00  0.00    -0.002 A 
ATOM      8  C6  OXE d   1      -1.979  -2.023  -0.724  0.00  0.00     0.003 A 
ENDROOT
TORSDOF 0
ENDMDL
