MODEL 1
REMARK minimizedAffinity 0.270834327
REMARK minimizedRMSD -1
REMARK  0 active torsions:
REMARK  status: ('A' for Active; 'I' for Inactive)
ROOT
ATOM      1  C2' OXE d   1       5.091  -3.371  -1.220  0.00  0.00     0.078 C 
ATOM      2  C1' OXE d   1       3.154  -1.808  -2.519  0.00  0.00     0.078 C 
ATOM      3  C1  OXE d   1       4.127  -2.580  -3.376  0.00  0.00    -0.078 A 
ATOM      4  C2  OXE d   1       5.100  -3.304  -2.732  0.00  0.00    -0.078 A 
ATOM      5  C3  OXE d   1       5.988  -4.078  -3.474  0.00  0.00     0.003 A 
ATOM      6  C4  OXE d   1       5.996  -4.003  -4.873  0.00  0.00    -0.002 A 
ATOM      7  C5  OXE d   1       5.038  -3.239  -5.548  0.00  0.00    -0.002 A 
ATOM      8  C6  OXE d   1       4.072  -2.557  -4.817  0.00  0.00     0.003 A 
ENDROOT
TORSDOF 0
ENDMDL
