MODEL 1
REMARK minimizedAffinity 2.30529046
REMARK minimizedRMSD -1
REMARK  0 active torsions:
REMARK  status: ('A' for Active; 'I' for Inactive)
ROOT
ATOM      1  C2' OXE d   1       0.492   0.289   0.885  0.00  0.00     0.078 C 
ATOM      2  C1' OXE d   1       1.212  -0.510  -1.708  0.00  0.00     0.078 C 
ATOM      3  C1  OXE d   1      -0.033  -1.112  -1.107  0.00  0.00    -0.078 A 
ATOM      4  C2  OXE d   1      -0.353  -0.751   0.180  0.00  0.00    -0.078 A 
ATOM      5  C3  OXE d   1      -1.521  -1.234   0.762  0.00  0.00     0.003 A 
ATOM      6  C4  OXE d   1      -2.290  -2.203   0.107  0.00  0.00    -0.002 A 
ATOM      7  C5  OXE d   1      -1.961  -2.615  -1.189  0.00  0.00    -0.002 A 
ATOM      8  C6  OXE d   1      -0.862  -2.049  -1.825  0.00  0.00     0.003 A 
ENDROOT
TORSDOF 0
ENDMDL
