MODEL 1
REMARK minimizedAffinity 1.12389517
REMARK minimizedRMSD -1
REMARK  0 active torsions:
REMARK  status: ('A' for Active; 'I' for Inactive)
ROOT
ATOM      1  C2' OXE d   1      -0.494   0.927  -0.145  0.00  0.00     0.078 C 
ATOM      2  C1' OXE d   1       2.156   0.512  -0.974  0.00  0.00     0.078 C 
ATOM      3  C1  OXE d   1       1.860   1.743  -0.154  0.00  0.00    -0.078 A 
ATOM      4  C2  OXE d   1       0.553   1.962   0.208  0.00  0.00    -0.078 A 
ATOM      5  C3  OXE d   1       0.233   3.054   1.011  0.00  0.00     0.003 A 
ATOM      6  C4  OXE d   1       1.205   4.011   1.324  0.00  0.00    -0.002 A 
ATOM      7  C5  OXE d   1       2.536   3.828   0.932  0.00  0.00    -0.002 A 
ATOM      8  C6  OXE d   1       2.887   2.680   0.231  0.00  0.00     0.003 A 
ENDROOT
TORSDOF 0
ENDMDL
