MODEL 1
REMARK minimizedAffinity -3.48474455
REMARK minimizedRMSD -1
REMARK  0 active torsions:
REMARK  status: ('A' for Active; 'I' for Inactive)
ROOT
ATOM      1  C2' OXE d   1      -0.211   1.208  -1.405  0.00  0.00     0.078 C 
ATOM      2  C1' OXE d   1       0.404  -1.345  -2.398  0.00  0.00     0.078 C 
ATOM      3  C1  OXE d   1      -0.153  -1.250  -0.999  0.00  0.00    -0.078 A 
ATOM      4  C2  OXE d   1      -0.408   0.007  -0.505  0.00  0.00    -0.078 A 
ATOM      5  C3  OXE d   1      -0.974   0.149   0.759  0.00  0.00     0.003 A 
ATOM      6  C4  OXE d   1      -1.143  -0.966   1.589  0.00  0.00    -0.002 A 
ATOM      7  C5  OXE d   1      -0.853  -2.251   1.119  0.00  0.00    -0.002 A 
ATOM      8  C6  OXE d   1      -0.399  -2.414  -0.185  0.00  0.00     0.003 A 
ENDROOT
TORSDOF 0
ENDMDL
