MODEL 1
REMARK minimizedAffinity 9.3663311
REMARK minimizedRMSD -1
REMARK  1 active torsions:
REMARK  status: ('A' for Active; 'I' for Inactive)
REMARK    1  A    between atoms: C1_2  and  C2_3 
ROOT
ATOM      1  C2  UNL d   1       1.837  -1.831  -2.246  0.00  0.00    -0.073 A 
ATOM      2  C3  UNL d   1       1.434  -0.496  -2.125  0.00  0.00    -0.002 A 
ATOM      3  C4  UNL d   1       1.362   0.323  -3.253  0.00  0.00     0.004 A 
ATOM      4  C5  UNL d   1       1.685  -0.185  -4.511  0.00  0.00    -0.004 A 
ATOM      5  C6  UNL d   1       2.078  -1.520  -4.654  0.00  0.00    -0.075 A 
ATOM      6  C7  UNL d   1       2.431  -2.081  -6.000  0.00  0.00     0.076 C 
ATOM      7  C8  UNL d   1       2.151  -2.335  -3.516  0.00  0.00     0.001 A 
ENDROOT
BRANCH   1   8
ATOM      8  C1  UNL d   1       1.911  -2.721  -1.032  0.00  0.00     0.053 C 
ATOM      9  C   UNL d   1       3.081  -3.689  -1.104  0.00  0.00     0.018 C 
ENDBRANCH   1   8
TORSDOF 1
ENDMDL
