MODEL 1
REMARK minimizedAffinity 12.7371941
REMARK minimizedRMSD -1
REMARK  1 active torsions:
REMARK  status: ('A' for Active; 'I' for Inactive)
REMARK    1  A    between atoms: C1_2  and  C2_3 
ROOT
ATOM      1  C2  UNL d   1       2.145  -2.490  -0.779  0.00  0.00    -0.073 A 
ATOM      2  C3  UNL d   1       2.005  -1.119  -1.024  0.00  0.00    -0.002 A 
ATOM      3  C4  UNL d   1       1.138  -0.665  -2.019  0.00  0.00     0.004 A 
ATOM      4  C5  UNL d   1       0.398  -1.575  -2.774  0.00  0.00    -0.004 A 
ATOM      5  C6  UNL d   1       0.515  -2.948  -2.536  0.00  0.00    -0.075 A 
ATOM      6  C7  UNL d   1      -0.273  -3.940  -3.341  0.00  0.00     0.076 C 
ATOM      7  C8  UNL d   1       1.390  -3.396  -1.537  0.00  0.00     0.001 A 
ENDROOT
BRANCH   1   8
ATOM      8  C1  UNL d   1       3.075  -2.984   0.298  0.00  0.00     0.053 C 
ATOM      9  C   UNL d   1       3.681  -4.335  -0.048  0.00  0.00     0.018 C 
ENDBRANCH   1   8
TORSDOF 1
ENDMDL
