MODEL 1
REMARK minimizedAffinity 16.0550365
REMARK minimizedRMSD -1
REMARK  1 active torsions:
REMARK  status: ('A' for Active; 'I' for Inactive)
REMARK    1  A    between atoms: C1_2  and  C2_3 
ROOT
ATOM      1  C2  UNL d   1      -1.306  -4.741  -2.471  0.00  0.00    -0.073 A 
ATOM      2  C3  UNL d   1      -0.686  -3.486  -2.470  0.00  0.00    -0.002 A 
ATOM      3  C4  UNL d   1      -1.333  -2.381  -3.024  0.00  0.00     0.004 A 
ATOM      4  C5  UNL d   1      -2.606  -2.517  -3.578  0.00  0.00    -0.004 A 
ATOM      5  C6  UNL d   1      -3.246  -3.760  -3.578  0.00  0.00    -0.075 A 
ATOM      6  C7  UNL d   1      -4.615  -3.923  -4.171  0.00  0.00     0.076 C 
ATOM      7  C8  UNL d   1      -2.589  -4.866  -3.022  0.00  0.00     0.001 A 
ENDROOT
BRANCH   1   8
ATOM      8  C1  UNL d   1      -0.614  -5.937  -1.868  0.00  0.00     0.053 C 
ATOM      9  C   UNL d   1       0.855  -5.999  -2.253  0.00  0.00     0.018 C 
ENDBRANCH   1   8
TORSDOF 1
ENDMDL
