MODEL 1
REMARK minimizedAffinity 17.5540428
REMARK minimizedRMSD -1
REMARK  1 active torsions:
REMARK  status: ('A' for Active; 'I' for Inactive)
REMARK    1  A    between atoms: C1_2  and  C2_3 
ROOT
ATOM      1  C2  UNL d   1       2.276  -2.559  -0.306  0.00  0.00    -0.073 A 
ATOM      2  C3  UNL d   1       1.841  -3.861  -0.034  0.00  0.00    -0.002 A 
ATOM      3  C4  UNL d   1       2.749  -4.836   0.381  0.00  0.00     0.004 A 
ATOM      4  C5  UNL d   1       4.098  -4.518   0.535  0.00  0.00    -0.004 A 
ATOM      5  C6  UNL d   1       4.551  -3.220   0.280  0.00  0.00    -0.075 A 
ATOM      6  C7  UNL d   1       5.999  -2.862   0.438  0.00  0.00     0.076 C 
ATOM      7  C8  UNL d   1       3.633  -2.247  -0.139  0.00  0.00     0.001 A 
ENDROOT
BRANCH   1   8
ATOM      8  C1  UNL d   1       1.298  -1.502  -0.748  0.00  0.00     0.053 C 
ATOM      9  C   UNL d   1       1.786  -0.752  -1.977  0.00  0.00     0.018 C 
ENDBRANCH   1   8
TORSDOF 1
ENDMDL
