MODEL 1
REMARK minimizedAffinity 15.5980768
REMARK minimizedRMSD -1
REMARK  1 active torsions:
REMARK  status: ('A' for Active; 'I' for Inactive)
REMARK    1  A    between atoms: C1_2  and  C2_3 
ROOT
ATOM      1  C2  UNL d   1      -3.694   4.610  -5.337  0.00  0.00    -0.073 A 
ATOM      2  C3  UNL d   1      -3.034   4.852  -4.128  0.00  0.00    -0.002 A 
ATOM      3  C4  UNL d   1      -2.280   3.845  -3.522  0.00  0.00     0.004 A 
ATOM      4  C5  UNL d   1      -2.174   2.590  -4.123  0.00  0.00    -0.004 A 
ATOM      5  C6  UNL d   1      -2.817   2.333  -5.337  0.00  0.00    -0.075 A 
ATOM      6  C7  UNL d   1      -2.715   0.988  -5.995  0.00  0.00     0.076 C 
ATOM      7  C8  UNL d   1      -3.574   3.348  -5.938  0.00  0.00     0.001 A 
ENDROOT
BRANCH   1   8
ATOM      8  C1  UNL d   1      -4.504   5.695  -5.998  0.00  0.00     0.053 C 
ATOM      9  C   UNL d   1      -5.991   5.379  -5.997  0.00  0.00     0.018 C 
ENDBRANCH   1   8
TORSDOF 1
ENDMDL
