MODEL 1
REMARK minimizedAffinity 24.7388935
REMARK minimizedRMSD -1
REMARK  1 active torsions:
REMARK  status: ('A' for Active; 'I' for Inactive)
REMARK    1  A    between atoms: C1_2  and  C2_3 
ROOT
ATOM      1  C2  UNL d   1       2.690   0.206  -0.647  0.00  0.00    -0.073 A 
ATOM      2  C3  UNL d   1       2.279   0.798  -1.846  0.00  0.00    -0.002 A 
ATOM      3  C4  UNL d   1       1.276   0.207  -2.616  0.00  0.00     0.004 A 
ATOM      4  C5  UNL d   1       0.670  -0.976  -2.192  0.00  0.00    -0.004 A 
ATOM      5  C6  UNL d   1       1.060  -1.576  -0.990  0.00  0.00    -0.075 A 
ATOM      6  C7  UNL d   1       0.420  -2.849  -0.521  0.00  0.00     0.076 C 
ATOM      7  C8  UNL d   1       2.069  -0.978  -0.224  0.00  0.00     0.001 A 
ENDROOT
BRANCH   1   8
ATOM      8  C1  UNL d   1       3.768   0.844   0.191  0.00  0.00     0.053 C 
ATOM      9  C   UNL d   1       3.199   1.832   1.196  0.00  0.00     0.018 C 
ENDBRANCH   1   8
TORSDOF 1
ENDMDL
