MODEL 1
REMARK minimizedAffinity 15.725832
REMARK minimizedRMSD -1
REMARK  1 active torsions:
REMARK  status: ('A' for Active; 'I' for Inactive)
REMARK    1  A    between atoms: C1_2  and  C2_3 
ROOT
ATOM      1  C2  UNL d   1       1.476   1.226   1.371  0.00  0.00    -0.073 A 
ATOM      2  C3  UNL d   1       2.831   1.538   1.525  0.00  0.00    -0.002 A 
ATOM      3  C4  UNL d   1       3.760   1.140   0.562  0.00  0.00     0.004 A 
ATOM      4  C5  UNL d   1       3.343   0.432  -0.565  0.00  0.00    -0.004 A 
ATOM      5  C6  UNL d   1       1.992   0.121  -0.742  0.00  0.00    -0.075 A 
ATOM      6  C7  UNL d   1       1.527  -0.642  -1.948  0.00  0.00     0.076 C 
ATOM      7  C8  UNL d   1       1.065   0.522   0.230  0.00  0.00     0.001 A 
ENDROOT
BRANCH   1   8
ATOM      8  C1  UNL d   1       0.468   1.659   2.404  0.00  0.00     0.053 C 
ATOM      9  C   UNL d   1       1.060   1.679   3.804  0.00  0.00     0.018 C 
ENDBRANCH   1   8
TORSDOF 1
ENDMDL
