MODEL 1
REMARK minimizedAffinity 16.3625488
REMARK minimizedRMSD -1
REMARK  1 active torsions:
REMARK  status: ('A' for Active; 'I' for Inactive)
REMARK    1  A    between atoms: C1_2  and  C2_3 
ROOT
ATOM      1  C2  UNL d   1       1.445  -0.999  -3.399  0.00  0.00    -0.073 A 
ATOM      2  C3  UNL d   1       0.778  -2.148  -2.960  0.00  0.00    -0.002 A 
ATOM      3  C4  UNL d   1       0.744  -2.468  -1.602  0.00  0.00     0.004 A 
ATOM      4  C5  UNL d   1       1.370  -1.640  -0.670  0.00  0.00    -0.004 A 
ATOM      5  C6  UNL d   1       2.032  -0.481  -1.088  0.00  0.00    -0.075 A 
ATOM      6  C7  UNL d   1       2.713   0.418  -0.099  0.00  0.00     0.076 C 
ATOM      7  C8  UNL d   1       2.064  -0.168  -2.454  0.00  0.00     0.001 A 
ENDROOT
BRANCH   1   8
ATOM      8  C1  UNL d   1       1.479  -0.646  -4.864  0.00  0.00     0.053 C 
ATOM      9  C   UNL d   1       2.003  -1.792  -5.714  0.00  0.00     0.018 C 
ENDBRANCH   1   8
TORSDOF 1
ENDMDL
