MODEL 1
REMARK minimizedAffinity 16.3694572
REMARK minimizedRMSD -1
REMARK  1 active torsions:
REMARK  status: ('A' for Active; 'I' for Inactive)
REMARK    1  A    between atoms: C1_2  and  C2_3 
ROOT
ATOM      1  C2  UNL d   1      -3.649  -3.658  -4.095  0.00  0.00    -0.073 A 
ATOM      2  C3  UNL d   1      -3.094  -3.710  -2.811  0.00  0.00    -0.002 A 
ATOM      3  C4  UNL d   1      -1.973  -4.503  -2.560  0.00  0.00     0.004 A 
ATOM      4  C5  UNL d   1      -1.394  -5.246  -3.588  0.00  0.00    -0.004 A 
ATOM      5  C6  UNL d   1      -1.927  -5.198  -4.880  0.00  0.00    -0.075 A 
ATOM      6  C7  UNL d   1      -1.317  -5.992  -5.997  0.00  0.00     0.076 C 
ATOM      7  C8  UNL d   1      -3.054  -4.401  -5.124  0.00  0.00     0.001 A 
ENDROOT
BRANCH   1   8
ATOM      8  C1  UNL d   1      -4.855  -2.797  -4.372  0.00  0.00     0.053 C 
ATOM      9  C   UNL d   1      -5.229  -2.800  -5.846  0.00  0.00     0.018 C 
ENDBRANCH   1   8
TORSDOF 1
ENDMDL
