MODEL 1
REMARK minimizedAffinity 10.4546709
REMARK minimizedRMSD -1
REMARK  1 active torsions:
REMARK  status: ('A' for Active; 'I' for Inactive)
REMARK    1  A    between atoms: C1_2  and  C2_3 
ROOT
ATOM      1  C2  UNL d   1      -2.725  -3.273  -4.162  0.00  0.00    -0.073 A 
ATOM      2  C3  UNL d   1      -2.613  -3.459  -2.780  0.00  0.00    -0.002 A 
ATOM      3  C4  UNL d   1      -1.793  -4.467  -2.269  0.00  0.00     0.004 A 
ATOM      4  C5  UNL d   1      -1.074  -5.292  -3.133  0.00  0.00    -0.004 A 
ATOM      5  C6  UNL d   1      -1.164  -5.113  -4.517  0.00  0.00    -0.075 A 
ATOM      6  C7  UNL d   1      -0.398  -5.994  -5.460  0.00  0.00     0.076 C 
ATOM      7  C8  UNL d   1      -1.991  -4.101  -5.023  0.00  0.00     0.001 A 
ENDROOT
BRANCH   1   8
ATOM      8  C1  UNL d   1      -3.604  -2.182  -4.718  0.00  0.00     0.053 C 
ATOM      9  C   UNL d   1      -4.541  -2.700  -5.798  0.00  0.00     0.018 C 
ENDBRANCH   1   8
TORSDOF 1
ENDMDL
