MODEL 1
REMARK minimizedAffinity 2.35053492
REMARK minimizedRMSD -1
REMARK  1 active torsions:
REMARK  status: ('A' for Active; 'I' for Inactive)
REMARK    1  A    between atoms: C1_2  and  C2_3 
ROOT
ATOM      1  C2  UNL d   1      -2.840  -4.469  -4.234  0.00  0.00    -0.073 A 
ATOM      2  C3  UNL d   1      -3.078  -5.759  -4.720  0.00  0.00    -0.002 A 
ATOM      3  C4  UNL d   1      -4.138  -5.999  -5.595  0.00  0.00     0.004 A 
ATOM      4  C5  UNL d   1      -4.965  -4.951  -5.999  0.00  0.00    -0.004 A 
ATOM      5  C6  UNL d   1      -4.736  -3.652  -5.535  0.00  0.00    -0.075 A 
ATOM      6  C7  UNL d   1      -5.618  -2.514  -5.958  0.00  0.00     0.076 C 
ATOM      7  C8  UNL d   1      -3.672  -3.420  -4.653  0.00  0.00     0.001 A 
ENDROOT
BRANCH   1   8
ATOM      8  C1  UNL d   1      -1.693  -4.204  -3.294  0.00  0.00     0.053 C 
ATOM      9  C   UNL d   1      -0.419  -4.906  -3.737  0.00  0.00     0.018 C 
ENDBRANCH   1   8
TORSDOF 1
ENDMDL
