MODEL 1
REMARK minimizedAffinity 13.258256
REMARK minimizedRMSD -1
REMARK  1 active torsions:
REMARK  status: ('A' for Active; 'I' for Inactive)
REMARK    1  A    between atoms: C1_2  and  C2_3 
ROOT
ATOM      1  C2  UNL d   1       2.632  -1.628  -4.180  0.00  0.00    -0.073 A 
ATOM      2  C3  UNL d   1       2.096  -0.406  -3.759  0.00  0.00    -0.002 A 
ATOM      3  C4  UNL d   1       1.844  -0.175  -2.405  0.00  0.00     0.004 A 
ATOM      4  C5  UNL d   1       2.133  -1.160  -1.460  0.00  0.00    -0.004 A 
ATOM      5  C6  UNL d   1       2.681  -2.383  -1.861  0.00  0.00    -0.075 A 
ATOM      6  C7  UNL d   1       2.995  -3.453  -0.857  0.00  0.00     0.076 C 
ATOM      7  C8  UNL d   1       2.928  -2.608  -3.222  0.00  0.00     0.001 A 
ENDROOT
BRANCH   1   8
ATOM      8  C1  UNL d   1       2.911  -1.878  -5.640  0.00  0.00     0.053 C 
ATOM      9  C   UNL d   1       4.401  -1.887  -5.942  0.00  0.00     0.018 C 
ENDBRANCH   1   8
TORSDOF 1
ENDMDL
