MODEL 1
REMARK minimizedAffinity 2.03088546
REMARK minimizedRMSD -1
REMARK  0 active torsions:
REMARK  status: ('A' for Active; 'I' for Inactive)
ROOT
ATOM      1  C1  BNZ d   1       0.928   1.702   2.488  0.00  0.00     0.000 A 
ATOM      2  C2  BNZ d   1       2.147   2.302   2.317  0.00  0.00     0.000 A 
ATOM      3  C3  BNZ d   1       3.295   1.561   2.296  0.00  0.00     0.000 A 
ATOM      4  C4  BNZ d   1       3.227   0.228   2.486  0.00  0.00     0.000 A 
ATOM      5  C5  BNZ d   1       2.007  -0.391   2.669  0.00  0.00     0.000 A 
ATOM      6  C6  BNZ d   1       0.850   0.353   2.651  0.00  0.00     0.000 A 
ENDROOT
TORSDOF 0
ENDMDL
