MODEL 1
REMARK minimizedAffinity -1.87908125
REMARK minimizedRMSD -1
REMARK  0 active torsions:
REMARK  status: ('A' for Active; 'I' for Inactive)
ROOT
ATOM      1  C1  BNZ d   1       4.209   3.139   1.845  0.00  0.00     0.000 A 
ATOM      2  C2  BNZ d   1       3.885   3.824   0.705  0.00  0.00     0.000 A 
ATOM      3  C3  BNZ d   1       4.365   5.085   0.484  0.00  0.00     0.000 A 
ATOM      4  C4  BNZ d   1       5.135   5.674   1.422  0.00  0.00     0.000 A 
ATOM      5  C5  BNZ d   1       5.463   5.000   2.582  0.00  0.00     0.000 A 
ATOM      6  C6  BNZ d   1       5.009   3.716   2.782  0.00  0.00     0.000 A 
ENDROOT
TORSDOF 0
ENDMDL
