MODEL 1
REMARK minimizedAffinity 8.31450272
REMARK minimizedRMSD -1
REMARK  0 active torsions:
REMARK  status: ('A' for Active; 'I' for Inactive)
ROOT
ATOM      1  C1  BNZ d   1       5.627   1.944   3.917  0.00  0.00     0.000 A 
ATOM      2  C2  BNZ d   1       5.998   0.762   3.335  0.00  0.00     0.000 A 
ATOM      3  C3  BNZ d   1       5.994   0.620   1.975  0.00  0.00     0.000 A 
ATOM      4  C4  BNZ d   1       5.582   1.646   1.203  0.00  0.00     0.000 A 
ATOM      5  C5  BNZ d   1       5.196   2.841   1.776  0.00  0.00     0.000 A 
ATOM      6  C6  BNZ d   1       5.238   2.993   3.143  0.00  0.00     0.000 A 
ENDROOT
TORSDOF 0
ENDMDL
