MODEL 1
REMARK minimizedAffinity 6.60492706
REMARK minimizedRMSD -1
REMARK  0 active torsions:
REMARK  status: ('A' for Active; 'I' for Inactive)
ROOT
ATOM      1  C1  BNZ d   1      -0.503   0.726   2.698  0.00  0.00     0.000 A 
ATOM      2  C2  BNZ d   1      -0.738  -0.622   2.732  0.00  0.00     0.000 A 
ATOM      3  C3  BNZ d   1       0.265  -1.501   3.031  0.00  0.00     0.000 A 
ATOM      4  C4  BNZ d   1       1.510  -1.034   3.256  0.00  0.00     0.000 A 
ATOM      5  C5  BNZ d   1       1.766   0.322   3.216  0.00  0.00     0.000 A 
ATOM      6  C6  BNZ d   1       0.745   1.206   2.953  0.00  0.00     0.000 A 
ENDROOT
TORSDOF 0
ENDMDL
