MODEL 1
REMARK minimizedAffinity 7.57977247
REMARK minimizedRMSD -1
REMARK  0 active torsions:
REMARK  status: ('A' for Active; 'I' for Inactive)
ROOT
ATOM      1  C1  BNZ d   1       1.845   0.016   3.811  0.00  0.00     0.000 A 
ATOM      2  C2  BNZ d   1       0.883   0.730   3.146  0.00  0.00     0.000 A 
ATOM      3  C3  BNZ d   1       0.272   0.217   2.037  0.00  0.00     0.000 A 
ATOM      4  C4  BNZ d   1       0.650  -0.991   1.571  0.00  0.00     0.000 A 
ATOM      5  C5  BNZ d   1       1.624  -1.719   2.224  0.00  0.00     0.000 A 
ATOM      6  C6  BNZ d   1       2.210  -1.216   3.363  0.00  0.00     0.000 A 
ENDROOT
TORSDOF 0
ENDMDL
