MODEL 1
REMARK minimizedAffinity 7.77697039
REMARK minimizedRMSD -1
REMARK  0 active torsions:
REMARK  status: ('A' for Active; 'I' for Inactive)
ROOT
ATOM      1  C1  BNZ d   1      -0.637  -0.484   3.339  0.00  0.00     0.000 A 
ATOM      2  C2  BNZ d   1      -0.336  -1.603   4.070  0.00  0.00     0.000 A 
ATOM      3  C3  BNZ d   1       0.958  -1.898   4.396  0.00  0.00     0.000 A 
ATOM      4  C4  BNZ d   1       1.951  -1.099   3.958  0.00  0.00     0.000 A 
ATOM      5  C5  BNZ d   1       1.665   0.028   3.213  0.00  0.00     0.000 A 
ATOM      6  C6  BNZ d   1       0.358   0.343   2.919  0.00  0.00     0.000 A 
ENDROOT
TORSDOF 0
ENDMDL
