MODEL 1
REMARK minimizedAffinity 12.8438625
REMARK minimizedRMSD -1
REMARK  0 active torsions:
REMARK  status: ('A' for Active; 'I' for Inactive)
ROOT
ATOM      1  C1  BNZ d   1       1.173  -0.394  -3.926  0.00  0.00     0.000 A 
ATOM      2  C2  BNZ d   1       0.354  -0.808  -2.909  0.00  0.00     0.000 A 
ATOM      3  C3  BNZ d   1      -0.821  -1.455  -3.176  0.00  0.00     0.000 A 
ATOM      4  C4  BNZ d   1      -1.194  -1.649  -4.457  0.00  0.00     0.000 A 
ATOM      5  C5  BNZ d   1      -0.384  -1.228  -5.493  0.00  0.00     0.000 A 
ATOM      6  C6  BNZ d   1       0.816  -0.613  -5.220  0.00  0.00     0.000 A 
ENDROOT
TORSDOF 0
ENDMDL
