MODEL 1
REMARK minimizedAffinity 4.81571913
REMARK minimizedRMSD -1
REMARK  0 active torsions:
REMARK  status: ('A' for Active; 'I' for Inactive)
ROOT
ATOM      1  C1  BNZ d   1       1.708  -0.221   3.445  0.00  0.00     0.000 A 
ATOM      2  C2  BNZ d   1       0.788   0.683   2.986  0.00  0.00     0.000 A 
ATOM      3  C3  BNZ d   1      -0.478   0.288   2.655  0.00  0.00     0.000 A 
ATOM      4  C4  BNZ d   1      -0.810  -1.016   2.746  0.00  0.00     0.000 A 
ATOM      5  C5  BNZ d   1       0.109  -1.942   3.198  0.00  0.00     0.000 A 
ATOM      6  C6  BNZ d   1       1.370  -1.534   3.567  0.00  0.00     0.000 A 
ENDROOT
TORSDOF 0
ENDMDL
