MODEL 1
REMARK minimizedAffinity 7.27724409
REMARK minimizedRMSD -1
REMARK  0 active torsions:
REMARK  status: ('A' for Active; 'I' for Inactive)
ROOT
ATOM      1  C1  BNZ d   1       1.468  -0.974  -4.127  0.00  0.00     0.000 A 
ATOM      2  C2  BNZ d   1       0.785  -1.038  -2.941  0.00  0.00     0.000 A 
ATOM      3  C3  BNZ d   1      -0.569  -1.226  -2.922  0.00  0.00     0.000 A 
ATOM      4  C4  BNZ d   1      -1.243  -1.310  -4.087  0.00  0.00     0.000 A 
ATOM      5  C5  BNZ d   1      -0.571  -1.238  -5.291  0.00  0.00     0.000 A 
ATOM      6  C6  BNZ d   1       0.797  -1.088  -5.306  0.00  0.00     0.000 A 
ENDROOT
TORSDOF 0
ENDMDL
