MODEL 1
REMARK minimizedAffinity 7.8029294
REMARK minimizedRMSD -1
REMARK  0 active torsions:
REMARK  status: ('A' for Active; 'I' for Inactive)
ROOT
ATOM      1  C1  BNZ d   1       0.625  -1.817  -2.373  0.00  0.00     0.000 A 
ATOM      2  C2  BNZ d   1       1.560  -1.391  -3.278  0.00  0.00     0.000 A 
ATOM      3  C3  BNZ d   1       1.198  -0.622  -4.349  0.00  0.00     0.000 A 
ATOM      4  C4  BNZ d   1      -0.101  -0.315  -4.535  0.00  0.00     0.000 A 
ATOM      5  C5  BNZ d   1      -1.057  -0.746  -3.637  0.00  0.00     0.000 A 
ATOM      6  C6  BNZ d   1      -0.684  -1.486  -2.539  0.00  0.00     0.000 A 
ENDROOT
TORSDOF 0
ENDMDL
