MODEL 1
REMARK minimizedAffinity 9.79636669
REMARK minimizedRMSD -1
REMARK  0 active torsions:
REMARK  status: ('A' for Active; 'I' for Inactive)
ROOT
ATOM      1  C1  BNZ d   1       2.358  -2.234  -4.498  0.00  0.00     0.000 A 
ATOM      2  C2  BNZ d   1       1.299  -2.767  -5.184  0.00  0.00     0.000 A 
ATOM      3  C3  BNZ d   1       0.099  -2.114  -5.235  0.00  0.00     0.000 A 
ATOM      4  C4  BNZ d   1      -0.052  -0.951  -4.569  0.00  0.00     0.000 A 
ATOM      5  C5  BNZ d   1       1.003  -0.406  -3.866  0.00  0.00     0.000 A 
ATOM      6  C6  BNZ d   1       2.221  -1.046  -3.848  0.00  0.00     0.000 A 
ENDROOT
TORSDOF 0
ENDMDL
