MODEL 1
REMARK minimizedAffinity -1.64968503
REMARK minimizedRMSD -1
REMARK  0 active torsions:
REMARK  status: ('A' for Active; 'I' for Inactive)
ROOT
ATOM      1  C2' OXE d   1       2.954   2.908   0.492  0.00  0.00     0.078 C 
ATOM      2  C1' OXE d   1       0.756   3.767   2.012  0.00  0.00     0.078 C 
ATOM      3  C1  OXE d   1       0.577   2.547   1.143  0.00  0.00    -0.078 A 
ATOM      4  C2  OXE d   1       1.643   2.161   0.367  0.00  0.00    -0.078 A 
ATOM      5  C3  OXE d   1       1.550   1.011  -0.410  0.00  0.00     0.003 A 
ATOM      6  C4  OXE d   1       0.331   0.332  -0.527  0.00  0.00    -0.002 A 
ATOM      7  C5  OXE d   1      -0.780   0.731   0.224  0.00  0.00    -0.002 A 
ATOM      8  C6  OXE d   1      -0.661   1.809   1.094  0.00  0.00     0.003 A 
ENDROOT
TORSDOF 0
ENDMDL
