MODEL 1
REMARK minimizedAffinity 2.34910512
REMARK minimizedRMSD -1
REMARK  0 active torsions:
REMARK  status: ('A' for Active; 'I' for Inactive)
ROOT
ATOM      1  C2' OXE d   1       0.182   0.009  -2.186  0.00  0.00     0.078 C 
ATOM      2  C1' OXE d   1      -0.087   1.620   0.097  0.00  0.00     0.078 C 
ATOM      3  C1  OXE d   1      -0.565   0.192   0.183  0.00  0.00    -0.078 A 
ATOM      4  C2  OXE d   1      -0.472  -0.576  -0.953  0.00  0.00    -0.078 A 
ATOM      5  C3  OXE d   1      -0.847  -1.915  -0.913  0.00  0.00     0.003 A 
ATOM      6  C4  OXE d   1      -1.461  -2.446   0.228  0.00  0.00    -0.002 A 
ATOM      7  C5  OXE d   1      -1.602  -1.670   1.384  0.00  0.00    -0.002 A 
ATOM      8  C6  OXE d   1      -1.121  -0.365   1.391  0.00  0.00     0.003 A 
ENDROOT
TORSDOF 0
ENDMDL
