MODEL 1
REMARK minimizedAffinity -2.91696429
REMARK minimizedRMSD -1
REMARK  0 active torsions:
REMARK  status: ('A' for Active; 'I' for Inactive)
ROOT
ATOM      1  C2' OXE d   1       1.042   1.470   0.195  0.00  0.00     0.078 C 
ATOM      2  C1' OXE d   1       0.433   0.170  -2.217  0.00  0.00     0.078 C 
ATOM      3  C1  OXE d   1      -0.016  -0.483  -0.934  0.00  0.00    -0.078 A 
ATOM      4  C2  OXE d   1       0.327   0.137   0.244  0.00  0.00    -0.078 A 
ATOM      5  C3  OXE d   1      -0.109  -0.394   1.454  0.00  0.00     0.003 A 
ATOM      6  C4  OXE d   1      -0.761  -1.633   1.491  0.00  0.00    -0.002 A 
ATOM      7  C5  OXE d   1      -1.085  -2.300   0.305  0.00  0.00    -0.002 A 
ATOM      8  C6  OXE d   1      -0.758  -1.719  -0.915  0.00  0.00     0.003 A 
ENDROOT
TORSDOF 0
ENDMDL
