MODEL 1
REMARK minimizedAffinity -0.915543735
REMARK minimizedRMSD -1
REMARK  0 active torsions:
REMARK  status: ('A' for Active; 'I' for Inactive)
ROOT
ATOM      1  C2' OXE d   1       0.489  -0.238   1.933  0.00  0.00     0.078 C 
ATOM      2  C1' OXE d   1      -1.326  -2.041   0.779  0.00  0.00     0.078 C 
ATOM      3  C1  OXE d   1      -0.398  -1.290  -0.143  0.00  0.00    -0.078 A 
ATOM      4  C2  OXE d   1       0.455  -0.375   0.426  0.00  0.00    -0.078 A 
ATOM      5  C3  OXE d   1       1.369   0.305  -0.373  0.00  0.00     0.003 A 
ATOM      6  C4  OXE d   1       1.324   0.179  -1.766  0.00  0.00    -0.002 A 
ATOM      7  C5  OXE d   1       0.436  -0.718  -2.370  0.00  0.00    -0.002 A 
ATOM      8  C6  OXE d   1      -0.401  -1.490  -1.571  0.00  0.00     0.003 A 
ENDROOT
TORSDOF 0
ENDMDL
