MODEL 1
REMARK minimizedAffinity 6.18628311
REMARK minimizedRMSD -1
REMARK  0 active torsions:
REMARK  status: ('A' for Active; 'I' for Inactive)
ROOT
ATOM      1  C2' OXE d   1      -2.710   0.059   1.943  0.00  0.00     0.078 C 
ATOM      2  C1' OXE d   1      -1.587  -2.408   1.211  0.00  0.00     0.078 C 
ATOM      3  C1  OXE d   1      -0.993  -1.158   0.611  0.00  0.00    -0.078 A 
ATOM      4  C2  OXE d   1      -1.579   0.041   0.938  0.00  0.00    -0.078 A 
ATOM      5  C3  OXE d   1      -1.035   1.228   0.455  0.00  0.00     0.003 A 
ATOM      6  C4  OXE d   1       0.005   1.202  -0.482  0.00  0.00    -0.002 A 
ATOM      7  C5  OXE d   1       0.590  -0.011  -0.859  0.00  0.00    -0.002 A 
ATOM      8  C6  OXE d   1       0.132  -1.195  -0.291  0.00  0.00     0.003 A 
ENDROOT
TORSDOF 0
ENDMDL
