MODEL 1
REMARK minimizedAffinity -0.328024566
REMARK minimizedRMSD -1
REMARK  0 active torsions:
REMARK  status: ('A' for Active; 'I' for Inactive)
ROOT
ATOM      1  C2' OXE d   1      -0.235   3.869   0.425  0.00  0.00     0.078 C 
ATOM      2  C1' OXE d   1       2.389   2.901   0.182  0.00  0.00     0.078 C 
ATOM      3  C1  OXE d   1       1.277   1.892   0.314  0.00  0.00    -0.078 A 
ATOM      4  C2  OXE d   1       0.001   2.375   0.479  0.00  0.00    -0.078 A 
ATOM      5  C3  OXE d   1      -1.069   1.487   0.551  0.00  0.00     0.003 A 
ATOM      6  C4  OXE d   1      -0.841   0.107   0.610  0.00  0.00    -0.002 A 
ATOM      7  C5  OXE d   1       0.454  -0.405   0.484  0.00  0.00    -0.002 A 
ATOM      8  C6  OXE d   1       1.518   0.470   0.293  0.00  0.00     0.003 A 
ENDROOT
TORSDOF 0
ENDMDL
