MODEL 1
REMARK minimizedAffinity -4.53326654
REMARK minimizedRMSD -1
REMARK  0 active torsions:
REMARK  status: ('A' for Active; 'I' for Inactive)
ROOT
ATOM      1  C2' OXE d   1      -1.107  -0.883   1.071  0.00  0.00     0.078 C 
ATOM      2  C1' OXE d   1      -0.280   0.760  -1.050  0.00  0.00     0.078 C 
ATOM      3  C1  OXE d   1      -0.337  -0.728  -1.293  0.00  0.00    -0.078 A 
ATOM      4  C2  OXE d   1      -0.698  -1.528  -0.236  0.00  0.00    -0.078 A 
ATOM      5  C3  OXE d   1      -0.819  -2.902  -0.421  0.00  0.00     0.003 A 
ATOM      6  C4  OXE d   1      -0.428  -3.491  -1.630  0.00  0.00    -0.002 A 
ATOM      7  C5  OXE d   1      -0.020  -2.698  -2.707  0.00  0.00    -0.002 A 
ATOM      8  C6  OXE d   1      -0.009  -1.314  -2.569  0.00  0.00     0.003 A 
ENDROOT
TORSDOF 0
ENDMDL
