MODEL 1
REMARK minimizedAffinity -4.90692425
REMARK minimizedRMSD -1
REMARK  0 active torsions:
REMARK  status: ('A' for Active; 'I' for Inactive)
ROOT
ATOM      1  C2' OXE d   1      -0.387  -2.458  -2.139  0.00  0.00     0.078 C 
ATOM      2  C1' OXE d   1      -1.092  -2.353   0.576  0.00  0.00     0.078 C 
ATOM      3  C1  OXE d   1      -0.622  -1.078  -0.078  0.00  0.00    -0.078 A 
ATOM      4  C2  OXE d   1      -0.235  -1.149  -1.395  0.00  0.00    -0.078 A 
ATOM      5  C3  OXE d   1       0.155   0.009  -2.062  0.00  0.00     0.003 A 
ATOM      6  C4  OXE d   1       0.303   1.213  -1.363  0.00  0.00    -0.002 A 
ATOM      7  C5  OXE d   1      -0.048   1.298  -0.012  0.00  0.00    -0.002 A 
ATOM      8  C6  OXE d   1      -0.552   0.174   0.633  0.00  0.00     0.003 A 
ENDROOT
TORSDOF 0
ENDMDL
