MODEL 1
REMARK minimizedAffinity -3.94752145
REMARK minimizedRMSD -1
REMARK  0 active torsions:
REMARK  status: ('A' for Active; 'I' for Inactive)
ROOT
ATOM      1  C2' OXE d   1      -1.051  -1.613   1.286  0.00  0.00     0.078 C 
ATOM      2  C1' OXE d   1      -2.586   0.699   1.710  0.00  0.00     0.078 C 
ATOM      3  C1  OXE d   1      -1.330   0.830   0.885  0.00  0.00    -0.078 A 
ATOM      4  C2  OXE d   1      -0.561  -0.297   0.722  0.00  0.00    -0.078 A 
ATOM      5  C3  OXE d   1       0.579  -0.244  -0.075  0.00  0.00     0.003 A 
ATOM      6  C4  OXE d   1       1.031   0.980  -0.584  0.00  0.00    -0.002 A 
ATOM      7  C5  OXE d   1       0.284   2.147  -0.396  0.00  0.00    -0.002 A 
ATOM      8  C6  OXE d   1      -0.919   2.081   0.299  0.00  0.00     0.003 A 
ENDROOT
TORSDOF 0
ENDMDL
