MODEL 1
REMARK minimizedAffinity -0.565930843
REMARK minimizedRMSD -1
REMARK  0 active torsions:
REMARK  status: ('A' for Active; 'I' for Inactive)
ROOT
ATOM      1  C2' OXE d   1       0.140   1.754   0.166  0.00  0.00     0.078 C 
ATOM      2  C1' OXE d   1      -0.040  -0.032  -1.992  0.00  0.00     0.078 C 
ATOM      3  C1  OXE d   1      -0.602  -0.474  -0.664  0.00  0.00    -0.078 A 
ATOM      4  C2  OXE d   1      -0.468   0.388   0.398  0.00  0.00    -0.078 A 
ATOM      5  C3  OXE d   1      -1.017   0.052   1.632  0.00  0.00     0.003 A 
ATOM      6  C4  OXE d   1      -1.569  -1.218   1.841  0.00  0.00    -0.002 A 
ATOM      7  C5  OXE d   1      -1.680  -2.126   0.783  0.00  0.00    -0.002 A 
ATOM      8  C6  OXE d   1      -1.241  -1.754  -0.483  0.00  0.00     0.003 A 
ENDROOT
TORSDOF 0
ENDMDL
