MODEL 1
REMARK minimizedAffinity -2.10537434
REMARK minimizedRMSD -1
REMARK  0 active torsions:
REMARK  status: ('A' for Active; 'I' for Inactive)
ROOT
ATOM      1  C2' OXE d   1      -0.146   0.402  -1.921  0.00  0.00     0.078 C 
ATOM      2  C1' OXE d   1       0.658   1.911   0.305  0.00  0.00     0.078 C 
ATOM      3  C1  OXE d   1       0.004   0.576   0.559  0.00  0.00    -0.078 A 
ATOM      4  C2  OXE d   1      -0.428  -0.135  -0.534  0.00  0.00    -0.078 A 
ATOM      5  C3  OXE d   1      -0.988  -1.397  -0.359  0.00  0.00     0.003 A 
ATOM      6  C4  OXE d   1      -1.255  -1.882   0.928  0.00  0.00    -0.002 A 
ATOM      7  C5  OXE d   1      -0.858  -1.156   2.056  0.00  0.00    -0.002 A 
ATOM      8  C6  OXE d   1      -0.191   0.053   1.889  0.00  0.00     0.003 A 
ENDROOT
TORSDOF 0
ENDMDL
