MODEL 1
REMARK minimizedAffinity -2.83811808
REMARK minimizedRMSD -1
REMARK  0 active torsions:
REMARK  status: ('A' for Active; 'I' for Inactive)
ROOT
ATOM      1  C2' OXE d   1      -0.639  -0.770   1.984  0.00  0.00     0.078 C 
ATOM      2  C1' OXE d   1       0.389   0.873  -0.047  0.00  0.00     0.078 C 
ATOM      3  C1  OXE d   1       0.133  -0.576  -0.376  0.00  0.00    -0.078 A 
ATOM      4  C2  OXE d   1      -0.326  -1.384   0.636  0.00  0.00    -0.078 A 
ATOM      5  C3  OXE d   1      -0.631  -2.716   0.372  0.00  0.00     0.003 A 
ATOM      6  C4  OXE d   1      -0.330  -3.278  -0.874  0.00  0.00    -0.002 A 
ATOM      7  C5  OXE d   1       0.175  -2.483  -1.908  0.00  0.00    -0.002 A 
ATOM      8  C6  OXE d   1       0.372  -1.124  -1.689  0.00  0.00     0.003 A 
ENDROOT
TORSDOF 0
ENDMDL
