MODEL 1
REMARK minimizedAffinity -5.79753828
REMARK minimizedRMSD -1
REMARK  0 active torsions:
REMARK  status: ('A' for Active; 'I' for Inactive)
ROOT
ATOM      1  C2' OXE d   1       0.142   0.913  -0.368  0.00  0.00     0.078 C 
ATOM      2  C1' OXE d   1      -0.820  -0.483   1.869  0.00  0.00     0.078 C 
ATOM      3  C1  OXE d   1      -0.416  -1.287   0.659  0.00  0.00    -0.078 A 
ATOM      4  C2  OXE d   1       0.010  -0.593  -0.448  0.00  0.00    -0.078 A 
ATOM      5  C3  OXE d   1       0.447  -1.288  -1.572  0.00  0.00     0.003 A 
ATOM      6  C4  OXE d   1       0.312  -2.680  -1.641  0.00  0.00    -0.002 A 
ATOM      7  C5  OXE d   1      -0.157  -3.404  -0.539  0.00  0.00    -0.002 A 
ATOM      8  C6  OXE d   1      -0.484  -2.727   0.631  0.00  0.00     0.003 A 
ENDROOT
TORSDOF 0
ENDMDL
