MODEL 1
REMARK minimizedAffinity -4.19007778
REMARK minimizedRMSD -1
REMARK  0 active torsions:
REMARK  status: ('A' for Active; 'I' for Inactive)
ROOT
ATOM      1  C2' OXE d   1      -1.510   0.723   0.748  0.00  0.00     0.078 C 
ATOM      2  C1' OXE d   1       0.981  -0.438   0.176  0.00  0.00     0.078 C 
ATOM      3  C1  OXE d   1       0.910   1.066   0.263  0.00  0.00    -0.078 A 
ATOM      4  C2  OXE d   1      -0.322   1.628   0.497  0.00  0.00    -0.078 A 
ATOM      5  C3  OXE d   1      -0.435   3.008   0.641  0.00  0.00     0.003 A 
ATOM      6  C4  OXE d   1       0.666   3.838   0.398  0.00  0.00    -0.002 A 
ATOM      7  C5  OXE d   1       1.922   3.288   0.118  0.00  0.00    -0.002 A 
ATOM      8  C6  OXE d   1       2.069   1.905   0.090  0.00  0.00     0.003 A 
ENDROOT
TORSDOF 0
ENDMDL
