MODEL 1
REMARK minimizedAffinity -5.70048761
REMARK minimizedRMSD -1
REMARK  0 active torsions:
REMARK  status: ('A' for Active; 'I' for Inactive)
ROOT
ATOM      1  C2' OXE d   1      -0.025   0.870  -0.803  0.00  0.00     0.078 C 
ATOM      2  C1' OXE d   1      -1.150  -0.260   1.508  0.00  0.00     0.078 C 
ATOM      3  C1  OXE d   1      -0.441  -1.182   0.547  0.00  0.00    -0.078 A 
ATOM      4  C2  OXE d   1       0.066  -0.628  -0.604  0.00  0.00    -0.078 A 
ATOM      5  C3  OXE d   1       0.777  -1.424  -1.497  0.00  0.00     0.003 A 
ATOM      6  C4  OXE d   1       0.847  -2.810  -1.311  0.00  0.00    -0.002 A 
ATOM      7  C5  OXE d   1       0.303  -3.400  -0.165  0.00  0.00    -0.002 A 
ATOM      8  C6  OXE d   1      -0.306  -2.597   0.792  0.00  0.00     0.003 A 
ENDROOT
TORSDOF 0
ENDMDL
