MODEL 1
REMARK minimizedAffinity -2.25767446
REMARK minimizedRMSD -1
REMARK  0 active torsions:
REMARK  status: ('A' for Active; 'I' for Inactive)
ROOT
ATOM      1  C2' OXE d   1       0.063   1.618  -0.006  0.00  0.00     0.078 C 
ATOM      2  C1' OXE d   1       0.323   0.137  -2.376  0.00  0.00     0.078 C 
ATOM      3  C1  OXE d   1      -0.247  -0.563  -1.168  0.00  0.00    -0.078 A 
ATOM      4  C2  OXE d   1      -0.327   0.156  -0.000  0.00  0.00    -0.078 A 
ATOM      5  C3  OXE d   1      -0.896  -0.425   1.129  0.00  0.00     0.003 A 
ATOM      6  C4  OXE d   1      -1.245  -1.781   1.129  0.00  0.00    -0.002 A 
ATOM      7  C5  OXE d   1      -1.134  -2.543  -0.039  0.00  0.00    -0.002 A 
ATOM      8  C6  OXE d   1      -0.677  -1.939  -1.205  0.00  0.00     0.003 A 
ENDROOT
TORSDOF 0
ENDMDL
