MODEL 1
REMARK minimizedAffinity -1.19540524
REMARK minimizedRMSD -1
REMARK  0 active torsions:
REMARK  status: ('A' for Active; 'I' for Inactive)
ROOT
ATOM      1  C1  BNZ d   1      -1.127  -1.589   3.056  0.00  0.00     0.000 A 
ATOM      2  C2  BNZ d   1       0.224  -1.516   3.270  0.00  0.00     0.000 A 
ATOM      3  C3  BNZ d   1       0.941  -0.431   2.850  0.00  0.00     0.000 A 
ATOM      4  C4  BNZ d   1       0.316   0.560   2.182  0.00  0.00     0.000 A 
ATOM      5  C5  BNZ d   1      -1.044   0.497   1.951  0.00  0.00     0.000 A 
ATOM      6  C6  BNZ d   1      -1.770  -0.578   2.409  0.00  0.00     0.000 A 
ENDROOT
TORSDOF 0
ENDMDL
