MODEL 1
REMARK minimizedAffinity -4.09006262
REMARK minimizedRMSD -1
REMARK  0 active torsions:
REMARK  status: ('A' for Active; 'I' for Inactive)
ROOT
ATOM      1  C1  BNZ d   1      -0.848  -0.332   1.142  0.00  0.00     0.000 A 
ATOM      2  C2  BNZ d   1      -0.290  -0.516   2.379  0.00  0.00     0.000 A 
ATOM      3  C3  BNZ d   1      -1.033  -0.348   3.514  0.00  0.00     0.000 A 
ATOM      4  C4  BNZ d   1      -2.320   0.043   3.412  0.00  0.00     0.000 A 
ATOM      5  C5  BNZ d   1      -2.894   0.242   2.173  0.00  0.00     0.000 A 
ATOM      6  C6  BNZ d   1      -2.154   0.034   1.031  0.00  0.00     0.000 A 
ENDROOT
TORSDOF 0
ENDMDL
