MODEL 1
REMARK minimizedAffinity -3.3385241
REMARK minimizedRMSD -1
REMARK  0 active torsions:
REMARK  status: ('A' for Active; 'I' for Inactive)
ROOT
ATOM      1  C1  BNZ d   1      -1.722  -1.356   2.232  0.00  0.00     0.000 A 
ATOM      2  C2  BNZ d   1      -0.781  -1.022   3.170  0.00  0.00     0.000 A 
ATOM      3  C3  BNZ d   1       0.196  -0.110   2.888  0.00  0.00     0.000 A 
ATOM      4  C4  BNZ d   1       0.257   0.436   1.656  0.00  0.00     0.000 A 
ATOM      5  C5  BNZ d   1      -0.677   0.103   0.696  0.00  0.00     0.000 A 
ATOM      6  C6  BNZ d   1      -1.684  -0.786   0.997  0.00  0.00     0.000 A 
ENDROOT
TORSDOF 0
ENDMDL
