MODEL 1
REMARK minimizedAffinity 0.800590217
REMARK minimizedRMSD -1
REMARK  0 active torsions:
REMARK  status: ('A' for Active; 'I' for Inactive)
ROOT
ATOM      1  C1  BNZ d   1      -0.217   0.971   2.239  0.00  0.00     0.000 A 
ATOM      2  C2  BNZ d   1      -0.194   0.433   3.498  0.00  0.00     0.000 A 
ATOM      3  C3  BNZ d   1      -0.957  -0.658   3.808  0.00  0.00     0.000 A 
ATOM      4  C4  BNZ d   1      -1.773  -1.183   2.871  0.00  0.00     0.000 A 
ATOM      5  C5  BNZ d   1      -1.816  -0.646   1.600  0.00  0.00     0.000 A 
ATOM      6  C6  BNZ d   1      -1.016   0.428   1.281  0.00  0.00     0.000 A 
ENDROOT
TORSDOF 0
ENDMDL
