MODEL 1
REMARK minimizedAffinity 6.57995224
REMARK minimizedRMSD -1
REMARK  0 active torsions:
REMARK  status: ('A' for Active; 'I' for Inactive)
ROOT
ATOM      1  C1  BNZ d   1      -0.752  -0.718   3.374  0.00  0.00     0.000 A 
ATOM      2  C2  BNZ d   1      -1.716  -1.034   2.453  0.00  0.00     0.000 A 
ATOM      3  C3  BNZ d   1      -1.859  -0.298   1.310  0.00  0.00     0.000 A 
ATOM      4  C4  BNZ d   1      -1.067   0.774   1.107  0.00  0.00     0.000 A 
ATOM      5  C5  BNZ d   1      -0.096   1.110   2.030  0.00  0.00     0.000 A 
ATOM      6  C6  BNZ d   1       0.071   0.345   3.161  0.00  0.00     0.000 A 
ENDROOT
TORSDOF 0
ENDMDL
