MODEL 1
REMARK minimizedAffinity 5.56127214
REMARK minimizedRMSD -1
REMARK  0 active torsions:
REMARK  status: ('A' for Active; 'I' for Inactive)
ROOT
ATOM      1  C1  BNZ d   1       0.366   2.166   3.703  0.00  0.00     0.000 A 
ATOM      2  C2  BNZ d   1      -0.724   1.445   3.294  0.00  0.00     0.000 A 
ATOM      3  C3  BNZ d   1      -0.580   0.180   2.797  0.00  0.00     0.000 A 
ATOM      4  C4  BNZ d   1       0.656  -0.346   2.672  0.00  0.00     0.000 A 
ATOM      5  C5  BNZ d   1       1.765   0.372   3.071  0.00  0.00     0.000 A 
ATOM      6  C6  BNZ d   1       1.613   1.630   3.607  0.00  0.00     0.000 A 
ENDROOT
TORSDOF 0
ENDMDL
