MODEL 1
REMARK minimizedAffinity 1.09088182
REMARK minimizedRMSD -1
REMARK  0 active torsions:
REMARK  status: ('A' for Active; 'I' for Inactive)
ROOT
ATOM      1  C1  BNZ d   1      -1.998  -0.938   4.537  0.00  0.00     0.000 A 
ATOM      2  C2  BNZ d   1      -2.295   0.399   4.559  0.00  0.00     0.000 A 
ATOM      3  C3  BNZ d   1      -1.444   1.314   4.007  0.00  0.00     0.000 A 
ATOM      4  C4  BNZ d   1      -0.279   0.897   3.470  0.00  0.00     0.000 A 
ATOM      5  C5  BNZ d   1       0.040  -0.447   3.449  0.00  0.00     0.000 A 
ATOM      6  C6  BNZ d   1      -0.838  -1.369   3.971  0.00  0.00     0.000 A 
ENDROOT
TORSDOF 0
ENDMDL
