MODEL 1
REMARK minimizedAffinity 8.50127983
REMARK minimizedRMSD -1
REMARK  0 active torsions:
REMARK  status: ('A' for Active; 'I' for Inactive)
ROOT
ATOM      1  C1  BNZ d   1       3.140   2.441  -5.629  0.00  0.00     0.000 A 
ATOM      2  C2  BNZ d   1       3.806   3.340  -4.838  0.00  0.00     0.000 A 
ATOM      3  C3  BNZ d   1       3.190   4.480  -4.403  0.00  0.00     0.000 A 
ATOM      4  C4  BNZ d   1       1.925   4.739  -4.791  0.00  0.00     0.000 A 
ATOM      5  C5  BNZ d   1       1.244   3.848  -5.595  0.00  0.00     0.000 A 
ATOM      6  C6  BNZ d   1       1.853   2.683  -6.000  0.00  0.00     0.000 A 
ENDROOT
TORSDOF 0
ENDMDL
