MODEL 1
REMARK minimizedAffinity 0.769016564
REMARK minimizedRMSD -1
REMARK  0 active torsions:
REMARK  status: ('A' for Active; 'I' for Inactive)
ROOT
ATOM      1  C1  BNZ d   1      -2.825  -0.887  -0.223  0.00  0.00     0.000 A 
ATOM      2  C2  BNZ d   1      -2.727  -2.229  -0.482  0.00  0.00     0.000 A 
ATOM      3  C3  BNZ d   1      -1.664  -2.731  -1.178  0.00  0.00     0.000 A 
ATOM      4  C4  BNZ d   1      -0.721  -1.889  -1.648  0.00  0.00     0.000 A 
ATOM      5  C5  BNZ d   1      -0.810  -0.533  -1.403  0.00  0.00     0.000 A 
ATOM      6  C6  BNZ d   1      -1.862  -0.036  -0.669  0.00  0.00     0.000 A 
ENDROOT
TORSDOF 0
ENDMDL
