MODEL 1
REMARK minimizedAffinity 3.37161899
REMARK minimizedRMSD -1
REMARK  0 active torsions:
REMARK  status: ('A' for Active; 'I' for Inactive)
ROOT
ATOM      1  C1  BNZ d   1       0.242   0.461   2.994  0.00  0.00     0.000 A 
ATOM      2  C2  BNZ d   1       0.784  -0.751   3.331  0.00  0.00     0.000 A 
ATOM      3  C3  BNZ d   1       0.012  -1.878   3.367  0.00  0.00     0.000 A 
ATOM      4  C4  BNZ d   1      -1.308  -1.786   3.104  0.00  0.00     0.000 A 
ATOM      5  C5  BNZ d   1      -1.871  -0.570   2.772  0.00  0.00     0.000 A 
ATOM      6  C6  BNZ d   1      -1.083   0.556   2.700  0.00  0.00     0.000 A 
ENDROOT
TORSDOF 0
ENDMDL
