MODEL 1
REMARK minimizedAffinity 0.740231514
REMARK minimizedRMSD -1
REMARK  0 active torsions:
REMARK  status: ('A' for Active; 'I' for Inactive)
ROOT
ATOM      1  C1  BNZ d   1      -0.375   0.357   1.805  0.00  0.00     0.000 A 
ATOM      2  C2  BNZ d   1       0.142  -0.003   3.021  0.00  0.00     0.000 A 
ATOM      3  C3  BNZ d   1      -0.480  -0.941   3.796  0.00  0.00     0.000 A 
ATOM      4  C4  BNZ d   1      -1.639  -1.488   3.373  0.00  0.00     0.000 A 
ATOM      5  C5  BNZ d   1      -2.178  -1.128   2.154  0.00  0.00     0.000 A 
ATOM      6  C6  BNZ d   1      -1.528  -0.212   1.359  0.00  0.00     0.000 A 
ENDROOT
TORSDOF 0
ENDMDL
