MODEL 1
REMARK minimizedAffinity 2.77368879
REMARK minimizedRMSD -1
REMARK  0 active torsions:
REMARK  status: ('A' for Active; 'I' for Inactive)
ROOT
ATOM      1  C1  BNZ d   1      -1.163   0.931   1.857  0.00  0.00     0.000 A 
ATOM      2  C2  BNZ d   1      -0.655   0.819   0.590  0.00  0.00     0.000 A 
ATOM      3  C3  BNZ d   1       0.622   0.377   0.385  0.00  0.00     0.000 A 
ATOM      4  C4  BNZ d   1       1.402   0.086   1.446  0.00  0.00     0.000 A 
ATOM      5  C5  BNZ d   1       0.907   0.203   2.730  0.00  0.00     0.000 A 
ATOM      6  C6  BNZ d   1      -0.392   0.611   2.931  0.00  0.00     0.000 A 
ENDROOT
TORSDOF 0
ENDMDL
