MODEL 1
REMARK minimizedAffinity 5.58181906
REMARK minimizedRMSD -1
REMARK  0 active torsions:
REMARK  status: ('A' for Active; 'I' for Inactive)
ROOT
ATOM      1  C1  BNZ d   1       0.116   2.010   1.747  0.00  0.00     0.000 A 
ATOM      2  C2  BNZ d   1       0.938   2.222   0.672  0.00  0.00     0.000 A 
ATOM      3  C3  BNZ d   1       2.281   2.411   0.844  0.00  0.00     0.000 A 
ATOM      4  C4  BNZ d   1       2.794   2.427   2.091  0.00  0.00     0.000 A 
ATOM      5  C5  BNZ d   1       1.977   2.225   3.185  0.00  0.00     0.000 A 
ATOM      6  C6  BNZ d   1       0.632   1.996   3.006  0.00  0.00     0.000 A 
ENDROOT
TORSDOF 0
ENDMDL
