MODEL 1
REMARK minimizedAffinity -4.01589346
REMARK minimizedRMSD -1
REMARK  2 active torsions:
REMARK  status: ('A' for Active; 'I' for Inactive)
REMARK    1  A    between atoms: C2'_3  and  C1'_4 
REMARK    2  A    between atoms: C1'_4  and  C1_5 
ROOT
ATOM      1  C1  I4B d   1       0.316  -0.250   1.091  0.00  0.00    -0.075 A 
ATOM      2  C2  I4B d   1      -0.101  -0.016   2.378  0.00  0.00     0.003 A 
ATOM      3  C3  I4B d   1      -1.410   0.463   2.627  0.00  0.00     0.002 A 
ATOM      4  C4  I4B d   1      -2.245   0.740   1.565  0.00  0.00    -0.004 A 
ATOM      5  C5  I4B d   1      -1.829   0.480   0.262  0.00  0.00     0.002 A 
ATOM      6  C6  I4B d   1      -0.545  -0.030   0.024  0.00  0.00     0.003 A 
ENDROOT
BRANCH   1   7
ATOM      7  C1' I4B d   1       1.716  -0.725   0.863  0.00  0.00     0.060 C 
BRANCH   7   8
ATOM      8  C2' I4B d   1       2.382   0.233  -0.104  0.00  0.00    -0.013 C 
ATOM      9  C4' I4B d   1       2.450   1.625   0.468  0.00  0.00     0.013 C 
ATOM     10  C3' I4B d   1       3.752  -0.294  -0.409  0.00  0.00     0.013 C 
ENDBRANCH   7   8
ENDBRANCH   1   7
TORSDOF 2
ENDMDL
