MODEL 1
REMARK minimizedAffinity -4.88357687
REMARK minimizedRMSD -1
REMARK  2 active torsions:
REMARK  status: ('A' for Active; 'I' for Inactive)
REMARK    1  A    between atoms: C2'_3  and  C1'_4 
REMARK    2  A    between atoms: C1'_4  and  C1_5 
ROOT
ATOM      1  C1  I4B d   1       0.629  -0.308   1.253  0.00  0.00    -0.075 A 
ATOM      2  C2  I4B d   1      -0.562   0.347   1.061  0.00  0.00     0.003 A 
ATOM      3  C3  I4B d   1      -1.367   0.703   2.170  0.00  0.00     0.002 A 
ATOM      4  C4  I4B d   1      -0.970   0.343   3.441  0.00  0.00    -0.004 A 
ATOM      5  C5  I4B d   1       0.249  -0.301   3.636  0.00  0.00     0.002 A 
ATOM      6  C6  I4B d   1       1.060  -0.617   2.537  0.00  0.00     0.003 A 
ENDROOT
BRANCH   1   7
ATOM      7  C1' I4B d   1       1.439  -0.698   0.058  0.00  0.00     0.060 C 
BRANCH   7   8
ATOM      8  C2' I4B d   1       2.720   0.110   0.078  0.00  0.00    -0.013 C 
ATOM      9  C4' I4B d   1       3.843  -0.664   0.716  0.00  0.00     0.013 C 
ATOM     10  C3' I4B d   1       3.055   0.484  -1.336  0.00  0.00     0.013 C 
ENDBRANCH   7   8
ENDBRANCH   1   7
TORSDOF 2
ENDMDL
