MODEL 1
REMARK minimizedAffinity 1.720438
REMARK minimizedRMSD -1
REMARK  2 active torsions:
REMARK  status: ('A' for Active; 'I' for Inactive)
REMARK    1  A    between atoms: C2'_3  and  C1'_4 
REMARK    2  A    between atoms: C1'_4  and  C1_5 
ROOT
ATOM      1  C1  I4B d   1      -1.457   0.128   1.467  0.00  0.00    -0.075 A 
ATOM      2  C2  I4B d   1      -0.096  -0.012   1.361  0.00  0.00     0.003 A 
ATOM      3  C3  I4B d   1       0.474  -0.570   0.190  0.00  0.00     0.002 A 
ATOM      4  C4  I4B d   1      -0.351  -1.017  -0.821  0.00  0.00    -0.004 A 
ATOM      5  C5  I4B d   1      -1.729  -0.853  -0.722  0.00  0.00     0.002 A 
ATOM      6  C6  I4B d   1      -2.286  -0.266   0.424  0.00  0.00     0.003 A 
ENDROOT
BRANCH   1   7
ATOM      7  C1' I4B d   1      -2.028   0.690   2.730  0.00  0.00     0.060 C 
BRANCH   7   8
ATOM      8  C2' I4B d   1      -1.898  -0.365   3.810  0.00  0.00    -0.013 C 
ATOM      9  C4' I4B d   1      -3.039  -1.346   3.755  0.00  0.00     0.013 C 
ATOM     10  C3' I4B d   1      -0.580  -1.056   3.626  0.00  0.00     0.013 C 
ENDBRANCH   7   8
ENDBRANCH   1   7
TORSDOF 2
ENDMDL
