MODEL 1
REMARK minimizedAffinity -1.10397089
REMARK minimizedRMSD -1
REMARK  2 active torsions:
REMARK  status: ('A' for Active; 'I' for Inactive)
REMARK    1  A    between atoms: C2'_3  and  C1'_4 
REMARK    2  A    between atoms: C1'_4  and  C1_5 
ROOT
ATOM      1  C1  I4B d   1       1.103   0.223   0.821  0.00  0.00    -0.075 A 
ATOM      2  C2  I4B d   1       0.492   0.114   2.045  0.00  0.00     0.003 A 
ATOM      3  C3  I4B d   1      -0.836  -0.367   2.139  0.00  0.00     0.002 A 
ATOM      4  C4  I4B d   1      -1.529  -0.677   0.987  0.00  0.00    -0.004 A 
ATOM      5  C5  I4B d   1      -0.901  -0.588  -0.251  0.00  0.00     0.002 A 
ATOM      6  C6  I4B d   1       0.427  -0.147  -0.335  0.00  0.00     0.003 A 
ENDROOT
BRANCH   1   7
ATOM      7  C1' I4B d   1       2.495   0.766   0.756  0.00  0.00     0.060 C 
BRANCH   7   8
ATOM      8  C2' I4B d   1       3.170   0.174  -0.465  0.00  0.00    -0.013 C 
ATOM      9  C4' I4B d   1       3.703   1.253  -1.371  0.00  0.00     0.013 C 
ATOM     10  C3' I4B d   1       4.270  -0.729   0.007  0.00  0.00     0.013 C 
ENDBRANCH   7   8
ENDBRANCH   1   7
TORSDOF 2
ENDMDL
