MODEL 1
REMARK minimizedAffinity 1.57780385
REMARK minimizedRMSD -1
REMARK  0 active torsions:
REMARK  status: ('A' for Active; 'I' for Inactive)
ROOT
ATOM      1  C2' OXE d   1      -1.732  -2.592   5.215  0.00  0.00     0.078 C 
ATOM      2  C1' OXE d   1      -3.041  -1.417   3.027  0.00  0.00     0.078 C 
ATOM      3  C1  OXE d   1      -3.874  -2.213   4.000  0.00  0.00    -0.078 A 
ATOM      4  C2  OXE d   1      -3.217  -2.824   5.042  0.00  0.00    -0.078 A 
ATOM      5  C3  OXE d   1      -3.945  -3.524   5.999  0.00  0.00     0.003 A 
ATOM      6  C4  OXE d   1      -5.318  -3.742   5.827  0.00  0.00    -0.002 A 
ATOM      7  C5  OXE d   1      -5.999  -3.163   4.751  0.00  0.00    -0.002 A 
ATOM      8  C6  OXE d   1      -5.300  -2.362   3.854  0.00  0.00     0.003 A 
ENDROOT
TORSDOF 0
ENDMDL
