MODEL 1
REMARK minimizedAffinity 11.4024897
REMARK minimizedRMSD -1
REMARK  0 active torsions:
REMARK  status: ('A' for Active; 'I' for Inactive)
ROOT
ATOM      1  C2' OXE d   1       0.119  -3.413  -5.655  0.00  0.00     0.078 C 
ATOM      2  C1' OXE d   1      -1.975  -1.575  -5.997  0.00  0.00     0.078 C 
ATOM      3  C1  OXE d   1      -2.329  -3.039  -5.925  0.00  0.00    -0.078 A 
ATOM      4  C2  OXE d   1      -1.294  -3.935  -5.805  0.00  0.00    -0.078 A 
ATOM      5  C3  OXE d   1      -1.569  -5.293  -5.680  0.00  0.00     0.003 A 
ATOM      6  C4  OXE d   1      -2.878  -5.768  -5.829  0.00  0.00    -0.002 A 
ATOM      7  C5  OXE d   1      -3.943  -4.876  -5.992  0.00  0.00    -0.002 A 
ATOM      8  C6  OXE d   1      -3.691  -3.509  -6.000  0.00  0.00     0.003 A 
ENDROOT
TORSDOF 0
ENDMDL
