MODEL 1
REMARK minimizedAffinity 6.02499294
REMARK minimizedRMSD -1
REMARK  0 active torsions:
REMARK  status: ('A' for Active; 'I' for Inactive)
ROOT
ATOM      1  C2' OXE d   1       0.622  -5.228  -2.978  0.00  0.00     0.078 C 
ATOM      2  C1' OXE d   1       0.809  -3.409  -5.108  0.00  0.00     0.078 C 
ATOM      3  C1  OXE d   1      -0.417  -4.285  -5.036  0.00  0.00    -0.078 A 
ATOM      4  C2  OXE d   1      -0.478  -5.204  -4.017  0.00  0.00    -0.078 A 
ATOM      5  C3  OXE d   1      -1.612  -5.999  -3.873  0.00  0.00     0.003 A 
ATOM      6  C4  OXE d   1      -2.620  -5.978  -4.844  0.00  0.00    -0.002 A 
ATOM      7  C5  OXE d   1      -2.559  -5.077  -5.912  0.00  0.00    -0.002 A 
ATOM      8  C6  OXE d   1      -1.487  -4.195  -5.999  0.00  0.00     0.003 A 
ENDROOT
TORSDOF 0
ENDMDL
