MODEL 1
REMARK minimizedAffinity 8.22439766
REMARK minimizedRMSD -1
REMARK  0 active torsions:
REMARK  status: ('A' for Active; 'I' for Inactive)
ROOT
ATOM      1  C2' OXE d   1      -5.083  -3.168  -5.951  0.00  0.00     0.078 C 
ATOM      2  C1' OXE d   1      -5.071  -5.975  -5.961  0.00  0.00     0.078 C 
ATOM      3  C1  OXE d   1      -3.740  -5.267  -5.957  0.00  0.00    -0.078 A 
ATOM      4  C2  OXE d   1      -3.755  -3.893  -6.000  0.00  0.00    -0.078 A 
ATOM      5  C3  OXE d   1      -2.556  -3.189  -5.943  0.00  0.00     0.003 A 
ATOM      6  C4  OXE d   1      -1.332  -3.867  -5.999  0.00  0.00    -0.002 A 
ATOM      7  C5  OXE d   1      -1.295  -5.265  -5.996  0.00  0.00    -0.002 A 
ATOM      8  C6  OXE d   1      -2.486  -5.979  -5.932  0.00  0.00     0.003 A 
ENDROOT
TORSDOF 0
ENDMDL
