MODEL 1
REMARK minimizedAffinity 5.8492856
REMARK minimizedRMSD -1
REMARK  0 active torsions:
REMARK  status: ('A' for Active; 'I' for Inactive)
ROOT
ATOM      1  C2' OXE d   1      -1.752  -1.500  -5.251  0.00  0.00     0.078 C 
ATOM      2  C1' OXE d   1       0.485  -3.022  -6.000  0.00  0.00     0.078 C 
ATOM      3  C1  OXE d   1      -0.076  -3.230  -4.615  0.00  0.00    -0.078 A 
ATOM      4  C2  OXE d   1      -1.142  -2.447  -4.241  0.00  0.00    -0.078 A 
ATOM      5  C3  OXE d   1      -1.732  -2.637  -2.994  0.00  0.00     0.003 A 
ATOM      6  C4  OXE d   1      -1.155  -3.508  -2.062  0.00  0.00    -0.002 A 
ATOM      7  C5  OXE d   1      -0.045  -4.285  -2.409  0.00  0.00    -0.002 A 
ATOM      8  C6  OXE d   1       0.480  -4.189  -3.693  0.00  0.00     0.003 A 
ENDROOT
TORSDOF 0
ENDMDL
