MODEL 1
REMARK minimizedAffinity 9.95935726
REMARK minimizedRMSD -1
REMARK  0 active torsions:
REMARK  status: ('A' for Active; 'I' for Inactive)
ROOT
ATOM      1  C2' OXE d   1       0.757   5.111  -2.559  0.00  0.00     0.078 C 
ATOM      2  C1' OXE d   1      -1.942   4.433  -2.192  0.00  0.00     0.078 C 
ATOM      3  C1  OXE d   1      -0.963   4.027  -1.120  0.00  0.00    -0.078 A 
ATOM      4  C2  OXE d   1       0.363   4.322  -1.329  0.00  0.00    -0.078 A 
ATOM      5  C3  OXE d   1       1.300   4.018  -0.346  0.00  0.00     0.003 A 
ATOM      6  C4  OXE d   1       0.929   3.279   0.783  0.00  0.00    -0.002 A 
ATOM      7  C5  OXE d   1      -0.409   2.933   0.997  0.00  0.00    -0.002 A 
ATOM      8  C6  OXE d   1      -1.372   3.336   0.078  0.00  0.00     0.003 A 
ENDROOT
TORSDOF 0
ENDMDL
