MODEL 1
REMARK minimizedAffinity 10.3175039
REMARK minimizedRMSD -1
REMARK  2 active torsions:
REMARK  status: ('A' for Active; 'I' for Inactive)
REMARK    1  A    between atoms: C1_2  and  C2_3 
REMARK    2  A    between atoms: C2_3  and  C3_4 
ROOT
ATOM      1  C3  UNL d   1       1.262  -4.433   3.020  0.00  0.00    -0.075 A 
ATOM      2  C4  UNL d   1       0.939  -5.032   4.247  0.00  0.00     0.002 A 
ATOM      3  C5  UNL d   1       0.350  -4.284   5.266  0.00  0.00     0.002 A 
ATOM      4  C6  UNL d   1       0.084  -2.930   5.077  0.00  0.00    -0.004 A 
ATOM      5  C7  UNL d   1       0.416  -2.321   3.868  0.00  0.00     0.002 A 
ATOM      6  C8  UNL d   1       1.002  -3.068   2.845  0.00  0.00     0.002 A 
ENDROOT
BRANCH   1   7
ATOM      7  C2  UNL d   1       1.873  -5.244   1.902  0.00  0.00     0.056 C 
BRANCH   7   8
ATOM      8  C1  UNL d   1       0.849  -5.990   1.040  0.00  0.00     0.007 C 
ATOM      9  C   UNL d   1       1.199  -5.993  -0.442  0.00  0.00     0.009 C 
ENDBRANCH   7   8
ENDBRANCH   1   7
TORSDOF 2
ENDMDL
