MODEL 1
REMARK minimizedAffinity 11.9000816
REMARK minimizedRMSD -1
REMARK  2 active torsions:
REMARK  status: ('A' for Active; 'I' for Inactive)
REMARK    1  A    between atoms: C1_2  and  C2_3 
REMARK    2  A    between atoms: C2_3  and  C3_4 
ROOT
ATOM      1  C3  UNL d   1      -4.999  -1.860  -4.209  0.00  0.00    -0.075 A 
ATOM      2  C4  UNL d   1      -3.996  -2.819  -4.006  0.00  0.00     0.002 A 
ATOM      3  C5  UNL d   1      -3.984  -3.999  -4.751  0.00  0.00     0.002 A 
ATOM      4  C6  UNL d   1      -4.976  -4.239  -5.698  0.00  0.00    -0.004 A 
ATOM      5  C7  UNL d   1      -5.987  -3.301  -5.896  0.00  0.00     0.002 A 
ATOM      6  C8  UNL d   1      -6.000  -2.117  -5.156  0.00  0.00     0.002 A 
ENDROOT
BRANCH   1   7
ATOM      7  C2  UNL d   1      -5.002  -0.568  -3.428  0.00  0.00     0.056 C 
BRANCH   7   8
ATOM      8  C1  UNL d   1      -3.609   0.034  -3.212  0.00  0.00     0.007 C 
ATOM      9  C   UNL d   1      -3.614   1.243  -2.286  0.00  0.00     0.009 C 
ENDBRANCH   7   8
ENDBRANCH   1   7
TORSDOF 2
ENDMDL
