MODEL 1
REMARK minimizedAffinity 13.7506905
REMARK minimizedRMSD -1
REMARK  2 active torsions:
REMARK  status: ('A' for Active; 'I' for Inactive)
REMARK    1  A    between atoms: C1_2  and  C2_3 
REMARK    2  A    between atoms: C2_3  and  C3_4 
ROOT
ATOM      1  C3  UNL d   1       4.425   5.870  -2.598  0.00  0.00    -0.075 A 
ATOM      2  C4  UNL d   1       3.368   5.856  -3.520  0.00  0.00     0.002 A 
ATOM      3  C5  UNL d   1       3.624   5.900  -4.890  0.00  0.00     0.002 A 
ATOM      4  C6  UNL d   1       4.935   5.968  -5.356  0.00  0.00    -0.004 A 
ATOM      5  C7  UNL d   1       5.992   5.999  -4.449  0.00  0.00     0.002 A 
ATOM      6  C8  UNL d   1       5.739   5.952  -3.076  0.00  0.00     0.002 A 
ENDROOT
BRANCH   1   7
ATOM      7  C2  UNL d   1       4.157   5.794  -1.113  0.00  0.00     0.056 C 
BRANCH   7   8
ATOM      8  C1  UNL d   1       2.942   4.936  -0.743  0.00  0.00     0.007 C 
ATOM      9  C   UNL d   1       3.303   3.493  -0.417  0.00  0.00     0.009 C 
ENDBRANCH   7   8
ENDBRANCH   1   7
TORSDOF 2
ENDMDL
