MODEL 1
REMARK minimizedAffinity 8.34070969
REMARK minimizedRMSD -1
REMARK  2 active torsions:
REMARK  status: ('A' for Active; 'I' for Inactive)
REMARK    1  A    between atoms: C1_2  and  C2_3 
REMARK    2  A    between atoms: C2_3  and  C3_4 
ROOT
ATOM      1  C3  UNL d   1      -2.359   1.833  -0.346  0.00  0.00    -0.075 A 
ATOM      2  C4  UNL d   1      -2.121   0.770  -1.230  0.00  0.00     0.002 A 
ATOM      3  C5  UNL d   1      -2.741   0.734  -2.479  0.00  0.00     0.002 A 
ATOM      4  C6  UNL d   1      -3.613   1.753  -2.856  0.00  0.00    -0.004 A 
ATOM      5  C7  UNL d   1      -3.870   2.805  -1.980  0.00  0.00     0.002 A 
ATOM      6  C8  UNL d   1      -3.248   2.846  -0.731  0.00  0.00     0.002 A 
ENDROOT
BRANCH   1   7
ATOM      7  C2  UNL d   1      -1.668   1.892   0.995  0.00  0.00     0.056 C 
BRANCH   7   8
ATOM      8  C1  UNL d   1      -1.203   0.529   1.518  0.00  0.00     0.007 C 
ATOM      9  C   UNL d   1       0.268   0.508   1.913  0.00  0.00     0.009 C 
ENDBRANCH   7   8
ENDBRANCH   1   7
TORSDOF 2
ENDMDL
