MODEL 1
REMARK minimizedAffinity 22.0990181
REMARK minimizedRMSD -1
REMARK  0 active torsions:
REMARK  status: ('A' for Active; 'I' for Inactive)
ROOT
ATOM      1  N1  IND d   1       4.215   0.007  -6.000  0.00  0.00    -0.196 N 
ATOM      2  C2  IND d   1       5.554   0.274  -5.924  0.00  0.00     0.054 A 
ATOM      3  C3  IND d   1       6.000   0.087  -4.662  0.00  0.00    -0.031 A 
ATOM      4  C4  IND d   1       4.731  -0.754  -2.586  0.00  0.00     0.051 A 
ATOM      5  C5  IND d   1       3.480  -1.094  -2.153  0.00  0.00    -0.031 A 
ATOM      6  C6  IND d   1       2.389  -1.086  -2.997  0.00  0.00     0.015 A 
ATOM      7  C7  IND d   1       2.510  -0.748  -4.315  0.00  0.00    -0.016 A 
ATOM      8  C8  IND d   1       3.778  -0.396  -4.757  0.00  0.00    -0.047 A 
ATOM      9  C9  IND d   1       4.881  -0.361  -3.895  0.00  0.00    -0.096 A 
ATOM     10  HN1 IND d   1       3.728   0.079  -6.705  0.00  0.00     0.298 HD
ENDROOT
TORSDOF 0
ENDMDL
