MODEL 1
REMARK minimizedAffinity 12.4037838
REMARK minimizedRMSD -1
REMARK  0 active torsions:
REMARK  status: ('A' for Active; 'I' for Inactive)
ROOT
ATOM      1  N1  IND d   1       1.403  -3.645  -0.971  0.00  0.00    -0.196 N 
ATOM      2  C2  IND d   1       1.010  -4.863  -0.491  0.00  0.00     0.054 A 
ATOM      3  C3  IND d   1       0.711  -4.776   0.824  0.00  0.00    -0.031 A 
ATOM      4  C4  IND d   1       0.698  -2.715   2.366  0.00  0.00     0.051 A 
ATOM      5  C5  IND d   1       1.017  -1.386   2.391  0.00  0.00    -0.031 A 
ATOM      6  C6  IND d   1       1.488  -0.728   1.273  0.00  0.00     0.015 A 
ATOM      7  C7  IND d   1       1.647  -1.375   0.080  0.00  0.00    -0.016 A 
ATOM      8  C8  IND d   1       1.331  -2.726   0.053  0.00  0.00    -0.047 A 
ATOM      9  C9  IND d   1       0.893  -3.409   1.195  0.00  0.00    -0.096 A 
ATOM     10  HN1 IND d   1       1.653  -3.480  -1.777  0.00  0.00     0.298 HD
ENDROOT
TORSDOF 0
ENDMDL
