MODEL 1
REMARK minimizedAffinity -2.39215851
REMARK minimizedRMSD -1
REMARK  0 active torsions:
REMARK  status: ('A' for Active; 'I' for Inactive)
ROOT
ATOM      1  N1  IND d   1      -5.469  -3.742  -2.234  0.00  0.00    -0.196 N 
ATOM      2  C2  IND d   1      -4.878  -4.735  -1.504  0.00  0.00     0.054 A 
ATOM      3  C3  IND d   1      -4.535  -5.768  -2.306  0.00  0.00    -0.031 A 
ATOM      4  C4  IND d   1      -4.757  -6.000  -4.860  0.00  0.00     0.051 A 
ATOM      5  C5  IND d   1      -5.269  -5.368  -5.958  0.00  0.00    -0.031 A 
ATOM      6  C6  IND d   1      -5.884  -4.135  -5.870  0.00  0.00     0.015 A 
ATOM      7  C7  IND d   1      -6.000  -3.481  -4.676  0.00  0.00    -0.016 A 
ATOM      8  C8  IND d   1      -5.487  -4.123  -3.558  0.00  0.00    -0.047 A 
ATOM      9  C9  IND d   1      -4.901  -5.393  -3.635  0.00  0.00    -0.096 A 
ATOM     10  HN1 IND d   1      -5.778  -3.004  -1.919  0.00  0.00     0.298 HD
ENDROOT
TORSDOF 0
ENDMDL
