MODEL 1
REMARK minimizedAffinity 8.0382185
REMARK minimizedRMSD -1
REMARK  0 active torsions:
REMARK  status: ('A' for Active; 'I' for Inactive)
ROOT
ATOM      1  N1  IND d   1       4.677   5.010  -1.959  0.00  0.00    -0.196 N 
ATOM      2  C2  IND d   1       3.508   4.309  -1.865  0.00  0.00     0.054 A 
ATOM      3  C3  IND d   1       2.989   4.093  -3.094  0.00  0.00    -0.031 A 
ATOM      4  C4  IND d   1       3.943   4.710  -5.404  0.00  0.00     0.051 A 
ATOM      5  C5  IND d   1       4.969   5.389  -5.999  0.00  0.00    -0.031 A 
ATOM      6  C6  IND d   1       5.972   5.985  -5.263  0.00  0.00     0.015 A 
ATOM      7  C7  IND d   1       5.993   5.916  -3.899  0.00  0.00    -0.016 A 
ATOM      8  C8  IND d   1       4.948   5.234  -3.291  0.00  0.00    -0.047 A 
ATOM      9  C9  IND d   1       3.905   4.662  -4.030  0.00  0.00    -0.096 A 
ATOM     10  HN1 IND d   1       5.162   5.268  -1.297  0.00  0.00     0.298 HD
ENDROOT
TORSDOF 0
ENDMDL
