MODEL 1
REMARK minimizedAffinity 6.4695096
REMARK minimizedRMSD -1
REMARK  0 active torsions:
REMARK  status: ('A' for Active; 'I' for Inactive)
ROOT
ATOM      1  N1  IND d   1       1.645  -2.337   1.756  0.00  0.00    -0.196 N 
ATOM      2  C2  IND d   1       1.519  -1.043   2.178  0.00  0.00     0.054 A 
ATOM      3  C3  IND d   1       1.773  -0.954   3.503  0.00  0.00    -0.031 A 
ATOM      4  C4  IND d   1       2.512  -2.785   5.154  0.00  0.00     0.051 A 
ATOM      5  C5  IND d   1       2.727  -4.132   5.243  0.00  0.00    -0.031 A 
ATOM      6  C6  IND d   1       2.592  -4.966   4.152  0.00  0.00     0.015 A 
ATOM      7  C7  IND d   1       2.247  -4.480   2.923  0.00  0.00    -0.016 A 
ATOM      8  C8  IND d   1       2.021  -3.114   2.830  0.00  0.00    -0.047 A 
ATOM      9  C9  IND d   1       2.115  -2.269   3.943  0.00  0.00    -0.096 A 
ATOM     10  HN1 IND d   1       1.512  -2.619   0.954  0.00  0.00     0.298 HD
ENDROOT
TORSDOF 0
ENDMDL
