MODEL 1
REMARK minimizedAffinity 5.23968077
REMARK minimizedRMSD -1
REMARK  0 active torsions:
REMARK  status: ('A' for Active; 'I' for Inactive)
ROOT
ATOM      1  N1  IND d   1       5.265  -3.067   4.474  0.00  0.00    -0.196 N 
ATOM      2  C2  IND d   1       6.000  -3.216   3.331  0.00  0.00     0.054 A 
ATOM      3  C3  IND d   1       5.186  -3.280   2.253  0.00  0.00    -0.031 A 
ATOM      4  C4  IND d   1       2.625  -3.058   2.122  0.00  0.00     0.051 A 
ATOM      5  C5  IND d   1       1.512  -2.946   2.908  0.00  0.00    -0.031 A 
ATOM      6  C6  IND d   1       1.594  -2.865   4.283  0.00  0.00     0.015 A 
ATOM      7  C7  IND d   1       2.800  -2.881   4.926  0.00  0.00    -0.016 A 
ATOM      8  C8  IND d   1       3.932  -3.001   4.132  0.00  0.00    -0.047 A 
ATOM      9  C9  IND d   1       3.852  -3.127   2.739  0.00  0.00    -0.096 A 
ATOM     10  HN1 IND d   1       5.581  -3.022   5.272  0.00  0.00     0.298 HD
ENDROOT
TORSDOF 0
ENDMDL
