MODEL 1
REMARK minimizedAffinity -1.22318029
REMARK minimizedRMSD -1
REMARK  0 active torsions:
REMARK  status: ('A' for Active; 'I' for Inactive)
ROOT
ATOM      1  N1  IND d   1      -0.158  -4.976   5.457  0.00  0.00    -0.196 N 
ATOM      2  C2  IND d   1       0.573  -5.996   6.000  0.00  0.00     0.054 A 
ATOM      3  C3  IND d   1       1.857  -5.929   5.581  0.00  0.00    -0.031 A 
ATOM      4  C4  IND d   1       3.000  -4.172   4.086  0.00  0.00     0.051 A 
ATOM      5  C5  IND d   1       2.734  -3.071   3.321  0.00  0.00    -0.031 A 
ATOM      6  C6  IND d   1       1.465  -2.536   3.229  0.00  0.00     0.015 A 
ATOM      7  C7  IND d   1       0.412  -3.079   3.911  0.00  0.00    -0.016 A 
ATOM      8  C8  IND d   1       0.678  -4.201   4.683  0.00  0.00    -0.047 A 
ATOM      9  C9  IND d   1       1.955  -4.773   4.746  0.00  0.00    -0.096 A 
ATOM     10  HN1 IND d   1      -0.998  -4.842   5.578  0.00  0.00     0.298 HD
ENDROOT
TORSDOF 0
ENDMDL
