MODEL 1
REMARK minimizedAffinity 13.093154
REMARK minimizedRMSD -1
REMARK  0 active torsions:
REMARK  status: ('A' for Active; 'I' for Inactive)
ROOT
ATOM      1  N1  IND d   1      -4.562  -5.948  -2.702  0.00  0.00    -0.196 N 
ATOM      2  C2  IND d   1      -4.148  -4.939  -1.878  0.00  0.00     0.054 A 
ATOM      3  C3  IND d   1      -4.343  -3.739  -2.470  0.00  0.00    -0.031 A 
ATOM      4  C4  IND d   1      -5.422  -3.192  -4.742  0.00  0.00     0.051 A 
ATOM      5  C5  IND d   1      -5.922  -3.785  -5.868  0.00  0.00    -0.031 A 
ATOM      6  C6  IND d   1      -5.998  -5.156  -5.997  0.00  0.00     0.015 A 
ATOM      7  C7  IND d   1      -5.586  -5.990  -4.996  0.00  0.00    -0.016 A 
ATOM      8  C8  IND d   1      -5.071  -5.392  -3.855  0.00  0.00    -0.047 A 
ATOM      9  C9  IND d   1      -4.952  -4.001  -3.735  0.00  0.00    -0.096 A 
ATOM     10  HN1 IND d   1      -4.512  -6.789  -2.529  0.00  0.00     0.298 HD
ENDROOT
TORSDOF 0
ENDMDL
