MODEL 1
REMARK minimizedAffinity 6.86791849
REMARK minimizedRMSD -1
REMARK  0 active torsions:
REMARK  status: ('A' for Active; 'I' for Inactive)
ROOT
ATOM      1  N1  IND d   1       5.604  -3.043   3.774  0.00  0.00    -0.196 N 
ATOM      2  C2  IND d   1       5.998  -2.700   2.511  0.00  0.00     0.054 A 
ATOM      3  C3  IND d   1       4.920  -2.473   1.728  0.00  0.00    -0.031 A 
ATOM      4  C4  IND d   1       2.419  -2.506   2.338  0.00  0.00     0.051 A 
ATOM      5  C5  IND d   1       1.564  -2.801   3.362  0.00  0.00    -0.031 A 
ATOM      6  C6  IND d   1       2.022  -3.197   4.602  0.00  0.00     0.015 A 
ATOM      7  C7  IND d   1       3.357  -3.303   4.868  0.00  0.00    -0.016 A 
ATOM      8  C8  IND d   1       4.228  -3.011   3.828  0.00  0.00    -0.047 A 
ATOM      9  C9  IND d   1       3.769  -2.649   2.555  0.00  0.00    -0.096 A 
ATOM     10  HN1 IND d   1       6.128  -3.246   4.425  0.00  0.00     0.298 HD
ENDROOT
TORSDOF 0
ENDMDL
