MODEL 1
REMARK minimizedAffinity 10.2358847
REMARK minimizedRMSD -1
REMARK  3 active torsions:
REMARK  status: ('A' for Active; 'I' for Inactive)
REMARK    1  A    between atoms: C3'_2  and  C2'_3 
REMARK    2  A    between atoms: C2'_3  and  C1'_4 
REMARK    3  A    between atoms: C1'_4  and  C1_5 
ROOT
ATOM      1  C1  N4B d   1       3.764   2.606   1.026  0.00  0.00    -0.075 A 
ATOM      2  C2  N4B d   1       4.840   3.520   1.068  0.00  0.00     0.002 A 
ATOM      3  C3  N4B d   1       5.160   4.150   2.245  0.00  0.00     0.002 A 
ATOM      4  C4  N4B d   1       4.410   3.898   3.384  0.00  0.00    -0.004 A 
ATOM      5  C5  N4B d   1       3.389   2.994   3.341  0.00  0.00     0.002 A 
ATOM      6  C6  N4B d   1       3.059   2.350   2.166  0.00  0.00     0.002 A 
ENDROOT
BRANCH   1   7
ATOM      7  C1' N4B d   1       3.323   1.957  -0.258  0.00  0.00     0.057 C 
BRANCH   7   8
ATOM      8  C2' N4B d   1       3.733   0.487  -0.243  0.00  0.00     0.009 C 
BRANCH   8   9
ATOM      9  C3' N4B d   1       2.539  -0.434  -0.061  0.00  0.00     0.004 C 
ATOM     10  C4' N4B d   1       2.919  -1.774   0.495  0.00  0.00     0.003 C 
ENDBRANCH   8   9
ENDBRANCH   7   8
ENDBRANCH   1   7
TORSDOF 3
ENDMDL
