MODEL 1
REMARK minimizedAffinity 9.85797787
REMARK minimizedRMSD -1
REMARK  3 active torsions:
REMARK  status: ('A' for Active; 'I' for Inactive)
REMARK    1  A    between atoms: C3'_2  and  C2'_3 
REMARK    2  A    between atoms: C2'_3  and  C1'_4 
REMARK    3  A    between atoms: C1'_4  and  C1_5 
ROOT
ATOM      1  C1  N4B d   1       3.659  -0.267   0.404  0.00  0.00    -0.075 A 
ATOM      2  C2  N4B d   1       4.739   0.629   0.250  0.00  0.00     0.002 A 
ATOM      3  C3  N4B d   1       4.731   1.543  -0.775  0.00  0.00     0.002 A 
ATOM      4  C4  N4B d   1       3.667   1.567  -1.664  0.00  0.00    -0.004 A 
ATOM      5  C5  N4B d   1       2.616   0.715  -1.493  0.00  0.00     0.002 A 
ATOM      6  C6  N4B d   1       2.609  -0.207  -0.465  0.00  0.00     0.002 A 
ENDROOT
BRANCH   1   7
ATOM      7  C1' N4B d   1       3.663  -1.342   1.458  0.00  0.00     0.057 C 
BRANCH   7   8
ATOM      8  C2' N4B d   1       2.271  -1.960   1.548  0.00  0.00     0.009 C 
BRANCH   8   9
ATOM      9  C3' N4B d   1       1.912  -2.346   2.973  0.00  0.00     0.004 C 
ATOM     10  C4' N4B d   1       0.510  -1.964   3.343  0.00  0.00     0.003 C 
ENDBRANCH   8   9
ENDBRANCH   7   8
ENDBRANCH   1   7
TORSDOF 3
ENDMDL
