MODEL 1
REMARK minimizedAffinity 18.1186886
REMARK minimizedRMSD -1
REMARK  3 active torsions:
REMARK  status: ('A' for Active; 'I' for Inactive)
REMARK    1  A    between atoms: C3'_2  and  C2'_3 
REMARK    2  A    between atoms: C2'_3  and  C1'_4 
REMARK    3  A    between atoms: C1'_4  and  C1_5 
ROOT
ATOM      1  C1  N4B d   1      -4.780   0.008  -1.966  0.00  0.00    -0.075 A 
ATOM      2  C2  N4B d   1      -3.636  -0.082  -1.144  0.00  0.00     0.002 A 
ATOM      3  C3  N4B d   1      -3.574   0.633   0.027  0.00  0.00     0.002 A 
ATOM      4  C4  N4B d   1      -4.631   1.457   0.385  0.00  0.00    -0.004 A 
ATOM      5  C5  N4B d   1      -5.743   1.519  -0.403  0.00  0.00     0.002 A 
ATOM      6  C6  N4B d   1      -5.821   0.802  -1.580  0.00  0.00     0.002 A 
ENDROOT
BRANCH   1   7
ATOM      7  C1' N4B d   1      -4.858  -0.688  -3.297  0.00  0.00     0.057 C 
BRANCH   7   8
ATOM      8  C2' N4B d   1      -5.996  -0.082  -4.113  0.00  0.00     0.009 C 
BRANCH   8   9
ATOM      9  C3' N4B d   1      -5.580   0.199  -5.547  0.00  0.00     0.004 C 
ATOM     10  C4' N4B d   1      -4.667   1.382  -5.665  0.00  0.00     0.003 C 
ENDBRANCH   8   9
ENDBRANCH   7   8
ENDBRANCH   1   7
TORSDOF 3
ENDMDL
