MODEL 1
REMARK minimizedAffinity 11.2689724
REMARK minimizedRMSD -1
REMARK  3 active torsions:
REMARK  status: ('A' for Active; 'I' for Inactive)
REMARK    1  A    between atoms: C3'_2  and  C2'_3 
REMARK    2  A    between atoms: C2'_3  and  C1'_4 
REMARK    3  A    between atoms: C1'_4  and  C1_5 
ROOT
ATOM      1  C1  N4B d   1      -5.391   2.024  -1.503  0.00  0.00    -0.075 A 
ATOM      2  C2  N4B d   1      -5.964   2.158  -2.787  0.00  0.00     0.002 A 
ATOM      3  C3  N4B d   1      -5.998   3.387  -3.398  0.00  0.00     0.002 A 
ATOM      4  C4  N4B d   1      -5.486   4.495  -2.740  0.00  0.00    -0.004 A 
ATOM      5  C5  N4B d   1      -4.911   4.353  -1.511  0.00  0.00     0.002 A 
ATOM      6  C6  N4B d   1      -4.866   3.122  -0.886  0.00  0.00     0.002 A 
ENDROOT
BRANCH   1   7
ATOM      7  C1' N4B d   1      -5.408   0.717  -0.758  0.00  0.00     0.057 C 
BRANCH   7   8
ATOM      8  C2' N4B d   1      -3.991   0.382  -0.303  0.00  0.00     0.009 C 
BRANCH   8   9
ATOM      9  C3' N4B d   1      -3.297  -0.571  -1.261  0.00  0.00     0.004 C 
ATOM     10  C4' N4B d   1      -2.088   0.036  -1.908  0.00  0.00     0.003 C 
ENDBRANCH   8   9
ENDBRANCH   7   8
ENDBRANCH   1   7
TORSDOF 3
ENDMDL
