MODEL 1
REMARK minimizedAffinity 7.10024929
REMARK minimizedRMSD -1
REMARK  0 active torsions:
REMARK  status: ('A' for Active; 'I' for Inactive)
ROOT
ATOM      1  C   UNL d   1      -0.381   4.053  -2.044  0.00  0.00     0.124 A 
ATOM      2  C1  UNL d   1      -1.026   2.825  -2.014  0.00  0.00     0.062 A 
ATOM      3  C2  UNL d   1      -1.027   2.064  -0.849  0.00  0.00     0.162 A 
ATOM      4  C3  UNL d   1      -0.381   2.529   0.297  0.00  0.00    -0.034 A 
ATOM      5  C4  UNL d   1       0.266   3.765   0.258  0.00  0.00     0.162 A 
ATOM      6  C5  UNL d   1       0.265   4.522  -0.909  0.00  0.00     0.062 A 
ATOM      7  F   UNL d   1       0.889   5.709  -0.936  0.00  0.00    -0.097 F 
ATOM      8  F1  UNL d   1       0.897   4.243   1.341  0.00  0.00    -0.096 F 
ATOM      9  I   UNL d   1      -0.381   1.394   2.041  0.00  0.00    -0.060 I 
ATOM     10  F2  UNL d   1      -1.659   0.880  -0.848  0.00  0.00    -0.096 F 
ATOM     11  F3  UNL d   1      -1.649   2.369  -3.110  0.00  0.00    -0.097 F 
ATOM     12  F4  UNL d   1      -0.380   4.783  -3.167  0.00  0.00    -0.092 F 
ENDROOT
TORSDOF 0
ENDMDL
