MODEL 1
REMARK minimizedAffinity 12.8447332
REMARK minimizedRMSD -1
REMARK  0 active torsions:
REMARK  status: ('A' for Active; 'I' for Inactive)
ROOT
ATOM      1  C   UNL d   1       0.379   4.110  -1.825  0.00  0.00     0.124 A 
ATOM      2  C1  UNL d   1      -0.556   3.864  -2.821  0.00  0.00     0.062 A 
ATOM      3  C2  UNL d   1      -1.611   2.987  -2.589  0.00  0.00     0.162 A 
ATOM      4  C3  UNL d   1      -1.739   2.350  -1.355  0.00  0.00    -0.034 A 
ATOM      5  C4  UNL d   1      -0.794   2.601  -0.359  0.00  0.00     0.162 A 
ATOM      6  C5  UNL d   1       0.259   3.479  -0.595  0.00  0.00     0.062 A 
ATOM      7  F   UNL d   1       1.161   3.715   0.369  0.00  0.00    -0.097 F 
ATOM      8  F1  UNL d   1      -0.887   2.005   0.840  0.00  0.00    -0.096 F 
ATOM      9  I   UNL d   1      -3.316   1.038  -1.005  0.00  0.00    -0.060 I 
ATOM     10  F2  UNL d   1      -2.500   2.769  -3.570  0.00  0.00    -0.096 F 
ATOM     11  F3  UNL d   1      -0.441   4.472  -4.011  0.00  0.00    -0.097 F 
ATOM     12  F4  UNL d   1       1.394   4.954  -2.051  0.00  0.00    -0.092 F 
ENDROOT
TORSDOF 0
ENDMDL
