MODEL 1
REMARK minimizedAffinity 5.09802246
REMARK minimizedRMSD -1
REMARK  0 active torsions:
REMARK  status: ('A' for Active; 'I' for Inactive)
ROOT
ATOM      1  C   UNL d   1      -0.419   3.971  -1.681  0.00  0.00     0.124 A 
ATOM      2  C1  UNL d   1      -0.279   4.686  -0.500  0.00  0.00     0.062 A 
ATOM      3  C2  UNL d   1      -0.418   4.044   0.727  0.00  0.00     0.162 A 
ATOM      4  C3  UNL d   1      -0.697   2.679   0.780  0.00  0.00    -0.034 A 
ATOM      5  C4  UNL d   1      -0.837   1.966  -0.413  0.00  0.00     0.162 A 
ATOM      6  C5  UNL d   1      -0.698   2.613  -1.637  0.00  0.00     0.062 A 
ATOM      7  F   UNL d   1      -0.833   1.920  -2.777  0.00  0.00    -0.097 F 
ATOM      8  F1  UNL d   1      -1.105   0.652  -0.399  0.00  0.00    -0.096 F 
ATOM      9  I   UNL d   1      -0.905   1.715   2.613  0.00  0.00    -0.060 I 
ATOM     10  F2  UNL d   1      -0.278   4.760   1.853  0.00  0.00    -0.096 F 
ATOM     11  F3  UNL d   1      -0.011   5.999  -0.540  0.00  0.00    -0.097 F 
ATOM     12  F4  UNL d   1      -0.286   4.592  -2.861  0.00  0.00    -0.092 F 
ENDROOT
TORSDOF 0
ENDMDL
