MODEL 1
REMARK minimizedAffinity 22.9288712
REMARK minimizedRMSD -1
REMARK  0 active torsions:
REMARK  status: ('A' for Active; 'I' for Inactive)
ROOT
ATOM      1  C   UNL d   1       0.183   4.313  -2.249  0.00  0.00     0.124 A 
ATOM      2  C1  UNL d   1       0.861   4.783  -1.134  0.00  0.00     0.062 A 
ATOM      3  C2  UNL d   1       0.879   4.037   0.041  0.00  0.00     0.162 A 
ATOM      4  C3  UNL d   1       0.218   2.810   0.106  0.00  0.00    -0.034 A 
ATOM      5  C4  UNL d   1      -0.463   2.344  -1.020  0.00  0.00     0.162 A 
ATOM      6  C5  UNL d   1      -0.478   3.094  -2.192  0.00  0.00     0.062 A 
ATOM      7  F   UNL d   1      -1.134   2.638  -3.269  0.00  0.00    -0.097 F 
ATOM      8  F1  UNL d   1      -1.110   1.169  -0.993  0.00  0.00    -0.096 F 
ATOM      9  I   UNL d   1       0.243   1.691   1.860  0.00  0.00    -0.060 I 
ATOM     10  F2  UNL d   1       1.543   4.516   1.104  0.00  0.00    -0.096 F 
ATOM     11  F3  UNL d   1       1.500   5.961  -1.186  0.00  0.00    -0.097 F 
ATOM     12  F4  UNL d   1       0.166   5.034  -3.378  0.00  0.00    -0.092 F 
ENDROOT
TORSDOF 0
ENDMDL
