MODEL 1
REMARK minimizedAffinity 26.6818161
REMARK minimizedRMSD -1
REMARK  0 active torsions:
REMARK  status: ('A' for Active; 'I' for Inactive)
ROOT
ATOM      1  C   UNL d   1       1.163   2.152   2.107  0.00  0.00     0.124 A 
ATOM      2  C1  UNL d   1       1.564   3.226   1.324  0.00  0.00     0.062 A 
ATOM      3  C2  UNL d   1       0.974   3.445   0.082  0.00  0.00     0.162 A 
ATOM      4  C3  UNL d   1      -0.023   2.589  -0.384  0.00  0.00    -0.034 A 
ATOM      5  C4  UNL d   1      -0.420   1.511   0.408  0.00  0.00     0.162 A 
ATOM      6  C5  UNL d   1       0.172   1.296   1.649  0.00  0.00     0.062 A 
ATOM      7  F   UNL d   1      -0.216   0.258   2.404  0.00  0.00    -0.097 F 
ATOM      8  F1  UNL d   1      -1.376   0.668  -0.009  0.00  0.00    -0.096 F 
ATOM      9  I   UNL d   1      -0.907   2.914  -2.240  0.00  0.00    -0.060 I 
ATOM     10  F2  UNL d   1       1.381   4.491  -0.653  0.00  0.00    -0.096 F 
ATOM     11  F3  UNL d   1       2.522   4.054   1.764  0.00  0.00    -0.097 F 
ATOM     12  F4  UNL d   1       1.733   1.943   3.301  0.00  0.00    -0.092 F 
ENDROOT
TORSDOF 0
ENDMDL
