MODEL 1
REMARK minimizedAffinity 5.83916998
REMARK minimizedRMSD -1
REMARK  0 active torsions:
REMARK  status: ('A' for Active; 'I' for Inactive)
ROOT
ATOM      1  C   UNL d   1      -0.160   3.983  -2.005  0.00  0.00     0.124 A 
ATOM      2  C1  UNL d   1      -0.906   2.813  -2.012  0.00  0.00     0.062 A 
ATOM      3  C2  UNL d   1      -0.979   2.023  -0.868  0.00  0.00     0.162 A 
ATOM      4  C3  UNL d   1      -0.305   2.401   0.293  0.00  0.00    -0.034 A 
ATOM      5  C4  UNL d   1       0.444   3.579   0.292  0.00  0.00     0.162 A 
ATOM      6  C5  UNL d   1       0.514   4.365  -0.854  0.00  0.00     0.062 A 
ATOM      7  F   UNL d   1       1.235   5.496  -0.845  0.00  0.00    -0.097 F 
ATOM      8  F1  UNL d   1       1.105   3.973   1.391  0.00  0.00    -0.096 F 
ATOM      9  I   UNL d   1      -0.412   1.223   2.005  0.00  0.00    -0.060 I 
ATOM     10  F2  UNL d   1      -1.707   0.897  -0.903  0.00  0.00    -0.096 F 
ATOM     11  F3  UNL d   1      -1.557   2.441  -3.123  0.00  0.00    -0.097 F 
ATOM     12  F4  UNL d   1      -0.090   4.741  -3.107  0.00  0.00    -0.092 F 
ENDROOT
TORSDOF 0
ENDMDL
