MODEL 1
REMARK minimizedAffinity 19.8819637
REMARK minimizedRMSD -1
REMARK  0 active torsions:
REMARK  status: ('A' for Active; 'I' for Inactive)
ROOT
ATOM      1  C   UNL d   1      -0.627   2.870   0.062  0.00  0.00     0.124 A 
ATOM      2  C1  UNL d   1       0.173   3.968  -0.221  0.00  0.00     0.062 A 
ATOM      3  C2  UNL d   1       0.059   4.621  -1.445  0.00  0.00     0.162 A 
ATOM      4  C3  UNL d   1      -0.861   4.179  -2.396  0.00  0.00    -0.034 A 
ATOM      5  C4  UNL d   1      -1.662   3.073  -2.104  0.00  0.00     0.162 A 
ATOM      6  C5  UNL d   1      -1.544   2.424  -0.880  0.00  0.00     0.062 A 
ATOM      7  F   UNL d   1      -2.318   1.363  -0.608  0.00  0.00    -0.097 F 
ATOM      8  F1  UNL d   1      -2.557   2.621  -2.996  0.00  0.00    -0.096 F 
ATOM      9  I   UNL d   1      -1.035   5.152  -4.227  0.00  0.00    -0.060 I 
ATOM     10  F2  UNL d   1       0.846   5.680  -1.692  0.00  0.00    -0.096 F 
ATOM     11  F3  UNL d   1       1.061   4.401   0.686  0.00  0.00    -0.097 F 
ATOM     12  F4  UNL d   1      -0.514   2.243   1.239  0.00  0.00    -0.092 F 
ENDROOT
TORSDOF 0
ENDMDL
