MODEL 1
REMARK minimizedAffinity 28.5173817
REMARK minimizedRMSD -1
REMARK  0 active torsions:
REMARK  status: ('A' for Active; 'I' for Inactive)
ROOT
ATOM      1  C   UNL d   1      -3.696   1.478  -2.724  0.00  0.00     0.124 A 
ATOM      2  C1  UNL d   1      -3.217   2.537  -3.483  0.00  0.00     0.062 A 
ATOM      3  C2  UNL d   1      -2.054   3.200  -3.104  0.00  0.00     0.162 A 
ATOM      4  C3  UNL d   1      -1.360   2.807  -1.959  0.00  0.00    -0.034 A 
ATOM      5  C4  UNL d   1      -1.848   1.741  -1.200  0.00  0.00     0.162 A 
ATOM      6  C5  UNL d   1      -3.011   1.081  -1.583  0.00  0.00     0.062 A 
ATOM      7  F   UNL d   1      -3.472   0.059  -0.849  0.00  0.00    -0.097 F 
ATOM      8  F1  UNL d   1      -1.206   1.337  -0.094  0.00  0.00    -0.096 F 
ATOM      9  I   UNL d   1       0.380   3.796  -1.389  0.00  0.00    -0.060 I 
ATOM     10  F2  UNL d   1      -1.614   4.220  -3.856  0.00  0.00    -0.096 F 
ATOM     11  F3  UNL d   1      -3.877   2.922  -4.584  0.00  0.00    -0.097 F 
ATOM     12  F4  UNL d   1      -4.816   0.842  -3.090  0.00  0.00    -0.092 F 
ENDROOT
TORSDOF 0
ENDMDL
