MODEL 1
REMARK minimizedAffinity 17.5813408
REMARK minimizedRMSD -1
REMARK  0 active torsions:
REMARK  status: ('A' for Active; 'I' for Inactive)
ROOT
ATOM      1  C   UNL d   1       0.110   4.329  -2.276  0.00  0.00     0.124 A 
ATOM      2  C1  UNL d   1      -0.688   3.196  -2.195  0.00  0.00     0.062 A 
ATOM      3  C2  UNL d   1      -0.705   2.433  -1.031  0.00  0.00     0.162 A 
ATOM      4  C3  UNL d   1       0.078   2.801   0.063  0.00  0.00    -0.034 A 
ATOM      5  C4  UNL d   1       0.879   3.942  -0.026  0.00  0.00     0.162 A 
ATOM      6  C5  UNL d   1       0.892   4.701  -1.192  0.00  0.00     0.062 A 
ATOM      7  F   UNL d   1       1.664   5.795  -1.268  0.00  0.00    -0.097 F 
ATOM      8  F1  UNL d   1       1.644   4.324   1.007  0.00  0.00    -0.096 F 
ATOM      9  I   UNL d   1       0.056   1.663   1.805  0.00  0.00    -0.060 I 
ATOM     10  F2  UNL d   1      -1.485   1.343  -0.982  0.00  0.00    -0.096 F 
ATOM     11  F3  UNL d   1      -1.444   2.835  -3.242  0.00  0.00    -0.097 F 
ATOM     12  F4  UNL d   1       0.125   5.061  -3.398  0.00  0.00    -0.092 F 
ENDROOT
TORSDOF 0
ENDMDL
