MODEL 1
REMARK minimizedAffinity 16.0399342
REMARK minimizedRMSD -1
REMARK  0 active torsions:
REMARK  status: ('A' for Active; 'I' for Inactive)
ROOT
ATOM      1  C   UNL d   1       0.559   3.014  -1.836  0.00  0.00     0.124 A 
ATOM      2  C1  UNL d   1       0.732   3.570  -0.577  0.00  0.00     0.062 A 
ATOM      3  C2  UNL d   1      -0.233   4.423  -0.049  0.00  0.00     0.162 A 
ATOM      4  C3  UNL d   1      -1.382   4.725  -0.782  0.00  0.00    -0.034 A 
ATOM      5  C4  UNL d   1      -1.548   4.162  -2.048  0.00  0.00     0.162 A 
ATOM      6  C5  UNL d   1      -0.581   3.311  -2.571  0.00  0.00     0.062 A 
ATOM      7  F   UNL d   1      -0.750   2.774  -3.788  0.00  0.00    -0.097 F 
ATOM      8  F1  UNL d   1      -2.640   4.431  -2.779  0.00  0.00    -0.096 F 
ATOM      9  I   UNL d   1      -2.827   6.000   0.003  0.00  0.00    -0.060 I 
ATOM     10  F2  UNL d   1      -0.040   4.947   1.171  0.00  0.00    -0.096 F 
ATOM     11  F3  UNL d   1       1.832   3.286   0.135  0.00  0.00    -0.097 F 
ATOM     12  F4  UNL d   1       1.490   2.195  -2.342  0.00  0.00    -0.092 F 
ENDROOT
TORSDOF 0
ENDMDL
