MODEL 1
REMARK minimizedAffinity 21.8191071
REMARK minimizedRMSD -1
REMARK  0 active torsions:
REMARK  status: ('A' for Active; 'I' for Inactive)
ROOT
ATOM      1  C   UNL d   1       0.961   3.830  -0.099  0.00  0.00     0.124 A 
ATOM      2  C1  UNL d   1      -0.145   3.050   0.212  0.00  0.00     0.062 A 
ATOM      3  C2  UNL d   1      -1.104   2.777  -0.759  0.00  0.00     0.162 A 
ATOM      4  C3  UNL d   1      -0.961   3.283  -2.051  0.00  0.00    -0.034 A 
ATOM      5  C4  UNL d   1       0.152   4.068  -2.356  0.00  0.00     0.162 A 
ATOM      6  C5  UNL d   1       1.108   4.338  -1.382  0.00  0.00     0.062 A 
ATOM      7  F   UNL d   1       2.175   5.092  -1.684  0.00  0.00    -0.097 F 
ATOM      8  F1  UNL d   1       0.320   4.570  -3.588  0.00  0.00    -0.096 F 
ATOM      9  I   UNL d   1      -2.393   2.877  -3.506  0.00  0.00    -0.060 I 
ATOM     10  F2  UNL d   1      -2.162   2.020  -0.431  0.00  0.00    -0.096 F 
ATOM     11  F3  UNL d   1      -0.290   2.559   1.451  0.00  0.00    -0.097 F 
ATOM     12  F4  UNL d   1       1.881   4.092   0.837  0.00  0.00    -0.092 F 
ENDROOT
TORSDOF 0
ENDMDL
