MODEL 1
REMARK minimizedAffinity 4.86461782
REMARK minimizedRMSD -1
REMARK  0 active torsions:
REMARK  status: ('A' for Active; 'I' for Inactive)
ROOT
ATOM      1  C   UNL d   1      -0.135   0.439   1.573  0.00  0.00     0.124 A 
ATOM      2  C1  UNL d   1      -1.019   0.725   2.603  0.00  0.00     0.062 A 
ATOM      3  C2  UNL d   1      -1.371  -0.264   3.518  0.00  0.00     0.162 A 
ATOM      4  C3  UNL d   1      -0.836  -1.547   3.407  0.00  0.00    -0.034 A 
ATOM      5  C4  UNL d   1       0.052  -1.827   2.368  0.00  0.00     0.162 A 
ATOM      6  C5  UNL d   1       0.400  -0.836   1.456  0.00  0.00     0.062 A 
ATOM      7  F   UNL d   1       1.255  -1.113   0.461  0.00  0.00    -0.097 F 
ATOM      8  F1  UNL d   1       0.585  -3.050   2.232  0.00  0.00    -0.096 F 
ATOM      9  I   UNL d   1      -1.359  -3.028   4.774  0.00  0.00    -0.060 I 
ATOM     10  F2  UNL d   1      -2.228   0.040   4.504  0.00  0.00    -0.096 F 
ATOM     11  F3  UNL d   1      -1.538   1.956   2.718  0.00  0.00    -0.097 F 
ATOM     12  F4  UNL d   1       0.201   1.392   0.693  0.00  0.00    -0.092 F 
ENDROOT
TORSDOF 0
ENDMDL
