MODEL 1
REMARK minimizedAffinity 17.4725437
REMARK minimizedRMSD -1
REMARK  0 active torsions:
REMARK  status: ('A' for Active; 'I' for Inactive)
ROOT
ATOM      1  C   UNL d   1       0.749   3.062   2.920  0.00  0.00     0.124 A 
ATOM      2  C1  UNL d   1      -0.083   2.289   2.122  0.00  0.00     0.062 A 
ATOM      3  C2  UNL d   1      -0.503   2.764   0.883  0.00  0.00     0.162 A 
ATOM      4  C3  UNL d   1      -0.090   4.018   0.433  0.00  0.00    -0.034 A 
ATOM      5  C4  UNL d   1       0.746   4.790   1.241  0.00  0.00     0.162 A 
ATOM      6  C5  UNL d   1       1.163   4.311   2.479  0.00  0.00     0.062 A 
ATOM      7  F   UNL d   1       1.967   5.059   3.248  0.00  0.00    -0.097 F 
ATOM      8  F1  UNL d   1       1.162   6.000   0.839  0.00  0.00    -0.096 F 
ATOM      9  I   UNL d   1      -0.715   4.731  -1.420  0.00  0.00    -0.060 I 
ATOM     10  F2  UNL d   1      -1.307   1.995   0.133  0.00  0.00    -0.096 F 
ATOM     11  F3  UNL d   1      -0.485   1.083   2.547  0.00  0.00    -0.097 F 
ATOM     12  F4  UNL d   1       1.151   2.604   4.113  0.00  0.00    -0.092 F 
ENDROOT
TORSDOF 0
ENDMDL
