MODEL 1
REMARK minimizedAffinity 8.33638573
REMARK minimizedRMSD -1
REMARK  0 active torsions:
REMARK  status: ('A' for Active; 'I' for Inactive)
ROOT
ATOM      1  C   UNL d   1       0.003   3.481   0.376  0.00  0.00     0.124 A 
ATOM      2  C1  UNL d   1      -0.000   3.684   1.749  0.00  0.00     0.062 A 
ATOM      3  C2  UNL d   1      -0.380   2.657   2.607  0.00  0.00     0.162 A 
ATOM      4  C3  UNL d   1      -0.760   1.416   2.095  0.00  0.00    -0.034 A 
ATOM      5  C4  UNL d   1      -0.755   1.220   0.713  0.00  0.00     0.162 A 
ATOM      6  C5  UNL d   1      -0.375   2.250  -0.141  0.00  0.00     0.062 A 
ATOM      7  F   UNL d   1      -0.373   2.052  -1.467  0.00  0.00    -0.097 F 
ATOM      8  F1  UNL d   1      -1.115   0.039   0.187  0.00  0.00    -0.096 F 
ATOM      9  I   UNL d   1      -1.328  -0.123   3.376  0.00  0.00    -0.060 I 
ATOM     10  F2  UNL d   1      -0.373   2.881   3.930  0.00  0.00    -0.096 F 
ATOM     11  F3  UNL d   1       0.363   4.873   2.250  0.00  0.00    -0.097 F 
ATOM     12  F4  UNL d   1       0.368   4.472  -0.448  0.00  0.00    -0.092 F 
ENDROOT
TORSDOF 0
ENDMDL
