MODEL 1
REMARK minimizedAffinity 17.0116253
REMARK minimizedRMSD -1
REMARK  0 active torsions:
REMARK  status: ('A' for Active; 'I' for Inactive)
ROOT
ATOM      1  C   UNL d   1      -1.106  -3.378   3.939  0.00  0.00     0.124 A 
ATOM      2  C1  UNL d   1       0.086  -3.102   3.284  0.00  0.00     0.062 A 
ATOM      3  C2  UNL d   1       0.436  -1.787   2.993  0.00  0.00     0.162 A 
ATOM      4  C3  UNL d   1      -0.406  -0.737   3.358  0.00  0.00    -0.034 A 
ATOM      5  C4  UNL d   1      -1.604  -1.022   4.016  0.00  0.00     0.162 A 
ATOM      6  C5  UNL d   1      -1.950  -2.338   4.304  0.00  0.00     0.062 A 
ATOM      7  F   UNL d   1      -3.102  -2.603   4.937  0.00  0.00    -0.097 F 
ATOM      8  F1  UNL d   1      -2.437  -0.037   4.381  0.00  0.00    -0.096 F 
ATOM      9  I   UNL d   1       0.115   1.231   2.925  0.00  0.00    -0.060 I 
ATOM     10  F2  UNL d   1       1.595  -1.549   2.359  0.00  0.00    -0.096 F 
ATOM     11  F3  UNL d   1       0.902  -4.105   2.929  0.00  0.00    -0.097 F 
ATOM     12  F4  UNL d   1      -1.442  -4.644   4.216  0.00  0.00    -0.092 F 
ENDROOT
TORSDOF 0
ENDMDL
