MODEL 1
REMARK minimizedAffinity -2.7794838
REMARK minimizedRMSD -1
REMARK  3 active torsions:
REMARK  status: ('A' for Active; 'I' for Inactive)
REMARK    1  A    between atoms: C3'_2  and  C2'_3 
REMARK    2  A    between atoms: C2'_3  and  C1'_4 
REMARK    3  A    between atoms: C1'_4  and  C1_5 
ROOT
ATOM      1  C1  N4B d   1       0.060   0.484   0.482  0.00  0.00    -0.075 A 
ATOM      2  C2  N4B d   1       0.432   1.299   1.573  0.00  0.00     0.002 A 
ATOM      3  C3  N4B d   1      -0.370   2.347   1.951  0.00  0.00     0.002 A 
ATOM      4  C4  N4B d   1      -1.534   2.611   1.245  0.00  0.00    -0.004 A 
ATOM      5  C5  N4B d   1      -1.899   1.803   0.207  0.00  0.00     0.002 A 
ATOM      6  C6  N4B d   1      -1.104   0.743  -0.181  0.00  0.00     0.002 A 
ENDROOT
BRANCH   1   7
ATOM      7  C1' N4B d   1       0.948  -0.621  -0.023  0.00  0.00     0.057 C 
BRANCH   7   8
ATOM      8  C2' N4B d   1       0.079  -1.768  -0.533  0.00  0.00     0.009 C 
BRANCH   8   9
ATOM      9  C3' N4B d   1       0.872  -3.054  -0.692  0.00  0.00     0.004 C 
ATOM     10  C4' N4B d   1      -0.002  -4.250  -0.925  0.00  0.00     0.003 C 
ENDBRANCH   8   9
ENDBRANCH   7   8
ENDBRANCH   1   7
TORSDOF 3
ENDMDL
