MODEL 1
REMARK minimizedAffinity -5.37425756
REMARK minimizedRMSD -1
REMARK  3 active torsions:
REMARK  status: ('A' for Active; 'I' for Inactive)
REMARK    1  A    between atoms: C3'_2  and  C2'_3 
REMARK    2  A    between atoms: C2'_3  and  C1'_4 
REMARK    3  A    between atoms: C1'_4  and  C1_5 
ROOT
ATOM      1  C1  N4B d   1       0.138  -0.063  -0.283  0.00  0.00    -0.075 A 
ATOM      2  C2  N4B d   1       0.329   0.066   1.110  0.00  0.00     0.002 A 
ATOM      3  C3  N4B d   1      -0.215   1.133   1.781  0.00  0.00     0.002 A 
ATOM      4  C4  N4B d   1      -0.935   2.090   1.081  0.00  0.00    -0.004 A 
ATOM      5  C5  N4B d   1      -1.136   1.944  -0.261  0.00  0.00     0.002 A 
ATOM      6  C6  N4B d   1      -0.598   0.874  -0.948  0.00  0.00     0.002 A 
ENDROOT
BRANCH   1   7
ATOM      7  C1' N4B d   1       0.786  -1.167  -1.075  0.00  0.00     0.057 C 
BRANCH   7   8
ATOM      8  C2' N4B d   1      -0.163  -2.360  -1.139  0.00  0.00     0.009 C 
BRANCH   8   9
ATOM      9  C3' N4B d   1       0.514  -3.594  -1.711  0.00  0.00     0.004 C 
ATOM     10  C4' N4B d   1       0.581  -4.726  -0.730  0.00  0.00     0.003 C 
ENDBRANCH   8   9
ENDBRANCH   7   8
ENDBRANCH   1   7
TORSDOF 3
ENDMDL
