MODEL 1
REMARK minimizedAffinity 9.38625336
REMARK minimizedRMSD -1
REMARK  3 active torsions:
REMARK  status: ('A' for Active; 'I' for Inactive)
REMARK    1  A    between atoms: C3'_2  and  C2'_3 
REMARK    2  A    between atoms: C2'_3  and  C1'_4 
REMARK    3  A    between atoms: C1'_4  and  C1_5 
ROOT
ATOM      1  C1  N4B d   1      -0.732   2.656   1.338  0.00  0.00    -0.075 A 
ATOM      2  C2  N4B d   1      -0.830   1.496   2.136  0.00  0.00     0.002 A 
ATOM      3  C3  N4B d   1       0.146   1.213   3.060  0.00  0.00     0.002 A 
ATOM      4  C4  N4B d   1       1.235   2.062   3.188  0.00  0.00    -0.004 A 
ATOM      5  C5  N4B d   1       1.309   3.195   2.431  0.00  0.00     0.002 A 
ATOM      6  C6  N4B d   1       0.333   3.493   1.502  0.00  0.00     0.002 A 
ENDROOT
BRANCH   1   7
ATOM      7  C1' N4B d   1      -1.731   2.962   0.255  0.00  0.00     0.057 C 
BRANCH   7   8
ATOM      8  C2' N4B d   1      -1.709   1.840  -0.778  0.00  0.00     0.009 C 
BRANCH   8   9
ATOM      9  C3' N4B d   1      -0.488   1.920  -1.679  0.00  0.00     0.004 C 
ATOM     10  C4' N4B d   1       0.199   0.597  -1.844  0.00  0.00     0.003 C 
ENDBRANCH   8   9
ENDBRANCH   7   8
ENDBRANCH   1   7
TORSDOF 3
ENDMDL
