MODEL 1
REMARK minimizedAffinity -5.02557468
REMARK minimizedRMSD -1
REMARK  3 active torsions:
REMARK  status: ('A' for Active; 'I' for Inactive)
REMARK    1  A    between atoms: C3'_2  and  C2'_3 
REMARK    2  A    between atoms: C2'_3  and  C1'_4 
REMARK    3  A    between atoms: C1'_4  and  C1_5 
ROOT
ATOM      1  C1  N4B d   1       0.141  -0.001  -0.249  0.00  0.00    -0.075 A 
ATOM      2  C2  N4B d   1      -0.803   0.971  -0.646  0.00  0.00     0.002 A 
ATOM      3  C3  N4B d   1      -1.246   1.907   0.256  0.00  0.00     0.002 A 
ATOM      4  C4  N4B d   1      -0.775   1.879   1.560  0.00  0.00    -0.004 A 
ATOM      5  C5  N4B d   1       0.156   0.952   1.929  0.00  0.00     0.002 A 
ATOM      6  C6  N4B d   1       0.613   0.008   1.031  0.00  0.00     0.002 A 
ENDROOT
BRANCH   1   7
ATOM      7  C1' N4B d   1       0.590  -1.097  -1.176  0.00  0.00     0.057 C 
BRANCH   7   8
ATOM      8  C2' N4B d   1      -0.598  -1.997  -1.501  0.00  0.00     0.009 C 
BRANCH   8   9
ATOM      9  C3' N4B d   1      -0.185  -3.451  -1.654  0.00  0.00     0.004 C 
ATOM     10  C4' N4B d   1      -1.229  -4.407  -1.158  0.00  0.00     0.003 C 
ENDBRANCH   8   9
ENDBRANCH   7   8
ENDBRANCH   1   7
TORSDOF 3
ENDMDL
