MODEL 1
REMARK minimizedAffinity -3.98915362
REMARK minimizedRMSD -1
REMARK  3 active torsions:
REMARK  status: ('A' for Active; 'I' for Inactive)
REMARK    1  A    between atoms: C3'_2  and  C2'_3 
REMARK    2  A    between atoms: C2'_3  and  C1'_4 
REMARK    3  A    between atoms: C1'_4  and  C1_5 
ROOT
ATOM      1  C1  N4B d   1       0.378  -1.010  -0.339  0.00  0.00    -0.075 A 
ATOM      2  C2  N4B d   1      -0.339  -0.171  -1.220  0.00  0.00     0.002 A 
ATOM      3  C3  N4B d   1      -0.794   1.050  -0.788  0.00  0.00     0.002 A 
ATOM      4  C4  N4B d   1      -0.562   1.445   0.521  0.00  0.00    -0.004 A 
ATOM      5  C5  N4B d   1       0.153   0.640   1.359  0.00  0.00     0.002 A 
ATOM      6  C6  N4B d   1       0.620  -0.589   0.937  0.00  0.00     0.002 A 
ENDROOT
BRANCH   1   7
ATOM      7  C1' N4B d   1       0.821  -2.390  -0.740  0.00  0.00     0.057 C 
BRANCH   7   8
ATOM      8  C2' N4B d   1      -0.323  -3.091  -1.468  0.00  0.00     0.009 C 
BRANCH   8   9
ATOM      9  C3' N4B d   1      -0.516  -4.518  -0.982  0.00  0.00     0.004 C 
ATOM     10  C4' N4B d   1       0.697  -5.064  -0.290  0.00  0.00     0.003 C 
ENDBRANCH   8   9
ENDBRANCH   7   8
ENDBRANCH   1   7
TORSDOF 3
ENDMDL
