MODEL 1
REMARK minimizedAffinity -5.23194313
REMARK minimizedRMSD -1
REMARK  3 active torsions:
REMARK  status: ('A' for Active; 'I' for Inactive)
REMARK    1  A    between atoms: C3'_2  and  C2'_3 
REMARK    2  A    between atoms: C2'_3  and  C1'_4 
REMARK    3  A    between atoms: C1'_4  and  C1_5 
ROOT
ATOM      1  C1  N4B d   1       0.118  -0.202   0.278  0.00  0.00    -0.075 A 
ATOM      2  C2  N4B d   1       0.526   0.165   1.579  0.00  0.00     0.002 A 
ATOM      3  C3  N4B d   1      -0.069   1.229   2.211  0.00  0.00     0.002 A 
ATOM      4  C4  N4B d   1      -1.058   1.949   1.557  0.00  0.00    -0.004 A 
ATOM      5  C5  N4B d   1      -1.464   1.573   0.311  0.00  0.00     0.002 A 
ATOM      6  C6  N4B d   1      -0.877   0.503  -0.335  0.00  0.00     0.002 A 
ENDROOT
BRANCH   1   7
ATOM      7  C1' N4B d   1       0.799  -1.304  -0.487  0.00  0.00     0.057 C 
BRANCH   7   8
ATOM      8  C2' N4B d   1      -0.259  -2.236  -1.069  0.00  0.00     0.009 C 
BRANCH   8   9
ATOM      9  C3' N4B d   1       0.172  -3.692  -1.009  0.00  0.00     0.004 C 
ATOM     10  C4' N4B d   1      -0.656  -4.580  -1.890  0.00  0.00     0.003 C 
ENDBRANCH   8   9
ENDBRANCH   7   8
ENDBRANCH   1   7
TORSDOF 3
ENDMDL
