MODEL 1
REMARK minimizedAffinity -0.741754115
REMARK minimizedRMSD -1
REMARK  1 active torsions:
REMARK  status: ('A' for Active; 'I' for Inactive)
REMARK    1  A    between atoms: C1_2  and  C2_3 
ROOT
ATOM      1  C2  UNL d   1       4.532   3.213   2.622  0.00  0.00    -0.077 A 
ATOM      2  C3  UNL d   1       5.282   3.862   1.632  0.00  0.00     0.002 A 
ATOM      3  C4  UNL d   1       5.437   5.249   1.659  0.00  0.00     0.002 A 
ATOM      4  C5  UNL d   1       4.848   5.998   2.676  0.00  0.00    -0.004 A 
ATOM      5  C6  UNL d   1       4.098   5.362   3.664  0.00  0.00     0.002 A 
ATOM      6  C7  UNL d   1       3.942   3.975   3.638  0.00  0.00     0.002 A 
ENDROOT
BRANCH   1   7
ATOM      7  C1  UNL d   1       4.405   1.712   2.622  0.00  0.00     0.055 C 
ATOM      8  C   UNL d   1       3.469   1.235   3.724  0.00  0.00     0.019 C 
ENDBRANCH   1   7
TORSDOF 1
ENDMDL
