MODEL 1
REMARK minimizedAffinity 11.7858381
REMARK minimizedRMSD -1
REMARK  1 active torsions:
REMARK  status: ('A' for Active; 'I' for Inactive)
REMARK    1  A    between atoms: C1_2  and  C2_3 
ROOT
ATOM      1  C2  UNL d   1       3.332  -3.282   4.970  0.00  0.00    -0.077 A 
ATOM      2  C3  UNL d   1       4.012  -2.170   5.486  0.00  0.00     0.002 A 
ATOM      3  C4  UNL d   1       5.340  -2.284   5.902  0.00  0.00     0.002 A 
ATOM      4  C5  UNL d   1       6.000  -3.507   5.802  0.00  0.00    -0.004 A 
ATOM      5  C6  UNL d   1       5.331  -4.620   5.291  0.00  0.00     0.002 A 
ATOM      6  C7  UNL d   1       4.004  -4.507   4.876  0.00  0.00     0.002 A 
ENDROOT
BRANCH   1   7
ATOM      7  C1  UNL d   1       1.915  -3.148   4.475  0.00  0.00     0.055 C 
ATOM      8  C   UNL d   1       1.825  -2.170   3.312  0.00  0.00     0.019 C 
ENDBRANCH   1   7
TORSDOF 1
ENDMDL
