MODEL 1
REMARK minimizedAffinity 15.9345341
REMARK minimizedRMSD -1
REMARK  0 active torsions:
REMARK  status: ('A' for Active; 'I' for Inactive)
ROOT
ATOM      1  C   UNL d   1       0.059   3.924  -0.896  0.00  0.00    -0.002 A 
ATOM      2  C1  UNL d   1      -0.696   2.809  -1.232  0.00  0.00     0.010 A 
ATOM      3  C2  UNL d   1      -1.101   1.903  -0.250  0.00  0.00     0.041 A 
ATOM      4  C3  UNL d   1      -0.732   2.139   1.089  0.00  0.00    -0.075 A 
ATOM      5  S   UNL d   1      -1.115   1.165   2.459  0.00  0.00     0.015 SA
ATOM      6  C4  UNL d   1      -0.287   2.207   3.524  0.00  0.00     0.022 A 
ATOM      7  C5  UNL d   1       0.275   3.276   2.867  0.00  0.00     0.026 A 
ATOM      8  C6  UNL d   1       0.027   3.254   1.452  0.00  0.00    -0.082 A 
ATOM      9  C7  UNL d   1       0.423   4.154   0.434  0.00  0.00     0.045 A 
ENDROOT
TORSDOF 0
ENDMDL
