MODEL 1
REMARK minimizedAffinity -3.17422462
REMARK minimizedRMSD -1
REMARK  0 active torsions:
REMARK  status: ('A' for Active; 'I' for Inactive)
ROOT
ATOM      1  C   UNL d   1      -1.005   0.467   1.092  0.00  0.00     0.077 C 
ATOM      2  C1  UNL d   1       0.157   0.546   0.147  0.00  0.00    -0.074 A 
ATOM      3  C2  UNL d   1       0.680   1.781  -0.248  0.00  0.00    -0.005 A 
ATOM      4  C3  UNL d   1       1.767   1.839  -1.119  0.00  0.00     0.006 A 
ATOM      5  C4  UNL d   1       2.342   0.663  -1.604  0.00  0.00    -0.005 A 
ATOM      6  C5  UNL d   1       1.833  -0.581  -1.220  0.00  0.00    -0.074 A 
ATOM      7  C6  UNL d   1       2.444  -1.855  -1.724  0.00  0.00     0.077 C 
ATOM      8  C7  UNL d   1       0.744  -0.631  -0.338  0.00  0.00    -0.001 A 
ENDROOT
TORSDOF 0
ENDMDL
