MODEL 1
REMARK minimizedAffinity -3.35563874
REMARK minimizedRMSD -1
REMARK  0 active torsions:
REMARK  status: ('A' for Active; 'I' for Inactive)
ROOT
ATOM      1  C   UNL d   1       2.077  -2.399  -1.351  0.00  0.00     0.077 C 
ATOM      2  C1  UNL d   1       1.491  -1.073  -0.966  0.00  0.00    -0.074 A 
ATOM      3  C2  UNL d   1       2.003   0.118  -1.490  0.00  0.00    -0.005 A 
ATOM      4  C3  UNL d   1       1.441   1.343  -1.130  0.00  0.00     0.006 A 
ATOM      5  C4  UNL d   1       0.364   1.389  -0.245  0.00  0.00    -0.005 A 
ATOM      6  C5  UNL d   1      -0.162   0.208   0.288  0.00  0.00    -0.074 A 
ATOM      7  C6  UNL d   1      -1.326   0.239   1.234  0.00  0.00     0.077 C 
ATOM      8  C7  UNL d   1       0.403  -1.019  -0.084  0.00  0.00    -0.001 A 
ENDROOT
TORSDOF 0
ENDMDL
