MODEL 1
REMARK minimizedAffinity -4.19766474
REMARK minimizedRMSD -1
REMARK  0 active torsions:
REMARK  status: ('A' for Active; 'I' for Inactive)
ROOT
ATOM      1  C   UNL d   1      -1.033   0.245   1.306  0.00  0.00     0.077 C 
ATOM      2  C1  UNL d   1       0.076   0.218   0.297  0.00  0.00    -0.074 A 
ATOM      3  C2  UNL d   1       0.523   1.395  -0.312  0.00  0.00    -0.005 A 
ATOM      4  C3  UNL d   1       1.562   1.355  -1.242  0.00  0.00     0.006 A 
ATOM      5  C4  UNL d   1       2.164   0.140  -1.571  0.00  0.00    -0.005 A 
ATOM      6  C5  UNL d   1       1.731  -1.047  -0.972  0.00  0.00    -0.074 A 
ATOM      7  C6  UNL d   1       2.373  -2.361  -1.308  0.00  0.00     0.077 C 
ATOM      8  C7  UNL d   1       0.691  -0.998  -0.034  0.00  0.00    -0.001 A 
ENDROOT
TORSDOF 0
ENDMDL
