MODEL 1
REMARK minimizedAffinity 7.80802298
REMARK minimizedRMSD -1
REMARK  0 active torsions:
REMARK  status: ('A' for Active; 'I' for Inactive)
ROOT
ATOM      1  C   UNL d   1      -5.089   1.522   1.164  0.00  0.00     0.077 C 
ATOM      2  C1  UNL d   1      -3.955   1.775   2.113  0.00  0.00    -0.074 A 
ATOM      3  C2  UNL d   1      -2.835   0.938   2.132  0.00  0.00    -0.005 A 
ATOM      4  C3  UNL d   1      -1.783   1.192   3.013  0.00  0.00     0.006 A 
ATOM      5  C4  UNL d   1      -1.842   2.282   3.882  0.00  0.00    -0.005 A 
ATOM      6  C5  UNL d   1      -2.954   3.130   3.876  0.00  0.00    -0.074 A 
ATOM      7  C6  UNL d   1      -3.029   4.312   4.796  0.00  0.00     0.077 C 
ATOM      8  C7  UNL d   1      -4.003   2.873   2.983  0.00  0.00    -0.001 A 
ENDROOT
TORSDOF 0
ENDMDL
