MODEL 1
REMARK minimizedAffinity -1.83401775
REMARK minimizedRMSD -1
REMARK  0 active torsions:
REMARK  status: ('A' for Active; 'I' for Inactive)
ROOT
ATOM      1  C   UNL d   1      -3.068   2.979   2.911  0.00  0.00     0.077 C 
ATOM      2  C1  UNL d   1      -2.908   1.697   2.148  0.00  0.00    -0.074 A 
ATOM      3  C2  UNL d   1      -4.024   0.972   1.718  0.00  0.00    -0.005 A 
ATOM      4  C3  UNL d   1      -3.860  -0.213   1.001  0.00  0.00     0.006 A 
ATOM      5  C4  UNL d   1      -2.580  -0.685   0.708  0.00  0.00    -0.005 A 
ATOM      6  C5  UNL d   1      -1.452   0.026   1.129  0.00  0.00    -0.074 A 
ATOM      7  C6  UNL d   1      -0.069  -0.462   0.814  0.00  0.00     0.077 C 
ATOM      8  C7  UNL d   1      -1.625   1.220   1.843  0.00  0.00    -0.001 A 
ENDROOT
TORSDOF 0
ENDMDL
