MODEL 1
REMARK minimizedAffinity -2.03743172
REMARK minimizedRMSD -1
REMARK  0 active torsions:
REMARK  status: ('A' for Active; 'I' for Inactive)
ROOT
ATOM      1  C   UNL d   1      -0.002  -0.256   0.731  0.00  0.00     0.077 C 
ATOM      2  C1  UNL d   1      -1.386   0.248   1.011  0.00  0.00    -0.074 A 
ATOM      3  C2  UNL d   1      -2.498  -0.312   0.374  0.00  0.00    -0.005 A 
ATOM      4  C3  UNL d   1      -3.780   0.162   0.652  0.00  0.00     0.006 A 
ATOM      5  C4  UNL d   1      -3.964   1.198   1.568  0.00  0.00    -0.005 A 
ATOM      6  C5  UNL d   1      -2.864   1.770   2.216  0.00  0.00    -0.074 A 
ATOM      7  C6  UNL d   1      -3.044   2.878   3.211  0.00  0.00     0.077 C 
ATOM      8  C7  UNL d   1      -1.579   1.284   1.937  0.00  0.00    -0.001 A 
ENDROOT
TORSDOF 0
ENDMDL
