MODEL 1
REMARK minimizedAffinity -4.37960958
REMARK minimizedRMSD -1
REMARK  0 active torsions:
REMARK  status: ('A' for Active; 'I' for Inactive)
ROOT
ATOM      1  C   UNL d   1       0.409   0.822  -0.801  0.00  0.00     0.077 C 
ATOM      2  C1  UNL d   1      -0.489   0.404   0.325  0.00  0.00    -0.074 A 
ATOM      3  C2  UNL d   1      -0.116  -0.623   1.198  0.00  0.00    -0.005 A 
ATOM      4  C3  UNL d   1      -0.958  -0.994   2.247  0.00  0.00     0.006 A 
ATOM      5  C4  UNL d   1      -2.179  -0.344   2.432  0.00  0.00    -0.005 A 
ATOM      6  C5  UNL d   1      -2.568   0.686   1.570  0.00  0.00    -0.074 A 
ATOM      7  C6  UNL d   1      -3.872   1.402   1.761  0.00  0.00     0.077 C 
ATOM      8  C7  UNL d   1      -1.713   1.058   0.523  0.00  0.00    -0.001 A 
ENDROOT
TORSDOF 0
ENDMDL
