MODEL 1
REMARK minimizedAffinity -4.87213278
REMARK minimizedRMSD -1
REMARK  0 active torsions:
REMARK  status: ('A' for Active; 'I' for Inactive)
ROOT
ATOM      1  C   UNL d   1      -0.874   0.027   1.132  0.00  0.00     0.077 C 
ATOM      2  C1  UNL d   1       0.202  -0.217   0.116  0.00  0.00    -0.074 A 
ATOM      3  C2  UNL d   1       0.778   0.843  -0.590  0.00  0.00    -0.005 A 
ATOM      4  C3  UNL d   1       1.784   0.602  -1.525  0.00  0.00     0.006 A 
ATOM      5  C4  UNL d   1       2.224  -0.701  -1.763  0.00  0.00    -0.005 A 
ATOM      6  C5  UNL d   1       1.660  -1.774  -1.066  0.00  0.00    -0.074 A 
ATOM      7  C6  UNL d   1       2.128  -3.180  -1.302  0.00  0.00     0.077 C 
ATOM      8  C7  UNL d   1       0.654  -1.522  -0.123  0.00  0.00    -0.001 A 
ENDROOT
TORSDOF 0
ENDMDL
