MODEL 1
REMARK minimizedAffinity -1.70013177
REMARK minimizedRMSD -1
REMARK  0 active torsions:
REMARK  status: ('A' for Active; 'I' for Inactive)
ROOT
ATOM      1  C   UNL d   1      -1.413   0.641   1.550  0.00  0.00     0.077 C 
ATOM      2  C1  UNL d   1      -0.421   0.255   0.493  0.00  0.00    -0.074 A 
ATOM      3  C2  UNL d   1       0.295   1.229  -0.211  0.00  0.00    -0.005 A 
ATOM      4  C3  UNL d   1       1.221   0.855  -1.184  0.00  0.00     0.006 A 
ATOM      5  C4  UNL d   1       1.440  -0.495  -1.463  0.00  0.00    -0.005 A 
ATOM      6  C5  UNL d   1       0.734  -1.483  -0.768  0.00  0.00    -0.074 A 
ATOM      7  C6  UNL d   1       0.965  -2.938  -1.049  0.00  0.00     0.077 C 
ATOM      8  C7  UNL d   1      -0.190  -1.099   0.213  0.00  0.00    -0.001 A 
ENDROOT
TORSDOF 0
ENDMDL
