MODEL 1
REMARK minimizedAffinity -4.4470706
REMARK minimizedRMSD -1
REMARK  0 active torsions:
REMARK  status: ('A' for Active; 'I' for Inactive)
ROOT
ATOM      1  C   UNL d   1      -0.983  -0.096   0.666  0.00  0.00     0.077 C 
ATOM      2  C1  UNL d   1       0.169  -0.162  -0.291  0.00  0.00    -0.074 A 
ATOM      3  C2  UNL d   1       0.683   0.999  -0.878  0.00  0.00    -0.005 A 
ATOM      4  C3  UNL d   1       1.761   0.923  -1.760  0.00  0.00     0.006 A 
ATOM      5  C4  UNL d   1       2.335  -0.312  -2.063  0.00  0.00    -0.005 A 
ATOM      6  C5  UNL d   1       1.835  -1.483  -1.486  0.00  0.00    -0.074 A 
ATOM      7  C6  UNL d   1       2.446  -2.818  -1.793  0.00  0.00     0.077 C 
ATOM      8  C7  UNL d   1       0.756  -1.398  -0.595  0.00  0.00    -0.001 A 
ENDROOT
TORSDOF 0
ENDMDL
