MODEL 1
REMARK minimizedAffinity -0.897389829
REMARK minimizedRMSD -1
REMARK  0 active torsions:
REMARK  status: ('A' for Active; 'I' for Inactive)
ROOT
ATOM      1  C   UNL d   1      -0.714  -2.764   0.722  0.00  0.00     0.077 C 
ATOM      2  C1  UNL d   1      -0.119  -1.418   0.434  0.00  0.00    -0.074 A 
ATOM      3  C2  UNL d   1      -0.316  -0.343   1.307  0.00  0.00    -0.005 A 
ATOM      4  C3  UNL d   1       0.252   0.901   1.029  0.00  0.00     0.006 A 
ATOM      5  C4  UNL d   1       1.019   1.082  -0.122  0.00  0.00    -0.005 A 
ATOM      6  C5  UNL d   1       1.227   0.019  -1.006  0.00  0.00    -0.074 A 
ATOM      7  C6  UNL d   1       2.058   0.194  -2.242  0.00  0.00     0.077 C 
ATOM      8  C7  UNL d   1       0.660  -1.230  -0.717  0.00  0.00    -0.001 A 
ENDROOT
TORSDOF 0
ENDMDL
