MODEL 1
REMARK minimizedAffinity 6.92834711
REMARK minimizedRMSD -1
REMARK  0 active torsions:
REMARK  status: ('A' for Active; 'I' for Inactive)
ROOT
ATOM      1  C   UNL d   1      -5.403  -1.347   4.565  0.00  0.00     0.077 C 
ATOM      2  C1  UNL d   1      -4.490  -0.204   4.234  0.00  0.00    -0.074 A 
ATOM      3  C2  UNL d   1      -4.491   0.373   2.960  0.00  0.00    -0.005 A 
ATOM      4  C3  UNL d   1      -3.643   1.442   2.671  0.00  0.00     0.006 A 
ATOM      5  C4  UNL d   1      -2.786   1.944   3.651  0.00  0.00    -0.005 A 
ATOM      6  C5  UNL d   1      -2.771   1.381   4.931  0.00  0.00    -0.074 A 
ATOM      7  C6  UNL d   1      -1.863   1.915   5.998  0.00  0.00     0.077 C 
ATOM      8  C7  UNL d   1      -3.631   0.312   5.216  0.00  0.00    -0.001 A 
ENDROOT
TORSDOF 0
ENDMDL
