MODEL 1
REMARK minimizedAffinity -2.08201885
REMARK minimizedRMSD -1
REMARK  0 active torsions:
REMARK  status: ('A' for Active; 'I' for Inactive)
ROOT
ATOM      1  C   UNL d   1      -0.330  -0.219   0.601  0.00  0.00     0.077 C 
ATOM      2  C1  UNL d   1      -1.627   0.250   1.191  0.00  0.00    -0.074 A 
ATOM      3  C2  UNL d   1      -2.847  -0.276   0.754  0.00  0.00    -0.005 A 
ATOM      4  C3  UNL d   1      -4.044   0.163   1.318  0.00  0.00     0.006 A 
ATOM      5  C4  UNL d   1      -4.034   1.131   2.324  0.00  0.00    -0.005 A 
ATOM      6  C5  UNL d   1      -2.823   1.667   2.774  0.00  0.00    -0.074 A 
ATOM      7  C6  UNL d   1      -2.794   2.701   3.860  0.00  0.00     0.077 C 
ATOM      8  C7  UNL d   1      -1.624   1.216   2.207  0.00  0.00    -0.001 A 
ENDROOT
TORSDOF 0
ENDMDL
