MODEL 1
REMARK minimizedAffinity -6.38183355
REMARK minimizedRMSD -1
REMARK  2 active torsions:
REMARK  status: ('A' for Active; 'I' for Inactive)
REMARK    1  A    between atoms: C1_2  and  C2_3 
REMARK    2  A    between atoms: C2_3  and  C3_4 
ROOT
ATOM      1  C3  UNL d   1       1.140  -0.472   0.115  0.00  0.00    -0.075 A 
ATOM      2  C4  UNL d   1       1.809   0.761   0.125  0.00  0.00     0.002 A 
ATOM      3  C5  UNL d   1       3.124   0.850   0.581  0.00  0.00     0.002 A 
ATOM      4  C6  UNL d   1       3.783  -0.288   1.042  0.00  0.00    -0.004 A 
ATOM      5  C7  UNL d   1       3.123  -1.514   1.052  0.00  0.00     0.002 A 
ATOM      6  C8  UNL d   1       1.809  -1.607   0.592  0.00  0.00     0.002 A 
ENDROOT
BRANCH   1   7
ATOM      7  C2  UNL d   1      -0.273  -0.580  -0.405  0.00  0.00     0.056 C 
BRANCH   7   8
ATOM      8  C1  UNL d   1      -1.025   0.755  -0.451  0.00  0.00     0.007 C 
ATOM      9  C   UNL d   1      -2.493   0.631  -0.064  0.00  0.00     0.009 C 
ENDBRANCH   7   8
ENDBRANCH   1   7
TORSDOF 2
ENDMDL
