MODEL 1
REMARK minimizedAffinity -3.18619132
REMARK minimizedRMSD -1
REMARK  2 active torsions:
REMARK  status: ('A' for Active; 'I' for Inactive)
REMARK    1  A    between atoms: C1_2  and  C2_3 
REMARK    2  A    between atoms: C2_3  and  C3_4 
ROOT
ATOM      1  C3  UNL d   1       0.764  -0.104   0.433  0.00  0.00    -0.075 A 
ATOM      2  C4  UNL d   1       1.396  -0.035   1.683  0.00  0.00     0.002 A 
ATOM      3  C5  UNL d   1       2.428  -0.918   2.004  0.00  0.00     0.002 A 
ATOM      4  C6  UNL d   1       2.833  -1.885   1.086  0.00  0.00    -0.004 A 
ATOM      5  C7  UNL d   1       2.200  -1.973  -0.152  0.00  0.00     0.002 A 
ATOM      6  C8  UNL d   1       1.171  -1.088  -0.478  0.00  0.00     0.002 A 
ENDROOT
BRANCH   1   7
ATOM      7  C2  UNL d   1      -0.333   0.868   0.068  0.00  0.00     0.056 C 
BRANCH   7   8
ATOM      8  C1  UNL d   1      -1.744   0.366   0.393  0.00  0.00     0.007 C 
ATOM      9  C   UNL d   1      -2.395   1.112   1.550  0.00  0.00     0.009 C 
ENDBRANCH   7   8
ENDBRANCH   1   7
TORSDOF 2
ENDMDL
