MODEL 1
REMARK minimizedAffinity -5.97658062
REMARK minimizedRMSD -1
REMARK  2 active torsions:
REMARK  status: ('A' for Active; 'I' for Inactive)
REMARK    1  A    between atoms: C1_2  and  C2_3 
REMARK    2  A    between atoms: C2_3  and  C3_4 
ROOT
ATOM      1  C3  UNL d   1       0.590   0.158   0.190  0.00  0.00    -0.075 A 
ATOM      2  C4  UNL d   1       0.899  -1.208   0.264  0.00  0.00     0.002 A 
ATOM      3  C5  UNL d   1       2.215  -1.627   0.463  0.00  0.00     0.002 A 
ATOM      4  C6  UNL d   1       3.238  -0.688   0.580  0.00  0.00    -0.004 A 
ATOM      5  C7  UNL d   1       2.945   0.671   0.491  0.00  0.00     0.002 A 
ATOM      6  C8  UNL d   1       1.629   1.093   0.296  0.00  0.00     0.002 A 
ENDROOT
BRANCH   1   7
ATOM      7  C2  UNL d   1      -0.836   0.619   0.004  0.00  0.00     0.056 C 
BRANCH   7   8
ATOM      8  C1  UNL d   1      -1.749   0.317   1.197  0.00  0.00     0.007 C 
ATOM      9  C   UNL d   1      -3.032   1.138   1.193  0.00  0.00     0.009 C 
ENDBRANCH   7   8
ENDBRANCH   1   7
TORSDOF 2
ENDMDL
