MODEL 1
REMARK minimizedAffinity -4.98365641
REMARK minimizedRMSD -1
REMARK  2 active torsions:
REMARK  status: ('A' for Active; 'I' for Inactive)
REMARK    1  A    between atoms: C1_2  and  C2_3 
REMARK    2  A    between atoms: C2_3  and  C3_4 
ROOT
ATOM      1  C3  UNL d   1       0.557  -0.119  -0.173  0.00  0.00    -0.075 A 
ATOM      2  C4  UNL d   1       1.068  -1.378  -0.520  0.00  0.00     0.002 A 
ATOM      3  C5  UNL d   1       2.428  -1.654  -0.380  0.00  0.00     0.002 A 
ATOM      4  C6  UNL d   1       3.295  -0.674   0.097  0.00  0.00    -0.004 A 
ATOM      5  C7  UNL d   1       2.802   0.586   0.429  0.00  0.00     0.002 A 
ATOM      6  C8  UNL d   1       1.440   0.863   0.295  0.00  0.00     0.002 A 
ENDROOT
BRANCH   1   7
ATOM      7  C2  UNL d   1      -0.919   0.176  -0.294  0.00  0.00     0.056 C 
BRANCH   7   8
ATOM      8  C1  UNL d   1      -1.606   0.480   1.041  0.00  0.00     0.007 C 
ATOM      9  C   UNL d   1      -3.086   0.807   0.895  0.00  0.00     0.009 C 
ENDBRANCH   7   8
ENDBRANCH   1   7
TORSDOF 2
ENDMDL
