MODEL 1
REMARK minimizedAffinity -4.96138859
REMARK minimizedRMSD -1
REMARK  2 active torsions:
REMARK  status: ('A' for Active; 'I' for Inactive)
REMARK    1  A    between atoms: C1_2  and  C2_3 
REMARK    2  A    between atoms: C2_3  and  C3_4 
ROOT
ATOM      1  C3  UNL d   1      -0.071   0.396  -0.043  0.00  0.00    -0.075 A 
ATOM      2  C4  UNL d   1       1.070   0.810   0.660  0.00  0.00     0.002 A 
ATOM      3  C5  UNL d   1       2.184  -0.025   0.756  0.00  0.00     0.002 A 
ATOM      4  C6  UNL d   1       2.168  -1.284   0.160  0.00  0.00    -0.004 A 
ATOM      5  C7  UNL d   1       1.034  -1.712  -0.526  0.00  0.00     0.002 A 
ATOM      6  C8  UNL d   1      -0.080  -0.878  -0.627  0.00  0.00     0.002 A 
ENDROOT
BRANCH   1   7
ATOM      7  C2  UNL d   1      -1.269   1.306  -0.175  0.00  0.00     0.056 C 
BRANCH   7   8
ATOM      8  C1  UNL d   1      -2.606   0.627   0.141  0.00  0.00     0.007 C 
ATOM      9  C   UNL d   1      -3.409   1.352   1.213  0.00  0.00     0.009 C 
ENDBRANCH   7   8
ENDBRANCH   1   7
TORSDOF 2
ENDMDL
