MODEL 1
REMARK minimizedAffinity -3.96231604
REMARK minimizedRMSD -1
REMARK  2 active torsions:
REMARK  status: ('A' for Active; 'I' for Inactive)
REMARK    1  A    between atoms: C1_2  and  C2_3 
REMARK    2  A    between atoms: C2_3  and  C3_4 
ROOT
ATOM      1  C3  UNL d   1       0.347  -0.683   0.070  0.00  0.00    -0.075 A 
ATOM      2  C4  UNL d   1       1.061   0.477   0.405  0.00  0.00     0.002 A 
ATOM      3  C5  UNL d   1       2.430   0.415   0.667  0.00  0.00     0.002 A 
ATOM      4  C6  UNL d   1       3.099  -0.805   0.608  0.00  0.00    -0.004 A 
ATOM      5  C7  UNL d   1       2.397  -1.966   0.292  0.00  0.00     0.002 A 
ATOM      6  C8  UNL d   1       1.028  -1.907   0.025  0.00  0.00     0.002 A 
ENDROOT
BRANCH   1   7
ATOM      7  C2  UNL d   1      -1.129  -0.619  -0.243  0.00  0.00     0.056 C 
BRANCH   7   8
ATOM      8  C1  UNL d   1      -1.702   0.802  -0.256  0.00  0.00     0.007 C 
ATOM      9  C   UNL d   1      -2.912   0.969   0.653  0.00  0.00     0.009 C 
ENDBRANCH   7   8
ENDBRANCH   1   7
TORSDOF 2
ENDMDL
