MODEL 1
REMARK minimizedAffinity -4.85693741
REMARK minimizedRMSD -1
REMARK  2 active torsions:
REMARK  status: ('A' for Active; 'I' for Inactive)
REMARK    1  A    between atoms: C1_2  and  C2_3 
REMARK    2  A    between atoms: C2_3  and  C3_4 
ROOT
ATOM      1  C3  UNL d   1      -0.171   0.029  -0.012  0.00  0.00    -0.075 A 
ATOM      2  C4  UNL d   1      -0.329  -1.205  -0.660  0.00  0.00     0.002 A 
ATOM      3  C5  UNL d   1       0.707  -2.140  -0.665  0.00  0.00     0.002 A 
ATOM      4  C6  UNL d   1       1.914  -1.850  -0.033  0.00  0.00    -0.004 A 
ATOM      5  C7  UNL d   1       2.088  -0.621   0.599  0.00  0.00     0.002 A 
ATOM      6  C8  UNL d   1       1.052   0.315   0.610  0.00  0.00     0.002 A 
ENDROOT
BRANCH   1   7
ATOM      7  C2  UNL d   1      -1.298   1.033   0.022  0.00  0.00     0.056 C 
BRANCH   7   8
ATOM      8  C1  UNL d   1      -2.578   0.511   0.683  0.00  0.00     0.007 C 
ATOM      9  C   UNL d   1      -3.052   1.378   1.842  0.00  0.00     0.009 C 
ENDBRANCH   7   8
ENDBRANCH   1   7
TORSDOF 2
ENDMDL
