MODEL 1
REMARK minimizedAffinity 5.02701759
REMARK minimizedRMSD -1
REMARK  1 active torsions:
REMARK  status: ('A' for Active; 'I' for Inactive)
REMARK    1  A    between atoms: C3_4  and  O_7 
ROOT
ATOM      1  C   UNL d   1       0.776   3.097  -1.908  0.00  0.00    -0.033 A 
ATOM      2  C1  UNL d   1       0.684   1.732  -1.630  0.00  0.00     0.039 A 
ATOM      3  C2  UNL d   1      -0.034   1.291  -0.517  0.00  0.00    -0.080 A 
ATOM      4  C3  UNL d   1      -0.656   2.224   0.308  0.00  0.00     0.150 A 
ATOM      5  C4  UNL d   1      -0.573   3.585   0.035  0.00  0.00    -0.007 A 
ATOM      6  C5  UNL d   1       0.146   4.024  -1.076  0.00  0.00     0.039 A 
ENDROOT
BRANCH   4   7
ATOM      7  O   UNL d   1      -1.365   1.842   1.408  0.00  0.00    -0.526 OA
ATOM      8  H5  UNL d   1      -1.312   0.874   1.487  0.00  0.00     0.418 HD
ENDBRANCH   4   7
TORSDOF 1
ENDMDL
