MODEL 1
REMARK minimizedAffinity -3.92838788
REMARK minimizedRMSD -1
REMARK  1 active torsions:
REMARK  status: ('A' for Active; 'I' for Inactive)
REMARK    1  A    between atoms: C3_4  and  O_7 
ROOT
ATOM      1  C   UNL d   1      -1.143   3.993  -0.757  0.00  0.00    -0.033 A 
ATOM      2  C1  UNL d   1      -0.255   2.971  -0.417  0.00  0.00     0.039 A 
ATOM      3  C2  UNL d   1      -0.529   2.138   0.669  0.00  0.00    -0.080 A 
ATOM      4  C3  UNL d   1      -1.693   2.338   1.407  0.00  0.00     0.150 A 
ATOM      5  C4  UNL d   1      -2.584   3.352   1.071  0.00  0.00    -0.007 A 
ATOM      6  C5  UNL d   1      -2.309   4.183  -0.014  0.00  0.00     0.039 A 
ENDROOT
BRANCH   4   7
ATOM      7  O   UNL d   1      -2.001   1.553   2.479  0.00  0.00    -0.526 OA
ATOM      8  H5  UNL d   1      -1.281   0.914   2.609  0.00  0.00     0.418 HD
ENDBRANCH   4   7
TORSDOF 1
ENDMDL
