MODEL 1
REMARK minimizedAffinity -2.56549668
REMARK minimizedRMSD -1
REMARK  1 active torsions:
REMARK  status: ('A' for Active; 'I' for Inactive)
REMARK    1  A    between atoms: C3_4  and  O_7 
ROOT
ATOM      1  C   UNL d   1      -0.062   3.654  -0.677  0.00  0.00    -0.033 A 
ATOM      2  C1  UNL d   1      -0.098   2.374  -0.121  0.00  0.00     0.039 A 
ATOM      3  C2  UNL d   1      -1.250   1.924   0.527  0.00  0.00    -0.080 A 
ATOM      4  C3  UNL d   1      -2.358   2.762   0.611  0.00  0.00     0.150 A 
ATOM      5  C4  UNL d   1      -2.331   4.037   0.056  0.00  0.00    -0.007 A 
ATOM      6  C5  UNL d   1      -1.179   4.485  -0.589  0.00  0.00     0.039 A 
ENDROOT
BRANCH   4   7
ATOM      7  O   UNL d   1      -3.503   2.368   1.238  0.00  0.00    -0.526 OA
ATOM      8  H5  UNL d   1      -3.366   1.476   1.597  0.00  0.00     0.418 HD
ENDBRANCH   4   7
TORSDOF 1
ENDMDL
