MODEL 1
REMARK minimizedAffinity -1.79325783
REMARK minimizedRMSD -1
REMARK  1 active torsions:
REMARK  status: ('A' for Active; 'I' for Inactive)
REMARK    1  A    between atoms: C3_4  and  O_7 
ROOT
ATOM      1  C   UNL d   1      -0.443   3.855  -0.307  0.00  0.00    -0.033 A 
ATOM      2  C1  UNL d   1      -1.018   2.709   0.248  0.00  0.00     0.039 A 
ATOM      3  C2  UNL d   1      -0.771   1.457  -0.319  0.00  0.00    -0.080 A 
ATOM      4  C3  UNL d   1       0.052   1.364  -1.438  0.00  0.00     0.150 A 
ATOM      5  C4  UNL d   1       0.631   2.501  -1.993  0.00  0.00    -0.007 A 
ATOM      6  C5  UNL d   1       0.382   3.750  -1.426  0.00  0.00     0.039 A 
ENDROOT
BRANCH   4   7
ATOM      7  O   UNL d   1       0.319   0.165  -2.028  0.00  0.00    -0.526 OA
ATOM      8  H5  UNL d   1      -0.172  -0.527  -1.555  0.00  0.00     0.418 HD
ENDBRANCH   4   7
TORSDOF 1
ENDMDL
