MODEL 1
REMARK minimizedAffinity -0.506985903
REMARK minimizedRMSD -1
REMARK  1 active torsions:
REMARK  status: ('A' for Active; 'I' for Inactive)
REMARK    1  A    between atoms: C3_4  and  O_7 
ROOT
ATOM      1  C   UNL d   1      -1.010   2.182   1.491  0.00  0.00    -0.033 A 
ATOM      2  C1  UNL d   1      -0.591   3.482   1.779  0.00  0.00     0.039 A 
ATOM      3  C2  UNL d   1       0.058   4.241   0.802  0.00  0.00    -0.080 A 
ATOM      4  C3  UNL d   1       0.280   3.688  -0.456  0.00  0.00     0.150 A 
ATOM      5  C4  UNL d   1      -0.138   2.395  -0.751  0.00  0.00    -0.007 A 
ATOM      6  C5  UNL d   1      -0.785   1.639   0.226  0.00  0.00     0.039 A 
ENDROOT
BRANCH   4   7
ATOM      7  O   UNL d   1       0.914   4.388  -1.440  0.00  0.00    -0.526 OA
ATOM      8  H5  UNL d   1       1.171   5.255  -1.084  0.00  0.00     0.418 HD
ENDBRANCH   4   7
TORSDOF 1
ENDMDL
