MODEL 1
REMARK minimizedAffinity -2.33414102
REMARK minimizedRMSD -1
REMARK  1 active torsions:
REMARK  status: ('A' for Active; 'I' for Inactive)
REMARK    1  A    between atoms: C3_4  and  O_7 
ROOT
ATOM      1  C   UNL d   1      -1.666   2.435   1.655  0.00  0.00    -0.033 A 
ATOM      2  C1  UNL d   1      -1.144   1.325   0.987  0.00  0.00     0.039 A 
ATOM      3  C2  UNL d   1      -0.460   1.492  -0.218  0.00  0.00    -0.080 A 
ATOM      4  C3  UNL d   1      -0.304   2.771  -0.744  0.00  0.00     0.150 A 
ATOM      5  C4  UNL d   1      -0.818   3.881  -0.083  0.00  0.00    -0.007 A 
ATOM      6  C5  UNL d   1      -1.502   3.713   1.121  0.00  0.00     0.039 A 
ENDROOT
BRANCH   4   7
ATOM      7  O   UNL d   1       0.352   2.983  -1.920  0.00  0.00    -0.526 OA
ATOM      8  H5  UNL d   1       0.627   2.122  -2.279  0.00  0.00     0.418 HD
ENDBRANCH   4   7
TORSDOF 1
ENDMDL
