MODEL 1
REMARK minimizedAffinity -3.02322006
REMARK minimizedRMSD -1
REMARK  1 active torsions:
REMARK  status: ('A' for Active; 'I' for Inactive)
REMARK    1  A    between atoms: C3_4  and  O_7 
ROOT
ATOM      1  C   UNL d   1      -1.772   3.748   0.357  0.00  0.00    -0.033 A 
ATOM      2  C1  UNL d   1      -1.470   4.192  -0.932  0.00  0.00     0.039 A 
ATOM      3  C2  UNL d   1      -0.552   3.491  -1.716  0.00  0.00    -0.080 A 
ATOM      4  C3  UNL d   1       0.055   2.349  -1.201  0.00  0.00     0.150 A 
ATOM      5  C4  UNL d   1      -0.244   1.899   0.080  0.00  0.00    -0.007 A 
ATOM      6  C5  UNL d   1      -1.160   2.601   0.863  0.00  0.00     0.039 A 
ENDROOT
BRANCH   4   7
ATOM      7  O   UNL d   1       0.960   1.634  -1.928  0.00  0.00    -0.526 OA
ATOM      8  H5  UNL d   1       1.089   2.079  -2.782  0.00  0.00     0.418 HD
ENDBRANCH   4   7
TORSDOF 1
ENDMDL
