MODEL 1
REMARK minimizedAffinity 2.87808347
REMARK minimizedRMSD -1
REMARK  1 active torsions:
REMARK  status: ('A' for Active; 'I' for Inactive)
REMARK    1  A    between atoms: C3_4  and  O_7 
ROOT
ATOM      1  C   UNL d   1       3.395  -3.811  -2.866  0.00  0.00    -0.033 A 
ATOM      2  C1  UNL d   1       4.784  -3.957  -2.877  0.00  0.00     0.039 A 
ATOM      3  C2  UNL d   1       5.443  -4.465  -1.756  0.00  0.00    -0.080 A 
ATOM      4  C3  UNL d   1       4.704  -4.823  -0.632  0.00  0.00     0.150 A 
ATOM      5  C4  UNL d   1       3.320  -4.683  -0.615  0.00  0.00    -0.007 A 
ATOM      6  C5  UNL d   1       2.663  -4.175  -1.736  0.00  0.00     0.039 A 
ENDROOT
BRANCH   4   7
ATOM      7  O   UNL d   1       5.304  -5.318   0.487  0.00  0.00    -0.526 OA
ATOM      8  H5  UNL d   1       6.264  -5.331   0.342  0.00  0.00     0.418 HD
ENDBRANCH   4   7
TORSDOF 1
ENDMDL
