MODEL 1
REMARK minimizedAffinity -3.10109162
REMARK minimizedRMSD -1
REMARK  1 active torsions:
REMARK  status: ('A' for Active; 'I' for Inactive)
REMARK    1  A    between atoms: C3_4  and  O_7 
ROOT
ATOM      1  C   UNL d   1      -0.745   2.928   1.385  0.00  0.00    -0.033 A 
ATOM      2  C1  UNL d   1      -0.550   1.867   0.498  0.00  0.00     0.039 A 
ATOM      3  C2  UNL d   1       0.157   2.069  -0.689  0.00  0.00    -0.080 A 
ATOM      4  C3  UNL d   1       0.664   3.333  -0.976  0.00  0.00     0.150 A 
ATOM      5  C4  UNL d   1       0.476   4.393  -0.095  0.00  0.00    -0.007 A 
ATOM      6  C5  UNL d   1      -0.231   4.190   1.089  0.00  0.00     0.039 A 
ENDROOT
BRANCH   4   7
ATOM      7  O   UNL d   1       1.356   3.579  -2.124  0.00  0.00    -0.526 OA
ATOM      8  H5  UNL d   1       1.383   2.762  -2.649  0.00  0.00     0.418 HD
ENDBRANCH   4   7
TORSDOF 1
ENDMDL
