MODEL 1
REMARK minimizedAffinity -0.689145148
REMARK minimizedRMSD -1
REMARK  1 active torsions:
REMARK  status: ('A' for Active; 'I' for Inactive)
REMARK    1  A    between atoms: C3_4  and  O_7 
ROOT
ATOM      1  C   UNL d   1      -1.557   2.650   1.612  0.00  0.00    -0.033 A 
ATOM      2  C1  UNL d   1      -1.169   3.692   0.768  0.00  0.00     0.039 A 
ATOM      3  C2  UNL d   1      -0.338   3.435  -0.325  0.00  0.00    -0.080 A 
ATOM      4  C3  UNL d   1       0.095   2.133  -0.563  0.00  0.00     0.150 A 
ATOM      5  C4  UNL d   1      -0.291   1.090   0.272  0.00  0.00    -0.007 A 
ATOM      6  C5  UNL d   1      -1.119   1.348   1.363  0.00  0.00     0.039 A 
ENDROOT
BRANCH   4   7
ATOM      7  O   UNL d   1       0.910   1.835  -1.614  0.00  0.00    -0.526 OA
ATOM      8  H5  UNL d   1       1.117   2.658  -2.087  0.00  0.00     0.418 HD
ENDBRANCH   4   7
TORSDOF 1
ENDMDL
