MODEL 1
REMARK minimizedAffinity 2.6073873
REMARK minimizedRMSD -1
REMARK  1 active torsions:
REMARK  status: ('A' for Active; 'I' for Inactive)
REMARK    1  A    between atoms: C3_4  and  O_7 
ROOT
ATOM      1  C   UNL d   1       0.755   2.788  -2.510  0.00  0.00    -0.033 A 
ATOM      2  C1  UNL d   1       0.166   3.808  -1.761  0.00  0.00     0.039 A 
ATOM      3  C2  UNL d   1      -0.417   3.522  -0.525  0.00  0.00    -0.080 A 
ATOM      4  C3  UNL d   1      -0.401   2.214  -0.049  0.00  0.00     0.150 A 
ATOM      5  C4  UNL d   1       0.188   1.194  -0.787  0.00  0.00    -0.007 A 
ATOM      6  C5  UNL d   1       0.768   1.481  -2.022  0.00  0.00     0.039 A 
ENDROOT
BRANCH   4   7
ATOM      7  O   UNL d   1      -0.961   1.886   1.150  0.00  0.00    -0.526 OA
ATOM      8  H5  UNL d   1      -1.355   2.687   1.535  0.00  0.00     0.418 HD
ENDBRANCH   4   7
TORSDOF 1
ENDMDL
