MODEL 1
REMARK minimizedAffinity -0.107736111
REMARK minimizedRMSD -1
REMARK  1 active torsions:
REMARK  status: ('A' for Active; 'I' for Inactive)
REMARK    1  A    between atoms: C3_4  and  O_7 
ROOT
ATOM      1  C   UNL d   1      -1.098   2.285   1.933  0.00  0.00    -0.033 A 
ATOM      2  C1  UNL d   1      -0.805   1.509   0.810  0.00  0.00     0.039 A 
ATOM      3  C2  UNL d   1      -0.149   2.079  -0.283  0.00  0.00    -0.080 A 
ATOM      4  C3  UNL d   1       0.208   3.424  -0.240  0.00  0.00     0.150 A 
ATOM      5  C4  UNL d   1      -0.077   4.202   0.877  0.00  0.00    -0.007 A 
ATOM      6  C5  UNL d   1      -0.732   3.631   1.967  0.00  0.00     0.039 A 
ENDROOT
BRANCH   4   7
ATOM      7  O   UNL d   1       0.845   4.025  -1.285  0.00  0.00    -0.526 OA
ATOM      8  H5  UNL d   1       0.951   3.373  -1.997  0.00  0.00     0.418 HD
ENDBRANCH   4   7
TORSDOF 1
ENDMDL
