MODEL 1
REMARK minimizedAffinity 5.91689491
REMARK minimizedRMSD -1
REMARK  1 active torsions:
REMARK  status: ('A' for Active; 'I' for Inactive)
REMARK    1  A    between atoms: C3_4  and  O_7 
ROOT
ATOM      1  C   UNL d   1      -0.341   1.303   1.686  0.00  0.00    -0.033 A 
ATOM      2  C1  UNL d   1      -1.696   1.159   1.991  0.00  0.00     0.039 A 
ATOM      3  C2  UNL d   1      -2.141   0.029   2.679  0.00  0.00    -0.080 A 
ATOM      4  C3  UNL d   1      -1.224  -0.948   3.057  0.00  0.00     0.150 A 
ATOM      5  C4  UNL d   1       0.128  -0.808   2.760  0.00  0.00    -0.007 A 
ATOM      6  C5  UNL d   1       0.571   0.321   2.072  0.00  0.00     0.039 A 
ENDROOT
BRANCH   4   7
ATOM      7  O   UNL d   1      -1.612  -2.070   3.726  0.00  0.00    -0.526 OA
ATOM      8  H5  UNL d   1      -2.577  -2.044   3.836  0.00  0.00     0.418 HD
ENDBRANCH   4   7
TORSDOF 1
ENDMDL
