MODEL 1
REMARK minimizedAffinity 1.9069531
REMARK minimizedRMSD -1
REMARK  1 active torsions:
REMARK  status: ('A' for Active; 'I' for Inactive)
REMARK    1  A    between atoms: C3_4  and  O_7 
ROOT
ATOM      1  C   UNL d   1      -1.003   3.602   0.432  0.00  0.00    -0.033 A 
ATOM      2  C1  UNL d   1      -0.959   2.356   1.060  0.00  0.00     0.039 A 
ATOM      3  C2  UNL d   1      -0.287   1.291   0.457  0.00  0.00    -0.080 A 
ATOM      4  C3  UNL d   1       0.338   1.486  -0.772  0.00  0.00     0.150 A 
ATOM      5  C4  UNL d   1       0.301   2.726  -1.402  0.00  0.00    -0.007 A 
ATOM      6  C5  UNL d   1      -0.372   3.788  -0.798  0.00  0.00     0.039 A 
ENDROOT
BRANCH   4   7
ATOM      7  O   UNL d   1       1.002   0.476  -1.402  0.00  0.00    -0.526 OA
ATOM      8  H5  UNL d   1       0.920  -0.329  -0.864  0.00  0.00     0.418 HD
ENDBRANCH   4   7
TORSDOF 1
ENDMDL
