MODEL 1
REMARK minimizedAffinity 5.24057674
REMARK minimizedRMSD -1
REMARK  1 active torsions:
REMARK  status: ('A' for Active; 'I' for Inactive)
REMARK    1  A    between atoms: C3_4  and  O_7 
ROOT
ATOM      1  C   UNL d   1      -1.584   1.529   1.803  0.00  0.00    -0.033 A 
ATOM      2  C1  UNL d   1      -1.627   0.464   2.705  0.00  0.00     0.039 A 
ATOM      3  C2  UNL d   1      -0.660   0.355   3.706  0.00  0.00    -0.080 A 
ATOM      4  C3  UNL d   1       0.343   1.317   3.795  0.00  0.00     0.150 A 
ATOM      5  C4  UNL d   1       0.389   2.383   2.903  0.00  0.00    -0.007 A 
ATOM      6  C5  UNL d   1      -0.577   2.489   1.903  0.00  0.00     0.039 A 
ENDROOT
BRANCH   4   7
ATOM      7  O   UNL d   1       1.311   1.251   4.753  0.00  0.00    -0.526 OA
ATOM      8  H5  UNL d   1       1.169   0.447   5.279  0.00  0.00     0.418 HD
ENDBRANCH   4   7
TORSDOF 1
ENDMDL
