MODEL 1
REMARK minimizedAffinity -0.134109065
REMARK minimizedRMSD -1
REMARK  1 active torsions:
REMARK  status: ('A' for Active; 'I' for Inactive)
REMARK    1  A    between atoms: C3_4  and  O_7 
ROOT
ATOM      1  C   UNL d   1      -1.353   3.362   0.753  0.00  0.00    -0.033 A 
ATOM      2  C1  UNL d   1      -1.141   2.145   1.405  0.00  0.00     0.039 A 
ATOM      3  C2  UNL d   1      -0.319   1.175   0.828  0.00  0.00    -0.080 A 
ATOM      4  C3  UNL d   1       0.285   1.434  -0.399  0.00  0.00     0.150 A 
ATOM      5  C4  UNL d   1       0.082   2.645  -1.053  0.00  0.00    -0.007 A 
ATOM      6  C5  UNL d   1      -0.740   3.612  -0.476  0.00  0.00     0.039 A 
ENDROOT
BRANCH   4   7
ATOM      7  O   UNL d   1       1.092   0.517  -1.004  0.00  0.00    -0.526 OA
ATOM      8  H5  UNL d   1       1.117  -0.282  -0.451  0.00  0.00     0.418 HD
ENDBRANCH   4   7
TORSDOF 1
ENDMDL
