MODEL 1
REMARK minimizedAffinity -5.54030848
REMARK minimizedRMSD -1
REMARK  1 active torsions:
REMARK  status: ('A' for Active; 'I' for Inactive)
REMARK    1  A    between atoms: C1_2  and  C2_3 
ROOT
ATOM      1  C2  UNL d   1       1.033   0.688   0.835  0.00  0.00    -0.077 A 
ATOM      2  C3  UNL d   1       0.017  -0.278   0.820  0.00  0.00     0.002 A 
ATOM      3  C4  UNL d   1       0.172  -1.478   1.516  0.00  0.00     0.002 A 
ATOM      4  C5  UNL d   1       1.340  -1.722   2.236  0.00  0.00    -0.004 A 
ATOM      5  C6  UNL d   1       2.357  -0.768   2.256  0.00  0.00     0.002 A 
ATOM      6  C7  UNL d   1       2.204   0.431   1.560  0.00  0.00     0.002 A 
ENDROOT
BRANCH   1   7
ATOM      7  C1  UNL d   1       0.847   2.003   0.125  0.00  0.00     0.055 C 
ATOM      8  C   UNL d   1      -0.257   2.829   0.771  0.00  0.00     0.019 C 
ENDBRANCH   1   7
TORSDOF 1
ENDMDL
