MODEL 1
REMARK minimizedAffinity -4.24420786
REMARK minimizedRMSD -1
REMARK  1 active torsions:
REMARK  status: ('A' for Active; 'I' for Inactive)
REMARK    1  A    between atoms: C1_2  and  C2_3 
ROOT
ATOM      1  C2  UNL d   1       1.120  -0.019   0.760  0.00  0.00    -0.077 A 
ATOM      2  C3  UNL d   1       0.696  -1.328   1.027  0.00  0.00     0.002 A 
ATOM      3  C4  UNL d   1      -0.584  -1.745   0.657  0.00  0.00     0.002 A 
ATOM      4  C5  UNL d   1      -1.448  -0.861   0.014  0.00  0.00    -0.004 A 
ATOM      5  C6  UNL d   1      -1.036   0.444  -0.255  0.00  0.00     0.002 A 
ATOM      6  C7  UNL d   1       0.243   0.863   0.116  0.00  0.00     0.002 A 
ENDROOT
BRANCH   1   7
ATOM      7  C1  UNL d   1       2.518   0.418   1.114  0.00  0.00     0.055 C 
ATOM      8  C   UNL d   1       3.519  -0.711   0.912  0.00  0.00     0.019 C 
ENDBRANCH   1   7
TORSDOF 1
ENDMDL
