MODEL 1
REMARK minimizedAffinity -5.57127762
REMARK minimizedRMSD -1
REMARK  1 active torsions:
REMARK  status: ('A' for Active; 'I' for Inactive)
REMARK    1  A    between atoms: C1_2  and  C2_3 
ROOT
ATOM      1  C2  UNL d   1      -0.090  -0.098   0.653  0.00  0.00    -0.077 A 
ATOM      2  C3  UNL d   1       0.436  -1.131   1.442  0.00  0.00     0.002 A 
ATOM      3  C4  UNL d   1       1.806  -1.192   1.704  0.00  0.00     0.002 A 
ATOM      4  C5  UNL d   1       2.660  -0.222   1.185  0.00  0.00    -0.004 A 
ATOM      5  C6  UNL d   1       2.147   0.808   0.397  0.00  0.00     0.002 A 
ATOM      6  C7  UNL d   1       0.778   0.871   0.133  0.00  0.00     0.002 A 
ENDROOT
BRANCH   1   7
ATOM      7  C1  UNL d   1      -1.574  -0.002   0.410  0.00  0.00     0.055 C 
ATOM      8  C   UNL d   1      -1.875   0.376  -1.032  0.00  0.00     0.019 C 
ENDBRANCH   1   7
TORSDOF 1
ENDMDL
