MODEL 1
REMARK minimizedAffinity 8.97851467
REMARK minimizedRMSD -1
REMARK  0 active torsions:
REMARK  status: ('A' for Active; 'I' for Inactive)
ROOT
ATOM      1  C   UNL d   1      -1.381  -4.157  -2.734  0.00  0.00    -0.002 A 
ATOM      2  C1  UNL d   1      -1.635  -5.455  -3.155  0.00  0.00     0.010 A 
ATOM      3  C2  UNL d   1      -2.570  -5.706  -4.161  0.00  0.00     0.041 A 
ATOM      4  C3  UNL d   1      -3.251  -4.620  -4.745  0.00  0.00    -0.075 A 
ATOM      5  S   UNL d   1      -4.437  -4.687  -5.994  0.00  0.00     0.015 SA
ATOM      6  C4  UNL d   1      -4.634  -2.994  -6.000  0.00  0.00     0.022 A 
ATOM      7  C5  UNL d   1      -3.823  -2.377  -5.077  0.00  0.00     0.026 A 
ATOM      8  C6  UNL d   1      -3.012  -3.304  -4.339  0.00  0.00    -0.082 A 
ATOM      9  C7  UNL d   1      -2.059  -3.082  -3.316  0.00  0.00     0.045 A 
ENDROOT
TORSDOF 0
ENDMDL
