MODEL 1
REMARK minimizedAffinity 11.2691412
REMARK minimizedRMSD -1
REMARK  0 active torsions:
REMARK  status: ('A' for Active; 'I' for Inactive)
ROOT
ATOM      1  C   UNL d   1      -4.459  -2.624  -4.964  0.00  0.00    -0.002 A 
ATOM      2  C1  UNL d   1      -4.437  -3.547  -6.000  0.00  0.00     0.010 A 
ATOM      3  C2  UNL d   1      -3.515  -4.595  -5.997  0.00  0.00     0.041 A 
ATOM      4  C3  UNL d   1      -2.608  -4.702  -4.925  0.00  0.00    -0.075 A 
ATOM      5  S   UNL d   1      -1.391  -5.904  -4.709  0.00  0.00     0.015 SA
ATOM      6  C4  UNL d   1      -0.872  -5.220  -3.236  0.00  0.00     0.022 A 
ATOM      7  C5  UNL d   1      -1.598  -4.102  -2.903  0.00  0.00     0.026 A 
ATOM      8  C6  UNL d   1      -2.611  -3.785  -3.870  0.00  0.00    -0.082 A 
ATOM      9  C7  UNL d   1      -3.558  -2.733  -3.902  0.00  0.00     0.045 A 
ENDROOT
TORSDOF 0
ENDMDL
