MODEL 1
REMARK minimizedAffinity 11.8983612
REMARK minimizedRMSD -1
REMARK  0 active torsions:
REMARK  status: ('A' for Active; 'I' for Inactive)
ROOT
ATOM      1  C   UNL d   1      -4.047  -3.533  -5.269  0.00  0.00    -0.002 A 
ATOM      2  C1  UNL d   1      -3.745  -4.673  -6.000  0.00  0.00     0.010 A 
ATOM      3  C2  UNL d   1      -2.678  -5.493  -5.628  0.00  0.00     0.041 A 
ATOM      4  C3  UNL d   1      -1.913  -5.145  -4.497  0.00  0.00    -0.075 A 
ATOM      5  S   UNL d   1      -0.560  -6.000  -3.854  0.00  0.00     0.015 SA
ATOM      6  C4  UNL d   1      -0.352  -4.872  -2.594  0.00  0.00     0.022 A 
ATOM      7  C5  UNL d   1      -1.283  -3.861  -2.647  0.00  0.00     0.026 A 
ATOM      8  C6  UNL d   1      -2.198  -4.003  -3.745  0.00  0.00    -0.082 A 
ATOM      9  C7  UNL d   1      -3.286  -3.191  -4.148  0.00  0.00     0.045 A 
ENDROOT
TORSDOF 0
ENDMDL
