MODEL 1
REMARK minimizedAffinity 11.220645
REMARK minimizedRMSD -1
REMARK  0 active torsions:
REMARK  status: ('A' for Active; 'I' for Inactive)
ROOT
ATOM      1  C   UNL d   1      -1.451   3.360  -3.708  0.00  0.00    -0.002 A 
ATOM      2  C1  UNL d   1      -1.121   4.702  -3.839  0.00  0.00     0.010 A 
ATOM      3  C2  UNL d   1      -1.991   5.588  -4.477  0.00  0.00     0.041 A 
ATOM      4  C3  UNL d   1      -3.211   5.099  -4.985  0.00  0.00    -0.075 A 
ATOM      5  S   UNL d   1      -4.432   5.999  -5.803  0.00  0.00     0.015 SA
ATOM      6  C4  UNL d   1      -5.421   4.625  -5.997  0.00  0.00     0.022 A 
ATOM      7  C5  UNL d   1      -4.848   3.498  -5.457  0.00  0.00     0.026 A 
ATOM      8  C6  UNL d   1      -3.565   3.752  -4.864  0.00  0.00    -0.082 A 
ATOM      9  C7  UNL d   1      -2.662   2.879  -4.213  0.00  0.00     0.045 A 
ENDROOT
TORSDOF 0
ENDMDL
