MODEL 1
REMARK minimizedAffinity 22.3517647
REMARK minimizedRMSD -1
REMARK  0 active torsions:
REMARK  status: ('A' for Active; 'I' for Inactive)
ROOT
ATOM      1  C   UNL d   1      -2.891  -0.512   2.427  0.00  0.00    -0.002 A 
ATOM      2  C1  UNL d   1      -1.955   0.494   2.617  0.00  0.00     0.010 A 
ATOM      3  C2  UNL d   1      -2.351   1.760   3.054  0.00  0.00     0.041 A 
ATOM      4  C3  UNL d   1      -3.717   1.999   3.300  0.00  0.00    -0.075 A 
ATOM      5  S   UNL d   1      -4.433   3.471   3.841  0.00  0.00     0.015 SA
ATOM      6  C4  UNL d   1      -6.000   2.798   3.833  0.00  0.00     0.022 A 
ATOM      7  C5  UNL d   1      -5.994   1.484   3.430  0.00  0.00     0.026 A 
ATOM      8  C6  UNL d   1      -4.679   1.002   3.116  0.00  0.00    -0.082 A 
ATOM      9  C7  UNL d   1      -4.246  -0.271   2.672  0.00  0.00     0.045 A 
ENDROOT
TORSDOF 0
ENDMDL
