MODEL 1
REMARK minimizedAffinity 12.7114792
REMARK minimizedRMSD -1
REMARK  0 active torsions:
REMARK  status: ('A' for Active; 'I' for Inactive)
ROOT
ATOM      1  C   UNL d   1       5.994  -0.241  -0.143  0.00  0.00    -0.002 A 
ATOM      2  C1  UNL d   1       5.940  -1.602   0.123  0.00  0.00     0.010 A 
ATOM      3  C2  UNL d   1       4.748  -2.311  -0.038  0.00  0.00     0.041 A 
ATOM      4  C3  UNL d   1       3.600  -1.623  -0.476  0.00  0.00    -0.075 A 
ATOM      5  S   UNL d   1       2.030  -2.284  -0.745  0.00  0.00     0.015 SA
ATOM      6  C4  UNL d   1       1.394  -0.776  -1.219  0.00  0.00     0.022 A 
ATOM      7  C5  UNL d   1       2.342   0.219  -1.179  0.00  0.00     0.026 A 
ATOM      8  C6  UNL d   1       3.629  -0.252  -0.751  0.00  0.00    -0.082 A 
ATOM      9  C7  UNL d   1       4.852   0.438  -0.577  0.00  0.00     0.045 A 
ENDROOT
TORSDOF 0
ENDMDL
