MODEL 1
REMARK minimizedAffinity 28.1415367
REMARK minimizedRMSD -1
REMARK  0 active torsions:
REMARK  status: ('A' for Active; 'I' for Inactive)
ROOT
ATOM      1  C   UNL d   1       3.984   1.461   0.364  0.00  0.00    -0.002 A 
ATOM      2  C1  UNL d   1       2.693   1.116  -0.010  0.00  0.00     0.010 A 
ATOM      3  C2  UNL d   1       2.337  -0.223  -0.179  0.00  0.00     0.041 A 
ATOM      4  C3  UNL d   1       3.309  -1.220   0.039  0.00  0.00    -0.075 A 
ATOM      5  S   UNL d   1       3.100  -2.925  -0.107  0.00  0.00     0.015 SA
ATOM      6  C4  UNL d   1       4.719  -3.235   0.325  0.00  0.00     0.022 A 
ATOM      7  C5  UNL d   1       5.416  -2.078   0.577  0.00  0.00     0.026 A 
ATOM      8  C6  UNL d   1       4.615  -0.897   0.417  0.00  0.00    -0.082 A 
ATOM      9  C7  UNL d   1       4.945   0.470   0.579  0.00  0.00     0.045 A 
ENDROOT
TORSDOF 0
ENDMDL
