MODEL 1
REMARK minimizedAffinity 9.93031883
REMARK minimizedRMSD -1
REMARK  0 active torsions:
REMARK  status: ('A' for Active; 'I' for Inactive)
ROOT
ATOM      1  C   UNL d   1       4.023  -4.169   0.278  0.00  0.00    -0.002 A 
ATOM      2  C1  UNL d   1       5.250  -3.682   0.704  0.00  0.00     0.010 A 
ATOM      3  C2  UNL d   1       5.387  -2.351   1.102  0.00  0.00     0.041 A 
ATOM      4  C3  UNL d   1       4.257  -1.510   1.066  0.00  0.00    -0.075 A 
ATOM      5  S   UNL d   1       4.187   0.155   1.508  0.00  0.00     0.015 SA
ATOM      6  C4  UNL d   1       2.525   0.259   1.143  0.00  0.00     0.022 A 
ATOM      7  C5  UNL d   1       2.021  -0.938   0.693  0.00  0.00     0.026 A 
ATOM      8  C6  UNL d   1       3.010  -1.977   0.642  0.00  0.00    -0.082 A 
ATOM      9  C7  UNL d   1       2.905  -3.332   0.244  0.00  0.00     0.045 A 
ENDROOT
TORSDOF 0
ENDMDL
