MODEL 1
REMARK minimizedAffinity 21.1330109
REMARK minimizedRMSD -1
REMARK  0 active torsions:
REMARK  status: ('A' for Active; 'I' for Inactive)
ROOT
ATOM      1  C   UNL d   1       2.701  -1.372  -0.498  0.00  0.00    -0.002 A 
ATOM      2  C1  UNL d   1       2.070  -1.201  -1.722  0.00  0.00     0.010 A 
ATOM      3  C2  UNL d   1       1.642  -2.305  -2.460  0.00  0.00     0.041 A 
ATOM      4  C3  UNL d   1       1.859  -3.597  -1.943  0.00  0.00    -0.075 A 
ATOM      5  S   UNL d   1       1.418  -5.096  -2.671  0.00  0.00     0.015 SA
ATOM      6  C4  UNL d   1       2.057  -6.000  -1.375  0.00  0.00     0.022 A 
ATOM      7  C5  UNL d   1       2.597  -5.193  -0.401  0.00  0.00     0.026 A 
ATOM      8  C6  UNL d   1       2.491  -3.795  -0.712  0.00  0.00    -0.082 A 
ATOM      9  C7  UNL d   1       2.915  -2.655   0.013  0.00  0.00     0.045 A 
ENDROOT
TORSDOF 0
ENDMDL
