MODEL 1
REMARK minimizedAffinity 11.3825932
REMARK minimizedRMSD -1
REMARK  0 active torsions:
REMARK  status: ('A' for Active; 'I' for Inactive)
ROOT
ATOM      1  C   UNL d   1       2.633   2.072  -2.100  0.00  0.00    -0.002 A 
ATOM      2  C1  UNL d   1       2.086   1.670  -3.310  0.00  0.00     0.010 A 
ATOM      3  C2  UNL d   1       1.571   0.381  -3.463  0.00  0.00     0.041 A 
ATOM      4  C3  UNL d   1       1.615  -0.505  -2.369  0.00  0.00    -0.075 A 
ATOM      5  S   UNL d   1       1.044  -2.131  -2.325  0.00  0.00     0.015 SA
ATOM      6  C4  UNL d   1       1.512  -2.330  -0.698  0.00  0.00     0.022 A 
ATOM      7  C5  UNL d   1       2.092  -1.194  -0.186  0.00  0.00     0.026 A 
ATOM      8  C6  UNL d   1       2.160  -0.123  -1.140  0.00  0.00    -0.082 A 
ATOM      9  C7  UNL d   1       2.675   1.190  -1.016  0.00  0.00     0.045 A 
ENDROOT
TORSDOF 0
ENDMDL
