MODEL 1
REMARK minimizedAffinity 26.9227352
REMARK minimizedRMSD -1
REMARK  0 active torsions:
REMARK  status: ('A' for Active; 'I' for Inactive)
ROOT
ATOM      1  C   UNL d   1      -4.050  -5.823   0.755  0.00  0.00    -0.002 A 
ATOM      2  C1  UNL d   1      -3.004  -5.714   1.661  0.00  0.00     0.010 A 
ATOM      3  C2  UNL d   1      -2.965  -4.660   2.576  0.00  0.00     0.041 A 
ATOM      4  C3  UNL d   1      -4.006  -3.711   2.567  0.00  0.00    -0.075 A 
ATOM      5  S   UNL d   1      -4.168  -2.337   3.597  0.00  0.00     0.015 SA
ATOM      6  C4  UNL d   1      -5.630  -1.864   2.859  0.00  0.00     0.022 A 
ATOM      7  C5  UNL d   1      -6.000  -2.722   1.850  0.00  0.00     0.026 A 
ATOM      8  C6  UNL d   1      -5.070  -3.800   1.666  0.00  0.00    -0.082 A 
ATOM      9  C7  UNL d   1      -5.080  -4.879   0.750  0.00  0.00     0.045 A 
ENDROOT
TORSDOF 0
ENDMDL
