MODEL 1
REMARK minimizedAffinity -0.804715276
REMARK minimizedRMSD -1
REMARK  1 active torsions:
REMARK  status: ('A' for Active; 'I' for Inactive)
REMARK    1  A    between atoms: N_2  and  C1_3 
ROOT
ATOM      1  C1  UNL d   1       0.036   0.433   0.066  0.00  0.00     0.143 A 
ATOM      2  C2  UNL d   1       1.087   0.639   0.965  0.00  0.00    -0.057 A 
ATOM      3  C3  UNL d   1       0.938   1.479   2.076  0.00  0.00     0.033 A 
ATOM      4  C4  UNL d   1      -0.260   2.153   2.290  0.00  0.00    -0.042 A 
ATOM      5  C5  UNL d   1      -1.310   1.982   1.395  0.00  0.00     0.033 A 
ATOM      6  C6  UNL d   1      -1.157   1.137   0.292  0.00  0.00    -0.057 A 
ENDROOT
BRANCH   1   7
ATOM      7  N   UNL d   1       0.153  -0.312  -1.110  0.00  0.00    -0.732 N 
ATOM      8  C   UNL d   1       0.127  -1.758  -1.072  0.00  0.00     0.284 C 
ATOM      9  H3  UNL d   1      -0.372   0.094  -1.881  0.00  0.00     0.395 HD
ENDBRANCH   1   7
TORSDOF 1
ENDMDL
