MODEL 1
REMARK minimizedAffinity -4.33021259
REMARK minimizedRMSD -1
REMARK  1 active torsions:
REMARK  status: ('A' for Active; 'I' for Inactive)
REMARK    1  A    between atoms: N_2  and  C1_3 
ROOT
ATOM      1  C1  UNL d   1       0.039   0.808  -0.259  0.00  0.00     0.143 A 
ATOM      2  C2  UNL d   1       0.281   0.634   1.109  0.00  0.00    -0.057 A 
ATOM      3  C3  UNL d   1      -0.194   1.553   2.052  0.00  0.00     0.033 A 
ATOM      4  C4  UNL d   1      -0.897   2.681   1.641  0.00  0.00    -0.042 A 
ATOM      5  C5  UNL d   1      -1.127   2.887   0.285  0.00  0.00     0.033 A 
ATOM      6  C6  UNL d   1      -0.656   1.962  -0.652  0.00  0.00    -0.057 A 
ENDROOT
BRANCH   1   7
ATOM      7  N   UNL d   1       0.569  -0.018  -1.253  0.00  0.00    -0.732 N 
ATOM      8  C   UNL d   1       0.449  -1.457  -1.158  0.00  0.00     0.284 C 
ATOM      9  H3  UNL d   1       0.414   0.351  -2.188  0.00  0.00     0.395 HD
ENDBRANCH   1   7
TORSDOF 1
ENDMDL
