MODEL 1
REMARK minimizedAffinity -2.89161634
REMARK minimizedRMSD -1
REMARK  1 active torsions:
REMARK  status: ('A' for Active; 'I' for Inactive)
REMARK    1  A    between atoms: N_2  and  C1_3 
ROOT
ATOM      1  C1  UNL d   1      -0.117   0.977   0.313  0.00  0.00     0.143 A 
ATOM      2  C2  UNL d   1      -0.367   1.724  -0.843  0.00  0.00    -0.057 A 
ATOM      3  C3  UNL d   1       0.113   1.311  -2.092  0.00  0.00     0.033 A 
ATOM      4  C4  UNL d   1       0.879   0.155  -2.202  0.00  0.00    -0.042 A 
ATOM      5  C5  UNL d   1       1.161  -0.589  -1.062  0.00  0.00     0.033 A 
ATOM      6  C6  UNL d   1       0.673  -0.175   0.181  0.00  0.00    -0.057 A 
ENDROOT
BRANCH   1   7
ATOM      7  N   UNL d   1      -0.483   1.387   1.598  0.00  0.00    -0.732 N 
ATOM      8  C   UNL d   1      -1.716   2.113   1.816  0.00  0.00     0.284 C 
ATOM      9  H3  UNL d   1      -0.287   0.679   2.302  0.00  0.00     0.395 HD
ENDBRANCH   1   7
TORSDOF 1
ENDMDL
