MODEL 1
REMARK minimizedAffinity -3.19996405
REMARK minimizedRMSD -1
REMARK  1 active torsions:
REMARK  status: ('A' for Active; 'I' for Inactive)
REMARK    1  A    between atoms: N_2  and  C1_3 
ROOT
ATOM      1  C1  UNL d   1       0.082   0.248  -0.113  0.00  0.00     0.143 A 
ATOM      2  C2  UNL d   1       0.771   0.568   1.062  0.00  0.00    -0.057 A 
ATOM      3  C3  UNL d   1       0.237   1.464   1.996  0.00  0.00     0.033 A 
ATOM      4  C4  UNL d   1      -0.986   2.081   1.756  0.00  0.00    -0.042 A 
ATOM      5  C5  UNL d   1      -1.677   1.797   0.584  0.00  0.00     0.033 A 
ATOM      6  C6  UNL d   1      -1.142   0.896  -0.342  0.00  0.00    -0.057 A 
ENDROOT
BRANCH   1   7
ATOM      7  N   UNL d   1       0.604  -0.560  -1.126  0.00  0.00    -0.732 N 
ATOM      8  C   UNL d   1       0.147  -1.922  -1.292  0.00  0.00     0.284 C 
ATOM      9  H3  UNL d   1       0.731  -0.054  -1.999  0.00  0.00     0.395 HD
ENDBRANCH   1   7
TORSDOF 1
ENDMDL
