MODEL 1
REMARK minimizedAffinity -2.95189333
REMARK minimizedRMSD -1
REMARK  1 active torsions:
REMARK  status: ('A' for Active; 'I' for Inactive)
REMARK    1  A    between atoms: N_2  and  C1_3 
ROOT
ATOM      1  C1  UNL d   1      -0.010   0.092   0.074  0.00  0.00     0.143 A 
ATOM      2  C2  UNL d   1       0.690   0.748   1.093  0.00  0.00    -0.057 A 
ATOM      3  C3  UNL d   1       0.092   1.765   1.846  0.00  0.00     0.033 A 
ATOM      4  C4  UNL d   1      -1.212   2.166   1.573  0.00  0.00    -0.042 A 
ATOM      5  C5  UNL d   1      -1.918   1.546   0.549  0.00  0.00     0.033 A 
ATOM      6  C6  UNL d   1      -1.318   0.526  -0.195  0.00  0.00    -0.057 A 
ENDROOT
BRANCH   1   7
ATOM      7  N   UNL d   1       0.562  -0.859  -0.774  0.00  0.00    -0.732 N 
ATOM      8  C   UNL d   1      -0.071  -2.145  -0.973  0.00  0.00     0.284 C 
ATOM      9  H3  UNL d   1       0.937  -0.445  -1.625  0.00  0.00     0.395 HD
ENDBRANCH   1   7
TORSDOF 1
ENDMDL
