MODEL 1
REMARK minimizedAffinity -2.16494179
REMARK minimizedRMSD -1
REMARK  1 active torsions:
REMARK  status: ('A' for Active; 'I' for Inactive)
REMARK    1  A    between atoms: N_2  and  C1_3 
ROOT
ATOM      1  C1  UNL d   1       0.340  -0.834  -0.504  0.00  0.00     0.143 A 
ATOM      2  C2  UNL d   1      -0.119  -0.426   0.753  0.00  0.00    -0.057 A 
ATOM      3  C3  UNL d   1      -0.308   0.928   1.052  0.00  0.00     0.033 A 
ATOM      4  C4  UNL d   1      -0.012   1.904   0.107  0.00  0.00    -0.042 A 
ATOM      5  C5  UNL d   1       0.470   1.523  -1.141  0.00  0.00     0.033 A 
ATOM      6  C6  UNL d   1       0.650   0.169  -1.437  0.00  0.00    -0.057 A 
ENDROOT
BRANCH   1   7
ATOM      7  N   UNL d   1       0.642  -2.158  -0.830  0.00  0.00    -0.732 N 
ATOM      8  C   UNL d   1      -0.244  -2.930  -1.676  0.00  0.00     0.284 C 
ATOM      9  H3  UNL d   1       1.630  -2.294  -1.031  0.00  0.00     0.395 HD
ENDBRANCH   1   7
TORSDOF 1
ENDMDL
