MODEL 1
REMARK minimizedAffinity 8.00140572
REMARK minimizedRMSD -1
REMARK  2 active torsions:
REMARK  status: ('A' for Active; 'I' for Inactive)
REMARK    1  A    between atoms: C2'_3  and  C1'_4 
REMARK    2  A    between atoms: C1'_4  and  C1_5 
ROOT
ATOM      1  C1  I4B d   1      -0.432   3.076   1.101  0.00  0.00    -0.075 A 
ATOM      2  C2  I4B d   1      -1.652   3.010   1.727  0.00  0.00     0.003 A 
ATOM      3  C3  I4B d   1      -1.778   2.353   2.974  0.00  0.00     0.002 A 
ATOM      4  C4  I4B d   1      -0.677   1.736   3.532  0.00  0.00    -0.004 A 
ATOM      5  C5  I4B d   1       0.564   1.823   2.907  0.00  0.00     0.002 A 
ATOM      6  C6  I4B d   1       0.690   2.508   1.690  0.00  0.00     0.003 A 
ENDROOT
BRANCH   1   7
ATOM      7  C1' I4B d   1      -0.341   3.750  -0.232  0.00  0.00     0.060 C 
BRANCH   7   8
ATOM      8  C2' I4B d   1      -1.126   2.921  -1.228  0.00  0.00    -0.013 C 
ATOM      9  C4' I4B d   1      -1.438   3.713  -2.471  0.00  0.00     0.013 C 
ATOM     10  C3' I4B d   1      -0.319   1.700  -1.553  0.00  0.00     0.013 C 
ENDBRANCH   7   8
ENDBRANCH   1   7
TORSDOF 2
ENDMDL
