MODEL 1
REMARK minimizedAffinity 1.53004611
REMARK minimizedRMSD -1
REMARK  2 active torsions:
REMARK  status: ('A' for Active; 'I' for Inactive)
REMARK    1  A    between atoms: C2'_3  and  C1'_4 
REMARK    2  A    between atoms: C1'_4  and  C1_5 
ROOT
ATOM      1  C1  I4B d   1      -0.531   2.558   0.904  0.00  0.00    -0.075 A 
ATOM      2  C2  I4B d   1      -0.396   3.904   0.671  0.00  0.00     0.003 A 
ATOM      3  C3  I4B d   1      -0.340   4.396  -0.655  0.00  0.00     0.002 A 
ATOM      4  C4  I4B d   1      -0.371   3.508  -1.711  0.00  0.00    -0.004 A 
ATOM      5  C5  I4B d   1      -0.531   2.146  -1.474  0.00  0.00     0.002 A 
ATOM      6  C6  I4B d   1      -0.624   1.668  -0.159  0.00  0.00     0.003 A 
ENDROOT
BRANCH   1   7
ATOM      7  C1' I4B d   1      -0.555   2.069   2.318  0.00  0.00     0.060 C 
BRANCH   7   8
ATOM      8  C2' I4B d   1       0.022   0.668   2.337  0.00  0.00    -0.013 C 
ATOM      9  C4' I4B d   1       1.442   0.656   1.834  0.00  0.00     0.013 C 
ATOM     10  C3' I4B d   1      -0.059   0.154   3.743  0.00  0.00     0.013 C 
ENDBRANCH   7   8
ENDBRANCH   1   7
TORSDOF 2
ENDMDL
