MODEL 1
REMARK minimizedAffinity 4.9910512
REMARK minimizedRMSD -1
REMARK  2 active torsions:
REMARK  status: ('A' for Active; 'I' for Inactive)
REMARK    1  A    between atoms: C2'_3  and  C1'_4 
REMARK    2  A    between atoms: C1'_4  and  C1_5 
ROOT
ATOM      1  C1  I4B d   1      -1.146   1.644   0.277  0.00  0.00    -0.075 A 
ATOM      2  C2  I4B d   1      -1.495   2.901  -0.148  0.00  0.00     0.003 A 
ATOM      3  C3  I4B d   1      -1.827   3.905   0.794  0.00  0.00     0.002 A 
ATOM      4  C4  I4B d   1      -1.847   3.596   2.138  0.00  0.00    -0.004 A 
ATOM      5  C5  I4B d   1      -1.471   2.326   2.568  0.00  0.00     0.002 A 
ATOM      6  C6  I4B d   1      -1.107   1.347   1.633  0.00  0.00     0.003 A 
ENDROOT
BRANCH   1   7
ATOM      7  C1' I4B d   1      -0.833   0.598  -0.747  0.00  0.00     0.060 C 
BRANCH   7   8
ATOM      8  C2' I4B d   1      -2.133  -0.072  -1.143  0.00  0.00    -0.013 C 
ATOM      9  C4' I4B d   1      -1.881  -1.312  -1.959  0.00  0.00     0.013 C 
ATOM     10  C3' I4B d   1      -2.888  -0.394   0.112  0.00  0.00     0.013 C 
ENDBRANCH   7   8
ENDBRANCH   1   7
TORSDOF 2
ENDMDL
