MODEL 1
REMARK minimizedAffinity 3.32043195
REMARK minimizedRMSD -1
REMARK  2 active torsions:
REMARK  status: ('A' for Active; 'I' for Inactive)
REMARK    1  A    between atoms: C2'_3  and  C1'_4 
REMARK    2  A    between atoms: C1'_4  and  C1_5 
ROOT
ATOM      1  C1  I4B d   1      -0.229   0.184   2.975  0.00  0.00    -0.075 A 
ATOM      2  C2  I4B d   1       0.248   0.059   1.695  0.00  0.00     0.003 A 
ATOM      3  C3  I4B d   1       0.527   1.212   0.922  0.00  0.00     0.002 A 
ATOM      4  C4  I4B d   1       0.268   2.461   1.449  0.00  0.00    -0.004 A 
ATOM      5  C5  I4B d   1      -0.194   2.587   2.756  0.00  0.00     0.002 A 
ATOM      6  C6  I4B d   1      -0.432   1.441   3.529  0.00  0.00     0.003 A 
ENDROOT
BRANCH   1   7
ATOM      7  C1' I4B d   1      -0.544  -1.056   3.751  0.00  0.00     0.060 C 
BRANCH   7   8
ATOM      8  C2' I4B d   1       0.767  -1.701   4.154  0.00  0.00    -0.013 C 
ATOM      9  C4' I4B d   1       0.807  -1.975   5.634  0.00  0.00     0.013 C 
ATOM     10  C3' I4B d   1       0.923  -2.966   3.364  0.00  0.00     0.013 C 
ENDBRANCH   7   8
ENDBRANCH   1   7
TORSDOF 2
ENDMDL
