MODEL 1
REMARK minimizedAffinity 4.36361599
REMARK minimizedRMSD -1
REMARK  2 active torsions:
REMARK  status: ('A' for Active; 'I' for Inactive)
REMARK    1  A    between atoms: C2'_3  and  C1'_4 
REMARK    2  A    between atoms: C1'_4  and  C1_5 
ROOT
ATOM      1  C1  I4B d   1       3.184  -2.256  -0.889  0.00  0.00    -0.075 A 
ATOM      2  C2  I4B d   1       4.206  -1.637  -1.565  0.00  0.00     0.003 A 
ATOM      3  C3  I4B d   1       5.364  -2.367  -1.929  0.00  0.00     0.002 A 
ATOM      4  C4  I4B d   1       5.478  -3.691  -1.557  0.00  0.00    -0.004 A 
ATOM      5  C5  I4B d   1       4.431  -4.322  -0.892  0.00  0.00     0.002 A 
ATOM      6  C6  I4B d   1       3.271  -3.604  -0.566  0.00  0.00     0.003 A 
ENDROOT
BRANCH   1   7
ATOM      7  C1' I4B d   1       1.991  -1.447  -0.490  0.00  0.00     0.060 C 
BRANCH   7   8
ATOM      8  C2' I4B d   1       0.953  -1.575  -1.587  0.00  0.00    -0.013 C 
ATOM      9  C4' I4B d   1      -0.119  -2.565  -1.210  0.00  0.00     0.013 C 
ATOM     10  C3' I4B d   1       0.371  -0.216  -1.835  0.00  0.00     0.013 C 
ENDBRANCH   7   8
ENDBRANCH   1   7
TORSDOF 2
ENDMDL
