MODEL 1
REMARK minimizedAffinity 4.35939789
REMARK minimizedRMSD -1
REMARK  2 active torsions:
REMARK  status: ('A' for Active; 'I' for Inactive)
REMARK    1  A    between atoms: C2'_3  and  C1'_4 
REMARK    2  A    between atoms: C1'_4  and  C1_5 
ROOT
ATOM      1  C1  I4B d   1      -4.316   4.984  -3.430  0.00  0.00    -0.075 A 
ATOM      2  C2  I4B d   1      -3.392   5.573  -4.257  0.00  0.00     0.003 A 
ATOM      3  C3  I4B d   1      -3.766   5.999  -5.554  0.00  0.00     0.002 A 
ATOM      4  C4  I4B d   1      -5.052   5.772  -6.000  0.00  0.00    -0.004 A 
ATOM      5  C5  I4B d   1      -5.993   5.195  -5.152  0.00  0.00     0.002 A 
ATOM      6  C6  I4B d   1      -5.626   4.810  -3.855  0.00  0.00     0.003 A 
ENDROOT
BRANCH   1   7
ATOM      7  C1' I4B d   1      -3.878   4.516  -2.078  0.00  0.00     0.060 C 
BRANCH   7   8
ATOM      8  C2' I4B d   1      -2.923   3.356  -2.272  0.00  0.00    -0.013 C 
ATOM      9  C4' I4B d   1      -2.423   2.835  -0.951  0.00  0.00     0.013 C 
ATOM     10  C3' I4B d   1      -3.644   2.287  -3.038  0.00  0.00     0.013 C 
ENDBRANCH   7   8
ENDBRANCH   1   7
TORSDOF 2
ENDMDL
