MODEL 1
REMARK minimizedAffinity 10.2823706
REMARK minimizedRMSD -1
REMARK  2 active torsions:
REMARK  status: ('A' for Active; 'I' for Inactive)
REMARK    1  A    between atoms: C2'_3  and  C1'_4 
REMARK    2  A    between atoms: C1'_4  and  C1_5 
ROOT
ATOM      1  C1  I4B d   1      -0.841   2.854   0.810  0.00  0.00    -0.075 A 
ATOM      2  C2  I4B d   1      -0.365   4.099   0.484  0.00  0.00     0.003 A 
ATOM      3  C3  I4B d   1      -0.486   4.583  -0.842  0.00  0.00     0.002 A 
ATOM      4  C4  I4B d   1      -1.039   3.775  -1.813  0.00  0.00    -0.004 A 
ATOM      5  C5  I4B d   1      -1.542   2.521  -1.475  0.00  0.00     0.002 A 
ATOM      6  C6  I4B d   1      -1.453   2.062  -0.153  0.00  0.00     0.003 A 
ENDROOT
BRANCH   1   7
ATOM      7  C1' I4B d   1      -0.667   2.360   2.212  0.00  0.00     0.060 C 
BRANCH   7   8
ATOM      8  C2' I4B d   1       0.799   2.036   2.414  0.00  0.00    -0.013 C 
ATOM      9  C4' I4B d   1       1.335   1.202   1.281  0.00  0.00     0.013 C 
ATOM     10  C3' I4B d   1       1.547   3.331   2.534  0.00  0.00     0.013 C 
ENDBRANCH   7   8
ENDBRANCH   1   7
TORSDOF 2
ENDMDL
