MODEL 1
REMARK minimizedAffinity 5.44782829
REMARK minimizedRMSD -1
REMARK  2 active torsions:
REMARK  status: ('A' for Active; 'I' for Inactive)
REMARK    1  A    between atoms: C2'_3  and  C1'_4 
REMARK    2  A    between atoms: C1'_4  and  C1_5 
ROOT
ATOM      1  C1  I4B d   1       0.017   0.303   3.795  0.00  0.00    -0.075 A 
ATOM      2  C2  I4B d   1      -0.793   1.336   3.396  0.00  0.00     0.003 A 
ATOM      3  C3  I4B d   1      -0.721   1.826   2.069  0.00  0.00     0.002 A 
ATOM      4  C4  I4B d   1       0.203   1.291   1.196  0.00  0.00    -0.004 A 
ATOM      5  C5  I4B d   1       1.008   0.228   1.596  0.00  0.00     0.002 A 
ATOM      6  C6  I4B d   1       0.906  -0.278   2.900  0.00  0.00     0.003 A 
ENDROOT
BRANCH   1   7
ATOM      7  C1' I4B d   1      -0.061  -0.168   5.213  0.00  0.00     0.060 C 
BRANCH   7   8
ATOM      8  C2' I4B d   1      -0.142  -1.681   5.199  0.00  0.00    -0.013 C 
ATOM      9  C4' I4B d   1       0.977  -2.294   5.999  0.00  0.00     0.013 C 
ATOM     10  C3' I4B d   1      -1.480  -2.078   5.746  0.00  0.00     0.013 C 
ENDBRANCH   7   8
ENDBRANCH   1   7
TORSDOF 2
ENDMDL
