MODEL 1
REMARK minimizedAffinity 3.79752088
REMARK minimizedRMSD -1
REMARK  2 active torsions:
REMARK  status: ('A' for Active; 'I' for Inactive)
REMARK    1  A    between atoms: C2'_3  and  C1'_4 
REMARK    2  A    between atoms: C1'_4  and  C1_5 
ROOT
ATOM      1  C1  I4B d   1       3.976  -4.344  -1.158  0.00  0.00    -0.075 A 
ATOM      2  C2  I4B d   1       2.901  -5.128  -1.495  0.00  0.00     0.003 A 
ATOM      3  C3  I4B d   1       2.971  -5.989  -2.617  0.00  0.00     0.002 A 
ATOM      4  C4  I4B d   1       4.108  -5.997  -3.398  0.00  0.00    -0.004 A 
ATOM      5  C5  I4B d   1       5.206  -5.218  -3.042  0.00  0.00     0.002 A 
ATOM      6  C6  I4B d   1       5.144  -4.395  -1.908  0.00  0.00     0.003 A 
ENDROOT
BRANCH   1   7
ATOM      7  C1' I4B d   1       3.856  -3.422   0.014  0.00  0.00     0.060 C 
BRANCH   7   8
ATOM      8  C2' I4B d   1       4.411  -2.073  -0.395  0.00  0.00    -0.013 C 
ATOM      9  C4' I4B d   1       3.735  -0.955   0.355  0.00  0.00     0.013 C 
ATOM     10  C3' I4B d   1       5.888  -2.082  -0.138  0.00  0.00     0.013 C 
ENDBRANCH   7   8
ENDBRANCH   1   7
TORSDOF 2
ENDMDL
