MODEL 1
REMARK minimizedAffinity 1.62559414
REMARK minimizedRMSD -1
REMARK  1 active torsions:
REMARK  status: ('A' for Active; 'I' for Inactive)
REMARK    1  A    between atoms: C1_2  and  C2_3 
ROOT
ATOM      1  C2  UNL d   1       3.180   0.387   1.363  0.00  0.00    -0.077 A 
ATOM      2  C3  UNL d   1       2.299   0.928   0.417  0.00  0.00     0.002 A 
ATOM      3  C4  UNL d   1       1.271   1.785   0.817  0.00  0.00     0.002 A 
ATOM      4  C5  UNL d   1       1.117   2.110   2.163  0.00  0.00    -0.004 A 
ATOM      5  C6  UNL d   1       1.987   1.575   3.112  0.00  0.00     0.002 A 
ATOM      6  C7  UNL d   1       3.014   0.718   2.714  0.00  0.00     0.002 A 
ENDROOT
BRANCH   1   7
ATOM      7  C1  UNL d   1       4.319  -0.497   0.927  0.00  0.00     0.055 C 
ATOM      8  C   UNL d   1       4.565  -1.616   1.929  0.00  0.00     0.019 C 
ENDBRANCH   1   7
TORSDOF 1
ENDMDL
