MODEL 1
REMARK minimizedAffinity 8.37395573
REMARK minimizedRMSD -1
REMARK  1 active torsions:
REMARK  status: ('A' for Active; 'I' for Inactive)
REMARK    1  A    between atoms: C1_2  and  C2_3 
ROOT
ATOM      1  C2  UNL d   1      -3.839   1.963  -3.596  0.00  0.00    -0.077 A 
ATOM      2  C3  UNL d   1      -3.432   0.845  -4.337  0.00  0.00     0.002 A 
ATOM      3  C4  UNL d   1      -2.629  -0.136  -3.752  0.00  0.00     0.002 A 
ATOM      4  C5  UNL d   1      -2.230  -0.011  -2.423  0.00  0.00    -0.004 A 
ATOM      5  C6  UNL d   1      -2.628   1.098  -1.678  0.00  0.00     0.002 A 
ATOM      6  C7  UNL d   1      -3.430   2.080  -2.261  0.00  0.00     0.002 A 
ENDROOT
BRANCH   1   7
ATOM      7  C1  UNL d   1      -4.745   2.998  -4.210  0.00  0.00     0.055 C 
ATOM      8  C   UNL d   1      -6.000   3.202  -3.373  0.00  0.00     0.019 C 
ENDBRANCH   1   7
TORSDOF 1
ENDMDL
