MODEL 1
REMARK minimizedAffinity 1.00497234
REMARK minimizedRMSD -1
REMARK  1 active torsions:
REMARK  status: ('A' for Active; 'I' for Inactive)
REMARK    1  A    between atoms: C1_2  and  C2_3 
ROOT
ATOM      1  C2  UNL d   1       2.258  -2.273   3.119  0.00  0.00    -0.077 A 
ATOM      2  C3  UNL d   1       3.113  -2.013   4.199  0.00  0.00     0.002 A 
ATOM      3  C4  UNL d   1       3.697  -3.065   4.907  0.00  0.00     0.002 A 
ATOM      4  C5  UNL d   1       3.435  -4.384   4.541  0.00  0.00    -0.004 A 
ATOM      5  C6  UNL d   1       2.584  -4.653   3.469  0.00  0.00     0.002 A 
ATOM      6  C7  UNL d   1       1.999  -3.603   2.761  0.00  0.00     0.002 A 
ENDROOT
BRANCH   1   7
ATOM      7  C1  UNL d   1       1.666  -1.139   2.323  0.00  0.00     0.055 C 
ATOM      8  C   UNL d   1       2.713  -0.082   2.004  0.00  0.00     0.019 C 
ENDBRANCH   1   7
TORSDOF 1
ENDMDL
