MODEL 1
REMARK minimizedAffinity 0.617245615
REMARK minimizedRMSD -1
REMARK  1 active torsions:
REMARK  status: ('A' for Active; 'I' for Inactive)
REMARK    1  A    between atoms: C1_2  and  C2_3 
ROOT
ATOM      1  C2  UNL d   1       0.248  -5.935   0.420  0.00  0.00    -0.077 A 
ATOM      2  C3  UNL d   1       0.389  -5.991  -0.974  0.00  0.00     0.002 A 
ATOM      3  C4  UNL d   1       1.658  -5.993  -1.557  0.00  0.00     0.002 A 
ATOM      4  C5  UNL d   1       2.795  -5.944  -0.754  0.00  0.00    -0.004 A 
ATOM      5  C6  UNL d   1       2.666  -5.886   0.634  0.00  0.00     0.002 A 
ATOM      6  C7  UNL d   1       1.398  -5.882   1.218  0.00  0.00     0.002 A 
ENDROOT
BRANCH   1   7
ATOM      7  C1  UNL d   1      -1.118  -5.982   1.052  0.00  0.00     0.055 C 
ATOM      8  C   UNL d   1      -2.216  -5.998  -0.002  0.00  0.00     0.019 C 
ENDBRANCH   1   7
TORSDOF 1
ENDMDL
