MODEL 1
REMARK minimizedAffinity 7.71493721
REMARK minimizedRMSD -1
REMARK  1 active torsions:
REMARK  status: ('A' for Active; 'I' for Inactive)
REMARK    1  A    between atoms: C1_2  and  C2_3 
ROOT
ATOM      1  C2  UNL d   1       1.467  -3.722   1.170  0.00  0.00    -0.077 A 
ATOM      2  C3  UNL d   1       1.895  -2.720   0.287  0.00  0.00     0.002 A 
ATOM      3  C4  UNL d   1       1.604  -1.379   0.545  0.00  0.00     0.002 A 
ATOM      4  C5  UNL d   1       0.888  -1.028   1.688  0.00  0.00    -0.004 A 
ATOM      5  C6  UNL d   1       0.457  -2.016   2.571  0.00  0.00     0.002 A 
ATOM      6  C7  UNL d   1       0.746  -3.357   2.314  0.00  0.00     0.002 A 
ENDROOT
BRANCH   1   7
ATOM      7  C1  UNL d   1       1.822  -5.164   0.918  0.00  0.00     0.055 C 
ATOM      8  C   UNL d   1       1.292  -5.638  -0.427  0.00  0.00     0.019 C 
ENDBRANCH   1   7
TORSDOF 1
ENDMDL
