MODEL 1
REMARK minimizedAffinity 10.6229677
REMARK minimizedRMSD -1
REMARK  1 active torsions:
REMARK  status: ('A' for Active; 'I' for Inactive)
REMARK    1  A    between atoms: C1_2  and  C2_3 
ROOT
ATOM      1  C2  UNL d   1      -3.488   1.330  -3.368  0.00  0.00    -0.077 A 
ATOM      2  C3  UNL d   1      -3.133   2.233  -2.355  0.00  0.00     0.002 A 
ATOM      3  C4  UNL d   1      -2.424   1.795  -1.235  0.00  0.00     0.002 A 
ATOM      4  C5  UNL d   1      -2.059   0.455  -1.120  0.00  0.00    -0.004 A 
ATOM      5  C6  UNL d   1      -2.409  -0.451  -2.120  0.00  0.00     0.002 A 
ATOM      6  C7  UNL d   1      -3.119  -0.015  -3.240  0.00  0.00     0.002 A 
ENDROOT
BRANCH   1   7
ATOM      7  C1  UNL d   1      -4.210   1.810  -4.600  0.00  0.00     0.055 C 
ATOM      8  C   UNL d   1      -4.293   0.716  -5.654  0.00  0.00     0.019 C 
ENDBRANCH   1   7
TORSDOF 1
ENDMDL
