MODEL 1
REMARK minimizedAffinity 3.36331391
REMARK minimizedRMSD -1
REMARK  1 active torsions:
REMARK  status: ('A' for Active; 'I' for Inactive)
REMARK    1  A    between atoms: C1_2  and  C2_3 
ROOT
ATOM      1  C2  UNL d   1      -3.799   2.412  -0.606  0.00  0.00    -0.077 A 
ATOM      2  C3  UNL d   1      -5.177   2.365  -0.353  0.00  0.00     0.002 A 
ATOM      3  C4  UNL d   1      -5.682   2.772   0.883  0.00  0.00     0.002 A 
ATOM      4  C5  UNL d   1      -4.818   3.233   1.874  0.00  0.00    -0.004 A 
ATOM      5  C6  UNL d   1      -3.446   3.282   1.633  0.00  0.00     0.002 A 
ATOM      6  C7  UNL d   1      -2.938   2.874   0.399  0.00  0.00     0.002 A 
ENDROOT
BRANCH   1   7
ATOM      7  C1  UNL d   1      -3.256   2.021  -1.955  0.00  0.00     0.055 C 
ATOM      8  C   UNL d   1      -4.152   2.522  -3.079  0.00  0.00     0.019 C 
ENDBRANCH   1   7
TORSDOF 1
ENDMDL
