MODEL 1
REMARK minimizedAffinity 3.58405256
REMARK minimizedRMSD -1
REMARK  1 active torsions:
REMARK  status: ('A' for Active; 'I' for Inactive)
REMARK    1  A    between atoms: C1_2  and  C2_3 
ROOT
ATOM      1  C2  UNL d   1       1.875  -1.855   4.258  0.00  0.00    -0.077 A 
ATOM      2  C3  UNL d   1       3.130  -2.377   3.917  0.00  0.00     0.002 A 
ATOM      3  C4  UNL d   1       3.669  -2.148   2.650  0.00  0.00     0.002 A 
ATOM      4  C5  UNL d   1       2.962  -1.394   1.715  0.00  0.00    -0.004 A 
ATOM      5  C6  UNL d   1       1.712  -0.873   2.045  0.00  0.00     0.002 A 
ATOM      6  C7  UNL d   1       1.171  -1.101   3.311  0.00  0.00     0.002 A 
ENDROOT
BRANCH   1   7
ATOM      7  C1  UNL d   1       1.313  -2.059   5.641  0.00  0.00     0.055 C 
ATOM      8  C   UNL d   1       1.241  -3.537   5.997  0.00  0.00     0.019 C 
ENDBRANCH   1   7
TORSDOF 1
ENDMDL
