MODEL 1
REMARK minimizedAffinity -0.299468428
REMARK minimizedRMSD -1
REMARK  1 active torsions:
REMARK  status: ('A' for Active; 'I' for Inactive)
REMARK    1  A    between atoms: C1_2  and  C2_3 
ROOT
ATOM      1  C2  UNL d   1       1.439  -1.748   2.813  0.00  0.00    -0.077 A 
ATOM      2  C3  UNL d   1       1.259  -1.748   4.203  0.00  0.00     0.002 A 
ATOM      3  C4  UNL d   1       1.610  -2.866   4.961  0.00  0.00     0.002 A 
ATOM      4  C5  UNL d   1       2.146  -3.992   4.338  0.00  0.00    -0.004 A 
ATOM      5  C6  UNL d   1       2.327  -4.003   2.956  0.00  0.00     0.002 A 
ATOM      6  C7  UNL d   1       1.975  -2.886   2.196  0.00  0.00     0.002 A 
ENDROOT
BRANCH   1   7
ATOM      7  C1  UNL d   1       1.107  -0.524   1.999  0.00  0.00     0.055 C 
ATOM      8  C   UNL d   1       2.306   0.405   1.883  0.00  0.00     0.019 C 
ENDBRANCH   1   7
TORSDOF 1
ENDMDL
