MODEL 1
REMARK minimizedAffinity 2.82961679
REMARK minimizedRMSD -1
REMARK  1 active torsions:
REMARK  status: ('A' for Active; 'I' for Inactive)
REMARK    1  A    between atoms: C1_2  and  C2_3 
ROOT
ATOM      1  C2  UNL d   1       1.991  -1.386   3.637  0.00  0.00    -0.077 A 
ATOM      2  C3  UNL d   1       3.289  -1.884   3.813  0.00  0.00     0.002 A 
ATOM      3  C4  UNL d   1       3.509  -3.025   4.588  0.00  0.00     0.002 A 
ATOM      4  C5  UNL d   1       2.435  -3.678   5.188  0.00  0.00    -0.004 A 
ATOM      5  C6  UNL d   1       1.140  -3.189   5.021  0.00  0.00     0.002 A 
ATOM      6  C7  UNL d   1       0.919  -2.048   4.247  0.00  0.00     0.002 A 
ENDROOT
BRANCH   1   7
ATOM      7  C1  UNL d   1       1.747  -0.184   2.761  0.00  0.00     0.055 C 
ATOM      8  C   UNL d   1       0.676  -0.468   1.718  0.00  0.00     0.019 C 
ENDBRANCH   1   7
TORSDOF 1
ENDMDL
