MODEL 1
REMARK minimizedAffinity 4.53973436
REMARK minimizedRMSD -1
REMARK  1 active torsions:
REMARK  status: ('A' for Active; 'I' for Inactive)
REMARK    1  A    between atoms: C1_2  and  C2_3 
ROOT
ATOM      1  C2  UNL d   1       1.186   1.870   0.793  0.00  0.00    -0.077 A 
ATOM      2  C3  UNL d   1       2.435   1.835   1.428  0.00  0.00     0.002 A 
ATOM      3  C4  UNL d   1       2.677   2.622   2.556  0.00  0.00     0.002 A 
ATOM      4  C5  UNL d   1       1.674   3.446   3.060  0.00  0.00    -0.004 A 
ATOM      5  C6  UNL d   1       0.429   3.491   2.434  0.00  0.00     0.002 A 
ATOM      6  C7  UNL d   1       0.186   2.705   1.307  0.00  0.00     0.002 A 
ENDROOT
BRANCH   1   7
ATOM      7  C1  UNL d   1       0.908   0.986  -0.394  0.00  0.00     0.055 C 
ATOM      8  C   UNL d   1       0.147  -0.267   0.016  0.00  0.00     0.019 C 
ENDBRANCH   1   7
TORSDOF 1
ENDMDL
