MODEL 1
REMARK minimizedAffinity 1.02816796
REMARK minimizedRMSD -1
REMARK  0 active torsions:
REMARK  status: ('A' for Active; 'I' for Inactive)
ROOT
ATOM      1  O1  BZF d   1      -0.958   1.988   1.007  0.00  0.00    -0.204 OA
ATOM      2  C2  BZF d   1      -1.565   1.335   2.063  0.00  0.00     0.174 A 
ATOM      3  C3  BZF d   1      -1.294   0.015   2.029  0.00  0.00    -0.012 A 
ATOM      4  C3A BZF d   1      -0.389  -0.155   0.934  0.00  0.00    -0.107 A 
ATOM      5  C4  BZF d   1       0.252  -1.239   0.405  0.00  0.00     0.055 A 
ATOM      6  C5  BZF d   1       1.010  -1.079  -0.711  0.00  0.00    -0.016 A 
ATOM      7  C6  BZF d   1       1.143   0.148  -1.328  0.00  0.00     0.022 A 
ATOM      8  C7  BZF d   1       0.531   1.253  -0.838  0.00  0.00     0.029 A 
ATOM      9  C7A BZF d   1      -0.209   1.100   0.309  0.00  0.00     0.058 A 
ENDROOT
TORSDOF 0
ENDMDL
