MODEL 1
REMARK minimizedAffinity -4.44669151
REMARK minimizedRMSD -1
REMARK  0 active torsions:
REMARK  status: ('A' for Active; 'I' for Inactive)
ROOT
ATOM      1  O1  BZF d   1      -1.080   0.054   1.832  0.00  0.00    -0.204 OA
ATOM      2  C2  BZF d   1      -1.881   1.136   2.145  0.00  0.00     0.174 A 
ATOM      3  C3  BZF d   1      -1.650   2.162   1.302  0.00  0.00    -0.012 A 
ATOM      4  C3A BZF d   1      -0.709   1.661   0.347  0.00  0.00    -0.107 A 
ATOM      5  C4  BZF d   1      -0.105   2.204  -0.750  0.00  0.00     0.055 A 
ATOM      6  C5  BZF d   1       0.821   1.472  -1.425  0.00  0.00    -0.016 A 
ATOM      7  C6  BZF d   1       1.169   0.198  -1.027  0.00  0.00     0.022 A 
ATOM      8  C7  BZF d   1       0.593  -0.385   0.052  0.00  0.00     0.029 A 
ATOM      9  C7A BZF d   1      -0.366   0.339   0.717  0.00  0.00     0.058 A 
ENDROOT
TORSDOF 0
ENDMDL
