MODEL 1
REMARK minimizedAffinity -2.49267483
REMARK minimizedRMSD -1
REMARK  0 active torsions:
REMARK  status: ('A' for Active; 'I' for Inactive)
ROOT
ATOM      1  O1  BZF d   1      -2.524   0.430   0.010  0.00  0.00    -0.204 OA
ATOM      2  C2  BZF d   1      -3.091   1.240  -0.955  0.00  0.00     0.174 A 
ATOM      3  C3  BZF d   1      -2.137   1.826  -1.708  0.00  0.00    -0.012 A 
ATOM      4  C3A BZF d   1      -0.900   1.279  -1.241  0.00  0.00    -0.107 A 
ATOM      5  C4  BZF d   1       0.403   1.459  -1.607  0.00  0.00     0.055 A 
ATOM      6  C5  BZF d   1       1.380   0.831  -0.901  0.00  0.00    -0.016 A 
ATOM      7  C6  BZF d   1       1.090   0.021   0.177  0.00  0.00     0.022 A 
ATOM      8  C7  BZF d   1      -0.188  -0.192   0.574  0.00  0.00     0.029 A 
ATOM      9  C7A BZF d   1      -1.179   0.415  -0.157  0.00  0.00     0.058 A 
ENDROOT
TORSDOF 0
ENDMDL
