MODEL 1
REMARK minimizedAffinity -1.8799659
REMARK minimizedRMSD -1
REMARK  0 active torsions:
REMARK  status: ('A' for Active; 'I' for Inactive)
ROOT
ATOM      1  O1  BZF d   1       0.441   0.690  -0.938  0.00  0.00    -0.204 OA
ATOM      2  C2  BZF d   1       0.921  -0.556  -0.583  0.00  0.00     0.174 A 
ATOM      3  C3  BZF d   1       0.453  -0.920   0.629  0.00  0.00    -0.012 A 
ATOM      4  C3A BZF d   1      -0.443   0.125   1.017  0.00  0.00    -0.107 A 
ATOM      5  C4  BZF d   1      -1.229   0.329   2.115  0.00  0.00     0.055 A 
ATOM      6  C5  BZF d   1      -1.929   1.489   2.220  0.00  0.00    -0.016 A 
ATOM      7  C6  BZF d   1      -1.863   2.467   1.249  0.00  0.00     0.022 A 
ATOM      8  C7  BZF d   1      -1.101   2.308   0.140  0.00  0.00     0.029 A 
ATOM      9  C7A BZF d   1      -0.418   1.123   0.015  0.00  0.00     0.058 A 
ENDROOT
TORSDOF 0
ENDMDL
