MODEL 1
REMARK minimizedAffinity -2.00313997
REMARK minimizedRMSD -1
REMARK  0 active torsions:
REMARK  status: ('A' for Active; 'I' for Inactive)
ROOT
ATOM      1  O1  BZF d   1      -0.931   0.155  -1.056  0.00  0.00    -0.204 OA
ATOM      2  C2  BZF d   1      -0.208   0.647   0.014  0.00  0.00     0.174 A 
ATOM      3  C3  BZF d   1       0.667  -0.274   0.465  0.00  0.00    -0.012 A 
ATOM      4  C3A BZF d   1       0.545  -1.381  -0.434  0.00  0.00    -0.107 A 
ATOM      5  C4  BZF d   1       1.165  -2.594  -0.518  0.00  0.00     0.055 A 
ATOM      6  C5  BZF d   1       0.764  -3.477  -1.470  0.00  0.00    -0.016 A 
ATOM      7  C6  BZF d   1      -0.257  -3.181  -2.350  0.00  0.00     0.022 A 
ATOM      8  C7  BZF d   1      -0.899  -1.988  -2.308  0.00  0.00     0.029 A 
ATOM      9  C7A BZF d   1      -0.473  -1.081  -1.368  0.00  0.00     0.058 A 
ENDROOT
TORSDOF 0
ENDMDL
