MODEL 1
REMARK minimizedAffinity -4.20485258
REMARK minimizedRMSD -1
REMARK  0 active torsions:
REMARK  status: ('A' for Active; 'I' for Inactive)
ROOT
ATOM      1  O1  BZF d   1      -1.886   1.381   1.976  0.00  0.00    -0.204 OA
ATOM      2  C2  BZF d   1      -2.244   2.436   1.159  0.00  0.00     0.174 A 
ATOM      3  C3  BZF d   1      -1.550   2.402   0.003  0.00  0.00    -0.012 A 
ATOM      4  C3A BZF d   1      -0.773   1.202   0.066  0.00  0.00    -0.107 A 
ATOM      5  C4  BZF d   1       0.108   0.608  -0.792  0.00  0.00     0.055 A 
ATOM      6  C5  BZF d   1       0.753  -0.522  -0.399  0.00  0.00    -0.016 A 
ATOM      7  C6  BZF d   1       0.545  -1.081   0.845  0.00  0.00     0.022 A 
ATOM      8  C7  BZF d   1      -0.323  -0.531   1.728  0.00  0.00     0.029 A 
ATOM      9  C7A BZF d   1      -1.001   0.592   1.321  0.00  0.00     0.058 A 
ENDROOT
TORSDOF 0
ENDMDL
