MODEL 1
REMARK minimizedAffinity 0.136437118
REMARK minimizedRMSD -1
REMARK  0 active torsions:
REMARK  status: ('A' for Active; 'I' for Inactive)
ROOT
ATOM      1  O1  BZF d   1      -1.211   1.708   0.226  0.00  0.00    -0.204 OA
ATOM      2  C2  BZF d   1      -0.958   2.540  -0.848  0.00  0.00     0.174 A 
ATOM      3  C3  BZF d   1       0.011   2.027  -1.633  0.00  0.00    -0.012 A 
ATOM      4  C3A BZF d   1       0.323   0.753  -1.062  0.00  0.00    -0.107 A 
ATOM      5  C4  BZF d   1       1.197  -0.240  -1.402  0.00  0.00     0.055 A 
ATOM      6  C5  BZF d   1       1.310  -1.326  -0.593  0.00  0.00    -0.016 A 
ATOM      7  C6  BZF d   1       0.570  -1.449   0.564  0.00  0.00     0.022 A 
ATOM      8  C7  BZF d   1      -0.314  -0.493   0.941  0.00  0.00     0.029 A 
ATOM      9  C7A BZF d   1      -0.455   0.590   0.108  0.00  0.00     0.058 A 
ENDROOT
TORSDOF 0
ENDMDL
