MODEL 1
REMARK minimizedAffinity -0.885630548
REMARK minimizedRMSD -1
REMARK  0 active torsions:
REMARK  status: ('A' for Active; 'I' for Inactive)
ROOT
ATOM      1  O1  BZF d   1      -0.371   1.740   1.505  0.00  0.00    -0.204 OA
ATOM      2  C2  BZF d   1      -0.917   0.907   2.463  0.00  0.00     0.174 A 
ATOM      3  C3  BZF d   1      -0.987  -0.361   2.010  0.00  0.00    -0.012 A 
ATOM      4  C3A BZF d   1      -0.366  -0.336   0.722  0.00  0.00    -0.107 A 
ATOM      5  C4  BZF d   1      -0.115  -1.294  -0.219  0.00  0.00     0.055 A 
ATOM      6  C5  BZF d   1       0.443  -0.928  -1.402  0.00  0.00    -0.016 A 
ATOM      7  C6  BZF d   1       0.758   0.386  -1.681  0.00  0.00     0.022 A 
ATOM      8  C7  BZF d   1       0.533   1.371  -0.777  0.00  0.00     0.029 A 
ATOM      9  C7A BZF d   1      -0.001   0.999   0.433  0.00  0.00     0.058 A 
ENDROOT
TORSDOF 0
ENDMDL
