MODEL 1
REMARK minimizedAffinity -3.50294781
REMARK minimizedRMSD -1
REMARK  0 active torsions:
REMARK  status: ('A' for Active; 'I' for Inactive)
ROOT
ATOM      1  O1  BZF d   1       1.074   0.410  -0.787  0.00  0.00    -0.204 OA
ATOM      2  C2  BZF d   1       1.072   1.510  -1.623  0.00  0.00     0.174 A 
ATOM      3  C3  BZF d   1       0.077   2.358  -1.294  0.00  0.00    -0.012 A 
ATOM      4  C3A BZF d   1      -0.527   1.795  -0.125  0.00  0.00    -0.107 A 
ATOM      5  C4  BZF d   1      -1.557   2.187   0.681  0.00  0.00     0.055 A 
ATOM      6  C5  BZF d   1      -1.945   1.375   1.699  0.00  0.00    -0.016 A 
ATOM      7  C6  BZF d   1      -1.328   0.164   1.937  0.00  0.00     0.022 A 
ATOM      8  C7  BZF d   1      -0.298  -0.265   1.168  0.00  0.00     0.029 A 
ATOM      9  C7A BZF d   1       0.118   0.569   0.158  0.00  0.00     0.058 A 
ENDROOT
TORSDOF 0
ENDMDL
