MODEL 1
REMARK minimizedAffinity -4.74748659
REMARK minimizedRMSD -1
REMARK  0 active torsions:
REMARK  status: ('A' for Active; 'I' for Inactive)
ROOT
ATOM      1  O1  BZF d   1      -1.487   0.392   1.906  0.00  0.00    -0.204 OA
ATOM      2  C2  BZF d   1      -2.179   1.562   2.153  0.00  0.00     0.174 A 
ATOM      3  C3  BZF d   1      -1.847   2.512   1.255  0.00  0.00    -0.012 A 
ATOM      4  C3A BZF d   1      -0.957   1.869   0.339  0.00  0.00    -0.107 A 
ATOM      5  C4  BZF d   1      -0.299   2.289  -0.782  0.00  0.00     0.055 A 
ATOM      6  C5  BZF d   1       0.553   1.434  -1.407  0.00  0.00    -0.016 A 
ATOM      7  C6  BZF d   1       0.775   0.156  -0.937  0.00  0.00     0.022 A 
ATOM      8  C7  BZF d   1       0.141  -0.307   0.168  0.00  0.00     0.029 A 
ATOM      9  C7A BZF d   1      -0.745   0.543   0.783  0.00  0.00     0.058 A 
ENDROOT
TORSDOF 0
ENDMDL
