MODEL 1
REMARK minimizedAffinity -3.58317566
REMARK minimizedRMSD -1
REMARK  0 active torsions:
REMARK  status: ('A' for Active; 'I' for Inactive)
ROOT
ATOM      1  O1  BZF d   1      -1.756   2.762   0.475  0.00  0.00    -0.204 OA
ATOM      2  C2  BZF d   1      -2.296   2.481   1.715  0.00  0.00     0.174 A 
ATOM      3  C3  BZF d   1      -1.954   1.239   2.115  0.00  0.00    -0.012 A 
ATOM      4  C3A BZF d   1      -1.074   0.746   1.101  0.00  0.00    -0.107 A 
ATOM      5  C4  BZF d   1      -0.390  -0.425   0.939  0.00  0.00     0.055 A 
ATOM      6  C5  BZF d   1       0.325  -0.621  -0.200  0.00  0.00    -0.016 A 
ATOM      7  C6  BZF d   1       0.373   0.330  -1.199  0.00  0.00     0.022 A 
ATOM      8  C7  BZF d   1      -0.284   1.509  -1.082  0.00  0.00     0.029 A 
ATOM      9  C7A BZF d   1      -0.981   1.723   0.083  0.00  0.00     0.058 A 
ENDROOT
TORSDOF 0
ENDMDL
