MODEL 1
REMARK minimizedAffinity -4.18231344
REMARK minimizedRMSD -1
REMARK  0 active torsions:
REMARK  status: ('A' for Active; 'I' for Inactive)
ROOT
ATOM      1  O1  BZF d   1       0.696   1.811  -1.246  0.00  0.00    -0.204 OA
ATOM      2  C2  BZF d   1       1.623   0.829  -1.538  0.00  0.00     0.174 A 
ATOM      3  C3  BZF d   1       1.491  -0.219  -0.700  0.00  0.00    -0.012 A 
ATOM      4  C3A BZF d   1       0.354   0.090   0.112  0.00  0.00    -0.107 A 
ATOM      5  C4  BZF d   1      -0.286  -0.571   1.121  0.00  0.00     0.055 A 
ATOM      6  C5  BZF d   1      -1.322   0.037   1.756  0.00  0.00    -0.016 A 
ATOM      7  C6  BZF d   1      -1.740   1.306   1.413  0.00  0.00     0.022 A 
ATOM      8  C7  BZF d   1      -1.139   1.999   0.415  0.00  0.00     0.029 A 
ATOM      9  C7A BZF d   1      -0.113   1.374  -0.251  0.00  0.00     0.058 A 
ENDROOT
TORSDOF 0
ENDMDL
