MODEL 1
REMARK minimizedAffinity -2.05199862
REMARK minimizedRMSD -1
REMARK  0 active torsions:
REMARK  status: ('A' for Active; 'I' for Inactive)
ROOT
ATOM      1  O1  BZF d   1      -1.764   1.177   2.202  0.00  0.00    -0.204 OA
ATOM      2  C2  BZF d   1      -2.434   1.830   1.185  0.00  0.00     0.174 A 
ATOM      3  C3  BZF d   1      -1.855   1.581  -0.007  0.00  0.00    -0.012 A 
ATOM      4  C3A BZF d   1      -0.811   0.643   0.271  0.00  0.00    -0.107 A 
ATOM      5  C4  BZF d   1       0.109   0.003  -0.510  0.00  0.00     0.055 A 
ATOM      6  C5  BZF d   1       1.037  -0.794   0.081  0.00  0.00    -0.016 A 
ATOM      7  C6  BZF d   1       1.078  -0.970   1.449  0.00  0.00     0.022 A 
ATOM      8  C7  BZF d   1       0.184  -0.360   2.264  0.00  0.00     0.029 A 
ATOM      9  C7A BZF d   1      -0.776   0.420   1.667  0.00  0.00     0.058 A 
ENDROOT
TORSDOF 0
ENDMDL
