MODEL 1
REMARK minimizedAffinity -2.90207696
REMARK minimizedRMSD -1
REMARK  0 active torsions:
REMARK  status: ('A' for Active; 'I' for Inactive)
ROOT
ATOM      1  O1  BZF d   1      -1.371   2.329  -1.622  0.00  0.00    -0.204 OA
ATOM      2  C2  BZF d   1      -2.590   2.384  -0.975  0.00  0.00     0.174 A 
ATOM      3  C3  BZF d   1      -2.634   1.495   0.038  0.00  0.00    -0.012 A 
ATOM      4  C3A BZF d   1      -1.329   0.909   0.081  0.00  0.00    -0.107 A 
ATOM      5  C4  BZF d   1      -0.748  -0.032   0.883  0.00  0.00     0.055 A 
ATOM      6  C5  BZF d   1       0.521  -0.435   0.615  0.00  0.00    -0.016 A 
ATOM      7  C6  BZF d   1       1.236   0.076  -0.448  0.00  0.00     0.022 A 
ATOM      8  C7  BZF d   1       0.704   1.014  -1.269  0.00  0.00     0.029 A 
ATOM      9  C7A BZF d   1      -0.567   1.448  -0.980  0.00  0.00     0.058 A 
ENDROOT
TORSDOF 0
ENDMDL
