MODEL 1
REMARK minimizedAffinity -2.98042035
REMARK minimizedRMSD -1
REMARK  0 active torsions:
REMARK  status: ('A' for Active; 'I' for Inactive)
ROOT
ATOM      1  O1  BZF d   1      -0.717  -0.006  -1.394  0.00  0.00    -0.204 OA
ATOM      2  C2  BZF d   1       0.355  -0.875  -1.354  0.00  0.00     0.174 A 
ATOM      3  C3  BZF d   1       0.873  -0.940  -0.110  0.00  0.00    -0.012 A 
ATOM      4  C3A BZF d   1       0.016  -0.126   0.696  0.00  0.00    -0.107 A 
ATOM      5  C4  BZF d   1       0.001   0.194   2.024  0.00  0.00     0.055 A 
ATOM      6  C5  BZF d   1      -0.928   1.074   2.481  0.00  0.00    -0.016 A 
ATOM      7  C6  BZF d   1      -1.852   1.657   1.639  0.00  0.00     0.022 A 
ATOM      8  C7  BZF d   1      -1.880   1.367   0.316  0.00  0.00     0.029 A 
ATOM      9  C7A BZF d   1      -0.964   0.453  -0.143  0.00  0.00     0.058 A 
ENDROOT
TORSDOF 0
ENDMDL
