MODEL 1
REMARK minimizedAffinity -5.73263264
REMARK minimizedRMSD -1
REMARK  0 active torsions:
REMARK  status: ('A' for Active; 'I' for Inactive)
ROOT
ATOM      1  O1  BZF d   1       0.518   0.132  -0.889  0.00  0.00    -0.204 OA
ATOM      2  C2  BZF d   1       1.037  -0.987  -0.267  0.00  0.00     0.174 A 
ATOM      3  C3  BZF d   1       0.523  -1.127   0.971  0.00  0.00    -0.012 A 
ATOM      4  C3A BZF d   1      -0.444  -0.080   1.099  0.00  0.00    -0.107 A 
ATOM      5  C4  BZF d   1      -1.298   0.294   2.097  0.00  0.00     0.055 A 
ATOM      6  C5  BZF d   1      -2.059   1.408   1.933  0.00  0.00    -0.016 A 
ATOM      7  C6  BZF d   1      -1.987   2.174   0.788  0.00  0.00     0.022 A 
ATOM      8  C7  BZF d   1      -1.159   1.840  -0.232  0.00  0.00     0.029 A 
ATOM      9  C7A BZF d   1      -0.413   0.697  -0.083  0.00  0.00     0.058 A 
ENDROOT
TORSDOF 0
ENDMDL
