MODEL 1
REMARK minimizedAffinity -4.42653608
REMARK minimizedRMSD -1
REMARK  0 active torsions:
REMARK  status: ('A' for Active; 'I' for Inactive)
ROOT
ATOM      1  O1  BZF d   1       0.445  -0.857  -0.083  0.00  0.00    -0.204 OA
ATOM      2  C2  BZF d   1       0.888  -0.015  -1.085  0.00  0.00     0.174 A 
ATOM      3  C3  BZF d   1       0.293   1.192  -0.993  0.00  0.00    -0.012 A 
ATOM      4  C3A BZF d   1      -0.507   1.128   0.191  0.00  0.00    -0.107 A 
ATOM      5  C4  BZF d   1      -1.323   2.023   0.822  0.00  0.00     0.055 A 
ATOM      6  C5  BZF d   1      -2.019   1.624   1.919  0.00  0.00    -0.016 A 
ATOM      7  C6  BZF d   1      -1.926   0.337   2.409  0.00  0.00     0.022 A 
ATOM      8  C7  BZF d   1      -1.125  -0.584   1.820  0.00  0.00     0.029 A 
ATOM      9  C7A BZF d   1      -0.396  -0.174   0.730  0.00  0.00     0.058 A 
ENDROOT
TORSDOF 0
ENDMDL
