MODEL 1
REMARK minimizedAffinity -2.09332108
REMARK minimizedRMSD -1
REMARK  0 active torsions:
REMARK  status: ('A' for Active; 'I' for Inactive)
ROOT
ATOM      1  C1  BNZ d   1      -1.801   2.254  -3.046  0.00  0.00     0.000 A 
ATOM      2  C2  BNZ d   1      -1.050   2.849  -2.068  0.00  0.00     0.000 A 
ATOM      3  C3  BNZ d   1      -0.408   2.098  -1.124  0.00  0.00     0.000 A 
ATOM      4  C4  BNZ d   1      -0.551   0.757  -1.135  0.00  0.00     0.000 A 
ATOM      5  C5  BNZ d   1      -1.313   0.143  -2.109  0.00  0.00     0.000 A 
ATOM      6  C6  BNZ d   1      -1.925   0.899  -3.081  0.00  0.00     0.000 A 
ENDROOT
TORSDOF 0
ENDMDL
