MODEL 1
REMARK minimizedAffinity -2.2939055
REMARK minimizedRMSD -1
REMARK  0 active torsions:
REMARK  status: ('A' for Active; 'I' for Inactive)
ROOT
ATOM      1  C1  BNZ d   1       0.117   0.117   0.272  0.00  0.00     0.000 A 
ATOM      2  C2  BNZ d   1       0.785  -0.733   1.112  0.00  0.00     0.000 A 
ATOM      3  C3  BNZ d   1       1.856  -1.457   0.668  0.00  0.00     0.000 A 
ATOM      4  C4  BNZ d   1       2.231  -1.361  -0.624  0.00  0.00     0.000 A 
ATOM      5  C5  BNZ d   1       1.561  -0.516  -1.486  0.00  0.00     0.000 A 
ATOM      6  C6  BNZ d   1       0.508   0.241  -1.026  0.00  0.00     0.000 A 
ENDROOT
TORSDOF 0
ENDMDL
