MODEL 1
REMARK minimizedAffinity 0.490879714
REMARK minimizedRMSD -1
REMARK  0 active torsions:
REMARK  status: ('A' for Active; 'I' for Inactive)
ROOT
ATOM      1  C1  BNZ d   1      -0.732   1.249  -1.198  0.00  0.00     0.000 A 
ATOM      2  C2  BNZ d   1       0.633   1.368  -1.210  0.00  0.00     0.000 A 
ATOM      3  C3  BNZ d   1       1.373   1.051  -0.106  0.00  0.00     0.000 A 
ATOM      4  C4  BNZ d   1       0.746   0.653   1.021  0.00  0.00     0.000 A 
ATOM      5  C5  BNZ d   1      -0.629   0.537   1.051  0.00  0.00     0.000 A 
ATOM      6  C6  BNZ d   1      -1.368   0.820  -0.074  0.00  0.00     0.000 A 
ENDROOT
TORSDOF 0
ENDMDL
