MODEL 1
REMARK minimizedAffinity -0.399177074
REMARK minimizedRMSD -1
REMARK  0 active torsions:
REMARK  status: ('A' for Active; 'I' for Inactive)
ROOT
ATOM      1  C1  BNZ d   1       0.788  -1.610   1.855  0.00  0.00     0.000 A 
ATOM      2  C2  BNZ d   1       0.154  -1.987   3.009  0.00  0.00     0.000 A 
ATOM      3  C3  BNZ d   1      -1.131  -1.595   3.261  0.00  0.00     0.000 A 
ATOM      4  C4  BNZ d   1      -1.765  -0.793   2.381  0.00  0.00     0.000 A 
ATOM      5  C5  BNZ d   1      -1.135  -0.397   1.218  0.00  0.00     0.000 A 
ATOM      6  C6  BNZ d   1       0.144  -0.826   0.948  0.00  0.00     0.000 A 
ENDROOT
TORSDOF 0
ENDMDL
