MODEL 1
REMARK minimizedAffinity -4.67048168
REMARK minimizedRMSD -1
REMARK  0 active torsions:
REMARK  status: ('A' for Active; 'I' for Inactive)
ROOT
ATOM      1  C1  BNZ d   1       0.235  -1.380  -0.190  0.00  0.00     0.000 A 
ATOM      2  C2  BNZ d   1       0.188  -0.172  -0.832  0.00  0.00     0.000 A 
ATOM      3  C3  BNZ d   1      -0.428   0.904  -0.257  0.00  0.00     0.000 A 
ATOM      4  C4  BNZ d   1      -1.032   0.759   0.941  0.00  0.00     0.000 A 
ATOM      5  C5  BNZ d   1      -1.002  -0.455   1.597  0.00  0.00     0.000 A 
ATOM      6  C6  BNZ d   1      -0.346  -1.525   1.032  0.00  0.00     0.000 A 
ENDROOT
TORSDOF 0
ENDMDL
