MODEL 1
REMARK minimizedAffinity 0.559597433
REMARK minimizedRMSD -1
REMARK  0 active torsions:
REMARK  status: ('A' for Active; 'I' for Inactive)
ROOT
ATOM      1  C1  BNZ d   1      -3.752   1.161   1.233  0.00  0.00     0.000 A 
ATOM      2  C2  BNZ d   1      -4.414   1.075   0.038  0.00  0.00     0.000 A 
ATOM      3  C3  BNZ d   1      -3.753   0.717  -1.104  0.00  0.00     0.000 A 
ATOM      4  C4  BNZ d   1      -2.426   0.484  -1.057  0.00  0.00     0.000 A 
ATOM      5  C5  BNZ d   1      -1.742   0.576   0.140  0.00  0.00     0.000 A 
ATOM      6  C6  BNZ d   1      -2.418   0.899   1.294  0.00  0.00     0.000 A 
ENDROOT
TORSDOF 0
ENDMDL
