MODEL 1
REMARK minimizedAffinity 4.24160767
REMARK minimizedRMSD -1
REMARK  0 active torsions:
REMARK  status: ('A' for Active; 'I' for Inactive)
ROOT
ATOM      1  C1  BNZ d   1       0.790  -1.892   3.288  0.00  0.00     0.000 A 
ATOM      2  C2  BNZ d   1      -0.451  -1.686   3.830  0.00  0.00     0.000 A 
ATOM      3  C3  BNZ d   1      -1.551  -1.552   3.029  0.00  0.00     0.000 A 
ATOM      4  C4  BNZ d   1      -1.404  -1.584   1.689  0.00  0.00     0.000 A 
ATOM      5  C5  BNZ d   1      -0.158  -1.782   1.127  0.00  0.00     0.000 A 
ATOM      6  C6  BNZ d   1       0.941  -1.955   1.937  0.00  0.00     0.000 A 
ENDROOT
TORSDOF 0
ENDMDL
