MODEL 1
REMARK minimizedAffinity 3.52459812
REMARK minimizedRMSD -1
REMARK  0 active torsions:
REMARK  status: ('A' for Active; 'I' for Inactive)
ROOT
ATOM      1  C1  BNZ d   1       2.749  -0.967   0.648  0.00  0.00     0.000 A 
ATOM      2  C2  BNZ d   1       1.877  -1.657   1.447  0.00  0.00     0.000 A 
ATOM      3  C3  BNZ d   1       1.315  -2.829   1.022  0.00  0.00     0.000 A 
ATOM      4  C4  BNZ d   1       1.594  -3.288  -0.215  0.00  0.00     0.000 A 
ATOM      5  C5  BNZ d   1       2.464  -2.598  -1.036  0.00  0.00     0.000 A 
ATOM      6  C6  BNZ d   1       3.058  -1.440  -0.590  0.00  0.00     0.000 A 
ENDROOT
TORSDOF 0
ENDMDL
