MODEL 1
REMARK minimizedAffinity -2.87245893
REMARK minimizedRMSD -1
REMARK  0 active torsions:
REMARK  status: ('A' for Active; 'I' for Inactive)
ROOT
ATOM      1  C1  BNZ d   1       1.381  -2.418   0.691  0.00  0.00     0.000 A 
ATOM      2  C2  BNZ d   1       1.928  -2.690  -0.535  0.00  0.00     0.000 A 
ATOM      3  C3  BNZ d   1       2.431  -1.686  -1.315  0.00  0.00     0.000 A 
ATOM      4  C4  BNZ d   1       2.349  -0.410  -0.886  0.00  0.00     0.000 A 
ATOM      5  C5  BNZ d   1       1.792  -0.119   0.343  0.00  0.00     0.000 A 
ATOM      6  C6  BNZ d   1       1.322  -1.136   1.142  0.00  0.00     0.000 A 
ENDROOT
TORSDOF 0
ENDMDL
