MODEL 1
REMARK minimizedAffinity -1.96468472
REMARK minimizedRMSD -1
REMARK  0 active torsions:
REMARK  status: ('A' for Active; 'I' for Inactive)
ROOT
ATOM      1  C1  BNZ d   1      -1.348   0.092   0.590  0.00  0.00     0.000 A 
ATOM      2  C2  BNZ d   1      -1.811   0.562  -0.610  0.00  0.00     0.000 A 
ATOM      3  C3  BNZ d   1      -2.491  -0.256  -1.467  0.00  0.00     0.000 A 
ATOM      4  C4  BNZ d   1      -2.673  -1.552  -1.143  0.00  0.00     0.000 A 
ATOM      5  C5  BNZ d   1      -2.205  -2.044   0.060  0.00  0.00     0.000 A 
ATOM      6  C6  BNZ d   1      -1.555  -1.208   0.938  0.00  0.00     0.000 A 
ENDROOT
TORSDOF 0
ENDMDL
