MODEL 1
REMARK minimizedAffinity 0.400373548
REMARK minimizedRMSD -1
REMARK  0 active torsions:
REMARK  status: ('A' for Active; 'I' for Inactive)
ROOT
ATOM      1  C1  BNZ d   1       2.183  -1.730   1.452  0.00  0.00     0.000 A 
ATOM      2  C2  BNZ d   1       2.895  -0.907   0.620  0.00  0.00     0.000 A 
ATOM      3  C3  BNZ d   1       2.969  -1.161  -0.721  0.00  0.00     0.000 A 
ATOM      4  C4  BNZ d   1       2.365  -2.258  -1.222  0.00  0.00     0.000 A 
ATOM      5  C5  BNZ d   1       1.652  -3.103  -0.395  0.00  0.00     0.000 A 
ATOM      6  C6  BNZ d   1       1.547  -2.823   0.948  0.00  0.00     0.000 A 
ENDROOT
TORSDOF 0
ENDMDL
