MODEL 1
REMARK minimizedAffinity 6.33011484
REMARK minimizedRMSD -1
REMARK  0 active torsions:
REMARK  status: ('A' for Active; 'I' for Inactive)
ROOT
ATOM      1  C1  BNZ d   1       3.036  -0.575   0.492  0.00  0.00     0.000 A 
ATOM      2  C2  BNZ d   1       2.246  -0.780   1.591  0.00  0.00     0.000 A 
ATOM      3  C3  BNZ d   1       1.394  -1.848   1.651  0.00  0.00     0.000 A 
ATOM      4  C4  BNZ d   1       1.304  -2.684   0.597  0.00  0.00     0.000 A 
ATOM      5  C5  BNZ d   1       2.088  -2.485  -0.523  0.00  0.00     0.000 A 
ATOM      6  C6  BNZ d   1       2.972  -1.432  -0.563  0.00  0.00     0.000 A 
ENDROOT
TORSDOF 0
ENDMDL
