MODEL 1
REMARK minimizedAffinity -0.119778067
REMARK minimizedRMSD -1
REMARK  0 active torsions:
REMARK  status: ('A' for Active; 'I' for Inactive)
ROOT
ATOM      1  C1  BNZ d   1       2.938  -1.717  -0.532  0.00  0.00     0.000 A 
ATOM      2  C2  BNZ d   1       3.446  -1.142  -1.667  0.00  0.00     0.000 A 
ATOM      3  C3  BNZ d   1       3.327   0.202  -1.883  0.00  0.00     0.000 A 
ATOM      4  C4  BNZ d   1       2.667   0.962  -0.986  0.00  0.00     0.000 A 
ATOM      5  C5  BNZ d   1       2.142   0.396   0.158  0.00  0.00     0.000 A 
ATOM      6  C6  BNZ d   1       2.297  -0.951   0.392  0.00  0.00     0.000 A 
ENDROOT
TORSDOF 0
ENDMDL
