MODEL 1
REMARK minimizedAffinity 2.90481019
REMARK minimizedRMSD -1
REMARK  0 active torsions:
REMARK  status: ('A' for Active; 'I' for Inactive)
ROOT
ATOM      1  C1  BNZ d   1      -1.335  -2.221   0.936  0.00  0.00     0.000 A 
ATOM      2  C2  BNZ d   1      -1.954  -2.505  -0.252  0.00  0.00     0.000 A 
ATOM      3  C3  BNZ d   1      -2.402  -1.502  -1.065  0.00  0.00     0.000 A 
ATOM      4  C4  BNZ d   1      -2.268  -0.219  -0.671  0.00  0.00     0.000 A 
ATOM      5  C5  BNZ d   1      -1.655   0.083   0.529  0.00  0.00     0.000 A 
ATOM      6  C6  BNZ d   1      -1.169  -0.928   1.326  0.00  0.00     0.000 A 
ENDROOT
TORSDOF 0
ENDMDL
