MODEL 1
REMARK minimizedAffinity -0.177829266
REMARK minimizedRMSD -1
REMARK  0 active torsions:
REMARK  status: ('A' for Active; 'I' for Inactive)
ROOT
ATOM      1  C1  BNZ d   1       1.232  -1.792   0.920  0.00  0.00     0.000 A 
ATOM      2  C2  BNZ d   1       2.203  -1.861  -0.043  0.00  0.00     0.000 A 
ATOM      3  C3  BNZ d   1       2.565  -0.751  -0.753  0.00  0.00     0.000 A 
ATOM      4  C4  BNZ d   1       1.929   0.417  -0.528  0.00  0.00     0.000 A 
ATOM      5  C5  BNZ d   1       0.941   0.501   0.433  0.00  0.00     0.000 A 
ATOM      6  C6  BNZ d   1       0.606  -0.610   1.173  0.00  0.00     0.000 A 
ENDROOT
TORSDOF 0
ENDMDL
