MODEL 1
REMARK minimizedAffinity 1.47505236
REMARK minimizedRMSD -1
REMARK  0 active torsions:
REMARK  status: ('A' for Active; 'I' for Inactive)
ROOT
ATOM      1  C1  BNZ d   1      -2.970  -0.183  -1.080  0.00  0.00     0.000 A 
ATOM      2  C2  BNZ d   1      -2.879   0.712  -0.048  0.00  0.00     0.000 A 
ATOM      3  C3  BNZ d   1      -2.484   0.308   1.197  0.00  0.00     0.000 A 
ATOM      4  C4  BNZ d   1      -2.221  -0.996   1.418  0.00  0.00     0.000 A 
ATOM      5  C5  BNZ d   1      -2.317  -1.912   0.390  0.00  0.00     0.000 A 
ATOM      6  C6  BNZ d   1      -2.677  -1.496  -0.871  0.00  0.00     0.000 A 
ENDROOT
TORSDOF 0
ENDMDL
