MODEL 1
REMARK minimizedAffinity 1.30250478
REMARK minimizedRMSD -1
REMARK  0 active torsions:
REMARK  status: ('A' for Active; 'I' for Inactive)
ROOT
ATOM      1  C1  BNZ d   1       3.018  -1.898  -1.013  0.00  0.00     0.000 A 
ATOM      2  C2  BNZ d   1       2.401  -2.578   0.003  0.00  0.00     0.000 A 
ATOM      3  C3  BNZ d   1       1.757  -1.908   1.005  0.00  0.00     0.000 A 
ATOM      4  C4  BNZ d   1       1.766  -0.559   1.012  0.00  0.00     0.000 A 
ATOM      5  C5  BNZ d   1       2.392   0.141   0.001  0.00  0.00     0.000 A 
ATOM      6  C6  BNZ d   1       3.005  -0.537  -1.027  0.00  0.00     0.000 A 
ENDROOT
TORSDOF 0
ENDMDL
