MODEL 1
REMARK minimizedAffinity 0.780354261
REMARK minimizedRMSD -1
REMARK  0 active torsions:
REMARK  status: ('A' for Active; 'I' for Inactive)
ROOT
ATOM      1  C   UNL d   1       0.531   5.369  -1.213  0.00  0.00     0.020 A 
ATOM      2  C1  UNL d   1       0.203   4.499  -2.252  0.00  0.00     0.020 A 
ATOM      3  C2  UNL d   1       0.090   3.129  -2.007  0.00  0.00     0.034 A 
ATOM      4  C3  UNL d   1       0.305   2.624  -0.719  0.00  0.00     0.017 A 
ATOM      5  C4  UNL d   1       0.634   3.498   0.324  0.00  0.00     0.017 A 
ATOM      6  C5  UNL d   1       0.746   4.869   0.072  0.00  0.00     0.034 A 
ATOM      7 Cl   UNL d   1       0.914   2.951   1.939  0.00  0.00    -0.070 Cl
ATOM      8 Cl1  UNL d   1       0.149   0.919  -0.487  0.00  0.00    -0.070 Cl
ENDROOT
TORSDOF 0
ENDMDL
