MODEL 1
REMARK minimizedAffinity 2.69085908
REMARK minimizedRMSD -1
REMARK  0 active torsions:
REMARK  status: ('A' for Active; 'I' for Inactive)
ROOT
ATOM      1  C   UNL d   1       0.819   1.656   2.116  0.00  0.00     0.020 A 
ATOM      2  C1  UNL d   1       0.211   0.423   1.880  0.00  0.00     0.020 A 
ATOM      3  C2  UNL d   1      -0.460   0.194   0.677  0.00  0.00     0.034 A 
ATOM      4  C3  UNL d   1      -0.526   1.199  -0.294  0.00  0.00     0.017 A 
ATOM      5  C4  UNL d   1       0.084   2.436  -0.057  0.00  0.00     0.017 A 
ATOM      6  C5  UNL d   1       0.755   2.660   1.149  0.00  0.00     0.034 A 
ATOM      7 Cl   UNL d   1       0.046   3.725  -1.208  0.00  0.00    -0.070 Cl
ATOM      8 Cl1  UNL d   1      -1.372   0.847  -1.759  0.00  0.00    -0.070 Cl
ENDROOT
TORSDOF 0
ENDMDL
