MODEL 1
REMARK minimizedAffinity -1.62640357
REMARK minimizedRMSD -1
REMARK  0 active torsions:
REMARK  status: ('A' for Active; 'I' for Inactive)
ROOT
ATOM      1  C   UNL d   1      -0.188   0.759  -1.983  0.00  0.00     0.020 A 
ATOM      2  C1  UNL d   1      -1.313  -0.064  -2.006  0.00  0.00     0.020 A 
ATOM      3  C2  UNL d   1      -1.570  -0.926  -0.938  0.00  0.00     0.034 A 
ATOM      4  C3  UNL d   1      -0.702  -0.966   0.159  0.00  0.00     0.017 A 
ATOM      5  C4  UNL d   1       0.428  -0.140   0.181  0.00  0.00     0.017 A 
ATOM      6  C5  UNL d   1       0.681   0.721  -0.891  0.00  0.00     0.034 A 
ATOM      7 Cl   UNL d   1       1.546  -0.134   1.500  0.00  0.00    -0.070 Cl
ATOM      8 Cl1  UNL d   1      -1.082  -2.055   1.445  0.00  0.00    -0.070 Cl
ENDROOT
TORSDOF 0
ENDMDL
