MODEL 1
REMARK minimizedAffinity 0.159304112
REMARK minimizedRMSD -1
REMARK  0 active torsions:
REMARK  status: ('A' for Active; 'I' for Inactive)
ROOT
ATOM      1  C   UNL d   1       0.350   5.359  -0.526  0.00  0.00     0.020 A 
ATOM      2  C1  UNL d   1       0.288   4.721  -1.765  0.00  0.00     0.020 A 
ATOM      3  C2  UNL d   1       0.353   3.328  -1.837  0.00  0.00     0.034 A 
ATOM      4  C3  UNL d   1       0.480   2.568  -0.669  0.00  0.00     0.017 A 
ATOM      5  C4  UNL d   1       0.542   3.208   0.574  0.00  0.00     0.017 A 
ATOM      6  C5  UNL d   1       0.476   4.604   0.641  0.00  0.00     0.034 A 
ATOM      7 Cl   UNL d   1       0.699   2.338   2.059  0.00  0.00    -0.070 Cl
ATOM      8 Cl1  UNL d   1       0.554   0.849  -0.833  0.00  0.00    -0.070 Cl
ENDROOT
TORSDOF 0
ENDMDL
