MODEL 1
REMARK minimizedAffinity 3.58795261
REMARK minimizedRMSD -1
REMARK  0 active torsions:
REMARK  status: ('A' for Active; 'I' for Inactive)
ROOT
ATOM      1  C   UNL d   1       0.380   6.000  -1.079  0.00  0.00     0.020 A 
ATOM      2  C1  UNL d   1       0.071   5.239  -2.206  0.00  0.00     0.020 A 
ATOM      3  C2  UNL d   1       0.090   3.844  -2.133  0.00  0.00     0.034 A 
ATOM      4  C3  UNL d   1       0.420   3.207  -0.932  0.00  0.00     0.017 A 
ATOM      5  C4  UNL d   1       0.730   3.972   0.199  0.00  0.00     0.017 A 
ATOM      6  C5  UNL d   1       0.709   5.367   0.120  0.00  0.00     0.034 A 
ATOM      7 Cl   UNL d   1       1.146   3.256   1.716  0.00  0.00    -0.070 Cl
ATOM      8 Cl1  UNL d   1       0.423   1.479  -0.914  0.00  0.00    -0.070 Cl
ENDROOT
TORSDOF 0
ENDMDL
