MODEL 1
REMARK minimizedAffinity -1.1783129
REMARK minimizedRMSD -1
REMARK  0 active torsions:
REMARK  status: ('A' for Active; 'I' for Inactive)
ROOT
ATOM      1  C   UNL d   1       0.402   2.230   2.270  0.00  0.00     0.020 A 
ATOM      2  C1  UNL d   1       0.508   0.863   2.018  0.00  0.00     0.020 A 
ATOM      3  C2  UNL d   1       0.560   0.397   0.703  0.00  0.00     0.034 A 
ATOM      4  C3  UNL d   1       0.507   1.300  -0.366  0.00  0.00     0.017 A 
ATOM      5  C4  UNL d   1       0.401   2.672  -0.112  0.00  0.00     0.017 A 
ATOM      6  C5  UNL d   1       0.349   3.132   1.207  0.00  0.00     0.034 A 
ATOM      7 Cl   UNL d   1       0.330   3.846  -1.378  0.00  0.00    -0.070 Cl
ATOM      8 Cl1  UNL d   1       0.577   0.654  -1.967  0.00  0.00    -0.070 Cl
ENDROOT
TORSDOF 0
ENDMDL
