MODEL 1
REMARK minimizedAffinity 1.35824525
REMARK minimizedRMSD -1
REMARK  0 active torsions:
REMARK  status: ('A' for Active; 'I' for Inactive)
ROOT
ATOM      1  C   UNL d   1       1.103   5.487  -1.119  0.00  0.00     0.020 A 
ATOM      2  C1  UNL d   1       0.620   4.924  -2.300  0.00  0.00     0.020 A 
ATOM      3  C2  UNL d   1       0.115   3.622  -2.298  0.00  0.00     0.034 A 
ATOM      4  C3  UNL d   1       0.093   2.878  -1.113  0.00  0.00     0.017 A 
ATOM      5  C4  UNL d   1       0.578   3.443   0.072  0.00  0.00     0.017 A 
ATOM      6  C5  UNL d   1       1.082   4.748   0.064  0.00  0.00     0.034 A 
ATOM      7 Cl   UNL d   1       0.583   2.587   1.574  0.00  0.00    -0.070 Cl
ATOM      8 Cl1  UNL d   1      -0.546   1.274  -1.183  0.00  0.00    -0.070 Cl
ENDROOT
TORSDOF 0
ENDMDL
