MODEL 1
REMARK minimizedAffinity 1.04415989
REMARK minimizedRMSD -1
REMARK  0 active torsions:
REMARK  status: ('A' for Active; 'I' for Inactive)
ROOT
ATOM      1  C   UNL d   1       0.961   5.335  -0.271  0.00  0.00     0.020 A 
ATOM      2  C1  UNL d   1       0.671   4.814  -1.531  0.00  0.00     0.020 A 
ATOM      3  C2  UNL d   1       0.343   3.464  -1.670  0.00  0.00     0.034 A 
ATOM      4  C3  UNL d   1       0.305   2.630  -0.546  0.00  0.00     0.017 A 
ATOM      5  C4  UNL d   1       0.596   3.154   0.718  0.00  0.00     0.017 A 
ATOM      6  C5  UNL d   1       0.924   4.506   0.852  0.00  0.00     0.034 A 
ATOM      7 Cl   UNL d   1       0.569   2.187   2.151  0.00  0.00    -0.070 Cl
ATOM      8 Cl1  UNL d   1      -0.109   0.970  -0.791  0.00  0.00    -0.070 Cl
ENDROOT
TORSDOF 0
ENDMDL
