MODEL 1
REMARK minimizedAffinity 1.11578107
REMARK minimizedRMSD -1
REMARK  0 active torsions:
REMARK  status: ('A' for Active; 'I' for Inactive)
ROOT
ATOM      1  C   UNL d   1       0.623   1.546   2.556  0.00  0.00     0.020 A 
ATOM      2  C1  UNL d   1       0.625   0.225   2.109  0.00  0.00     0.020 A 
ATOM      3  C2  UNL d   1       0.513  -0.050   0.744  0.00  0.00     0.034 A 
ATOM      4  C3  UNL d   1       0.399   0.997  -0.178  0.00  0.00     0.017 A 
ATOM      5  C4  UNL d   1       0.397   2.322   0.272  0.00  0.00     0.017 A 
ATOM      6  C5  UNL d   1       0.510   2.592   1.639  0.00  0.00     0.034 A 
ATOM      7 Cl   UNL d   1       0.260   3.666  -0.806  0.00  0.00    -0.070 Cl
ATOM      8 Cl1  UNL d   1       0.265   0.583  -1.850  0.00  0.00    -0.070 Cl
ENDROOT
TORSDOF 0
ENDMDL
