MODEL 1
REMARK minimizedAffinity -2.41646719
REMARK minimizedRMSD -1
REMARK  0 active torsions:
REMARK  status: ('A' for Active; 'I' for Inactive)
ROOT
ATOM      1  C   UNL d   1       0.716   4.909  -1.498  0.00  0.00     0.020 A 
ATOM      2  C1  UNL d   1       1.240   5.254  -0.253  0.00  0.00     0.020 A 
ATOM      3  C2  UNL d   1       1.266   4.312   0.778  0.00  0.00     0.034 A 
ATOM      4  C3  UNL d   1       0.768   3.022   0.566  0.00  0.00     0.017 A 
ATOM      5  C4  UNL d   1       0.242   2.677  -0.684  0.00  0.00     0.017 A 
ATOM      6  C5  UNL d   1       0.218   3.624  -1.713  0.00  0.00     0.034 A 
ATOM      7 Cl   UNL d   1      -0.391   1.105  -1.022  0.00  0.00    -0.070 Cl
ATOM      8 Cl1  UNL d   1       0.832   1.909   1.886  0.00  0.00    -0.070 Cl
ENDROOT
TORSDOF 0
ENDMDL
