MODEL 1
REMARK minimizedAffinity 5.19300842
REMARK minimizedRMSD -1
REMARK  0 active torsions:
REMARK  status: ('A' for Active; 'I' for Inactive)
ROOT
ATOM      1  C   UNL d   1       0.610   1.528   2.117  0.00  0.00     0.020 A 
ATOM      2  C1  UNL d   1       1.472   2.201   2.981  0.00  0.00     0.020 A 
ATOM      3  C2  UNL d   1       2.023   3.427   2.603  0.00  0.00     0.034 A 
ATOM      4  C3  UNL d   1       1.713   3.984   1.357  0.00  0.00     0.017 A 
ATOM      5  C4  UNL d   1       0.847   3.307   0.490  0.00  0.00     0.017 A 
ATOM      6  C5  UNL d   1       0.298   2.080   0.874  0.00  0.00     0.034 A 
ATOM      7 Cl   UNL d   1       0.416   3.932  -1.063  0.00  0.00    -0.070 Cl
ATOM      8 Cl1  UNL d   1       2.430   5.503   0.955  0.00  0.00    -0.070 Cl
ENDROOT
TORSDOF 0
ENDMDL
