MODEL 1
REMARK minimizedAffinity 3.29356766
REMARK minimizedRMSD -1
REMARK  0 active torsions:
REMARK  status: ('A' for Active; 'I' for Inactive)
ROOT
ATOM      1  C   UNL d   1       0.189   1.783   2.473  0.00  0.00     0.020 A 
ATOM      2  C1  UNL d   1       0.346   0.448   2.103  0.00  0.00     0.020 A 
ATOM      3  C2  UNL d   1       0.511   0.111   0.758  0.00  0.00     0.034 A 
ATOM      4  C3  UNL d   1       0.519   1.109  -0.223  0.00  0.00     0.017 A 
ATOM      5  C4  UNL d   1       0.361   2.449   0.150  0.00  0.00     0.017 A 
ATOM      6  C5  UNL d   1       0.196   2.782   1.498  0.00  0.00     0.034 A 
ATOM      7 Cl   UNL d   1       0.360   3.738  -1.003  0.00  0.00    -0.070 Cl
ATOM      8 Cl1  UNL d   1       0.727   0.620  -1.867  0.00  0.00    -0.070 Cl
ENDROOT
TORSDOF 0
ENDMDL
