MODEL 1
REMARK minimizedAffinity 0.436154485
REMARK minimizedRMSD -1
REMARK  0 active torsions:
REMARK  status: ('A' for Active; 'I' for Inactive)
ROOT
ATOM      1  C1  DEN d   1       0.071  -0.430  -1.069  0.00  0.00     0.130 A 
ATOM      2  C2  DEN d   1       0.116   0.563   0.001  0.00  0.00    -0.031 A 
ATOM      3  C3  DEN d   1      -1.152   1.320  -0.027  0.00  0.00     0.027 A 
ATOM      4  C4  DEN d   1      -3.170   1.049  -1.609  0.00  0.00     0.027 A 
ATOM      5  C5  DEN d   1      -3.667   0.346  -2.685  0.00  0.00    -0.003 A 
ATOM      6  C6  DEN d   1      -2.945  -0.634  -3.313  0.00  0.00     0.001 A 
ATOM      7  C7  DEN d   1      -1.703  -0.969  -2.843  0.00  0.00     0.017 A 
ATOM      8  C8  DEN d   1      -1.192  -0.260  -1.763  0.00  0.00    -0.094 A 
ATOM      9  C9  DEN d   1      -1.943   0.719  -1.134  0.00  0.00    -0.072 A 
ENDROOT
TORSDOF 0
ENDMDL
