MODEL 1
REMARK minimizedAffinity -5.94342232
REMARK minimizedRMSD -1
REMARK  0 active torsions:
REMARK  status: ('A' for Active; 'I' for Inactive)
ROOT
ATOM      1  C1  DEN d   1      -0.128  -1.387  -0.039  0.00  0.00     0.130 A 
ATOM      2  C2  DEN d   1      -1.332  -0.637  -0.385  0.00  0.00    -0.031 A 
ATOM      3  C3  DEN d   1      -1.006   0.802  -0.324  0.00  0.00     0.027 A 
ATOM      4  C4  DEN d   1       1.235   1.935   0.266  0.00  0.00     0.027 A 
ATOM      5  C5  DEN d   1       2.541   1.712   0.641  0.00  0.00    -0.003 A 
ATOM      6  C6  DEN d   1       3.036   0.452   0.847  0.00  0.00     0.001 A 
ATOM      7  C7  DEN d   1       2.231  -0.637   0.635  0.00  0.00     0.017 A 
ATOM      8  C8  DEN d   1       0.911  -0.419   0.264  0.00  0.00    -0.094 A 
ATOM      9  C9  DEN d   1       0.433   0.862   0.049  0.00  0.00    -0.072 A 
ENDROOT
TORSDOF 0
ENDMDL
