MODEL 1
REMARK minimizedAffinity -3.9211688
REMARK minimizedRMSD -1
REMARK  0 active torsions:
REMARK  status: ('A' for Active; 'I' for Inactive)
ROOT
ATOM      1  C1  DEN d   1      -1.173   0.840   0.009  0.00  0.00     0.130 A 
ATOM      2  C2  DEN d   1      -1.569  -0.553  -0.178  0.00  0.00    -0.031 A 
ATOM      3  C3  DEN d   1      -0.354  -1.388  -0.093  0.00  0.00     0.027 A 
ATOM      4  C4  DEN d   1       2.088  -0.663   0.311  0.00  0.00     0.027 A 
ATOM      5  C5  DEN d   1       2.919   0.416   0.516  0.00  0.00    -0.003 A 
ATOM      6  C6  DEN d   1       2.454   1.704   0.532  0.00  0.00     0.001 A 
ATOM      7  C7  DEN d   1       1.113   1.943   0.385  0.00  0.00     0.017 A 
ATOM      8  C8  DEN d   1       0.269   0.861   0.171  0.00  0.00    -0.094 A 
ATOM      9  C9  DEN d   1       0.758  -0.435   0.170  0.00  0.00    -0.072 A 
ENDROOT
TORSDOF 0
ENDMDL
