MODEL 1
REMARK minimizedAffinity -4.05396748
REMARK minimizedRMSD -1
REMARK  0 active torsions:
REMARK  status: ('A' for Active; 'I' for Inactive)
ROOT
ATOM      1  C1  DEN d   1      -0.379   1.170  -0.486  0.00  0.00     0.130 A 
ATOM      2  C2  DEN d   1      -1.371   0.098  -0.483  0.00  0.00    -0.031 A 
ATOM      3  C3  DEN d   1      -0.718  -1.125   0.024  0.00  0.00     0.027 A 
ATOM      4  C4  DEN d   1       1.717  -1.461   0.805  0.00  0.00     0.027 A 
ATOM      5  C5  DEN d   1       2.937  -0.844   0.974  0.00  0.00    -0.003 A 
ATOM      6  C6  DEN d   1       3.144   0.468   0.639  0.00  0.00     0.001 A 
ATOM      7  C7  DEN d   1       2.103   1.218   0.160  0.00  0.00     0.017 A 
ATOM      8  C8  DEN d   1       0.872   0.601  -0.021  0.00  0.00    -0.094 A 
ATOM      9  C9  DEN d   1       0.680  -0.723   0.335  0.00  0.00    -0.072 A 
ENDROOT
TORSDOF 0
ENDMDL
