MODEL 1
REMARK minimizedAffinity -4.1339469
REMARK minimizedRMSD -1
REMARK  0 active torsions:
REMARK  status: ('A' for Active; 'I' for Inactive)
ROOT
ATOM      1  C1  DEN d   1      -0.465  -0.489  -0.495  0.00  0.00     0.130 A 
ATOM      2  C2  DEN d   1      -1.041   0.830  -0.245  0.00  0.00    -0.031 A 
ATOM      3  C3  DEN d   1      -0.031   1.642   0.461  0.00  0.00     0.027 A 
ATOM      4  C4  DEN d   1       2.358   0.992   1.185  0.00  0.00     0.027 A 
ATOM      5  C5  DEN d   1       3.288  -0.023   1.202  0.00  0.00    -0.003 A 
ATOM      6  C6  DEN d   1       3.023  -1.265   0.690  0.00  0.00     0.001 A 
ATOM      7  C7  DEN d   1       1.813  -1.511   0.097  0.00  0.00     0.017 A 
ATOM      8  C8  DEN d   1       0.867  -0.494   0.082  0.00  0.00    -0.094 A 
ATOM      9  C9  DEN d   1       1.158   0.759   0.595  0.00  0.00    -0.072 A 
ENDROOT
TORSDOF 0
ENDMDL
