MODEL 1
REMARK minimizedAffinity 2.099226
REMARK minimizedRMSD -1
REMARK  0 active torsions:
REMARK  status: ('A' for Active; 'I' for Inactive)
ROOT
ATOM      1  C   UNL d   1       3.022  -1.552   4.228  0.00  0.00     0.023 A 
ATOM      2  C1  UNL d   1       3.596  -1.390   5.489  0.00  0.00     0.003 A 
ATOM      3  C2  UNL d   1       4.451  -2.369   5.999  0.00  0.00     0.048 A 
ATOM      4  C3  UNL d   1       4.728  -3.508   5.243  0.00  0.00     0.023 A 
ATOM      5  C4  UNL d   1       4.157  -3.673   3.980  0.00  0.00     0.048 A 
ATOM      6  C5  UNL d   1       3.302  -2.692   3.474  0.00  0.00     0.003 A 
ATOM      7  I   UNL d   1       6.000  -4.966   6.000  0.00  0.00    -0.146 I 
ENDROOT
TORSDOF 0
ENDMDL
