MODEL 1
REMARK minimizedAffinity 2.13378859
REMARK minimizedRMSD -1
REMARK  0 active torsions:
REMARK  status: ('A' for Active; 'I' for Inactive)
ROOT
ATOM      1  C   UNL d   1       2.969  -1.219   4.044  0.00  0.00     0.023 A 
ATOM      2  C1  UNL d   1       3.710  -2.065   3.218  0.00  0.00     0.003 A 
ATOM      3  C2  UNL d   1       4.581  -3.002   3.778  0.00  0.00     0.048 A 
ATOM      4  C3  UNL d   1       4.705  -3.089   5.164  0.00  0.00     0.023 A 
ATOM      5  C4  UNL d   1       3.965  -2.246   5.994  0.00  0.00     0.048 A 
ATOM      6  C5  UNL d   1       3.096  -1.309   5.430  0.00  0.00     0.003 A 
ATOM      7  I   UNL d   1       6.000  -4.484   5.999  0.00  0.00    -0.146 I 
ENDROOT
TORSDOF 0
ENDMDL
