MODEL 1
REMARK minimizedAffinity 4.41615629
REMARK minimizedRMSD -1
REMARK  0 active torsions:
REMARK  status: ('A' for Active; 'I' for Inactive)
ROOT
ATOM      1  C   UNL d   1       4.097   4.631  -5.493  0.00  0.00     0.023 A 
ATOM      2  C1  UNL d   1       3.565   5.660  -4.716  0.00  0.00     0.003 A 
ATOM      3  C2  UNL d   1       4.110   5.942  -3.461  0.00  0.00     0.048 A 
ATOM      4  C3  UNL d   1       5.187   5.192  -2.991  0.00  0.00     0.023 A 
ATOM      5  C4  UNL d   1       5.723   4.162  -3.766  0.00  0.00     0.048 A 
ATOM      6  C5  UNL d   1       5.174   3.883  -5.019  0.00  0.00     0.003 A 
ATOM      7  I   UNL d   1       6.000   5.610  -1.124  0.00  0.00    -0.146 I 
ENDROOT
TORSDOF 0
ENDMDL
