MODEL 1
REMARK minimizedAffinity -3.01599622
REMARK minimizedRMSD -1
REMARK  0 active torsions:
REMARK  status: ('A' for Active; 'I' for Inactive)
ROOT
ATOM      1  C   UNL d   1       2.879  -1.156   4.815  0.00  0.00     0.023 A 
ATOM      2  C1  UNL d   1       3.107  -1.880   3.645  0.00  0.00     0.003 A 
ATOM      3  C2  UNL d   1       4.003  -2.951   3.648  0.00  0.00     0.048 A 
ATOM      4  C3  UNL d   1       4.666  -3.294   4.826  0.00  0.00     0.023 A 
ATOM      5  C4  UNL d   1       4.440  -2.573   6.000  0.00  0.00     0.048 A 
ATOM      6  C5  UNL d   1       3.545  -1.502   5.991  0.00  0.00     0.003 A 
ATOM      7  I   UNL d   1       6.000  -4.888   4.833  0.00  0.00    -0.146 I 
ENDROOT
TORSDOF 0
ENDMDL
