MODEL 1
REMARK minimizedAffinity 6.00426579
REMARK minimizedRMSD -1
REMARK  0 active torsions:
REMARK  status: ('A' for Active; 'I' for Inactive)
ROOT
ATOM      1  C   UNL d   1       3.000  -1.628   2.971  0.00  0.00     0.023 A 
ATOM      2  C1  UNL d   1       3.143  -1.212   4.295  0.00  0.00     0.003 A 
ATOM      3  C2  UNL d   1       3.998  -1.902   5.157  0.00  0.00     0.048 A 
ATOM      4  C3  UNL d   1       4.709  -3.006   4.687  0.00  0.00     0.023 A 
ATOM      5  C4  UNL d   1       4.571  -3.425   3.363  0.00  0.00     0.048 A 
ATOM      6  C5  UNL d   1       3.713  -2.733   2.506  0.00  0.00     0.003 A 
ATOM      7  I   UNL d   1       5.984  -4.034   5.968  0.00  0.00    -0.146 I 
ENDROOT
TORSDOF 0
ENDMDL
