MODEL 1
REMARK minimizedAffinity -2.98920226
REMARK minimizedRMSD -1
REMARK  0 active torsions:
REMARK  status: ('A' for Active; 'I' for Inactive)
ROOT
ATOM      1  C   UNL d   1       3.298  -1.577   4.136  0.00  0.00     0.023 A 
ATOM      2  C1  UNL d   1       3.639  -2.675   3.346  0.00  0.00     0.003 A 
ATOM      3  C2  UNL d   1       4.413  -3.707   3.879  0.00  0.00     0.048 A 
ATOM      4  C3  UNL d   1       4.843  -3.636   5.204  0.00  0.00     0.023 A 
ATOM      5  C4  UNL d   1       4.504  -2.540   5.998  0.00  0.00     0.048 A 
ATOM      6  C5  UNL d   1       3.731  -1.509   5.461  0.00  0.00     0.003 A 
ATOM      7  I   UNL d   1       5.996  -5.171   5.999  0.00  0.00    -0.146 I 
ENDROOT
TORSDOF 0
ENDMDL
