MODEL 1
REMARK minimizedAffinity 0.630325913
REMARK minimizedRMSD -1
REMARK  0 active torsions:
REMARK  status: ('A' for Active; 'I' for Inactive)
ROOT
ATOM      1  C   UNL d   1       2.989  -1.377   4.908  0.00  0.00     0.023 A 
ATOM      2  C1  UNL d   1       3.833  -1.597   5.996  0.00  0.00     0.003 A 
ATOM      3  C2  UNL d   1       4.698  -2.693   6.000  0.00  0.00     0.048 A 
ATOM      4  C3  UNL d   1       4.714  -3.565   4.912  0.00  0.00     0.023 A 
ATOM      5  C4  UNL d   1       3.871  -3.349   3.821  0.00  0.00     0.048 A 
ATOM      6  C5  UNL d   1       3.007  -2.252   3.822  0.00  0.00     0.003 A 
ATOM      7  I   UNL d   1       6.000  -5.198   4.915  0.00  0.00    -0.146 I 
ENDROOT
TORSDOF 0
ENDMDL
