MODEL 1
REMARK minimizedAffinity 4.84421301
REMARK minimizedRMSD -1
REMARK  0 active torsions:
REMARK  status: ('A' for Active; 'I' for Inactive)
ROOT
ATOM      1  C   UNL d   1       6.000   4.096  -4.828  0.00  0.00     0.023 A 
ATOM      2  C1  UNL d   1       5.929   5.456  -4.527  0.00  0.00     0.003 A 
ATOM      3  C2  UNL d   1       4.748   6.000  -4.017  0.00  0.00     0.048 A 
ATOM      4  C3  UNL d   1       3.641   5.177  -3.810  0.00  0.00     0.023 A 
ATOM      5  C4  UNL d   1       3.707   3.815  -4.109  0.00  0.00     0.048 A 
ATOM      6  C5  UNL d   1       4.890   3.277  -4.619  0.00  0.00     0.003 A 
ATOM      7  I   UNL d   1       1.882   5.983  -3.052  0.00  0.00    -0.146 I 
ENDROOT
TORSDOF 0
ENDMDL
