MODEL 1
REMARK minimizedAffinity -2.44954133
REMARK minimizedRMSD -1
REMARK  0 active torsions:
REMARK  status: ('A' for Active; 'I' for Inactive)
ROOT
ATOM      1  C   UNL d   1       3.991  -1.007   6.000  0.00  0.00     0.023 A 
ATOM      2  C1  UNL d   1       5.376  -1.173   5.994  0.00  0.00     0.003 A 
ATOM      3  C2  UNL d   1       5.954  -2.202   5.248  0.00  0.00     0.048 A 
ATOM      4  C3  UNL d   1       5.142  -3.061   4.509  0.00  0.00     0.023 A 
ATOM      5  C4  UNL d   1       3.755  -2.898   4.511  0.00  0.00     0.048 A 
ATOM      6  C5  UNL d   1       3.182  -1.868   5.259  0.00  0.00     0.003 A 
ATOM      7  I   UNL d   1       6.000  -4.593   3.397  0.00  0.00    -0.146 I 
ENDROOT
TORSDOF 0
ENDMDL
