MODEL 1
REMARK minimizedAffinity -0.804241002
REMARK minimizedRMSD -1
REMARK  0 active torsions:
REMARK  status: ('A' for Active; 'I' for Inactive)
ROOT
ATOM      1  C   UNL d   1       3.001  -1.143   4.151  0.00  0.00     0.023 A 
ATOM      2  C1  UNL d   1       3.411  -2.220   3.365  0.00  0.00     0.003 A 
ATOM      3  C2  UNL d   1       4.272  -3.184   3.894  0.00  0.00     0.048 A 
ATOM      4  C3  UNL d   1       4.718  -3.065   5.210  0.00  0.00     0.023 A 
ATOM      5  C4  UNL d   1       4.309  -1.990   6.000  0.00  0.00     0.048 A 
ATOM      6  C5  UNL d   1       3.449  -1.028   5.467  0.00  0.00     0.003 A 
ATOM      7  I   UNL d   1       5.999  -4.499   5.999  0.00  0.00    -0.146 I 
ENDROOT
TORSDOF 0
ENDMDL
