MODEL 1
REMARK minimizedAffinity 0.392002881
REMARK minimizedRMSD -1
REMARK  0 active torsions:
REMARK  status: ('A' for Active; 'I' for Inactive)
ROOT
ATOM      1  C   UNL d   1       4.496   4.130  -5.638  0.00  0.00     0.023 A 
ATOM      2  C1  UNL d   1       3.792   5.202  -5.089  0.00  0.00     0.003 A 
ATOM      3  C2  UNL d   1       4.182   5.740  -3.861  0.00  0.00     0.048 A 
ATOM      4  C3  UNL d   1       5.278   5.201  -3.188  0.00  0.00     0.023 A 
ATOM      5  C4  UNL d   1       5.986   4.129  -3.733  0.00  0.00     0.048 A 
ATOM      6  C5  UNL d   1       5.591   3.594  -4.961  0.00  0.00     0.003 A 
ATOM      7  I   UNL d   1       5.861   5.999  -1.359  0.00  0.00    -0.146 I 
ENDROOT
TORSDOF 0
ENDMDL
