MODEL 1
REMARK minimizedAffinity -1.96018147
REMARK minimizedRMSD -1
REMARK  0 active torsions:
REMARK  status: ('A' for Active; 'I' for Inactive)
ROOT
ATOM      1  C   UNL d   1       1.774  -3.503   3.750  0.00  0.00     0.023 A 
ATOM      2  C1  UNL d   1       2.352  -2.236   3.677  0.00  0.00     0.003 A 
ATOM      3  C2  UNL d   1       3.564  -1.982   4.322  0.00  0.00     0.048 A 
ATOM      4  C3  UNL d   1       4.193  -3.000   5.038  0.00  0.00     0.023 A 
ATOM      5  C4  UNL d   1       3.619  -4.270   5.113  0.00  0.00     0.048 A 
ATOM      6  C5  UNL d   1       2.406  -4.518   4.468  0.00  0.00     0.003 A 
ATOM      7  I   UNL d   1       5.998  -2.624   5.998  0.00  0.00    -0.146 I 
ENDROOT
TORSDOF 0
ENDMDL
