MODEL 1
REMARK minimizedAffinity -2.32709455
REMARK minimizedRMSD -1
REMARK  0 active torsions:
REMARK  status: ('A' for Active; 'I' for Inactive)
ROOT
ATOM      1  C   UNL d   1       5.738  -5.323   4.156  0.00  0.00     0.023 A 
ATOM      2  C1  UNL d   1       5.993  -4.910   5.464  0.00  0.00     0.003 A 
ATOM      3  C2  UNL d   1       5.318  -3.809   5.994  0.00  0.00     0.048 A 
ATOM      4  C3  UNL d   1       4.387  -3.127   5.212  0.00  0.00     0.023 A 
ATOM      5  C4  UNL d   1       4.127  -3.537   3.903  0.00  0.00     0.048 A 
ATOM      6  C5  UNL d   1       4.806  -4.637   3.377  0.00  0.00     0.003 A 
ATOM      7  I   UNL d   1       3.379  -1.488   6.000  0.00  0.00    -0.146 I 
ENDROOT
TORSDOF 0
ENDMDL
