MODEL 1
REMARK minimizedAffinity 16.3082199
REMARK minimizedRMSD -1
REMARK  0 active torsions:
REMARK  status: ('A' for Active; 'I' for Inactive)
ROOT
ATOM      1  C   UNL d   1       1.864   5.673   1.606  0.00  0.00     0.023 A 
ATOM      2  C1  UNL d   1       1.896   4.540   0.793  0.00  0.00     0.003 A 
ATOM      3  C2  UNL d   1       0.764   3.729   0.678  0.00  0.00     0.048 A 
ATOM      4  C3  UNL d   1      -0.396   4.059   1.377  0.00  0.00     0.023 A 
ATOM      5  C4  UNL d   1      -0.433   5.192   2.191  0.00  0.00     0.048 A 
ATOM      6  C5  UNL d   1       0.701   5.999   2.304  0.00  0.00     0.003 A 
ATOM      7  I   UNL d   1      -2.081   2.855   1.207  0.00  0.00    -0.146 I 
ENDROOT
TORSDOF 0
ENDMDL
