MODEL 1
REMARK minimizedAffinity 8.35508633
REMARK minimizedRMSD -1
REMARK  0 active torsions:
REMARK  status: ('A' for Active; 'I' for Inactive)
ROOT
ATOM      1  C   UNL d   1       4.246   3.829  -4.880  0.00  0.00     0.023 A 
ATOM      2  C1  UNL d   1       5.494   3.420  -4.410  0.00  0.00     0.003 A 
ATOM      3  C2  UNL d   1       5.999   3.944  -3.218  0.00  0.00     0.048 A 
ATOM      4  C3  UNL d   1       5.250   4.877  -2.501  0.00  0.00     0.023 A 
ATOM      5  C4  UNL d   1       4.001   5.289  -2.967  0.00  0.00     0.048 A 
ATOM      6  C5  UNL d   1       3.500   4.762  -4.159  0.00  0.00     0.003 A 
ATOM      7  I   UNL d   1       6.000   5.659  -0.727  0.00  0.00    -0.146 I 
ENDROOT
TORSDOF 0
ENDMDL
