MODEL 1
REMARK minimizedAffinity 6.16815662
REMARK minimizedRMSD -1
REMARK  0 active torsions:
REMARK  status: ('A' for Active; 'I' for Inactive)
ROOT
ATOM      1  C   UNL d   1       5.769  -4.021   4.209  0.00  0.00     0.023 A 
ATOM      2  C1  UNL d   1       5.931  -3.475   5.482  0.00  0.00     0.003 A 
ATOM      3  C2  UNL d   1       4.967  -2.605   5.998  0.00  0.00     0.048 A 
ATOM      4  C3  UNL d   1       3.844  -2.288   5.235  0.00  0.00     0.023 A 
ATOM      5  C4  UNL d   1       3.677  -2.833   3.961  0.00  0.00     0.048 A 
ATOM      6  C5  UNL d   1       4.644  -3.701   3.450  0.00  0.00     0.003 A 
ATOM      7  I   UNL d   1       2.408  -0.995   6.000  0.00  0.00    -0.146 I 
ENDROOT
TORSDOF 0
ENDMDL
