MODEL 1
REMARK minimizedAffinity -1.76647055
REMARK minimizedRMSD -1
REMARK  0 active torsions:
REMARK  status: ('A' for Active; 'I' for Inactive)
ROOT
ATOM      1  O1  BZF d   1      -1.250   0.377   0.744  0.00  0.00    -0.204 OA
ATOM      2  C2  BZF d   1      -1.471   0.876   2.013  0.00  0.00     0.174 A 
ATOM      3  C3  BZF d   1      -0.338   0.845   2.743  0.00  0.00    -0.012 A 
ATOM      4  C3A BZF d   1       0.675   0.377   1.846  0.00  0.00    -0.107 A 
ATOM      5  C4  BZF d   1       2.015   0.149   1.980  0.00  0.00     0.055 A 
ATOM      6  C5  BZF d   1       2.703  -0.377   0.933  0.00  0.00    -0.016 A 
ATOM      7  C6  BZF d   1       2.083  -0.692  -0.259  0.00  0.00     0.022 A 
ATOM      8  C7  BZF d   1       0.757  -0.478  -0.440  0.00  0.00     0.029 A 
ATOM      9  C7A BZF d   1       0.065   0.084   0.605  0.00  0.00     0.058 A 
ENDROOT
TORSDOF 0
ENDMDL
