MODEL 1
REMARK minimizedAffinity -3.8644619
REMARK minimizedRMSD -1
REMARK  0 active torsions:
REMARK  status: ('A' for Active; 'I' for Inactive)
ROOT
ATOM      1  O1  BZF d   1       0.231   0.365  -0.143  0.00  0.00    -0.204 OA
ATOM      2  C2  BZF d   1      -0.647   1.133  -0.882  0.00  0.00     0.174 A 
ATOM      3  C3  BZF d   1      -1.798   1.328  -0.207  0.00  0.00    -0.012 A 
ATOM      4  C3A BZF d   1      -1.594   0.716   1.070  0.00  0.00    -0.107 A 
ATOM      5  C4  BZF d   1      -2.370   0.591   2.187  0.00  0.00     0.055 A 
ATOM      6  C5  BZF d   1      -1.901  -0.129   3.240  0.00  0.00    -0.016 A 
ATOM      7  C6  BZF d   1      -0.665  -0.741   3.208  0.00  0.00     0.022 A 
ATOM      8  C7  BZF d   1       0.143  -0.641   2.125  0.00  0.00     0.029 A 
ATOM      9  C7A BZF d   1      -0.314   0.113   1.072  0.00  0.00     0.058 A 
ENDROOT
TORSDOF 0
ENDMDL
