MODEL 1
REMARK minimizedAffinity 1.36762452
REMARK minimizedRMSD -1
REMARK  0 active torsions:
REMARK  status: ('A' for Active; 'I' for Inactive)
ROOT
ATOM      1  O1  BZF d   1       0.697  -0.522   2.097  0.00  0.00    -0.204 OA
ATOM      2  C2  BZF d   1       1.436  -0.901   0.994  0.00  0.00     0.174 A 
ATOM      3  C3  BZF d   1       0.659  -0.953  -0.108  0.00  0.00    -0.012 A 
ATOM      4  C3A BZF d   1      -0.627  -0.494   0.317  0.00  0.00    -0.107 A 
ATOM      5  C4  BZF d   1      -1.817  -0.305  -0.327  0.00  0.00     0.055 A 
ATOM      6  C5  BZF d   1      -2.902   0.085   0.392  0.00  0.00    -0.016 A 
ATOM      7  C6  BZF d   1      -2.836   0.290   1.754  0.00  0.00     0.022 A 
ATOM      8  C7  BZF d   1      -1.677   0.120   2.436  0.00  0.00     0.029 A 
ATOM      9  C7A BZF d   1      -0.570  -0.242   1.708  0.00  0.00     0.058 A 
ENDROOT
TORSDOF 0
ENDMDL
