MODEL 1
REMARK minimizedAffinity -2.43178344
REMARK minimizedRMSD -1
REMARK  0 active torsions:
REMARK  status: ('A' for Active; 'I' for Inactive)
ROOT
ATOM      1  O1  BZF d   1      -2.063   0.038   2.700  0.00  0.00    -0.204 OA
ATOM      2  C2  BZF d   1      -1.184   0.047   3.766  0.00  0.00     0.174 A 
ATOM      3  C3  BZF d   1      -0.002  -0.500   3.416  0.00  0.00    -0.012 A 
ATOM      4  C3A BZF d   1      -0.120  -0.791   2.020  0.00  0.00    -0.107 A 
ATOM      5  C4  BZF d   1       0.731  -1.330   1.098  0.00  0.00     0.055 A 
ATOM      6  C5  BZF d   1       0.283  -1.548  -0.166  0.00  0.00    -0.016 A 
ATOM      7  C6  BZF d   1      -1.009  -1.243  -0.541  0.00  0.00     0.022 A 
ATOM      8  C7  BZF d   1      -1.888  -0.702   0.337  0.00  0.00     0.029 A 
ATOM      9  C7A BZF d   1      -1.428  -0.450   1.606  0.00  0.00     0.058 A 
ENDROOT
TORSDOF 0
ENDMDL
