MODEL 1
REMARK minimizedAffinity -0.327926815
REMARK minimizedRMSD -1
REMARK  0 active torsions:
REMARK  status: ('A' for Active; 'I' for Inactive)
ROOT
ATOM      1  O1  BZF d   1      -0.011  -1.757  -0.222  0.00  0.00    -0.204 OA
ATOM      2  C2  BZF d   1       1.070  -1.205   0.439  0.00  0.00     0.174 A 
ATOM      3  C3  BZF d   1       0.735  -0.026   1.002  0.00  0.00    -0.012 A 
ATOM      4  C3A BZF d   1      -0.665   0.126   0.751  0.00  0.00    -0.107 A 
ATOM      5  C4  BZF d   1      -1.578   1.089   1.076  0.00  0.00     0.055 A 
ATOM      6  C5  BZF d   1      -2.852   0.974   0.616  0.00  0.00    -0.016 A 
ATOM      7  C6  BZF d   1      -3.245  -0.087  -0.174  0.00  0.00     0.022 A 
ATOM      8  C7  BZF d   1      -2.377  -1.069  -0.518  0.00  0.00     0.029 A 
ATOM      9  C7A BZF d   1      -1.097  -0.972  -0.027  0.00  0.00     0.058 A 
ENDROOT
TORSDOF 0
ENDMDL
