MODEL 1
REMARK minimizedAffinity 2.41952538
REMARK minimizedRMSD -1
REMARK  0 active torsions:
REMARK  status: ('A' for Active; 'I' for Inactive)
ROOT
ATOM      1  O1  BZF d   1       3.996   0.097  -3.845  0.00  0.00    -0.204 OA
ATOM      2  C2  BZF d   1       2.906   0.892  -4.143  0.00  0.00     0.174 A 
ATOM      3  C3  BZF d   1       2.370   1.409  -3.018  0.00  0.00    -0.012 A 
ATOM      4  C3A BZF d   1       3.232   0.980  -1.959  0.00  0.00    -0.107 A 
ATOM      5  C4  BZF d   1       3.234   1.186  -0.609  0.00  0.00     0.055 A 
ATOM      6  C5  BZF d   1       4.174   0.567   0.152  0.00  0.00    -0.016 A 
ATOM      7  C6  BZF d   1       5.122  -0.268  -0.402  0.00  0.00     0.022 A 
ATOM      8  C7  BZF d   1       5.163  -0.499  -1.737  0.00  0.00     0.029 A 
ATOM      9  C7A BZF d   1       4.235   0.151  -2.513  0.00  0.00     0.058 A 
ENDROOT
TORSDOF 0
ENDMDL
