MODEL 1
REMARK minimizedAffinity -2.05355239
REMARK minimizedRMSD -1
REMARK  0 active torsions:
REMARK  status: ('A' for Active; 'I' for Inactive)
ROOT
ATOM      1  O1  BZF d   1       1.186  -1.148   3.240  0.00  0.00    -0.204 OA
ATOM      2  C2  BZF d   1       0.569  -1.261   4.471  0.00  0.00     0.174 A 
ATOM      3  C3  BZF d   1      -0.709  -0.836   4.405  0.00  0.00    -0.012 A 
ATOM      4  C3A BZF d   1      -0.931  -0.519   3.028  0.00  0.00    -0.107 A 
ATOM      5  C4  BZF d   1      -2.013  -0.061   2.332  0.00  0.00     0.055 A 
ATOM      6  C5  BZF d   1      -1.878   0.216   1.008  0.00  0.00    -0.016 A 
ATOM      7  C6  BZF d   1      -0.676   0.052   0.351  0.00  0.00     0.022 A 
ATOM      8  C7  BZF d   1       0.424  -0.405   0.998  0.00  0.00     0.029 A 
ATOM      9  C7A BZF d   1       0.282  -0.717   2.328  0.00  0.00     0.058 A 
ENDROOT
TORSDOF 0
ENDMDL
