MODEL 1
REMARK minimizedAffinity -6.35703421
REMARK minimizedRMSD -1
REMARK  0 active torsions:
REMARK  status: ('A' for Active; 'I' for Inactive)
ROOT
ATOM      1  N1  IND d   1       1.423  -0.848  -0.238  0.00  0.00    -0.196 N 
ATOM      2  C2  IND d   1       1.308  -1.378   1.017  0.00  0.00     0.054 A 
ATOM      3  C3  IND d   1       0.007  -1.586   1.322  0.00  0.00    -0.031 A 
ATOM      4  C4  IND d   1      -2.090  -1.224  -0.126  0.00  0.00     0.051 A 
ATOM      5  C5  IND d   1      -2.493  -0.723  -1.332  0.00  0.00    -0.031 A 
ATOM      6  C6  IND d   1      -1.593  -0.230  -2.255  0.00  0.00     0.015 A 
ATOM      7  C7  IND d   1      -0.249  -0.231  -2.009  0.00  0.00    -0.016 A 
ATOM      8  C8  IND d   1       0.163  -0.733  -0.783  0.00  0.00    -0.047 A 
ATOM      9  C9  IND d   1      -0.749  -1.195   0.175  0.00  0.00    -0.096 A 
ATOM     10  HN1 IND d   1       2.159  -0.624  -0.622  0.00  0.00     0.298 HD
ENDROOT
TORSDOF 0
ENDMDL
