MODEL 1
REMARK minimizedAffinity -1.71830881
REMARK minimizedRMSD -1
REMARK  0 active torsions:
REMARK  status: ('A' for Active; 'I' for Inactive)
ROOT
ATOM      1  N1  IND d   1       0.459  -0.712   0.762  0.00  0.00    -0.196 N 
ATOM      2  C2  IND d   1       1.242   0.306   0.296  0.00  0.00     0.054 A 
ATOM      3  C3  IND d   1       0.617   0.957  -0.711  0.00  0.00    -0.031 A 
ATOM      4  C4  IND d   1      -1.736   0.585  -1.686  0.00  0.00     0.051 A 
ATOM      5  C5  IND d   1      -2.814  -0.252  -1.609  0.00  0.00    -0.031 A 
ATOM      6  C6  IND d   1      -2.858  -1.304  -0.718  0.00  0.00     0.015 A 
ATOM      7  C7  IND d   1      -1.826  -1.553   0.141  0.00  0.00    -0.016 A 
ATOM      8  C8  IND d   1      -0.727  -0.710   0.061  0.00  0.00    -0.047 A 
ATOM      9  C9  IND d   1      -0.659   0.334  -0.870  0.00  0.00    -0.096 A 
ATOM     10  HN1 IND d   1       0.671  -1.262   1.389  0.00  0.00     0.298 HD
ENDROOT
TORSDOF 0
ENDMDL
