MODEL 1
REMARK minimizedAffinity -2.89547086
REMARK minimizedRMSD -1
REMARK  0 active torsions:
REMARK  status: ('A' for Active; 'I' for Inactive)
ROOT
ATOM      1  N1  IND d   1      -2.350  -1.194  -1.429  0.00  0.00    -0.196 N 
ATOM      2  C2  IND d   1      -3.273  -1.399  -0.441  0.00  0.00     0.054 A 
ATOM      3  C3  IND d   1      -2.789  -0.979   0.749  0.00  0.00    -0.031 A 
ATOM      4  C4  IND d   1      -0.549   0.168   1.291  0.00  0.00     0.051 A 
ATOM      5  C5  IND d   1       0.638   0.536   0.722  0.00  0.00    -0.031 A 
ATOM      6  C6  IND d   1       0.894   0.344  -0.620  0.00  0.00     0.015 A 
ATOM      7  C7  IND d   1      -0.036  -0.215  -1.450  0.00  0.00    -0.016 A 
ATOM      8  C8  IND d   1      -1.240  -0.595  -0.875  0.00  0.00    -0.047 A 
ATOM      9  C9  IND d   1      -1.490  -0.442   0.495  0.00  0.00    -0.096 A 
ATOM     10  HN1 IND d   1      -2.447  -1.404  -2.257  0.00  0.00     0.298 HD
ENDROOT
TORSDOF 0
ENDMDL
