MODEL 1
REMARK minimizedAffinity -1.72050977
REMARK minimizedRMSD -1
REMARK  0 active torsions:
REMARK  status: ('A' for Active; 'I' for Inactive)
ROOT
ATOM      1  N1  IND d   1      -0.148  -0.649   1.171  0.00  0.00    -0.196 N 
ATOM      2  C2  IND d   1       1.052  -0.102   0.811  0.00  0.00     0.054 A 
ATOM      3  C3  IND d   1       1.000   0.353  -0.460  0.00  0.00    -0.031 A 
ATOM      4  C4  IND d   1      -0.984   0.397  -2.101  0.00  0.00     0.051 A 
ATOM      5  C5  IND d   1      -2.277  -0.022  -2.239  0.00  0.00    -0.031 A 
ATOM      6  C6  IND d   1      -2.942  -0.681  -1.225  0.00  0.00     0.015 A 
ATOM      7  C7  IND d   1      -2.338  -0.939  -0.027  0.00  0.00    -0.016 A 
ATOM      8  C8  IND d   1      -1.022  -0.521   0.114  0.00  0.00    -0.047 A 
ATOM      9  C9  IND d   1      -0.329   0.111  -0.927  0.00  0.00    -0.096 A 
ATOM     10  HN1 IND d   1      -0.327  -1.011   1.930  0.00  0.00     0.298 HD
ENDROOT
TORSDOF 0
ENDMDL
