MODEL 1
REMARK minimizedAffinity -2.45920396
REMARK minimizedRMSD -1
REMARK  0 active torsions:
REMARK  status: ('A' for Active; 'I' for Inactive)
ROOT
ATOM      1  N1  IND d   1       0.947  -0.699   0.388  0.00  0.00    -0.196 N 
ATOM      2  C2  IND d   1       0.503  -1.468   1.427  0.00  0.00     0.054 A 
ATOM      3  C3  IND d   1      -0.728  -1.959   1.157  0.00  0.00    -0.031 A 
ATOM      4  C4  IND d   1      -2.156  -1.711  -0.971  0.00  0.00     0.051 A 
ATOM      5  C5  IND d   1      -2.188  -1.071  -2.178  0.00  0.00    -0.031 A 
ATOM      6  C6  IND d   1      -1.155  -0.260  -2.601  0.00  0.00     0.015 A 
ATOM      7  C7  IND d   1      -0.041  -0.067  -1.835  0.00  0.00    -0.016 A 
ATOM      8  C8  IND d   1      -0.008  -0.710  -0.605  0.00  0.00    -0.047 A 
ATOM      9  C9  IND d   1      -1.072  -1.500  -0.151  0.00  0.00    -0.096 A 
ATOM     10  HN1 IND d   1       1.697  -0.278   0.359  0.00  0.00     0.298 HD
ENDROOT
TORSDOF 0
ENDMDL
