MODEL 1
REMARK minimizedAffinity -3.30767035
REMARK minimizedRMSD -1
REMARK  0 active torsions:
REMARK  status: ('A' for Active; 'I' for Inactive)
ROOT
ATOM      1  N1  IND d   1       0.086  -0.429  -0.860  0.00  0.00    -0.196 N 
ATOM      2  C2  IND d   1      -0.669   0.234  -1.787  0.00  0.00     0.054 A 
ATOM      3  C3  IND d   1      -1.979  -0.055  -1.621  0.00  0.00    -0.031 A 
ATOM      4  C4  IND d   1      -3.118  -1.510   0.172  0.00  0.00     0.051 A 
ATOM      5  C5  IND d   1      -2.840  -2.351   1.213  0.00  0.00    -0.031 A 
ATOM      6  C6  IND d   1      -1.547  -2.596   1.627  0.00  0.00     0.015 A 
ATOM      7  C7  IND d   1      -0.479  -1.999   1.019  0.00  0.00    -0.016 A 
ATOM      8  C8  IND d   1      -0.757  -1.151  -0.043  0.00  0.00    -0.047 A 
ATOM      9  C9  IND d   1      -2.064  -0.931  -0.495  0.00  0.00    -0.096 A 
ATOM     10  HN1 IND d   1       0.943  -0.400  -0.797  0.00  0.00     0.298 HD
ENDROOT
TORSDOF 0
ENDMDL
