MODEL 1
REMARK minimizedAffinity -5.19514942
REMARK minimizedRMSD -1
REMARK  0 active torsions:
REMARK  status: ('A' for Active; 'I' for Inactive)
ROOT
ATOM      1  N1  IND d   1      -2.191  -0.233  -0.477  0.00  0.00    -0.196 N 
ATOM      2  C2  IND d   1      -2.374  -0.718   0.788  0.00  0.00     0.054 A 
ATOM      3  C3  IND d   1      -2.583  -2.054   0.754  0.00  0.00    -0.031 A 
ATOM      4  C4  IND d   1      -2.566  -3.661  -1.257  0.00  0.00     0.051 A 
ATOM      5  C5  IND d   1      -2.478  -3.679  -2.621  0.00  0.00    -0.031 A 
ATOM      6  C6  IND d   1      -2.283  -2.527  -3.354  0.00  0.00     0.015 A 
ATOM      7  C7  IND d   1      -2.157  -1.309  -2.748  0.00  0.00    -0.016 A 
ATOM      8  C8  IND d   1      -2.253  -1.286  -1.363  0.00  0.00    -0.047 A 
ATOM      9  C9  IND d   1      -2.494  -2.446  -0.617  0.00  0.00    -0.096 A 
ATOM     10  HN1 IND d   1      -2.060   0.591  -0.684  0.00  0.00     0.298 HD
ENDROOT
TORSDOF 0
ENDMDL
