MODEL 1
REMARK minimizedAffinity -3.43340063
REMARK minimizedRMSD -1
REMARK  0 active torsions:
REMARK  status: ('A' for Active; 'I' for Inactive)
ROOT
ATOM      1  N1  IND d   1       1.379  -1.134   0.848  0.00  0.00    -0.196 N 
ATOM      2  C2  IND d   1       0.807  -2.040   1.697  0.00  0.00     0.054 A 
ATOM      3  C3  IND d   1      -0.485  -2.250   1.360  0.00  0.00    -0.031 A 
ATOM      4  C4  IND d   1      -1.838  -1.293  -0.610  0.00  0.00     0.051 A 
ATOM      5  C5  IND d   1      -1.757  -0.396  -1.638  0.00  0.00    -0.031 A 
ATOM      6  C6  IND d   1      -0.601   0.313  -1.897  0.00  0.00     0.015 A 
ATOM      7  C7  IND d   1       0.524   0.142  -1.141  0.00  0.00    -0.016 A 
ATOM      8  C8  IND d   1       0.442  -0.762  -0.092  0.00  0.00    -0.047 A 
ATOM      9  C9  IND d   1      -0.741  -1.453   0.202  0.00  0.00    -0.096 A 
ATOM     10  HN1 IND d   1       2.187  -0.845   0.893  0.00  0.00     0.298 HD
ENDROOT
TORSDOF 0
ENDMDL
