MODEL 1
REMARK minimizedAffinity -3.74341917
REMARK minimizedRMSD -1
REMARK  0 active torsions:
REMARK  status: ('A' for Active; 'I' for Inactive)
ROOT
ATOM      1  N1  IND d   1       0.574  -0.023  -1.142  0.00  0.00    -0.196 N 
ATOM      2  C2  IND d   1       0.065   0.252  -2.381  0.00  0.00     0.054 A 
ATOM      3  C3  IND d   1      -1.279   0.112  -2.379  0.00  0.00    -0.031 A 
ATOM      4  C4  IND d   1      -2.862  -0.461  -0.431  0.00  0.00     0.051 A 
ATOM      5  C5  IND d   1      -2.861  -0.832   0.884  0.00  0.00    -0.031 A 
ATOM      6  C6  IND d   1      -1.691  -0.952   1.607  0.00  0.00     0.015 A 
ATOM      7  C7  IND d   1      -0.475  -0.693   1.041  0.00  0.00    -0.016 A 
ATOM      8  C8  IND d   1      -0.472  -0.323  -0.296  0.00  0.00    -0.047 A 
ATOM      9  C9  IND d   1      -1.652  -0.241  -1.046  0.00  0.00    -0.096 A 
ATOM     10  HN1 IND d   1       1.406  -0.011  -0.927  0.00  0.00     0.298 HD
ENDROOT
TORSDOF 0
ENDMDL
