MODEL 1
REMARK minimizedAffinity -2.13268757
REMARK minimizedRMSD -1
REMARK  0 active torsions:
REMARK  status: ('A' for Active; 'I' for Inactive)
ROOT
ATOM      1  N1  IND d   1      -0.627   0.503  -1.377  0.00  0.00    -0.196 N 
ATOM      2  C2  IND d   1      -0.352   0.863  -0.087  0.00  0.00     0.054 A 
ATOM      3  C3  IND d   1      -0.897  -0.023   0.776  0.00  0.00    -0.031 A 
ATOM      4  C4  IND d   1      -2.194  -2.193   0.290  0.00  0.00     0.051 A 
ATOM      5  C5  IND d   1      -2.726  -2.923  -0.736  0.00  0.00    -0.031 A 
ATOM      6  C6  IND d   1      -2.580  -2.542  -2.054  0.00  0.00     0.015 A 
ATOM      7  C7  IND d   1      -1.884  -1.418  -2.398  0.00  0.00    -0.016 A 
ATOM      8  C8  IND d   1      -1.349  -0.671  -1.359  0.00  0.00    -0.047 A 
ATOM      9  C9  IND d   1      -1.530  -1.029  -0.017  0.00  0.00    -0.096 A 
ATOM     10  HN1 IND d   1      -0.390   0.936  -2.080  0.00  0.00     0.298 HD
ENDROOT
TORSDOF 0
ENDMDL
