MODEL 1
REMARK minimizedAffinity -5.2825036
REMARK minimizedRMSD -1
REMARK  0 active torsions:
REMARK  status: ('A' for Active; 'I' for Inactive)
ROOT
ATOM      1  N1  IND d   1       0.445   0.042   0.768  0.00  0.00    -0.196 N 
ATOM      2  C2  IND d   1      -0.643   0.274  -0.027  0.00  0.00     0.054 A 
ATOM      3  C3  IND d   1      -0.615   1.537  -0.507  0.00  0.00    -0.031 A 
ATOM      4  C4  IND d   1       1.173   3.364  -0.199  0.00  0.00     0.051 A 
ATOM      5  C5  IND d   1       2.333   3.634   0.471  0.00  0.00    -0.031 A 
ATOM      6  C6  IND d   1       2.936   2.701   1.289  0.00  0.00     0.015 A 
ATOM      7  C7  IND d   1       2.406   1.453   1.459  0.00  0.00    -0.016 A 
ATOM      8  C8  IND d   1       1.225   1.178   0.785  0.00  0.00    -0.047 A 
ATOM      9  C9  IND d   1       0.585   2.135  -0.013  0.00  0.00    -0.096 A 
ATOM     10  HN1 IND d   1       0.614  -0.690   1.186  0.00  0.00     0.298 HD
ENDROOT
TORSDOF 0
ENDMDL
