MODEL 1
REMARK minimizedAffinity -5.21062899
REMARK minimizedRMSD -1
REMARK  0 active torsions:
REMARK  status: ('A' for Active; 'I' for Inactive)
ROOT
ATOM      1  N1  IND d   1      -2.720  -0.528  -1.907  0.00  0.00    -0.196 N 
ATOM      2  C2  IND d   1      -3.366  -1.285  -0.970  0.00  0.00     0.054 A 
ATOM      3  C3  IND d   1      -2.596  -1.426   0.132  0.00  0.00    -0.031 A 
ATOM      4  C4  IND d   1      -0.286  -0.417   0.655  0.00  0.00     0.051 A 
ATOM      5  C5  IND d   1       0.722   0.314   0.092  0.00  0.00    -0.031 A 
ATOM      6  C6  IND d   1       0.632   0.814  -1.190  0.00  0.00     0.015 A 
ATOM      7  C7  IND d   1      -0.480   0.611  -1.958  0.00  0.00    -0.016 A 
ATOM      8  C8  IND d   1      -1.503  -0.137  -1.392  0.00  0.00    -0.047 A 
ATOM      9  C9  IND d   1      -1.400  -0.683  -0.107  0.00  0.00    -0.096 A 
ATOM     10  HN1 IND d   1      -3.022  -0.329  -2.687  0.00  0.00     0.298 HD
ENDROOT
TORSDOF 0
ENDMDL
