MODEL 1
REMARK minimizedAffinity -4.67389107
REMARK minimizedRMSD -1
REMARK  0 active torsions:
REMARK  status: ('A' for Active; 'I' for Inactive)
ROOT
ATOM      1  N1  IND d   1      -1.053  -2.107   1.228  0.00  0.00    -0.196 N 
ATOM      2  C2  IND d   1      -2.212  -2.831   1.184  0.00  0.00     0.054 A 
ATOM      3  C3  IND d   1      -3.015  -2.373   0.198  0.00  0.00    -0.031 A 
ATOM      4  C4  IND d   1      -2.586  -0.514  -1.531  0.00  0.00     0.051 A 
ATOM      5  C5  IND d   1      -1.684   0.456  -1.868  0.00  0.00    -0.031 A 
ATOM      6  C6  IND d   1      -0.501   0.623  -1.178  0.00  0.00     0.015 A 
ATOM      7  C7  IND d   1      -0.169  -0.185  -0.128  0.00  0.00    -0.016 A 
ATOM      8  C8  IND d   1      -1.085  -1.167   0.222  0.00  0.00    -0.047 A 
ATOM      9  C9  IND d   1      -2.307  -1.314  -0.448  0.00  0.00    -0.096 A 
ATOM     10  HN1 IND d   1      -0.412  -2.220   1.790  0.00  0.00     0.298 HD
ENDROOT
TORSDOF 0
ENDMDL
