MODEL 1
REMARK minimizedAffinity -5.00504923
REMARK minimizedRMSD -1
REMARK  0 active torsions:
REMARK  status: ('A' for Active; 'I' for Inactive)
ROOT
ATOM      1  N1  IND d   1       0.005   0.207   1.594  0.00  0.00    -0.196 N 
ATOM      2  C2  IND d   1       1.254   0.218   1.038  0.00  0.00     0.054 A 
ATOM      3  C3  IND d   1       1.182  -0.042  -0.286  0.00  0.00    -0.031 A 
ATOM      4  C4  IND d   1      -0.888  -0.416  -1.770  0.00  0.00     0.051 A 
ATOM      5  C5  IND d   1      -2.246  -0.555  -1.709  0.00  0.00    -0.031 A 
ATOM      6  C6  IND d   1      -2.938  -0.443  -0.520  0.00  0.00     0.015 A 
ATOM      7  C7  IND d   1      -2.295  -0.174   0.655  0.00  0.00    -0.016 A 
ATOM      8  C8  IND d   1      -0.915  -0.039   0.598  0.00  0.00    -0.047 A 
ATOM      9  C9  IND d   1      -0.203  -0.195  -0.599  0.00  0.00    -0.096 A 
ATOM     10  HN1 IND d   1      -0.176   0.332   2.425  0.00  0.00     0.298 HD
ENDROOT
TORSDOF 0
ENDMDL
