MODEL 1
REMARK minimizedAffinity -1.27299929
REMARK minimizedRMSD -1
REMARK  0 active torsions:
REMARK  status: ('A' for Active; 'I' for Inactive)
ROOT
ATOM      1  N1  IND d   1       1.427   0.212   2.045  0.00  0.00    -0.196 N 
ATOM      2  C2  IND d   1       1.465  -0.609   0.953  0.00  0.00     0.054 A 
ATOM      3  C3  IND d   1       2.058   0.019  -0.087  0.00  0.00    -0.031 A 
ATOM      4  C4  IND d   1       3.131   2.357  -0.190  0.00  0.00     0.051 A 
ATOM      5  C5  IND d   1       3.311   3.493   0.548  0.00  0.00    -0.031 A 
ATOM      6  C6  IND d   1       2.865   3.595   1.849  0.00  0.00     0.015 A 
ATOM      7  C7  IND d   1       2.230   2.556   2.469  0.00  0.00    -0.016 A 
ATOM      8  C8  IND d   1       2.040   1.403   1.720  0.00  0.00    -0.047 A 
ATOM      9  C9  IND d   1       2.453   1.308   0.385  0.00  0.00    -0.096 A 
ATOM     10  HN1 IND d   1       1.079   0.018   2.807  0.00  0.00     0.298 HD
ENDROOT
TORSDOF 0
ENDMDL
