MODEL 1
REMARK minimizedAffinity 5.67411041
REMARK minimizedRMSD -1
REMARK  1 active torsions:
REMARK  status: ('A' for Active; 'I' for Inactive)
REMARK    1  A    between atoms: C1_2  and  C2_3 
ROOT
ATOM      1  C2  UNL d   1       0.500   2.097   0.379  0.00  0.00    -0.081 A 
ATOM      2  C3  UNL d   1       1.754   1.850  -0.192  0.00  0.00     0.006 A 
ATOM      3  C4  UNL d   1       2.269   0.552  -0.235  0.00  0.00     0.002 A 
ATOM      4  C5  UNL d   1       1.536  -0.520   0.285  0.00  0.00    -0.080 A 
ATOM      5  C6  UNL d   1       2.063  -1.922   0.219  0.00  0.00     0.076 C 
ATOM      6  C7  UNL d   1       0.290  -0.270   0.872  0.00  0.00     0.002 A 
ATOM      7  C8  UNL d   1      -0.224   1.027   0.916  0.00  0.00     0.006 A 
ENDROOT
BRANCH   1   8
ATOM      8  C1  UNL d   1      -0.086   3.486   0.369  0.00  0.00     0.054 C 
ATOM      9  C   UNL d   1      -0.258   4.003  -1.052  0.00  0.00     0.018 C 
ENDBRANCH   1   8
TORSDOF 1
ENDMDL
