MODEL 1
REMARK minimizedAffinity 11.0120564
REMARK minimizedRMSD -1
REMARK  1 active torsions:
REMARK  status: ('A' for Active; 'I' for Inactive)
REMARK    1  A    between atoms: C1_2  and  C2_3 
ROOT
ATOM      1  C2  UNL d   1      -0.331   1.944   1.434  0.00  0.00    -0.081 A 
ATOM      2  C3  UNL d   1      -1.037   0.847   1.943  0.00  0.00     0.006 A 
ATOM      3  C4  UNL d   1      -2.425   0.769   1.800  0.00  0.00     0.002 A 
ATOM      4  C5  UNL d   1      -3.128   1.782   1.139  0.00  0.00    -0.080 A 
ATOM      5  C6  UNL d   1      -4.613   1.696   0.952  0.00  0.00     0.076 C 
ATOM      6  C7  UNL d   1      -2.425   2.886   0.645  0.00  0.00     0.002 A 
ATOM      7  C8  UNL d   1      -1.038   2.965   0.789  0.00  0.00     0.006 A 
ENDROOT
BRANCH   1   8
ATOM      8  C1  UNL d   1       1.172   1.999   1.530  0.00  0.00     0.054 C 
ATOM      9  C   UNL d   1       1.821   0.925   0.669  0.00  0.00     0.018 C 
ENDBRANCH   1   8
TORSDOF 1
ENDMDL
