MODEL 1
REMARK minimizedAffinity 8.63738728
REMARK minimizedRMSD -1
REMARK  1 active torsions:
REMARK  status: ('A' for Active; 'I' for Inactive)
REMARK    1  A    between atoms: C1_2  and  C2_3 
ROOT
ATOM      1  C2  UNL d   1      -5.792   4.439  -1.195  0.00  0.00    -0.081 A 
ATOM      2  C3  UNL d   1      -5.616   3.420  -2.139  0.00  0.00     0.006 A 
ATOM      3  C4  UNL d   1      -5.493   2.090  -1.730  0.00  0.00     0.002 A 
ATOM      4  C5  UNL d   1      -5.552   1.756  -0.372  0.00  0.00    -0.080 A 
ATOM      5  C6  UNL d   1      -5.452   0.329   0.078  0.00  0.00     0.076 C 
ATOM      6  C7  UNL d   1      -5.711   2.776   0.572  0.00  0.00     0.002 A 
ATOM      7  C8  UNL d   1      -5.833   4.106   0.163  0.00  0.00     0.006 A 
ENDROOT
BRANCH   1   8
ATOM      8  C1  UNL d   1      -5.990   5.867  -1.637  0.00  0.00     0.054 C 
ATOM      9  C   UNL d   1      -5.991   5.981  -3.155  0.00  0.00     0.018 C 
ENDBRANCH   1   8
TORSDOF 1
ENDMDL
