MODEL 1
REMARK minimizedAffinity 9.40680313
REMARK minimizedRMSD -1
REMARK  1 active torsions:
REMARK  status: ('A' for Active; 'I' for Inactive)
REMARK    1  A    between atoms: C1_2  and  C2_3 
ROOT
ATOM      1  C2  UNL d   1       1.822   0.865   0.438  0.00  0.00    -0.081 A 
ATOM      2  C3  UNL d   1       2.124   1.447  -0.799  0.00  0.00     0.006 A 
ATOM      3  C4  UNL d   1       2.210   0.660  -1.950  0.00  0.00     0.002 A 
ATOM      4  C5  UNL d   1       1.987  -0.719  -1.884  0.00  0.00    -0.080 A 
ATOM      5  C6  UNL d   1       2.046  -1.571  -3.118  0.00  0.00     0.076 C 
ATOM      6  C7  UNL d   1       1.702  -1.304  -0.646  0.00  0.00     0.002 A 
ATOM      7  C8  UNL d   1       1.617  -0.518   0.506  0.00  0.00     0.006 A 
ENDROOT
BRANCH   1   8
ATOM      8  C1  UNL d   1       1.665   1.720   1.670  0.00  0.00     0.054 C 
ATOM      9  C   UNL d   1       0.306   2.405   1.699  0.00  0.00     0.018 C 
ENDBRANCH   1   8
TORSDOF 1
ENDMDL
