MODEL 1
REMARK minimizedAffinity 7.96908236
REMARK minimizedRMSD -1
REMARK  1 active torsions:
REMARK  status: ('A' for Active; 'I' for Inactive)
REMARK    1  A    between atoms: C1_2  and  C2_3 
ROOT
ATOM      1  C2  UNL d   1       1.124   1.565  -0.369  0.00  0.00    -0.081 A 
ATOM      2  C3  UNL d   1       1.709   0.492   0.315  0.00  0.00     0.006 A 
ATOM      3  C4  UNL d   1       2.156  -0.633  -0.383  0.00  0.00     0.002 A 
ATOM      4  C5  UNL d   1       2.032  -0.700  -1.775  0.00  0.00    -0.080 A 
ATOM      5  C6  UNL d   1       2.535  -1.889  -2.539  0.00  0.00     0.076 C 
ATOM      6  C7  UNL d   1       1.432   0.364  -2.456  0.00  0.00     0.002 A 
ATOM      7  C8  UNL d   1       0.985   1.489  -1.759  0.00  0.00     0.006 A 
ENDROOT
BRANCH   1   8
ATOM      8  C1  UNL d   1       0.701   2.807   0.374  0.00  0.00     0.054 C 
ATOM      9  C   UNL d   1      -0.778   3.100   0.163  0.00  0.00     0.018 C 
ENDBRANCH   1   8
TORSDOF 1
ENDMDL
