MODEL 1
REMARK minimizedAffinity 5.41900396
REMARK minimizedRMSD -1
REMARK  1 active torsions:
REMARK  status: ('A' for Active; 'I' for Inactive)
REMARK    1  A    between atoms: C1_2  and  C2_3 
ROOT
ATOM      1  C2  UNL d   1       0.691   1.616   0.584  0.00  0.00    -0.081 A 
ATOM      2  C3  UNL d   1      -0.170   0.611   1.041  0.00  0.00     0.006 A 
ATOM      3  C4  UNL d   1      -1.522   0.885   1.264  0.00  0.00     0.002 A 
ATOM      4  C5  UNL d   1      -2.036   2.164   1.027  0.00  0.00    -0.080 A 
ATOM      5  C6  UNL d   1      -3.491   2.463   1.233  0.00  0.00     0.076 C 
ATOM      6  C7  UNL d   1      -1.172   3.173   0.588  0.00  0.00     0.002 A 
ATOM      7  C8  UNL d   1       0.180   2.900   0.365  0.00  0.00     0.006 A 
ENDROOT
BRANCH   1   8
ATOM      8  C1  UNL d   1       2.135   1.309   0.281  0.00  0.00     0.054 C 
ATOM      9  C   UNL d   1       2.347  -0.181   0.051  0.00  0.00     0.018 C 
ENDBRANCH   1   8
TORSDOF 1
ENDMDL
