MODEL 1
REMARK minimizedAffinity 5.51614666
REMARK minimizedRMSD -1
REMARK  1 active torsions:
REMARK  status: ('A' for Active; 'I' for Inactive)
REMARK    1  A    between atoms: C1_2  and  C2_3 
ROOT
ATOM      1  C2  UNL d   1       0.218   1.347   0.779  0.00  0.00    -0.081 A 
ATOM      2  C3  UNL d   1       1.158   2.362   1.000  0.00  0.00     0.006 A 
ATOM      3  C4  UNL d   1       2.525   2.080   0.965  0.00  0.00     0.002 A 
ATOM      4  C5  UNL d   1       2.977   0.783   0.701  0.00  0.00    -0.080 A 
ATOM      5  C6  UNL d   1       4.442   0.474   0.631  0.00  0.00     0.076 C 
ATOM      6  C7  UNL d   1       2.038  -0.234   0.497  0.00  0.00     0.002 A 
ATOM      7  C8  UNL d   1       0.670   0.046   0.532  0.00  0.00     0.006 A 
ENDROOT
BRANCH   1   8
ATOM      8  C1  UNL d   1      -1.256   1.661   0.751  0.00  0.00     0.054 C 
ATOM      9  C   UNL d   1      -1.502   3.162   0.727  0.00  0.00     0.018 C 
ENDBRANCH   1   8
TORSDOF 1
ENDMDL
