MODEL 1
REMARK minimizedAffinity 5.68270874
REMARK minimizedRMSD -1
REMARK  1 active torsions:
REMARK  status: ('A' for Active; 'I' for Inactive)
REMARK    1  A    between atoms: C1_2  and  C2_3 
ROOT
ATOM      1  C2  UNL d   1       1.265  -0.332   0.532  0.00  0.00    -0.081 A 
ATOM      2  C3  UNL d   1       0.071  -0.627   1.202  0.00  0.00     0.006 A 
ATOM      3  C4  UNL d   1      -0.751   0.401   1.670  0.00  0.00     0.002 A 
ATOM      4  C5  UNL d   1      -0.397   1.740   1.470  0.00  0.00    -0.080 A 
ATOM      5  C6  UNL d   1      -1.285   2.853   1.941  0.00  0.00     0.076 C 
ATOM      6  C7  UNL d   1       0.804   2.034   0.816  0.00  0.00     0.002 A 
ATOM      7  C8  UNL d   1       1.627   1.007   0.349  0.00  0.00     0.006 A 
ENDROOT
BRANCH   1   8
ATOM      8  C1  UNL d   1       2.121  -1.438  -0.031  0.00  0.00     0.054 C 
ATOM      9  C   UNL d   1       1.766  -1.728  -1.482  0.00  0.00     0.018 C 
ENDBRANCH   1   8
TORSDOF 1
ENDMDL
