MODEL 1
REMARK minimizedAffinity -1.17032397
REMARK minimizedRMSD -1
REMARK  0 active torsions:
REMARK  status: ('A' for Active; 'I' for Inactive)
ROOT
ATOM      1  C   UNL d   1       1.683   1.282  -5.019  0.00  0.00     0.023 A 
ATOM      2  C1  UNL d   1       2.664   1.078  -4.049  0.00  0.00     0.003 A 
ATOM      3  C2  UNL d   1       2.308   0.616  -2.780  0.00  0.00     0.048 A 
ATOM      4  C3  UNL d   1       0.969   0.360  -2.488  0.00  0.00     0.023 A 
ATOM      5  C4  UNL d   1      -0.017   0.562  -3.456  0.00  0.00     0.048 A 
ATOM      6  C5  UNL d   1       0.344   1.024  -4.723  0.00  0.00     0.003 A 
ATOM      7  I   UNL d   1       0.436  -0.328  -0.600  0.00  0.00    -0.146 I 
ENDROOT
TORSDOF 0
ENDMDL
