MODEL 1
REMARK minimizedAffinity 0.0903468505
REMARK minimizedRMSD -1
REMARK  0 active torsions:
REMARK  status: ('A' for Active; 'I' for Inactive)
ROOT
ATOM      1  C   UNL d   1       2.305   0.812  -4.631  0.00  0.00     0.023 A 
ATOM      2  C1  UNL d   1       3.052   0.508  -3.492  0.00  0.00     0.003 A 
ATOM      3  C2  UNL d   1       2.405   0.182  -2.298  0.00  0.00     0.048 A 
ATOM      4  C3  UNL d   1       1.012   0.161  -2.250  0.00  0.00     0.023 A 
ATOM      5  C4  UNL d   1       0.261   0.464  -3.387  0.00  0.00     0.048 A 
ATOM      6  C5  UNL d   1       0.911   0.790  -4.578  0.00  0.00     0.003 A 
ATOM      7  I   UNL d   1       0.047  -0.325  -0.474  0.00  0.00    -0.146 I 
ENDROOT
TORSDOF 0
ENDMDL
