MODEL 1
REMARK minimizedAffinity -4.5345068
REMARK minimizedRMSD -1
REMARK  0 active torsions:
REMARK  status: ('A' for Active; 'I' for Inactive)
ROOT
ATOM      1  C   UNL d   1       0.700   1.038   3.770  0.00  0.00     0.023 A 
ATOM      2  C1  UNL d   1       1.615   0.290   3.028  0.00  0.00     0.003 A 
ATOM      3  C2  UNL d   1       1.317  -0.077   1.714  0.00  0.00     0.048 A 
ATOM      4  C3  UNL d   1       0.102   0.309   1.147  0.00  0.00     0.023 A 
ATOM      5  C4  UNL d   1      -0.816   1.058   1.885  0.00  0.00     0.048 A 
ATOM      6  C5  UNL d   1      -0.514   1.421   3.199  0.00  0.00     0.003 A 
ATOM      7  I   UNL d   1      -0.343  -0.235  -0.808  0.00  0.00    -0.146 I 
ENDROOT
TORSDOF 0
ENDMDL
