MODEL 1
REMARK minimizedAffinity 1.10564339
REMARK minimizedRMSD -1
REMARK  0 active torsions:
REMARK  status: ('A' for Active; 'I' for Inactive)
ROOT
ATOM      1  C   UNL d   1       1.161  -0.378   1.622  0.00  0.00     0.023 A 
ATOM      2  C1  UNL d   1       0.015   0.262   1.150  0.00  0.00     0.003 A 
ATOM      3  C2  UNL d   1      -0.294   0.231  -0.211  0.00  0.00     0.048 A 
ATOM      4  C3  UNL d   1       0.548  -0.443  -1.096  0.00  0.00     0.023 A 
ATOM      5  C4  UNL d   1       1.695  -1.086  -0.628  0.00  0.00     0.048 A 
ATOM      6  C5  UNL d   1       2.000  -1.051   0.734  0.00  0.00     0.003 A 
ATOM      7  I   UNL d   1       0.090  -0.491  -3.122  0.00  0.00    -0.146 I 
ENDROOT
TORSDOF 0
ENDMDL
