MODEL 1
REMARK minimizedAffinity -2.26094294
REMARK minimizedRMSD -1
REMARK  0 active torsions:
REMARK  status: ('A' for Active; 'I' for Inactive)
ROOT
ATOM      1  C   UNL d   1       1.018   0.646  -4.093  0.00  0.00     0.023 A 
ATOM      2  C1  UNL d   1       0.004  -0.071  -4.729  0.00  0.00     0.003 A 
ATOM      3  C2  UNL d   1      -0.489  -1.244  -4.155  0.00  0.00     0.048 A 
ATOM      4  C3  UNL d   1       0.035  -1.695  -2.944  0.00  0.00     0.023 A 
ATOM      5  C4  UNL d   1       1.049  -0.981  -2.304  0.00  0.00     0.048 A 
ATOM      6  C5  UNL d   1       1.540   0.191  -2.882  0.00  0.00     0.003 A 
ATOM      7  I   UNL d   1      -0.697  -3.441  -2.087  0.00  0.00    -0.146 I 
ENDROOT
TORSDOF 0
ENDMDL
