MODEL 1
REMARK minimizedAffinity 1.84668922
REMARK minimizedRMSD -1
REMARK  0 active torsions:
REMARK  status: ('A' for Active; 'I' for Inactive)
ROOT
ATOM      1  C   UNL d   1       1.458   1.388   1.801  0.00  0.00     0.023 A 
ATOM      2  C1  UNL d   1       1.950   0.171   1.329  0.00  0.00     0.003 A 
ATOM      3  C2  UNL d   1       1.124  -0.677   0.587  0.00  0.00     0.048 A 
ATOM      4  C3  UNL d   1      -0.192  -0.301   0.322  0.00  0.00     0.023 A 
ATOM      5  C4  UNL d   1      -0.688   0.916   0.792  0.00  0.00     0.048 A 
ATOM      6  C5  UNL d   1       0.141   1.760   1.533  0.00  0.00     0.003 A 
ATOM      7  I   UNL d   1      -1.424  -1.560  -0.782  0.00  0.00    -0.146 I 
ENDROOT
TORSDOF 0
ENDMDL
