MODEL 1
REMARK minimizedAffinity -2.00770855
REMARK minimizedRMSD -1
REMARK  0 active torsions:
REMARK  status: ('A' for Active; 'I' for Inactive)
ROOT
ATOM      1  C   UNL d   1      -2.659  -2.366  -1.837  0.00  0.00     0.023 A 
ATOM      2  C1  UNL d   1      -2.956  -1.434  -0.843  0.00  0.00     0.003 A 
ATOM      3  C2  UNL d   1      -1.926  -0.754  -0.191  0.00  0.00     0.048 A 
ATOM      4  C3  UNL d   1      -0.600  -1.009  -0.539  0.00  0.00     0.023 A 
ATOM      5  C4  UNL d   1      -0.297  -1.940  -1.535  0.00  0.00     0.048 A 
ATOM      6  C5  UNL d   1      -1.331  -2.618  -2.183  0.00  0.00     0.003 A 
ATOM      7  I   UNL d   1       0.935   0.003   0.429  0.00  0.00    -0.146 I 
ENDROOT
TORSDOF 0
ENDMDL
