MODEL 1
REMARK minimizedAffinity 0.0280753914
REMARK minimizedRMSD -1
REMARK  0 active torsions:
REMARK  status: ('A' for Active; 'I' for Inactive)
ROOT
ATOM      1  C   UNL d   1       0.064   1.360   2.219  0.00  0.00     0.023 A 
ATOM      2  C1  UNL d   1      -1.182   0.867   2.609  0.00  0.00     0.003 A 
ATOM      3  C2  UNL d   1      -1.835  -0.083   1.821  0.00  0.00     0.048 A 
ATOM      4  C3  UNL d   1      -1.238  -0.536   0.645  0.00  0.00     0.023 A 
ATOM      5  C4  UNL d   1       0.009  -0.046   0.252  0.00  0.00     0.048 A 
ATOM      6  C5  UNL d   1       0.658   0.904   1.043  0.00  0.00     0.003 A 
ATOM      7  I   UNL d   1      -2.208  -1.950  -0.529  0.00  0.00    -0.146 I 
ENDROOT
TORSDOF 0
ENDMDL
