MODEL 1
REMARK minimizedAffinity -0.537169456
REMARK minimizedRMSD -1
REMARK  0 active torsions:
REMARK  status: ('A' for Active; 'I' for Inactive)
ROOT
ATOM      1  C   UNL d   1       0.778   1.323   1.200  0.00  0.00     0.023 A 
ATOM      2  C1  UNL d   1       0.870  -0.003   1.624  0.00  0.00     0.003 A 
ATOM      3  C2  UNL d   1       0.252  -1.017   0.889  0.00  0.00     0.048 A 
ATOM      4  C3  UNL d   1      -0.456  -0.698  -0.269  0.00  0.00     0.023 A 
ATOM      5  C4  UNL d   1      -0.550   0.627  -0.697  0.00  0.00     0.048 A 
ATOM      6  C5  UNL d   1       0.069   1.638   0.041  0.00  0.00     0.003 A 
ATOM      7  I   UNL d   1      -1.377  -2.205  -1.364  0.00  0.00    -0.146 I 
ENDROOT
TORSDOF 0
ENDMDL
