MODEL 1
REMARK minimizedAffinity -3.71355319
REMARK minimizedRMSD -1
REMARK  1 active torsions:
REMARK  status: ('A' for Active; 'I' for Inactive)
REMARK    1  A    between atoms: C1_2  and  C2_3 
ROOT
ATOM      1  C2  UNL d   1      -0.258   1.341   0.113  0.00  0.00    -0.077 A 
ATOM      2  C3  UNL d   1      -0.224   1.402   1.513  0.00  0.00     0.002 A 
ATOM      3  C4  UNL d   1      -1.036   2.307   2.200  0.00  0.00     0.002 A 
ATOM      4  C5  UNL d   1      -1.889   3.154   1.495  0.00  0.00    -0.004 A 
ATOM      5  C6  UNL d   1      -1.929   3.102   0.102  0.00  0.00     0.002 A 
ATOM      6  C7  UNL d   1      -1.117   2.199  -0.586  0.00  0.00     0.002 A 
ENDROOT
BRANCH   1   7
ATOM      7  C1  UNL d   1       0.580   0.331  -0.627  0.00  0.00     0.055 C 
ATOM      8  C   UNL d   1       0.175  -1.092  -0.272  0.00  0.00     0.019 C 
ENDBRANCH   1   7
TORSDOF 1
ENDMDL
