MODEL 1
REMARK minimizedAffinity -0.428953528
REMARK minimizedRMSD -1
REMARK  1 active torsions:
REMARK  status: ('A' for Active; 'I' for Inactive)
REMARK    1  A    between atoms: C1_2  and  C2_3 
ROOT
ATOM      1  C2  UNL d   1      -0.565   0.499   1.205  0.00  0.00    -0.077 A 
ATOM      2  C3  UNL d   1      -0.781   1.444   2.218  0.00  0.00     0.002 A 
ATOM      3  C4  UNL d   1      -1.425   2.650   1.933  0.00  0.00     0.002 A 
ATOM      4  C5  UNL d   1      -1.861   2.919   0.638  0.00  0.00    -0.004 A 
ATOM      5  C6  UNL d   1      -1.649   1.987  -0.377  0.00  0.00     0.002 A 
ATOM      6  C7  UNL d   1      -1.005   0.781  -0.094  0.00  0.00     0.002 A 
ENDROOT
BRANCH   1   7
ATOM      7  C1  UNL d   1       0.085  -0.823   1.520  0.00  0.00     0.055 C 
ATOM      8  C   UNL d   1       1.059  -0.697   2.683  0.00  0.00     0.019 C 
ENDBRANCH   1   7
TORSDOF 1
ENDMDL
