MODEL 1
REMARK minimizedAffinity -0.874220967
REMARK minimizedRMSD -1
REMARK  1 active torsions:
REMARK  status: ('A' for Active; 'I' for Inactive)
REMARK    1  A    between atoms: C1_2  and  C2_3 
ROOT
ATOM      1  C2  UNL d   1      -0.059   0.111   1.749  0.00  0.00    -0.077 A 
ATOM      2  C3  UNL d   1      -0.744   0.329   0.545  0.00  0.00     0.002 A 
ATOM      3  C4  UNL d   1      -1.575   1.441   0.396  0.00  0.00     0.002 A 
ATOM      4  C5  UNL d   1      -1.725   2.346   1.444  0.00  0.00    -0.004 A 
ATOM      5  C6  UNL d   1      -1.050   2.137   2.647  0.00  0.00     0.002 A 
ATOM      6  C7  UNL d   1      -0.221   1.026   2.798  0.00  0.00     0.002 A 
ENDROOT
BRANCH   1   7
ATOM      7  C1  UNL d   1       0.875  -1.061   1.895  0.00  0.00     0.055 C 
ATOM      8  C   UNL d   1       0.893  -1.580   3.325  0.00  0.00     0.019 C 
ENDBRANCH   1   7
TORSDOF 1
ENDMDL
