MODEL 1
REMARK minimizedAffinity 3.93070531
REMARK minimizedRMSD -1
REMARK  1 active torsions:
REMARK  status: ('A' for Active; 'I' for Inactive)
REMARK    1  A    between atoms: C1_2  and  C2_3 
ROOT
ATOM      1  C2  UNL d   1      -1.070   2.483   0.864  0.00  0.00    -0.077 A 
ATOM      2  C3  UNL d   1       0.183   2.358   0.247  0.00  0.00     0.002 A 
ATOM      3  C4  UNL d   1       0.295   1.762  -1.010  0.00  0.00     0.002 A 
ATOM      4  C5  UNL d   1      -0.842   1.289  -1.663  0.00  0.00    -0.004 A 
ATOM      5  C6  UNL d   1      -2.092   1.407  -1.057  0.00  0.00     0.002 A 
ATOM      6  C7  UNL d   1      -2.206   2.002   0.200  0.00  0.00     0.002 A 
ENDROOT
BRANCH   1   7
ATOM      7  C1  UNL d   1      -1.200   3.170   2.198  0.00  0.00     0.055 C 
ATOM      8  C   UNL d   1       0.145   3.264   2.905  0.00  0.00     0.019 C 
ENDBRANCH   1   7
TORSDOF 1
ENDMDL
