MODEL 1
REMARK minimizedAffinity -3.77115703
REMARK minimizedRMSD -1
REMARK  1 active torsions:
REMARK  status: ('A' for Active; 'I' for Inactive)
REMARK    1  A    between atoms: C1_2  and  C2_3 
ROOT
ATOM      1  C2  UNL d   1      -0.714   1.249   2.437  0.00  0.00    -0.077 A 
ATOM      2  C3  UNL d   1      -0.156   0.089   1.882  0.00  0.00     0.002 A 
ATOM      3  C4  UNL d   1      -0.359  -0.218   0.535  0.00  0.00     0.002 A 
ATOM      4  C5  UNL d   1      -1.115   0.633  -0.269  0.00  0.00    -0.004 A 
ATOM      5  C6  UNL d   1      -1.675   1.788   0.274  0.00  0.00     0.002 A 
ATOM      6  C7  UNL d   1      -1.475   2.095   1.620  0.00  0.00     0.002 A 
ENDROOT
BRANCH   1   7
ATOM      7  C1  UNL d   1      -0.455   1.607   3.877  0.00  0.00     0.055 C 
ATOM      8  C   UNL d   1       0.558   2.736   3.994  0.00  0.00     0.019 C 
ENDBRANCH   1   7
TORSDOF 1
ENDMDL
