MODEL 1
REMARK minimizedAffinity -5.53035593
REMARK minimizedRMSD -1
REMARK  1 active torsions:
REMARK  status: ('A' for Active; 'I' for Inactive)
REMARK    1  A    between atoms: C1_2  and  C2_3 
ROOT
ATOM      1  C2  UNL d   1       0.253  -0.687  -0.667  0.00  0.00    -0.077 A 
ATOM      2  C3  UNL d   1      -0.549   0.445  -0.867  0.00  0.00     0.002 A 
ATOM      3  C4  UNL d   1      -1.241   1.019   0.202  0.00  0.00     0.002 A 
ATOM      4  C5  UNL d   1      -1.134   0.471   1.478  0.00  0.00    -0.004 A 
ATOM      5  C6  UNL d   1      -0.340  -0.656   1.687  0.00  0.00     0.002 A 
ATOM      6  C7  UNL d   1       0.351  -1.232   0.620  0.00  0.00     0.002 A 
ENDROOT
BRANCH   1   7
ATOM      7  C1  UNL d   1       1.038  -1.278  -1.808  0.00  0.00     0.055 C 
ATOM      8  C   UNL d   1       1.074  -2.797  -1.728  0.00  0.00     0.019 C 
ENDBRANCH   1   7
TORSDOF 1
ENDMDL
