MODEL 1
REMARK minimizedAffinity -5.61738968
REMARK minimizedRMSD -1
REMARK  1 active torsions:
REMARK  status: ('A' for Active; 'I' for Inactive)
REMARK    1  A    between atoms: C1_2  and  C2_3 
ROOT
ATOM      1  C2  UNL d   1      -0.366  -0.002   0.568  0.00  0.00    -0.077 A 
ATOM      2  C3  UNL d   1      -0.915   1.047  -0.183  0.00  0.00     0.002 A 
ATOM      3  C4  UNL d   1      -1.590   2.092   0.451  0.00  0.00     0.002 A 
ATOM      4  C5  UNL d   1      -1.718   2.100   1.839  0.00  0.00    -0.004 A 
ATOM      5  C6  UNL d   1      -1.177   1.060   2.594  0.00  0.00     0.002 A 
ATOM      6  C7  UNL d   1      -0.504   0.015   1.962  0.00  0.00     0.002 A 
ENDROOT
BRANCH   1   7
ATOM      7  C1  UNL d   1       0.405  -1.104  -0.111  0.00  0.00     0.055 C 
ATOM      8  C   UNL d   1       1.387  -0.546  -1.130  0.00  0.00     0.019 C 
ENDBRANCH   1   7
TORSDOF 1
ENDMDL
