MODEL 1
REMARK minimizedAffinity -5.87044668
REMARK minimizedRMSD -1
REMARK  1 active torsions:
REMARK  status: ('A' for Active; 'I' for Inactive)
REMARK    1  A    between atoms: C1_2  and  C2_3 
ROOT
ATOM      1  C2  UNL d   1      -0.004  -0.419   0.083  0.00  0.00    -0.077 A 
ATOM      2  C3  UNL d   1      -0.500   0.685  -0.625  0.00  0.00     0.002 A 
ATOM      3  C4  UNL d   1      -1.328   1.615   0.007  0.00  0.00     0.002 A 
ATOM      4  C5  UNL d   1      -1.663   1.452   1.349  0.00  0.00    -0.004 A 
ATOM      5  C6  UNL d   1      -1.177   0.356   2.061  0.00  0.00     0.002 A 
ATOM      6  C7  UNL d   1      -0.350  -0.575   1.431  0.00  0.00     0.002 A 
ENDROOT
BRANCH   1   7
ATOM      7  C1  UNL d   1       0.929  -1.396  -0.584  0.00  0.00     0.055 C 
ATOM      8  C   UNL d   1       0.205  -2.222  -1.637  0.00  0.00     0.019 C 
ENDBRANCH   1   7
TORSDOF 1
ENDMDL
