MODEL 1
REMARK minimizedAffinity -5.22317791
REMARK minimizedRMSD -1
REMARK  1 active torsions:
REMARK  status: ('A' for Active; 'I' for Inactive)
REMARK    1  A    between atoms: C1_2  and  C2_3 
ROOT
ATOM      1  C2  UNL d   1      -0.227  -0.154   0.768  0.00  0.00    -0.077 A 
ATOM      2  C3  UNL d   1      -0.520   0.879  -0.134  0.00  0.00     0.002 A 
ATOM      3  C4  UNL d   1      -1.295   1.969   0.268  0.00  0.00     0.002 A 
ATOM      4  C5  UNL d   1      -1.780   2.037   1.572  0.00  0.00    -0.004 A 
ATOM      5  C6  UNL d   1      -1.496   1.014   2.476  0.00  0.00     0.002 A 
ATOM      6  C7  UNL d   1      -0.722  -0.076   2.076  0.00  0.00     0.002 A 
ENDROOT
BRANCH   1   7
ATOM      7  C1  UNL d   1       0.651  -1.305   0.351  0.00  0.00     0.055 C 
ATOM      8  C   UNL d   1       1.106  -1.159  -1.094  0.00  0.00     0.019 C 
ENDBRANCH   1   7
TORSDOF 1
ENDMDL
