MODEL 1
REMARK minimizedAffinity -5.28803349
REMARK minimizedRMSD -1
REMARK  1 active torsions:
REMARK  status: ('A' for Active; 'I' for Inactive)
REMARK    1  A    between atoms: C1_2  and  C2_3 
ROOT
ATOM      1  C2  UNL d   1       1.354  -4.522  -1.004  0.00  0.00    -0.077 A 
ATOM      2  C3  UNL d   1       0.604  -4.399  -2.183  0.00  0.00     0.002 A 
ATOM      3  C4  UNL d   1       0.249  -3.138  -2.666  0.00  0.00     0.002 A 
ATOM      4  C5  UNL d   1       0.641  -1.991  -1.980  0.00  0.00    -0.004 A 
ATOM      5  C6  UNL d   1       1.385  -2.102  -0.806  0.00  0.00     0.002 A 
ATOM      6  C7  UNL d   1       1.741  -3.362  -0.321  0.00  0.00     0.002 A 
ENDROOT
BRANCH   1   7
ATOM      7  C1  UNL d   1       1.780  -5.878  -0.508  0.00  0.00     0.055 C 
ATOM      8  C   UNL d   1       3.131  -5.813   0.190  0.00  0.00     0.019 C 
ENDBRANCH   1   7
TORSDOF 1
ENDMDL
