MODEL 1
REMARK minimizedAffinity -2.25275588
REMARK minimizedRMSD -1
REMARK  1 active torsions:
REMARK  status: ('A' for Active; 'I' for Inactive)
REMARK    1  A    between atoms: C1_2  and  C2_3 
ROOT
ATOM      1  C2  UNL d   1       1.316  -4.673  -1.062  0.00  0.00    -0.077 A 
ATOM      2  C3  UNL d   1       1.798  -3.481  -0.504  0.00  0.00     0.002 A 
ATOM      3  C4  UNL d   1       1.469  -2.250  -1.076  0.00  0.00     0.002 A 
ATOM      4  C5  UNL d   1       0.655  -2.200  -2.205  0.00  0.00    -0.004 A 
ATOM      5  C6  UNL d   1       0.173  -3.381  -2.769  0.00  0.00     0.002 A 
ATOM      6  C7  UNL d   1       0.501  -4.612  -2.199  0.00  0.00     0.002 A 
ENDROOT
BRANCH   1   7
ATOM      7  C1  UNL d   1       1.629  -5.999  -0.418  0.00  0.00     0.055 C 
ATOM      8  C   UNL d   1       2.947  -5.948   0.342  0.00  0.00     0.019 C 
ENDBRANCH   1   7
TORSDOF 1
ENDMDL
