MODEL 1
REMARK minimizedAffinity -3.46740818
REMARK minimizedRMSD -1
REMARK  0 active torsions:
REMARK  status: ('A' for Active; 'I' for Inactive)
ROOT
ATOM      1  C2' OXE d   1      -2.606   1.070   0.355  0.00  0.00     0.078 C 
ATOM      2  C1' OXE d   1      -4.582   0.117   2.106  0.00  0.00     0.078 C 
ATOM      3  C1  OXE d   1      -4.753  -0.162   0.634  0.00  0.00    -0.078 A 
ATOM      4  C2  OXE d   1      -3.805   0.348  -0.221  0.00  0.00    -0.078 A 
ATOM      5  C3  OXE d   1      -3.885   0.073  -1.583  0.00  0.00     0.003 A 
ATOM      6  C4  OXE d   1      -5.003  -0.587  -2.108  0.00  0.00    -0.002 A 
ATOM      7  C5  OXE d   1      -6.000  -1.080  -1.260  0.00  0.00    -0.002 A 
ATOM      8  C6  OXE d   1      -5.869  -0.914   0.115  0.00  0.00     0.003 A 
ENDROOT
TORSDOF 0
ENDMDL
