MODEL 1
REMARK minimizedAffinity -4.7238698
REMARK minimizedRMSD -1
REMARK  0 active torsions:
REMARK  status: ('A' for Active; 'I' for Inactive)
ROOT
ATOM      1  C2' OXE d   1      -0.457   0.765   0.017  0.00  0.00     0.078 C 
ATOM      2  C1' OXE d   1       1.729   2.480   0.416  0.00  0.00     0.078 C 
ATOM      3  C1  OXE d   1       1.962   0.997   0.564  0.00  0.00    -0.078 A 
ATOM      4  C2  OXE d   1       0.877   0.168   0.413  0.00  0.00    -0.078 A 
ATOM      5  C3  OXE d   1       1.047  -1.211   0.484  0.00  0.00     0.003 A 
ATOM      6  C4  OXE d   1       2.282  -1.754   0.860  0.00  0.00    -0.002 A 
ATOM      7  C5  OXE d   1       3.391  -0.925   1.058  0.00  0.00    -0.002 A 
ATOM      8  C6  OXE d   1       3.259   0.446   0.872  0.00  0.00     0.003 A 
ENDROOT
TORSDOF 0
ENDMDL
