MODEL 1
REMARK minimizedAffinity -1.81188726
REMARK minimizedRMSD -1
REMARK  0 active torsions:
REMARK  status: ('A' for Active; 'I' for Inactive)
ROOT
ATOM      1  C2' OXE d   1      -0.697   2.231  -0.917  0.00  0.00     0.078 C 
ATOM      2  C1' OXE d   1      -2.431   0.340   0.222  0.00  0.00     0.078 C 
ATOM      3  C1  OXE d   1      -0.948   0.133   0.402  0.00  0.00    -0.078 A 
ATOM      4  C2  OXE d   1      -0.106   1.037  -0.199  0.00  0.00    -0.078 A 
ATOM      5  C3  OXE d   1       1.269   0.923  -0.018  0.00  0.00     0.003 A 
ATOM      6  C4  OXE d   1       1.808  -0.189   0.639  0.00  0.00    -0.002 A 
ATOM      7  C5  OXE d   1       0.969  -1.143   1.224  0.00  0.00    -0.002 A 
ATOM      8  C6  OXE d   1      -0.409  -0.975   1.151  0.00  0.00     0.003 A 
ENDROOT
TORSDOF 0
ENDMDL
