MODEL 1
REMARK minimizedAffinity -4.66619825
REMARK minimizedRMSD -1
REMARK  0 active torsions:
REMARK  status: ('A' for Active; 'I' for Inactive)
ROOT
ATOM      1  C2' OXE d   1      -0.232   0.739   0.178  0.00  0.00     0.078 C 
ATOM      2  C1' OXE d   1       2.125   2.252   0.375  0.00  0.00     0.078 C 
ATOM      3  C1  OXE d   1       2.253   0.749   0.362  0.00  0.00    -0.078 A 
ATOM      4  C2  OXE d   1       1.091   0.016   0.312  0.00  0.00    -0.078 A 
ATOM      5  C3  OXE d   1       1.155  -1.372   0.242  0.00  0.00     0.003 A 
ATOM      6  C4  OXE d   1       2.382  -2.033   0.376  0.00  0.00    -0.002 A 
ATOM      7  C5  OXE d   1       3.574  -1.306   0.468  0.00  0.00    -0.002 A 
ATOM      8  C6  OXE d   1       3.530   0.083   0.419  0.00  0.00     0.003 A 
ENDROOT
TORSDOF 0
ENDMDL
