MODEL 1
REMARK minimizedAffinity -3.48082781
REMARK minimizedRMSD -1
REMARK  0 active torsions:
REMARK  status: ('A' for Active; 'I' for Inactive)
ROOT
ATOM      1  C2' OXE d   1       0.267  -2.074  -0.058  0.00  0.00     0.078 C 
ATOM      2  C1' OXE d   1       2.556  -1.200   1.313  0.00  0.00     0.078 C 
ATOM      3  C1  OXE d   1       1.678  -0.155   0.670  0.00  0.00    -0.078 A 
ATOM      4  C2  OXE d   1       0.586  -0.595  -0.038  0.00  0.00    -0.078 A 
ATOM      5  C3  OXE d   1      -0.286   0.330  -0.604  0.00  0.00     0.003 A 
ATOM      6  C4  OXE d   1       0.021   1.696  -0.590  0.00  0.00    -0.002 A 
ATOM      7  C5  OXE d   1       1.150   2.162   0.093  0.00  0.00    -0.002 A 
ATOM      8  C6  OXE d   1       1.964   1.255   0.763  0.00  0.00     0.003 A 
ENDROOT
TORSDOF 0
ENDMDL
