MODEL 1
REMARK minimizedAffinity -4.36995792
REMARK minimizedRMSD -1
REMARK  0 active torsions:
REMARK  status: ('A' for Active; 'I' for Inactive)
ROOT
ATOM      1  C2' OXE d   1      -0.360   1.510  -0.717  0.00  0.00     0.078 C 
ATOM      2  C1' OXE d   1       2.155   2.051   0.407  0.00  0.00     0.078 C 
ATOM      3  C1  OXE d   1       1.759   0.606   0.232  0.00  0.00    -0.078 A 
ATOM      4  C2  OXE d   1       0.508   0.351  -0.276  0.00  0.00    -0.078 A 
ATOM      5  C3  OXE d   1       0.114  -0.963  -0.510  0.00  0.00     0.003 A 
ATOM      6  C4  OXE d   1       0.918  -2.030  -0.090  0.00  0.00    -0.002 A 
ATOM      7  C5  OXE d   1       2.179  -1.792   0.466  0.00  0.00    -0.002 A 
ATOM      8  C6  OXE d   1       2.631  -0.483   0.594  0.00  0.00     0.003 A 
ENDROOT
TORSDOF 0
ENDMDL
