MODEL 1
REMARK minimizedAffinity -1.19609451
REMARK minimizedRMSD -1
REMARK  0 active torsions:
REMARK  status: ('A' for Active; 'I' for Inactive)
ROOT
ATOM      1  C2' OXE d   1      -1.137   0.775  -0.091  0.00  0.00     0.078 C 
ATOM      2  C1' OXE d   1       1.046   2.507  -0.426  0.00  0.00     0.078 C 
ATOM      3  C1  OXE d   1       1.308   1.024  -0.496  0.00  0.00    -0.078 A 
ATOM      4  C2  OXE d   1       0.242   0.183  -0.285  0.00  0.00    -0.078 A 
ATOM      5  C3  OXE d   1       0.417  -1.194  -0.392  0.00  0.00     0.003 A 
ATOM      6  C4  OXE d   1       1.698  -1.734  -0.561  0.00  0.00    -0.002 A 
ATOM      7  C5  OXE d   1       2.804  -0.896  -0.739  0.00  0.00    -0.002 A 
ATOM      8  C6  OXE d   1       2.620   0.482  -0.752  0.00  0.00     0.003 A 
ENDROOT
TORSDOF 0
ENDMDL
