MODEL 1
REMARK minimizedAffinity -2.39388728
REMARK minimizedRMSD -1
REMARK  0 active torsions:
REMARK  status: ('A' for Active; 'I' for Inactive)
ROOT
ATOM      1  C2' OXE d   1      -1.138   0.617  -0.247  0.00  0.00     0.078 C 
ATOM      2  C1' OXE d   1       1.063   2.270   0.302  0.00  0.00     0.078 C 
ATOM      3  C1  OXE d   1       1.330   0.811   0.032  0.00  0.00    -0.078 A 
ATOM      4  C2  OXE d   1       0.243  -0.000  -0.190  0.00  0.00    -0.078 A 
ATOM      5  C3  OXE d   1       0.437  -1.343  -0.499  0.00  0.00     0.003 A 
ATOM      6  C4  OXE d   1       1.717  -1.908  -0.434  0.00  0.00    -0.002 A 
ATOM      7  C5  OXE d   1       2.834  -1.108  -0.171  0.00  0.00    -0.002 A 
ATOM      8  C6  OXE d   1       2.662   0.259   0.022  0.00  0.00     0.003 A 
ENDROOT
TORSDOF 0
ENDMDL
