MODEL 1
REMARK minimizedAffinity -5.47499752
REMARK minimizedRMSD -1
REMARK  0 active torsions:
REMARK  status: ('A' for Active; 'I' for Inactive)
ROOT
ATOM      1  C2' OXE d   1      -0.326   0.781   1.455  0.00  0.00     0.078 C 
ATOM      2  C1' OXE d   1       1.982   1.881   0.295  0.00  0.00     0.078 C 
ATOM      3  C1  OXE d   1       1.996   0.411   0.631  0.00  0.00    -0.078 A 
ATOM      4  C2  OXE d   1       0.879  -0.109   1.241  0.00  0.00    -0.078 A 
ATOM      5  C3  OXE d   1       0.819  -1.471   1.522  0.00  0.00     0.003 A 
ATOM      6  C4  OXE d   1       1.941  -2.285   1.329  0.00  0.00    -0.002 A 
ATOM      7  C5  OXE d   1       3.102  -1.767   0.746  0.00  0.00    -0.002 A 
ATOM      8  C6  OXE d   1       3.131  -0.434   0.352  0.00  0.00     0.003 A 
ENDROOT
TORSDOF 0
ENDMDL
