MODEL 1
REMARK minimizedAffinity -0.853963554
REMARK minimizedRMSD -1
REMARK  1 active torsions:
REMARK  status: ('A' for Active; 'I' for Inactive)
REMARK    1  A    between atoms: N_2  and  C1_3 
ROOT
ATOM      1  C1  UNL d   1       1.015   1.794   0.558  0.00  0.00     0.143 A 
ATOM      2  C2  UNL d   1       2.058   1.265  -0.210  0.00  0.00    -0.057 A 
ATOM      3  C3  UNL d   1       3.348   1.808  -0.153  0.00  0.00     0.033 A 
ATOM      4  C4  UNL d   1       3.611   2.910   0.653  0.00  0.00    -0.042 A 
ATOM      5  C5  UNL d   1       2.583   3.467   1.406  0.00  0.00     0.033 A 
ATOM      6  C6  UNL d   1       1.299   2.917   1.351  0.00  0.00    -0.057 A 
ENDROOT
BRANCH   1   7
ATOM      7  N   UNL d   1      -0.311   1.361   0.472  0.00  0.00    -0.732 N 
ATOM      8  C   UNL d   1      -0.783   0.263   1.287  0.00  0.00     0.284 C 
ATOM      9  H3  UNL d   1      -0.967   2.135   0.396  0.00  0.00     0.395 HD
ENDBRANCH   1   7
TORSDOF 1
ENDMDL
