MODEL 1
REMARK minimizedAffinity -4.30353451
REMARK minimizedRMSD -1
REMARK  1 active torsions:
REMARK  status: ('A' for Active; 'I' for Inactive)
REMARK    1  A    between atoms: N_2  and  C1_3 
ROOT
ATOM      1  C1  UNL d   1       1.039   1.160  -0.743  0.00  0.00     0.143 A 
ATOM      2  C2  UNL d   1       0.277   1.892   0.174  0.00  0.00    -0.057 A 
ATOM      3  C3  UNL d   1       0.833   2.956   0.894  0.00  0.00     0.033 A 
ATOM      4  C4  UNL d   1       2.173   3.291   0.730  0.00  0.00    -0.042 A 
ATOM      5  C5  UNL d   1       2.956   2.562  -0.158  0.00  0.00     0.033 A 
ATOM      6  C6  UNL d   1       2.393   1.504  -0.879  0.00  0.00    -0.057 A 
ENDROOT
BRANCH   1   7
ATOM      7  N   UNL d   1       0.571   0.029  -1.416  0.00  0.00    -0.732 N 
ATOM      8  C   UNL d   1       1.074  -0.307  -2.731  0.00  0.00     0.284 C 
ATOM      9  H3  UNL d   1       0.455  -0.770  -0.798  0.00  0.00     0.395 HD
ENDBRANCH   1   7
TORSDOF 1
ENDMDL
