MODEL 1
REMARK minimizedAffinity -3.68921757
REMARK minimizedRMSD -1
REMARK  1 active torsions:
REMARK  status: ('A' for Active; 'I' for Inactive)
REMARK    1  A    between atoms: N_2  and  C1_3 
ROOT
ATOM      1  C1  UNL d   1       1.530   1.583  -1.080  0.00  0.00     0.143 A 
ATOM      2  C2  UNL d   1       2.600   2.419  -0.743  0.00  0.00    -0.057 A 
ATOM      3  C3  UNL d   1       2.476   3.388   0.261  0.00  0.00     0.033 A 
ATOM      4  C4  UNL d   1       1.267   3.557   0.928  0.00  0.00    -0.042 A 
ATOM      5  C5  UNL d   1       0.183   2.754   0.592  0.00  0.00     0.033 A 
ATOM      6  C6  UNL d   1       0.314   1.784  -0.407  0.00  0.00    -0.057 A 
ENDROOT
BRANCH   1   7
ATOM      7  N   UNL d   1       1.560   0.669  -2.136  0.00  0.00    -0.732 N 
ATOM      8  C   UNL d   1       1.215  -0.720  -1.918  0.00  0.00     0.284 C 
ATOM      9  H3  UNL d   1       1.188   1.059  -2.998  0.00  0.00     0.395 HD
ENDBRANCH   1   7
TORSDOF 1
ENDMDL
