MODEL 1
REMARK minimizedAffinity 4.81326389
REMARK minimizedRMSD -1
REMARK  1 active torsions:
REMARK  status: ('A' for Active; 'I' for Inactive)
REMARK    1  A    between atoms: N_2  and  C1_3 
ROOT
ATOM      1  C1  UNL d   1       0.619   1.667   0.818  0.00  0.00     0.143 A 
ATOM      2  C2  UNL d   1       1.958   1.496   0.451  0.00  0.00    -0.057 A 
ATOM      3  C3  UNL d   1       2.938   2.422   0.829  0.00  0.00     0.033 A 
ATOM      4  C4  UNL d   1       2.590   3.554   1.558  0.00  0.00    -0.042 A 
ATOM      5  C5  UNL d   1       1.261   3.757   1.913  0.00  0.00     0.033 A 
ATOM      6  C6  UNL d   1       0.288   2.826   1.538  0.00  0.00    -0.057 A 
ENDROOT
BRANCH   1   7
ATOM      7  N   UNL d   1      -0.418   0.834   0.390  0.00  0.00    -0.732 N 
ATOM      8  C   UNL d   1      -1.174   0.048   1.342  0.00  0.00     0.284 C 
ATOM      9  H3  UNL d   1      -0.984   1.262  -0.339  0.00  0.00     0.395 HD
ENDBRANCH   1   7
TORSDOF 1
ENDMDL
