MODEL 1
REMARK minimizedAffinity -0.358972162
REMARK minimizedRMSD -1
REMARK  1 active torsions:
REMARK  status: ('A' for Active; 'I' for Inactive)
REMARK    1  A    between atoms: N_2  and  C1_3 
ROOT
ATOM      1  C1  UNL d   1       0.477   0.771  -0.647  0.00  0.00     0.143 A 
ATOM      2  C2  UNL d   1       0.355   0.303  -1.960  0.00  0.00    -0.057 A 
ATOM      3  C3  UNL d   1       1.453   0.284  -2.828  0.00  0.00     0.033 A 
ATOM      4  C4  UNL d   1       2.690   0.760  -2.406  0.00  0.00    -0.042 A 
ATOM      5  C5  UNL d   1       2.829   1.252  -1.113  0.00  0.00     0.033 A 
ATOM      6  C6  UNL d   1       1.730   1.263  -0.249  0.00  0.00    -0.057 A 
ENDROOT
BRANCH   1   7
ATOM      7  N   UNL d   1      -0.600   0.908   0.233  0.00  0.00    -0.732 N 
ATOM      8  C   UNL d   1      -1.023  -0.203   1.058  0.00  0.00     0.284 C 
ATOM      9  H3  UNL d   1      -0.597   1.805   0.713  0.00  0.00     0.395 HD
ENDBRANCH   1   7
TORSDOF 1
ENDMDL
