MODEL 1
REMARK minimizedAffinity 1.09215331
REMARK minimizedRMSD -1
REMARK  1 active torsions:
REMARK  status: ('A' for Active; 'I' for Inactive)
REMARK    1  A    between atoms: N_2  and  C1_3 
ROOT
ATOM      1  C1  UNL d   1      -0.507   1.247   0.975  0.00  0.00     0.143 A 
ATOM      2  C2  UNL d   1      -0.284   0.207   0.066  0.00  0.00    -0.057 A 
ATOM      3  C3  UNL d   1      -0.641  -1.112   0.369  0.00  0.00     0.033 A 
ATOM      4  C4  UNL d   1      -1.204  -1.420   1.603  0.00  0.00    -0.042 A 
ATOM      5  C5  UNL d   1      -1.413  -0.407   2.532  0.00  0.00     0.033 A 
ATOM      6  C6  UNL d   1      -1.060   0.910   2.220  0.00  0.00    -0.057 A 
ENDROOT
BRANCH   1   7
ATOM      7  N   UNL d   1      -0.084   2.562   0.771  0.00  0.00    -0.732 N 
ATOM      8  C   UNL d   1       1.321   2.902   0.832  0.00  0.00     0.284 C 
ATOM      9  H3  UNL d   1      -0.590   3.021   0.017  0.00  0.00     0.395 HD
ENDBRANCH   1   7
TORSDOF 1
ENDMDL
