MODEL 1
REMARK minimizedAffinity -4.6288414
REMARK minimizedRMSD -1
REMARK  1 active torsions:
REMARK  status: ('A' for Active; 'I' for Inactive)
REMARK    1  A    between atoms: N_2  and  C1_3 
ROOT
ATOM      1  C1  UNL d   1       0.750   0.276  -0.452  0.00  0.00     0.143 A 
ATOM      2  C2  UNL d   1       0.822  -1.112  -0.612  0.00  0.00    -0.057 A 
ATOM      3  C3  UNL d   1       0.056  -1.975   0.181  0.00  0.00     0.033 A 
ATOM      4  C4  UNL d   1      -0.777  -1.464   1.171  0.00  0.00    -0.042 A 
ATOM      5  C5  UNL d   1      -0.846  -0.089   1.365  0.00  0.00     0.033 A 
ATOM      6  C6  UNL d   1      -0.083   0.768   0.565  0.00  0.00    -0.057 A 
ENDROOT
BRANCH   1   7
ATOM      7  N   UNL d   1       1.560   1.182  -1.141  0.00  0.00    -0.732 N 
ATOM      8  C   UNL d   1       2.436   2.082  -0.423  0.00  0.00     0.284 C 
ATOM      9  H3  UNL d   1       1.976   0.773  -1.975  0.00  0.00     0.395 HD
ENDBRANCH   1   7
TORSDOF 1
ENDMDL
