MODEL 1
REMARK minimizedAffinity 6.27391958
REMARK minimizedRMSD -1
REMARK  1 active torsions:
REMARK  status: ('A' for Active; 'I' for Inactive)
REMARK    1  A    between atoms: N_2  and  C1_3 
ROOT
ATOM      1  C1  UNL d   1      -0.975   0.324   0.843  0.00  0.00     0.143 A 
ATOM      2  C2  UNL d   1      -1.350   0.042   2.161  0.00  0.00    -0.057 A 
ATOM      3  C3  UNL d   1      -1.627  -1.267   2.573  0.00  0.00     0.033 A 
ATOM      4  C4  UNL d   1      -1.560  -2.317   1.664  0.00  0.00    -0.042 A 
ATOM      5  C5  UNL d   1      -1.214  -2.057   0.343  0.00  0.00     0.033 A 
ATOM      6  C6  UNL d   1      -0.932  -0.749  -0.061  0.00  0.00    -0.057 A 
ENDROOT
BRANCH   1   7
ATOM      7  N   UNL d   1      -0.783   1.616   0.349  0.00  0.00    -0.732 N 
ATOM      8  C   UNL d   1      -0.203   2.647   1.183  0.00  0.00     0.284 C 
ATOM      9  H3  UNL d   1      -0.444   1.619  -0.611  0.00  0.00     0.395 HD
ENDBRANCH   1   7
TORSDOF 1
ENDMDL
