MODEL 1
REMARK minimizedAffinity -0.360524386
REMARK minimizedRMSD -1
REMARK  1 active torsions:
REMARK  status: ('A' for Active; 'I' for Inactive)
REMARK    1  A    between atoms: N_2  and  C1_3 
ROOT
ATOM      1  C1  UNL d   1      -0.890   0.817   0.751  0.00  0.00     0.143 A 
ATOM      2  C2  UNL d   1      -0.770   0.132  -0.463  0.00  0.00    -0.057 A 
ATOM      3  C3  UNL d   1      -0.885  -1.262  -0.525  0.00  0.00     0.033 A 
ATOM      4  C4  UNL d   1      -1.095  -2.001   0.635  0.00  0.00    -0.042 A 
ATOM      5  C5  UNL d   1      -1.192  -1.344   1.856  0.00  0.00     0.033 A 
ATOM      6  C6  UNL d   1      -1.083   0.049   1.911  0.00  0.00    -0.057 A 
ENDROOT
BRANCH   1   7
ATOM      7  N   UNL d   1      -0.687   2.192   0.892  0.00  0.00    -0.732 N 
ATOM      8  C   UNL d   1       0.630   2.716   1.182  0.00  0.00     0.284 C 
ATOM      9  H3  UNL d   1      -1.209   2.733   0.207  0.00  0.00     0.395 HD
ENDBRANCH   1   7
TORSDOF 1
ENDMDL
