MODEL 1
REMARK minimizedAffinity 3.76291013
REMARK minimizedRMSD -1
REMARK  1 active torsions:
REMARK  status: ('A' for Active; 'I' for Inactive)
REMARK    1  A    between atoms: N_2  and  C1_3 
ROOT
ATOM      1  C1  UNL d   1       0.373   1.736   0.489  0.00  0.00     0.143 A 
ATOM      2  C2  UNL d   1       0.292   2.873   1.299  0.00  0.00    -0.057 A 
ATOM      3  C3  UNL d   1       1.366   3.765   1.408  0.00  0.00     0.033 A 
ATOM      4  C4  UNL d   1       2.555   3.517   0.729  0.00  0.00    -0.042 A 
ATOM      5  C5  UNL d   1       2.666   2.380  -0.062  0.00  0.00     0.033 A 
ATOM      6  C6  UNL d   1       1.588   1.497  -0.172  0.00  0.00    -0.057 A 
ENDROOT
BRANCH   1   7
ATOM      7  N   UNL d   1      -0.625   0.760   0.416  0.00  0.00    -0.732 N 
ATOM      8  C   UNL d   1      -0.906  -0.093   1.550  0.00  0.00     0.284 C 
ATOM      9  H3  UNL d   1      -1.455   1.089  -0.072  0.00  0.00     0.395 HD
ENDBRANCH   1   7
TORSDOF 1
ENDMDL
