MODEL 1
REMARK minimizedAffinity -4.08684444
REMARK minimizedRMSD -1
REMARK  1 active torsions:
REMARK  status: ('A' for Active; 'I' for Inactive)
REMARK    1  A    between atoms: N_2  and  C1_3 
ROOT
ATOM      1  C1  UNL d   1      -0.149  -0.364  -0.519  0.00  0.00     0.143 A 
ATOM      2  C2  UNL d   1      -0.678  -1.646  -0.698  0.00  0.00    -0.057 A 
ATOM      3  C3  UNL d   1      -1.160  -2.391   0.386  0.00  0.00     0.033 A 
ATOM      4  C4  UNL d   1      -1.094  -1.875   1.676  0.00  0.00    -0.042 A 
ATOM      5  C5  UNL d   1      -0.549  -0.612   1.881  0.00  0.00     0.033 A 
ATOM      6  C6  UNL d   1      -0.076   0.129   0.794  0.00  0.00    -0.057 A 
ENDROOT
BRANCH   1   7
ATOM      7  N   UNL d   1       0.436   0.386  -1.542  0.00  0.00    -0.732 N 
ATOM      8  C   UNL d   1       1.876   0.490  -1.649  0.00  0.00     0.284 C 
ATOM      9  H3  UNL d   1      -0.039   0.264  -2.433  0.00  0.00     0.395 HD
ENDBRANCH   1   7
TORSDOF 1
ENDMDL
