MODEL 1
REMARK minimizedAffinity -1.63725328
REMARK minimizedRMSD -1
REMARK  0 active torsions:
REMARK  status: ('A' for Active; 'I' for Inactive)
ROOT
ATOM      1  C   UNL d   1      -1.925   3.079  -5.431  0.00  0.00     0.078 C 
ATOM      2  C1  UNL d   1      -3.341   3.530  -5.631  0.00  0.00    -0.077 A 
ATOM      3  C2  UNL d   1      -3.647   4.884  -5.815  0.00  0.00    -0.001 A 
ATOM      4  C3  UNL d   1      -4.971   5.291  -5.990  0.00  0.00     0.003 A 
ATOM      5  C4  UNL d   1      -5.999   4.351  -5.981  0.00  0.00    -0.005 A 
ATOM      6  C5  UNL d   1      -5.705   3.002  -5.797  0.00  0.00     0.003 A 
ATOM      7  C6  UNL d   1      -4.382   2.593  -5.622  0.00  0.00    -0.001 A 
ENDROOT
TORSDOF 0
ENDMDL
