MODEL 1
REMARK minimizedAffinity -2.37669134
REMARK minimizedRMSD -1
REMARK  0 active torsions:
REMARK  status: ('A' for Active; 'I' for Inactive)
ROOT
ATOM      1  C   UNL d   1       0.619  -0.335  -2.944  0.00  0.00     0.078 C 
ATOM      2  C1  UNL d   1       0.213  -0.559  -1.518  0.00  0.00    -0.077 A 
ATOM      3  C2  UNL d   1       0.120  -1.852  -0.989  0.00  0.00    -0.001 A 
ATOM      4  C3  UNL d   1      -0.268  -2.046   0.338  0.00  0.00     0.003 A 
ATOM      5  C4  UNL d   1      -0.568  -0.951   1.146  0.00  0.00    -0.005 A 
ATOM      6  C5  UNL d   1      -0.480   0.339   0.628  0.00  0.00     0.003 A 
ATOM      7  C6  UNL d   1      -0.092   0.535  -0.698  0.00  0.00    -0.001 A 
ENDROOT
TORSDOF 0
ENDMDL
