MODEL 1
REMARK minimizedAffinity -0.401669472
REMARK minimizedRMSD -1
REMARK  0 active torsions:
REMARK  status: ('A' for Active; 'I' for Inactive)
ROOT
ATOM      1  C   UNL d   1       2.114  -0.101  -2.242  0.00  0.00     0.078 C 
ATOM      2  C1  UNL d   1       1.138  -0.413  -1.148  0.00  0.00    -0.077 A 
ATOM      3  C2  UNL d   1       0.680  -1.721  -0.942  0.00  0.00    -0.001 A 
ATOM      4  C3  UNL d   1      -0.237  -1.995   0.074  0.00  0.00     0.003 A 
ATOM      5  C4  UNL d   1      -0.705  -0.968   0.892  0.00  0.00    -0.005 A 
ATOM      6  C5  UNL d   1      -0.257   0.336   0.692  0.00  0.00     0.003 A 
ATOM      7  C6  UNL d   1       0.660   0.613  -0.323  0.00  0.00    -0.001 A 
ENDROOT
TORSDOF 0
ENDMDL
