MODEL 1
REMARK minimizedAffinity -3.67787981
REMARK minimizedRMSD -1
REMARK  0 active torsions:
REMARK  status: ('A' for Active; 'I' for Inactive)
ROOT
ATOM      1  C   UNL d   1      -0.560  -0.531   1.350  0.00  0.00     0.078 C 
ATOM      2  C1  UNL d   1      -1.742   0.123   2.001  0.00  0.00    -0.077 A 
ATOM      3  C2  UNL d   1      -1.572   1.094   2.995  0.00  0.00    -0.001 A 
ATOM      4  C3  UNL d   1      -2.682   1.687   3.600  0.00  0.00     0.003 A 
ATOM      5  C4  UNL d   1      -3.969   1.314   3.217  0.00  0.00    -0.005 A 
ATOM      6  C5  UNL d   1      -4.148   0.347   2.231  0.00  0.00     0.003 A 
ATOM      7  C6  UNL d   1      -3.039  -0.247   1.625  0.00  0.00    -0.001 A 
ENDROOT
TORSDOF 0
ENDMDL
