MODEL 1
REMARK minimizedAffinity -2.2689023
REMARK minimizedRMSD -1
REMARK  0 active torsions:
REMARK  status: ('A' for Active; 'I' for Inactive)
ROOT
ATOM      1  C   UNL d   1      -4.465  -0.014   0.916  0.00  0.00     0.078 C 
ATOM      2  C1  UNL d   1      -4.125   0.928   2.032  0.00  0.00    -0.077 A 
ATOM      3  C2  UNL d   1      -2.840   0.953   2.589  0.00  0.00    -0.001 A 
ATOM      4  C3  UNL d   1      -2.540   1.828   3.634  0.00  0.00     0.003 A 
ATOM      5  C4  UNL d   1      -3.519   2.684   4.132  0.00  0.00    -0.005 A 
ATOM      6  C5  UNL d   1      -4.801   2.665   3.587  0.00  0.00     0.003 A 
ATOM      7  C6  UNL d   1      -5.103   1.790   2.542  0.00  0.00    -0.001 A 
ENDROOT
TORSDOF 0
ENDMDL
