MODEL 1
REMARK minimizedAffinity -5.20426989
REMARK minimizedRMSD -1
REMARK  0 active torsions:
REMARK  status: ('A' for Active; 'I' for Inactive)
ROOT
ATOM      1  C   UNL d   1       1.864   0.018  -2.997  0.00  0.00     0.078 C 
ATOM      2  C1  UNL d   1       1.125  -0.271  -1.725  0.00  0.00    -0.077 A 
ATOM      3  C2  UNL d   1       0.663   0.768  -0.907  0.00  0.00    -0.001 A 
ATOM      4  C3  UNL d   1      -0.015   0.483   0.279  0.00  0.00     0.003 A 
ATOM      5  C4  UNL d   1      -0.236  -0.839   0.660  0.00  0.00    -0.005 A 
ATOM      6  C5  UNL d   1       0.222  -1.879  -0.147  0.00  0.00     0.003 A 
ATOM      7  C6  UNL d   1       0.900  -1.597  -1.333  0.00  0.00    -0.001 A 
ENDROOT
TORSDOF 0
ENDMDL
