MODEL 1
REMARK minimizedAffinity -4.80369902
REMARK minimizedRMSD -1
REMARK  0 active torsions:
REMARK  status: ('A' for Active; 'I' for Inactive)
ROOT
ATOM      1  C   UNL d   1      -0.803  -0.008   0.758  0.00  0.00     0.078 C 
ATOM      2  C1  UNL d   1       0.177  -0.062  -0.376  0.00  0.00    -0.077 A 
ATOM      3  C2  UNL d   1       0.426  -1.260  -1.058  0.00  0.00    -0.001 A 
ATOM      4  C3  UNL d   1       1.348  -1.298  -2.105  0.00  0.00     0.003 A 
ATOM      5  C4  UNL d   1       2.030  -0.141  -2.479  0.00  0.00    -0.005 A 
ATOM      6  C5  UNL d   1       1.791   1.054  -1.805  0.00  0.00     0.003 A 
ATOM      7  C6  UNL d   1       0.869   1.094  -0.758  0.00  0.00    -0.001 A 
ENDROOT
TORSDOF 0
ENDMDL
