MODEL 1
REMARK minimizedAffinity -4.30094862
REMARK minimizedRMSD -1
REMARK  0 active torsions:
REMARK  status: ('A' for Active; 'I' for Inactive)
ROOT
ATOM      1  C   UNL d   1      -0.589   0.119   1.101  0.00  0.00     0.078 C 
ATOM      2  C1  UNL d   1       0.155   0.055  -0.200  0.00  0.00    -0.077 A 
ATOM      3  C2  UNL d   1      -0.040  -1.007  -1.091  0.00  0.00    -0.001 A 
ATOM      4  C3  UNL d   1       0.667  -1.058  -2.293  0.00  0.00     0.003 A 
ATOM      5  C4  UNL d   1       1.573  -0.050  -2.616  0.00  0.00    -0.005 A 
ATOM      6  C5  UNL d   1       1.774   1.010  -1.735  0.00  0.00     0.003 A 
ATOM      7  C6  UNL d   1       1.069   1.063  -0.532  0.00  0.00    -0.001 A 
ENDROOT
TORSDOF 0
ENDMDL
