MODEL 1
REMARK minimizedAffinity -2.29115987
REMARK minimizedRMSD -1
REMARK  0 active torsions:
REMARK  status: ('A' for Active; 'I' for Inactive)
ROOT
ATOM      1  C   UNL d   1      -0.091   0.021   0.762  0.00  0.00     0.078 C 
ATOM      2  C1  UNL d   1       0.538   0.239  -0.581  0.00  0.00    -0.077 A 
ATOM      3  C2  UNL d   1      -0.151  -0.075  -1.759  0.00  0.00    -0.001 A 
ATOM      4  C3  UNL d   1       0.449   0.124  -3.003  0.00  0.00     0.003 A 
ATOM      5  C4  UNL d   1       1.743   0.637  -3.081  0.00  0.00    -0.005 A 
ATOM      6  C5  UNL d   1       2.437   0.950  -1.915  0.00  0.00     0.003 A 
ATOM      7  C6  UNL d   1       1.838   0.752  -0.670  0.00  0.00    -0.001 A 
ENDROOT
TORSDOF 0
ENDMDL
