MODEL 1
REMARK minimizedAffinity -1.14755821
REMARK minimizedRMSD -1
REMARK  0 active torsions:
REMARK  status: ('A' for Active; 'I' for Inactive)
ROOT
ATOM      1  C   UNL d   1      -5.435  -1.497  -5.966  0.00  0.00     0.078 C 
ATOM      2  C1  UNL d   1      -4.455  -2.398  -5.277  0.00  0.00    -0.077 A 
ATOM      3  C2  UNL d   1      -3.696  -3.326  -6.000  0.00  0.00    -0.001 A 
ATOM      4  C3  UNL d   1      -2.794  -4.165  -5.344  0.00  0.00     0.003 A 
ATOM      5  C4  UNL d   1      -2.643  -4.085  -3.961  0.00  0.00    -0.005 A 
ATOM      6  C5  UNL d   1      -3.395  -3.166  -3.232  0.00  0.00     0.003 A 
ATOM      7  C6  UNL d   1      -4.298  -2.327  -3.887  0.00  0.00    -0.001 A 
ENDROOT
TORSDOF 0
ENDMDL
