MODEL 1
REMARK minimizedAffinity -1.09844458
REMARK minimizedRMSD -1
REMARK  0 active torsions:
REMARK  status: ('A' for Active; 'I' for Inactive)
ROOT
ATOM      1  C   UNL d   1      -3.737   2.382   4.089  0.00  0.00     0.078 C 
ATOM      2  C1  UNL d   1      -2.519   1.818   3.422  0.00  0.00    -0.077 A 
ATOM      3  C2  UNL d   1      -1.618   1.010   4.128  0.00  0.00    -0.001 A 
ATOM      4  C3  UNL d   1      -0.483   0.500   3.496  0.00  0.00     0.003 A 
ATOM      5  C4  UNL d   1      -0.237   0.792   2.156  0.00  0.00    -0.005 A 
ATOM      6  C5  UNL d   1      -1.126   1.596   1.446  0.00  0.00     0.003 A 
ATOM      7  C6  UNL d   1      -2.262   2.108   2.076  0.00  0.00    -0.001 A 
ENDROOT
TORSDOF 0
ENDMDL
