MODEL 1
REMARK minimizedAffinity 1.13449931
REMARK minimizedRMSD -1
REMARK  0 active torsions:
REMARK  status: ('A' for Active; 'I' for Inactive)
ROOT
ATOM      1  C   UNL d   1      -3.246   5.990  -5.919  0.00  0.00     0.078 C 
ATOM      2  C1  UNL d   1      -3.950   4.674  -5.774  0.00  0.00    -0.077 A 
ATOM      3  C2  UNL d   1      -3.247   3.514  -5.429  0.00  0.00    -0.001 A 
ATOM      4  C3  UNL d   1      -3.914   2.294  -5.308  0.00  0.00     0.003 A 
ATOM      5  C4  UNL d   1      -5.287   2.222  -5.530  0.00  0.00    -0.005 A 
ATOM      6  C5  UNL d   1      -5.996   3.371  -5.876  0.00  0.00     0.003 A 
ATOM      7  C6  UNL d   1      -5.330   4.592  -5.999  0.00  0.00    -0.001 A 
ENDROOT
TORSDOF 0
ENDMDL
