MODEL 1
REMARK minimizedAffinity 9.43496609
REMARK minimizedRMSD -1
REMARK  0 active torsions:
REMARK  status: ('A' for Active; 'I' for Inactive)
ROOT
ATOM      1  C2' OXE d   1       2.537  -5.995   0.750  0.00  0.00     0.078 C 
ATOM      2  C1' OXE d   1       2.629  -3.215   0.371  0.00  0.00     0.078 C 
ATOM      3  C1  OXE d   1       1.287  -3.896   0.266  0.00  0.00    -0.078 A 
ATOM      4  C2  OXE d   1       1.258  -5.262   0.407  0.00  0.00    -0.078 A 
ATOM      5  C3  OXE d   1       0.039  -5.933   0.374  0.00  0.00     0.003 A 
ATOM      6  C4  OXE d   1      -1.138  -5.249   0.046  0.00  0.00    -0.002 A 
ATOM      7  C5  OXE d   1      -1.125  -3.863  -0.140  0.00  0.00    -0.002 A 
ATOM      8  C6  OXE d   1       0.070  -3.167   0.008  0.00  0.00     0.003 A 
ENDROOT
TORSDOF 0
ENDMDL
