MODEL 1
REMARK minimizedAffinity 1.10918951
REMARK minimizedRMSD -1
REMARK  0 active torsions:
REMARK  status: ('A' for Active; 'I' for Inactive)
ROOT
ATOM      1  C2' OXE d   1       1.740  -3.873   0.047  0.00  0.00     0.078 C 
ATOM      2  C1' OXE d   1       1.183  -1.547   1.516  0.00  0.00     0.078 C 
ATOM      3  C1  OXE d   1       0.019  -2.300   0.922  0.00  0.00    -0.078 A 
ATOM      4  C2  OXE d   1       0.304  -3.411   0.166  0.00  0.00    -0.078 A 
ATOM      5  C3  OXE d   1      -0.736  -4.174  -0.359  0.00  0.00     0.003 A 
ATOM      6  C4  OXE d   1      -2.061  -3.734  -0.253  0.00  0.00    -0.002 A 
ATOM      7  C5  OXE d   1      -2.370  -2.583   0.480  0.00  0.00    -0.002 A 
ATOM      8  C6  OXE d   1      -1.348  -1.880   1.108  0.00  0.00     0.003 A 
ENDROOT
TORSDOF 0
ENDMDL
