MODEL 1
REMARK minimizedAffinity 9.666852
REMARK minimizedRMSD -1
REMARK  0 active torsions:
REMARK  status: ('A' for Active; 'I' for Inactive)
ROOT
ATOM      1  C2' OXE d   1      -3.356  -2.692   0.130  0.00  0.00     0.078 C 
ATOM      2  C1' OXE d   1      -1.098  -1.536  -1.071  0.00  0.00     0.078 C 
ATOM      3  C1  OXE d   1      -0.938  -2.894  -0.434  0.00  0.00    -0.078 A 
ATOM      4  C2  OXE d   1      -2.037  -3.431   0.192  0.00  0.00    -0.078 A 
ATOM      5  C3  OXE d   1      -1.959  -4.705   0.748  0.00  0.00     0.003 A 
ATOM      6  C4  OXE d   1      -0.733  -5.377   0.810  0.00  0.00    -0.002 A 
ATOM      7  C5  OXE d   1       0.408  -4.830   0.213  0.00  0.00    -0.002 A 
ATOM      8  C6  OXE d   1       0.312  -3.611  -0.449  0.00  0.00     0.003 A 
ENDROOT
TORSDOF 0
ENDMDL
