MODEL 1
REMARK minimizedAffinity 19.8806
REMARK minimizedRMSD -1
REMARK  0 active torsions:
REMARK  status: ('A' for Active; 'I' for Inactive)
ROOT
ATOM      1  C2' OXE d   1      -3.489   0.414  -3.024  0.00  0.00     0.078 C 
ATOM      2  C1' OXE d   1      -0.772  -0.283  -3.143  0.00  0.00     0.078 C 
ATOM      3  C1  OXE d   1      -1.663  -1.081  -2.225  0.00  0.00    -0.078 A 
ATOM      4  C2  OXE d   1      -2.982  -0.704  -2.138  0.00  0.00    -0.078 A 
ATOM      5  C3  OXE d   1      -3.859  -1.441  -1.348  0.00  0.00     0.003 A 
ATOM      6  C4  OXE d   1      -3.380  -2.466  -0.524  0.00  0.00    -0.002 A 
ATOM      7  C5  OXE d   1      -2.033  -2.842  -0.567  0.00  0.00    -0.002 A 
ATOM      8  C6  OXE d   1      -1.172  -2.188  -1.442  0.00  0.00     0.003 A 
ENDROOT
TORSDOF 0
ENDMDL
