MODEL 1
REMARK minimizedAffinity 3.9176929
REMARK minimizedRMSD -1
REMARK  0 active torsions:
REMARK  status: ('A' for Active; 'I' for Inactive)
ROOT
ATOM      1  C2' OXE d   1      -3.687   1.165  -0.736  0.00  0.00     0.078 C 
ATOM      2  C1' OXE d   1      -0.921   0.987  -1.182  0.00  0.00     0.078 C 
ATOM      3  C1  OXE d   1      -1.828   0.137  -2.037  0.00  0.00    -0.078 A 
ATOM      4  C2  OXE d   1      -3.177   0.196  -1.780  0.00  0.00    -0.078 A 
ATOM      5  C3  OXE d   1      -4.062  -0.526  -2.576  0.00  0.00     0.003 A 
ATOM      6  C4  OXE d   1      -3.581  -1.428  -3.533  0.00  0.00    -0.002 A 
ATOM      7  C5  OXE d   1      -2.208  -1.532  -3.783  0.00  0.00    -0.002 A 
ATOM      8  C6  OXE d   1      -1.323  -0.727  -3.075  0.00  0.00     0.003 A 
ENDROOT
TORSDOF 0
ENDMDL
