MODEL 1
REMARK minimizedAffinity 2.09998298
REMARK minimizedRMSD -1
REMARK  0 active torsions:
REMARK  status: ('A' for Active; 'I' for Inactive)
ROOT
ATOM      1  C2' OXE d   1      -6.000   1.321   0.459  0.00  0.00     0.078 C 
ATOM      2  C1' OXE d   1      -5.986  -1.471   0.751  0.00  0.00     0.078 C 
ATOM      3  C1  OXE d   1      -5.983  -0.632   2.005  0.00  0.00    -0.078 A 
ATOM      4  C2  OXE d   1      -5.943   0.733   1.852  0.00  0.00    -0.078 A 
ATOM      5  C3  OXE d   1      -5.993   1.554   2.975  0.00  0.00     0.003 A 
ATOM      6  C4  OXE d   1      -5.930   1.002   4.260  0.00  0.00    -0.002 A 
ATOM      7  C5  OXE d   1      -5.931  -0.386   4.437  0.00  0.00    -0.002 A 
ATOM      8  C6  OXE d   1      -6.000  -1.215   3.323  0.00  0.00     0.003 A 
ENDROOT
TORSDOF 0
ENDMDL
