MODEL 1
REMARK minimizedAffinity 11.0149536
REMARK minimizedRMSD -1
REMARK  0 active torsions:
REMARK  status: ('A' for Active; 'I' for Inactive)
ROOT
ATOM      1  C2' OXE d   1      -2.879  -2.971   0.139  0.00  0.00     0.078 C 
ATOM      2  C1' OXE d   1      -0.653  -1.703  -1.011  0.00  0.00     0.078 C 
ATOM      3  C1  OXE d   1      -0.457  -3.082  -0.433  0.00  0.00    -0.078 A 
ATOM      4  C2  OXE d   1      -1.540  -3.676   0.169  0.00  0.00    -0.078 A 
ATOM      5  C3  OXE d   1      -1.427  -4.970   0.669  0.00  0.00     0.003 A 
ATOM      6  C4  OXE d   1      -0.183  -5.611   0.703  0.00  0.00    -0.002 A 
ATOM      7  C5  OXE d   1       0.942  -5.008   0.130  0.00  0.00    -0.002 A 
ATOM      8  C6  OXE d   1       0.813  -3.764  -0.478  0.00  0.00     0.003 A 
ENDROOT
TORSDOF 0
ENDMDL
