MODEL 1
REMARK minimizedAffinity 5.99167538
REMARK minimizedRMSD -1
REMARK  0 active torsions:
REMARK  status: ('A' for Active; 'I' for Inactive)
ROOT
ATOM      1  C2' OXE d   1      -3.301   1.537  -1.421  0.00  0.00     0.078 C 
ATOM      2  C1' OXE d   1      -3.499   4.307  -1.825  0.00  0.00     0.078 C 
ATOM      3  C1  OXE d   1      -2.141   3.740  -1.496  0.00  0.00    -0.078 A 
ATOM      4  C2  OXE d   1      -2.062   2.390  -1.254  0.00  0.00    -0.078 A 
ATOM      5  C3  OXE d   1      -0.824   1.807  -0.999  0.00  0.00     0.003 A 
ATOM      6  C4  OXE d   1       0.315   2.604  -0.836  0.00  0.00    -0.002 A 
ATOM      7  C5  OXE d   1       0.249   3.987  -1.040  0.00  0.00    -0.002 A 
ATOM      8  C6  OXE d   1      -0.960   4.563  -1.411  0.00  0.00     0.003 A 
ENDROOT
TORSDOF 0
ENDMDL
