MODEL 1
REMARK minimizedAffinity -0.552802622
REMARK minimizedRMSD -1
REMARK  0 active torsions:
REMARK  status: ('A' for Active; 'I' for Inactive)
ROOT
ATOM      1  C   UNL d   1       2.217  -2.841   4.522  0.00  0.00     0.020 A 
ATOM      2  C1  UNL d   1       1.373  -3.786   3.940  0.00  0.00     0.020 A 
ATOM      3  C2  UNL d   1       0.895  -3.590   2.642  0.00  0.00     0.034 A 
ATOM      4  C3  UNL d   1       1.262  -2.448   1.922  0.00  0.00     0.017 A 
ATOM      5  C4  UNL d   1       2.110  -1.500   2.507  0.00  0.00     0.017 A 
ATOM      6  C5  UNL d   1       2.585  -1.701   3.807  0.00  0.00     0.034 A 
ATOM      7 Cl   UNL d   1       2.606  -0.065   1.681  0.00  0.00    -0.070 Cl
ATOM      8 Cl1  UNL d   1       0.635  -2.271   0.322  0.00  0.00    -0.070 Cl
ENDROOT
TORSDOF 0
ENDMDL
