MODEL 1
REMARK minimizedAffinity 12.143961
REMARK minimizedRMSD -1
REMARK  0 active torsions:
REMARK  status: ('A' for Active; 'I' for Inactive)
ROOT
ATOM      1  C   UNL d   1       2.231  -2.628   4.580  0.00  0.00     0.020 A 
ATOM      2  C1  UNL d   1       3.497  -2.049   4.648  0.00  0.00     0.020 A 
ATOM      3  C2  UNL d   1       3.863  -1.059   3.734  0.00  0.00     0.034 A 
ATOM      4  C3  UNL d   1       2.961  -0.645   2.747  0.00  0.00     0.017 A 
ATOM      5  C4  UNL d   1       1.689  -1.227   2.679  0.00  0.00     0.017 A 
ATOM      6  C5  UNL d   1       1.329  -2.218   3.597  0.00  0.00     0.034 A 
ATOM      7 Cl   UNL d   1       0.522  -0.768   1.490  0.00  0.00    -0.070 Cl
ATOM      8 Cl1  UNL d   1       3.479   0.584   1.649  0.00  0.00    -0.070 Cl
ENDROOT
TORSDOF 0
ENDMDL
