MODEL 1
REMARK minimizedAffinity 14.0634003
REMARK minimizedRMSD -1
REMARK  0 active torsions:
REMARK  status: ('A' for Active; 'I' for Inactive)
ROOT
ATOM      1  C   UNL d   1       1.391  -0.681   2.736  0.00  0.00     0.020 A 
ATOM      2  C1  UNL d   1       1.882  -1.617   3.646  0.00  0.00     0.020 A 
ATOM      3  C2  UNL d   1       2.217  -2.902   3.213  0.00  0.00     0.034 A 
ATOM      4  C3  UNL d   1       2.061  -3.254   1.868  0.00  0.00     0.017 A 
ATOM      5  C4  UNL d   1       1.569  -2.314   0.955  0.00  0.00     0.017 A 
ATOM      6  C5  UNL d   1       1.235  -1.029   1.394  0.00  0.00     0.034 A 
ATOM      7 Cl   UNL d   1       1.350  -2.675  -0.721  0.00  0.00    -0.070 Cl
ATOM      8 Cl1  UNL d   1       2.496  -4.860   1.403  0.00  0.00    -0.070 Cl
ENDROOT
TORSDOF 0
ENDMDL
