MODEL 1
REMARK minimizedAffinity 12.0029211
REMARK minimizedRMSD -1
REMARK  0 active torsions:
REMARK  status: ('A' for Active; 'I' for Inactive)
ROOT
ATOM      1  C   UNL d   1      -4.579   4.109   2.102  0.00  0.00     0.020 A 
ATOM      2  C1  UNL d   1      -5.549   4.442   1.158  0.00  0.00     0.020 A 
ATOM      3  C2  UNL d   1      -5.542   3.830  -0.097  0.00  0.00     0.034 A 
ATOM      4  C3  UNL d   1      -4.563   2.880  -0.411  0.00  0.00     0.017 A 
ATOM      5  C4  UNL d   1      -3.589   2.546   0.538  0.00  0.00     0.017 A 
ATOM      6  C5  UNL d   1      -3.601   3.162   1.793  0.00  0.00     0.034 A 
ATOM      7 Cl   UNL d   1      -2.350   1.384   0.223  0.00  0.00    -0.070 Cl
ATOM      8 Cl1  UNL d   1      -4.615   2.162  -1.982  0.00  0.00    -0.070 Cl
ENDROOT
TORSDOF 0
ENDMDL
