MODEL 1
REMARK minimizedAffinity 9.14227581
REMARK minimizedRMSD -1
REMARK  0 active torsions:
REMARK  status: ('A' for Active; 'I' for Inactive)
ROOT
ATOM      1  C   UNL d   1      -5.993   0.744  -5.578  0.00  0.00     0.020 A 
ATOM      2  C1  UNL d   1      -5.987   0.147  -4.318  0.00  0.00     0.020 A 
ATOM      3  C2  UNL d   1      -5.968   0.941  -3.169  0.00  0.00     0.034 A 
ATOM      4  C3  UNL d   1      -5.954   2.337  -3.278  0.00  0.00     0.017 A 
ATOM      5  C4  UNL d   1      -5.960   2.935  -4.544  0.00  0.00     0.017 A 
ATOM      6  C5  UNL d   1      -5.979   2.135  -5.690  0.00  0.00     0.034 A 
ATOM      7 Cl   UNL d   1      -5.943   4.650  -4.758  0.00  0.00    -0.070 Cl
ATOM      8 Cl1  UNL d   1      -5.931   3.257  -1.816  0.00  0.00    -0.070 Cl
ENDROOT
TORSDOF 0
ENDMDL
