MODEL 1
REMARK minimizedAffinity 4.38478231
REMARK minimizedRMSD -1
REMARK  0 active torsions:
REMARK  status: ('A' for Active; 'I' for Inactive)
ROOT
ATOM      1  C   UNL d   1       6.000  -2.184   4.888  0.00  0.00     0.020 A 
ATOM      2  C1  UNL d   1       5.486  -2.979   5.912  0.00  0.00     0.020 A 
ATOM      3  C2  UNL d   1       4.110  -3.202   5.999  0.00  0.00     0.034 A 
ATOM      4  C3  UNL d   1       3.244  -2.629   5.061  0.00  0.00     0.017 A 
ATOM      5  C4  UNL d   1       3.760  -1.831   4.034  0.00  0.00     0.017 A 
ATOM      6  C5  UNL d   1       5.139  -1.611   3.952  0.00  0.00     0.034 A 
ATOM      7 Cl   UNL d   1       2.754  -1.090   2.840  0.00  0.00    -0.070 Cl
ATOM      8 Cl1  UNL d   1       1.554  -2.948   5.229  0.00  0.00    -0.070 Cl
ENDROOT
TORSDOF 0
ENDMDL
