MODEL 1
REMARK minimizedAffinity 3.26880884
REMARK minimizedRMSD -1
REMARK  0 active torsions:
REMARK  status: ('A' for Active; 'I' for Inactive)
ROOT
ATOM      1  C   UNL d   1       2.030  -1.263   3.266  0.00  0.00     0.020 A 
ATOM      2  C1  UNL d   1       1.790  -1.887   4.490  0.00  0.00     0.020 A 
ATOM      3  C2  UNL d   1       2.857  -2.390   5.238  0.00  0.00     0.034 A 
ATOM      4  C3  UNL d   1       4.168  -2.270   4.763  0.00  0.00     0.017 A 
ATOM      5  C4  UNL d   1       4.407  -1.643   3.534  0.00  0.00     0.017 A 
ATOM      6  C5  UNL d   1       3.336  -1.142   2.789  0.00  0.00     0.034 A 
ATOM      7 Cl   UNL d   1       5.998  -1.457   2.883  0.00  0.00    -0.070 Cl
ATOM      8 Cl1  UNL d   1       5.439  -2.914   5.741  0.00  0.00    -0.070 Cl
ENDROOT
TORSDOF 0
ENDMDL
