MODEL 1
REMARK minimizedAffinity 6.45282173
REMARK minimizedRMSD -1
REMARK  0 active torsions:
REMARK  status: ('A' for Active; 'I' for Inactive)
ROOT
ATOM      1  C   UNL d   1      -5.772   2.698  -5.227  0.00  0.00     0.020 A 
ATOM      2  C1  UNL d   1      -5.937   2.866  -3.852  0.00  0.00     0.020 A 
ATOM      3  C2  UNL d   1      -6.000   1.750  -3.015  0.00  0.00     0.034 A 
ATOM      4  C3  UNL d   1      -5.899   0.461  -3.552  0.00  0.00     0.017 A 
ATOM      5  C4  UNL d   1      -5.734   0.294  -4.932  0.00  0.00     0.017 A 
ATOM      6  C5  UNL d   1      -5.671   1.415  -5.765  0.00  0.00     0.034 A 
ATOM      7 Cl   UNL d   1      -5.601  -1.265  -5.667  0.00  0.00    -0.070 Cl
ATOM      8 Cl1  UNL d   1      -5.985  -0.874  -2.458  0.00  0.00    -0.070 Cl
ENDROOT
TORSDOF 0
ENDMDL
