MODEL 1
REMARK minimizedAffinity 14.5216198
REMARK minimizedRMSD -1
REMARK  0 active torsions:
REMARK  status: ('A' for Active; 'I' for Inactive)
ROOT
ATOM      1  C   UNL d   1       6.000  -1.850   3.018  0.00  0.00     0.020 A 
ATOM      2  C1  UNL d   1       4.883  -2.205   3.774  0.00  0.00     0.020 A 
ATOM      3  C2  UNL d   1       3.608  -1.811   3.363  0.00  0.00     0.034 A 
ATOM      4  C3  UNL d   1       3.446  -1.061   2.192  0.00  0.00     0.017 A 
ATOM      5  C4  UNL d   1       4.567  -0.705   1.434  0.00  0.00     0.017 A 
ATOM      6  C5  UNL d   1       5.842  -1.102   1.850  0.00  0.00     0.034 A 
ATOM      7 Cl   UNL d   1       4.447   0.219  -0.021  0.00  0.00    -0.070 Cl
ATOM      8 Cl1  UNL d   1       1.840  -0.609   1.744  0.00  0.00    -0.070 Cl
ENDROOT
TORSDOF 0
ENDMDL
