MODEL 1
REMARK minimizedAffinity 3.61911201
REMARK minimizedRMSD -1
REMARK  0 active torsions:
REMARK  status: ('A' for Active; 'I' for Inactive)
ROOT
ATOM      1  C   UNL d   1       6.000  -1.022  -5.999  0.00  0.00     0.020 A 
ATOM      2  C1  UNL d   1       5.717  -1.918  -4.969  0.00  0.00     0.020 A 
ATOM      3  C2  UNL d   1       5.031  -1.484  -3.833  0.00  0.00     0.034 A 
ATOM      4  C3  UNL d   1       4.624  -0.149  -3.724  0.00  0.00     0.017 A 
ATOM      5  C4  UNL d   1       4.908   0.751  -4.759  0.00  0.00     0.017 A 
ATOM      6  C5  UNL d   1       5.596   0.310  -5.894  0.00  0.00     0.034 A 
ATOM      7 Cl   UNL d   1       4.439   2.413  -4.696  0.00  0.00    -0.070 Cl
ATOM      8 Cl1  UNL d   1       3.779   0.320  -2.292  0.00  0.00    -0.070 Cl
ENDROOT
TORSDOF 0
ENDMDL
