MODEL 1
REMARK minimizedAffinity 9.66936588
REMARK minimizedRMSD -1
REMARK  0 active torsions:
REMARK  status: ('A' for Active; 'I' for Inactive)
ROOT
ATOM      1  C   UNL d   1      -2.774  -0.322  -2.950  0.00  0.00     0.020 A 
ATOM      2  C1  UNL d   1      -2.520  -0.907  -1.711  0.00  0.00     0.020 A 
ATOM      3  C2  UNL d   1      -3.345  -0.620  -0.621  0.00  0.00     0.034 A 
ATOM      4  C3  UNL d   1      -4.428   0.254  -0.769  0.00  0.00     0.017 A 
ATOM      5  C4  UNL d   1      -4.682   0.841  -2.015  0.00  0.00     0.017 A 
ATOM      6  C5  UNL d   1      -3.853   0.550  -3.102  0.00  0.00     0.034 A 
ATOM      7 Cl   UNL d   1      -6.000   1.929  -2.275  0.00  0.00    -0.070 Cl
ATOM      8 Cl1  UNL d   1      -5.407   0.563   0.620  0.00  0.00    -0.070 Cl
ENDROOT
TORSDOF 0
ENDMDL
