MODEL 1
REMARK minimizedAffinity 15.734663
REMARK minimizedRMSD -1
REMARK  0 active torsions:
REMARK  status: ('A' for Active; 'I' for Inactive)
ROOT
ATOM      1  C   UNL d   1      -5.552   0.686  -0.749  0.00  0.00     0.020 A 
ATOM      2  C1  UNL d   1      -4.495  -0.175  -1.042  0.00  0.00     0.020 A 
ATOM      3  C2  UNL d   1      -3.885  -0.131  -2.298  0.00  0.00     0.034 A 
ATOM      4  C3  UNL d   1      -4.332   0.777  -3.265  0.00  0.00     0.017 A 
ATOM      5  C4  UNL d   1      -5.393   1.640  -2.971  0.00  0.00     0.017 A 
ATOM      6  C5  UNL d   1      -6.000   1.592  -1.712  0.00  0.00     0.034 A 
ATOM      7 Cl   UNL d   1      -5.999   2.787  -4.113  0.00  0.00    -0.070 Cl
ATOM      8 Cl1  UNL d   1      -3.531   0.777  -4.796  0.00  0.00    -0.070 Cl
ENDROOT
TORSDOF 0
ENDMDL
