MODEL 1
REMARK minimizedAffinity 13.11028
REMARK minimizedRMSD -1
REMARK  0 active torsions:
REMARK  status: ('A' for Active; 'I' for Inactive)
ROOT
ATOM      1  C   UNL d   1       4.451   1.377  -1.009  0.00  0.00     0.020 A 
ATOM      2  C1  UNL d   1       3.956   2.319  -0.108  0.00  0.00     0.020 A 
ATOM      3  C2  UNL d   1       2.855   2.008   0.693  0.00  0.00     0.034 A 
ATOM      4  C3  UNL d   1       2.245   0.752   0.594  0.00  0.00     0.017 A 
ATOM      5  C4  UNL d   1       2.743  -0.192  -0.311  0.00  0.00     0.017 A 
ATOM      6  C5  UNL d   1       3.846   0.124  -1.110  0.00  0.00     0.034 A 
ATOM      7 Cl   UNL d   1       2.044  -1.763  -0.489  0.00  0.00    -0.070 Cl
ATOM      8 Cl1  UNL d   1       0.887   0.436   1.615  0.00  0.00    -0.070 Cl
ENDROOT
TORSDOF 0
ENDMDL
