MODEL 1
REMARK minimizedAffinity 7.04377985
REMARK minimizedRMSD -1
REMARK  0 active torsions:
REMARK  status: ('A' for Active; 'I' for Inactive)
ROOT
ATOM      1  C   UNL d   1      -5.925   5.994   3.497  0.00  0.00     0.020 A 
ATOM      2  C1  UNL d   1      -4.774   5.999   4.283  0.00  0.00     0.020 A 
ATOM      3  C2  UNL d   1      -3.515   6.000   3.677  0.00  0.00     0.034 A 
ATOM      4  C3  UNL d   1      -3.405   5.996   2.282  0.00  0.00     0.017 A 
ATOM      5  C4  UNL d   1      -4.562   5.992   1.494  0.00  0.00     0.017 A 
ATOM      6  C5  UNL d   1      -5.819   5.991   2.106  0.00  0.00     0.034 A 
ATOM      7 Cl   UNL d   1      -4.507   5.987  -0.233  0.00  0.00    -0.070 Cl
ATOM      8 Cl1  UNL d   1      -1.817   5.998   1.601  0.00  0.00    -0.070 Cl
ENDROOT
TORSDOF 0
ENDMDL
