MODEL 1
REMARK minimizedAffinity 4.09862757
REMARK minimizedRMSD -1
REMARK  0 active torsions:
REMARK  status: ('A' for Active; 'I' for Inactive)
ROOT
ATOM      1  C   UNL d   1       0.136  -2.117   5.798  0.00  0.00     0.020 A 
ATOM      2  C1  UNL d   1      -1.148  -2.119   5.254  0.00  0.00     0.020 A 
ATOM      3  C2  UNL d   1      -1.759  -3.327   4.911  0.00  0.00     0.034 A 
ATOM      4  C3  UNL d   1      -1.087  -4.538   5.112  0.00  0.00     0.017 A 
ATOM      5  C4  UNL d   1       0.202  -4.535   5.658  0.00  0.00     0.017 A 
ATOM      6  C5  UNL d   1       0.809  -3.323   5.999  0.00  0.00     0.034 A 
ATOM      7 Cl   UNL d   1       1.094  -5.989   5.935  0.00  0.00    -0.070 Cl
ATOM      8 Cl1  UNL d   1      -1.903  -5.994   4.666  0.00  0.00    -0.070 Cl
ENDROOT
TORSDOF 0
ENDMDL
