MODEL 1
REMARK minimizedAffinity -2.97860336
REMARK minimizedRMSD -1
REMARK  0 active torsions:
REMARK  status: ('A' for Active; 'I' for Inactive)
ROOT
ATOM      1  C   UNL d   1      -4.652   5.979   1.466  0.00  0.00     0.020 A 
ATOM      2  C1  UNL d   1      -5.885   5.928   2.116  0.00  0.00     0.020 A 
ATOM      3  C2  UNL d   1      -5.938   5.898   3.511  0.00  0.00     0.034 A 
ATOM      4  C3  UNL d   1      -4.756   5.919   4.261  0.00  0.00     0.017 A 
ATOM      5  C4  UNL d   1      -3.519   5.970   3.608  0.00  0.00     0.017 A 
ATOM      6  C5  UNL d   1      -3.472   6.000   2.210  0.00  0.00     0.034 A 
ATOM      7 Cl   UNL d   1      -2.019   5.999   4.465  0.00  0.00    -0.070 Cl
ATOM      8 Cl1  UNL d   1      -4.896   5.880   5.983  0.00  0.00    -0.070 Cl
ENDROOT
TORSDOF 0
ENDMDL
