MODEL 1
REMARK minimizedAffinity 2.31901765
REMARK minimizedRMSD -1
REMARK  0 active torsions:
REMARK  status: ('A' for Active; 'I' for Inactive)
ROOT
ATOM      1  C   UNL d   1      -3.871   5.998   1.401  0.00  0.00     0.020 A 
ATOM      2  C1  UNL d   1      -5.263   5.994   1.470  0.00  0.00     0.020 A 
ATOM      3  C2  UNL d   1      -5.900   5.992   2.713  0.00  0.00     0.034 A 
ATOM      4  C3  UNL d   1      -5.145   5.994   3.891  0.00  0.00     0.017 A 
ATOM      5  C4  UNL d   1      -3.747   5.998   3.820  0.00  0.00     0.017 A 
ATOM      6  C5  UNL d   1      -3.114   5.999   2.574  0.00  0.00     0.034 A 
ATOM      7 Cl   UNL d   1      -2.748   6.000   5.231  0.00  0.00    -0.070 Cl
ATOM      8 Cl1  UNL d   1      -5.999   5.992   5.393  0.00  0.00    -0.070 Cl
ENDROOT
TORSDOF 0
ENDMDL
