MODEL 1
REMARK minimizedAffinity 3.90236402
REMARK minimizedRMSD -1
REMARK  0 active torsions:
REMARK  status: ('A' for Active; 'I' for Inactive)
ROOT
ATOM      1  C   UNL d   1      -0.513  -5.484   5.591  0.00  0.00     0.020 A 
ATOM      2  C1  UNL d   1      -1.315  -4.877   4.625  0.00  0.00     0.020 A 
ATOM      3  C2  UNL d   1      -0.934  -3.655   4.068  0.00  0.00     0.034 A 
ATOM      4  C3  UNL d   1       0.253  -3.035   4.476  0.00  0.00     0.017 A 
ATOM      5  C4  UNL d   1       1.058  -3.645   5.445  0.00  0.00     0.017 A 
ATOM      6  C5  UNL d   1       0.671  -4.869   6.000  0.00  0.00     0.034 A 
ATOM      7 Cl   UNL d   1       2.536  -2.941   5.999  0.00  0.00    -0.070 Cl
ATOM      8 Cl1  UNL d   1       0.663  -1.525   3.744  0.00  0.00    -0.070 Cl
ENDROOT
TORSDOF 0
ENDMDL
