MODEL 1
REMARK minimizedAffinity 10.0121794
REMARK minimizedRMSD -1
REMARK  0 active torsions:
REMARK  status: ('A' for Active; 'I' for Inactive)
ROOT
ATOM      1  O1  BZF d   1      -0.972  -1.304   0.662  0.00  0.00    -0.204 OA
ATOM      2  C2  BZF d   1      -0.098  -1.983   1.489  0.00  0.00     0.174 A 
ATOM      3  C3  BZF d   1      -0.460  -3.277   1.608  0.00  0.00    -0.012 A 
ATOM      4  C3A BZF d   1      -1.580  -3.437   0.732  0.00  0.00    -0.107 A 
ATOM      5  C4  BZF d   1      -2.370  -4.501   0.402  0.00  0.00     0.055 A 
ATOM      6  C5  BZF d   1      -3.426  -4.306  -0.431  0.00  0.00    -0.016 A 
ATOM      7  C6  BZF d   1      -3.724  -3.062  -0.947  0.00  0.00     0.022 A 
ATOM      8  C7  BZF d   1      -2.967  -1.977  -0.652  0.00  0.00     0.029 A 
ATOM      9  C7A BZF d   1      -1.879  -2.177   0.163  0.00  0.00     0.058 A 
ENDROOT
TORSDOF 0
ENDMDL
