MODEL 1
REMARK minimizedAffinity 9.00201607
REMARK minimizedRMSD -1
REMARK  0 active torsions:
REMARK  status: ('A' for Active; 'I' for Inactive)
ROOT
ATOM      1  O1  BZF d   1       3.123   0.505   0.954  0.00  0.00    -0.204 OA
ATOM      2  C2  BZF d   1       1.937   1.209   0.862  0.00  0.00     0.174 A 
ATOM      3  C3  BZF d   1       0.884   0.407   1.117  0.00  0.00    -0.012 A 
ATOM      4  C3A BZF d   1       1.451  -0.857   1.475  0.00  0.00    -0.107 A 
ATOM      5  C4  BZF d   1       0.913  -2.055   1.851  0.00  0.00     0.055 A 
ATOM      6  C5  BZF d   1       1.739  -3.113   2.061  0.00  0.00    -0.016 A 
ATOM      7  C6  BZF d   1       3.106  -3.010   1.900  0.00  0.00     0.022 A 
ATOM      8  C7  BZF d   1       3.686  -1.842   1.534  0.00  0.00     0.029 A 
ATOM      9  C7A BZF d   1       2.856  -0.762   1.352  0.00  0.00     0.058 A 
ENDROOT
TORSDOF 0
ENDMDL
