MODEL 1
REMARK minimizedAffinity -3.29618168
REMARK minimizedRMSD -1
REMARK  0 active torsions:
REMARK  status: ('A' for Active; 'I' for Inactive)
ROOT
ATOM      1  O1  BZF d   1       3.782  -2.662   3.584  0.00  0.00    -0.204 OA
ATOM      2  C2  BZF d   1       2.977  -3.478   4.356  0.00  0.00     0.174 A 
ATOM      3  C3  BZF d   1       1.709  -3.469   3.899  0.00  0.00    -0.012 A 
ATOM      4  C3A BZF d   1       1.740  -2.665   2.716  0.00  0.00    -0.107 A 
ATOM      5  C4  BZF d   1       0.791  -2.295   1.806  0.00  0.00     0.055 A 
ATOM      6  C5  BZF d   1       1.133  -1.443   0.804  0.00  0.00    -0.016 A 
ATOM      7  C6  BZF d   1       2.412  -0.939   0.685  0.00  0.00     0.022 A 
ATOM      8  C7  BZF d   1       3.388  -1.281   1.560  0.00  0.00     0.029 A 
ATOM      9  C7A BZF d   1       3.054  -2.168   2.554  0.00  0.00     0.058 A 
ENDROOT
TORSDOF 0
ENDMDL
