MODEL 1
REMARK minimizedAffinity -0.822726429
REMARK minimizedRMSD -1
REMARK  0 active torsions:
REMARK  status: ('A' for Active; 'I' for Inactive)
ROOT
ATOM      1  O1  BZF d   1       1.047  -2.777   2.261  0.00  0.00    -0.204 OA
ATOM      2  C2  BZF d   1       2.054  -3.278   3.063  0.00  0.00     0.174 A 
ATOM      3  C3  BZF d   1       3.161  -2.512   2.976  0.00  0.00    -0.012 A 
ATOM      4  C3A BZF d   1       2.794  -1.416   2.133  0.00  0.00    -0.107 A 
ATOM      5  C4  BZF d   1       3.462  -0.312   1.684  0.00  0.00     0.055 A 
ATOM      6  C5  BZF d   1       2.841   0.527   0.815  0.00  0.00    -0.016 A 
ATOM      7  C6  BZF d   1       1.556   0.292   0.370  0.00  0.00     0.022 A 
ATOM      8  C7  BZF d   1       0.852  -0.787   0.791  0.00  0.00     0.029 A 
ATOM      9  C7A BZF d   1       1.465  -1.620   1.695  0.00  0.00     0.058 A 
ENDROOT
TORSDOF 0
ENDMDL
