MODEL 1
REMARK minimizedAffinity 1.38487709
REMARK minimizedRMSD -1
REMARK  0 active torsions:
REMARK  status: ('A' for Active; 'I' for Inactive)
ROOT
ATOM      1  O1  BZF d   1       3.520  -0.925   1.857  0.00  0.00    -0.204 OA
ATOM      2  C2  BZF d   1       3.085  -0.092   0.844  0.00  0.00     0.174 A 
ATOM      3  C3  BZF d   1       1.862  -0.462   0.413  0.00  0.00    -0.012 A 
ATOM      4  C3A BZF d   1       1.471  -1.540   1.269  0.00  0.00    -0.107 A 
ATOM      5  C4  BZF d   1       0.350  -2.317   1.349  0.00  0.00     0.055 A 
ATOM      6  C5  BZF d   1       0.314  -3.333   2.250  0.00  0.00    -0.016 A 
ATOM      7  C6  BZF d   1       1.381  -3.604   3.082  0.00  0.00     0.022 A 
ATOM      8  C7  BZF d   1       2.512  -2.859   3.043  0.00  0.00     0.029 A 
ATOM      9  C7A BZF d   1       2.539  -1.810   2.156  0.00  0.00     0.058 A 
ENDROOT
TORSDOF 0
ENDMDL
