MODEL 1
REMARK minimizedAffinity 10.4728308
REMARK minimizedRMSD -1
REMARK  0 active torsions:
REMARK  status: ('A' for Active; 'I' for Inactive)
ROOT
ATOM      1  O1  BZF d   1       2.660   3.627  -0.845  0.00  0.00    -0.204 OA
ATOM      2  C2  BZF d   1       1.516   4.358  -0.588  0.00  0.00     0.174 A 
ATOM      3  C3  BZF d   1       0.782   3.775   0.381  0.00  0.00    -0.012 A 
ATOM      4  C3A BZF d   1       1.559   2.655   0.818  0.00  0.00    -0.107 A 
ATOM      5  C4  BZF d   1       1.369   1.695   1.770  0.00  0.00     0.055 A 
ATOM      6  C5  BZF d   1       2.284   0.699   1.896  0.00  0.00    -0.016 A 
ATOM      7  C6  BZF d   1       3.397   0.628   1.084  0.00  0.00     0.022 A 
ATOM      8  C7  BZF d   1       3.631   1.560   0.128  0.00  0.00     0.029 A 
ATOM      9  C7A BZF d   1       2.724   2.587   0.020  0.00  0.00     0.058 A 
ENDROOT
TORSDOF 0
ENDMDL
