MODEL 1
REMARK minimizedAffinity 5.60245466
REMARK minimizedRMSD -1
REMARK  0 active torsions:
REMARK  status: ('A' for Active; 'I' for Inactive)
ROOT
ATOM      1  O1  BZF d   1       1.588  -2.277  -1.592  0.00  0.00    -0.204 OA
ATOM      2  C2  BZF d   1       0.278  -2.230  -2.029  0.00  0.00     0.174 A 
ATOM      3  C3  BZF d   1      -0.569  -2.094  -0.988  0.00  0.00    -0.012 A 
ATOM      4  C3A BZF d   1       0.270  -1.961   0.164  0.00  0.00    -0.107 A 
ATOM      5  C4  BZF d   1       0.016  -1.780   1.494  0.00  0.00     0.055 A 
ATOM      6  C5  BZF d   1       1.056  -1.764   2.368  0.00  0.00    -0.016 A 
ATOM      7  C6  BZF d   1       2.360  -1.929   1.949  0.00  0.00     0.022 A 
ATOM      8  C7  BZF d   1       2.661  -2.106   0.639  0.00  0.00     0.029 A 
ATOM      9  C7A BZF d   1       1.615  -2.091  -0.251  0.00  0.00     0.058 A 
ENDROOT
TORSDOF 0
ENDMDL
