MODEL 1
REMARK minimizedAffinity 3.646945
REMARK minimizedRMSD -1
REMARK  0 active torsions:
REMARK  status: ('A' for Active; 'I' for Inactive)
ROOT
ATOM      1  O1  BZF d   1       1.367   0.515   1.665  0.00  0.00    -0.204 OA
ATOM      2  C2  BZF d   1       2.720   0.350   1.895  0.00  0.00     0.174 A 
ATOM      3  C3  BZF d   1       2.996  -0.927   2.227  0.00  0.00    -0.012 A 
ATOM      4  C3A BZF d   1       1.751  -1.623   2.113  0.00  0.00    -0.107 A 
ATOM      5  C4  BZF d   1       1.383  -2.925   2.299  0.00  0.00     0.055 A 
ATOM      6  C5  BZF d   1       0.073  -3.265   2.177  0.00  0.00    -0.016 A 
ATOM      7  C6  BZF d   1      -0.895  -2.329   1.877  0.00  0.00     0.022 A 
ATOM      8  C7  BZF d   1      -0.578  -1.026   1.679  0.00  0.00     0.029 A 
ATOM      9  C7A BZF d   1       0.750  -0.686   1.768  0.00  0.00     0.058 A 
ENDROOT
TORSDOF 0
ENDMDL
