MODEL 1
REMARK minimizedAffinity 5.25196171
REMARK minimizedRMSD -1
REMARK  0 active torsions:
REMARK  status: ('A' for Active; 'I' for Inactive)
ROOT
ATOM      1  O1  BZF d   1      -1.395  -0.671   1.089  0.00  0.00    -0.204 OA
ATOM      2  C2  BZF d   1      -2.359  -0.170   0.235  0.00  0.00     0.174 A 
ATOM      3  C3  BZF d   1      -2.032  -0.411  -1.051  0.00  0.00    -0.012 A 
ATOM      4  C3A BZF d   1      -0.832  -1.188  -0.994  0.00  0.00    -0.107 A 
ATOM      5  C4  BZF d   1      -0.030  -1.748  -1.947  0.00  0.00     0.055 A 
ATOM      6  C5  BZF d   1       1.109  -2.382  -1.563  0.00  0.00    -0.016 A 
ATOM      7  C6  BZF d   1       1.478  -2.472  -0.237  0.00  0.00     0.022 A 
ATOM      8  C7  BZF d   1       0.713  -1.936   0.745  0.00  0.00     0.029 A 
ATOM      9  C7A BZF d   1      -0.455  -1.323   0.362  0.00  0.00     0.058 A 
ENDROOT
TORSDOF 0
ENDMDL
