MODEL 1
REMARK minimizedAffinity 2.2620101
REMARK minimizedRMSD -1
REMARK  0 active torsions:
REMARK  status: ('A' for Active; 'I' for Inactive)
ROOT
ATOM      1  O1  BZF d   1      -1.213  -1.177   1.107  0.00  0.00    -0.204 OA
ATOM      2  C2  BZF d   1      -1.966  -0.026   0.979  0.00  0.00     0.174 A 
ATOM      3  C3  BZF d   1      -1.172   1.063   0.931  0.00  0.00    -0.012 A 
ATOM      4  C3A BZF d   1       0.165   0.554   0.943  0.00  0.00    -0.107 A 
ATOM      5  C4  BZF d   1       1.396   1.145   0.897  0.00  0.00     0.055 A 
ATOM      6  C5  BZF d   1       2.506   0.368   1.000  0.00  0.00    -0.016 A 
ATOM      7  C6  BZF d   1       2.423  -1.000   1.155  0.00  0.00     0.022 A 
ATOM      8  C7  BZF d   1       1.225  -1.632   1.201  0.00  0.00     0.029 A 
ATOM      9  C7A BZF d   1       0.102  -0.854   1.064  0.00  0.00     0.058 A 
ENDROOT
TORSDOF 0
ENDMDL
