MODEL 1
REMARK minimizedAffinity 8.58222008
REMARK minimizedRMSD -1
REMARK  0 active torsions:
REMARK  status: ('A' for Active; 'I' for Inactive)
ROOT
ATOM      1  O1  BZF d   1       0.758  -1.516   2.680  0.00  0.00    -0.204 OA
ATOM      2  C2  BZF d   1       1.092  -2.724   2.098  0.00  0.00     0.174 A 
ATOM      3  C3  BZF d   1       2.145  -2.581   1.268  0.00  0.00    -0.012 A 
ATOM      4  C3A BZF d   1       2.549  -1.215   1.406  0.00  0.00    -0.107 A 
ATOM      5  C4  BZF d   1       3.550  -0.472   0.848  0.00  0.00     0.055 A 
ATOM      6  C5  BZF d   1       3.628   0.853   1.138  0.00  0.00    -0.016 A 
ATOM      7  C6  BZF d   1       2.720   1.468   1.975  0.00  0.00     0.022 A 
ATOM      8  C7  BZF d   1       1.714   0.771   2.556  0.00  0.00     0.029 A 
ATOM      9  C7A BZF d   1       1.652  -0.575   2.291  0.00  0.00     0.058 A 
ENDROOT
TORSDOF 0
ENDMDL
