MODEL 1
REMARK minimizedAffinity -0.168898866
REMARK minimizedRMSD -1
REMARK  0 active torsions:
REMARK  status: ('A' for Active; 'I' for Inactive)
ROOT
ATOM      1  O1  BZF d   1       1.309  -2.610  -3.159  0.00  0.00    -0.204 OA
ATOM      2  C2  BZF d   1       2.539  -3.164  -2.859  0.00  0.00     0.174 A 
ATOM      3  C3  BZF d   1       2.912  -2.848  -1.602  0.00  0.00    -0.012 A 
ATOM      4  C3A BZF d   1       1.807  -2.124  -1.052  0.00  0.00    -0.107 A 
ATOM      5  C4  BZF d   1       1.569  -1.558   0.167  0.00  0.00     0.055 A 
ATOM      6  C5  BZF d   1       0.419  -0.859   0.358  0.00  0.00    -0.016 A 
ATOM      7  C6  BZF d   1      -0.511  -0.703  -0.648  0.00  0.00     0.022 A 
ATOM      8  C7  BZF d   1      -0.321  -1.251  -1.873  0.00  0.00     0.029 A 
ATOM      9  C7A BZF d   1       0.824  -1.985  -2.060  0.00  0.00     0.058 A 
ENDROOT
TORSDOF 0
ENDMDL
