MODEL 1
REMARK minimizedAffinity 2.86518049
REMARK minimizedRMSD -1
REMARK  0 active torsions:
REMARK  status: ('A' for Active; 'I' for Inactive)
ROOT
ATOM      1  O1  BZF d   1       1.601  -1.894  -1.233  0.00  0.00    -0.204 OA
ATOM      2  C2  BZF d   1       0.404  -1.618  -1.866  0.00  0.00     0.174 A 
ATOM      3  C3  BZF d   1      -0.579  -1.418  -0.964  0.00  0.00    -0.012 A 
ATOM      4  C3A BZF d   1       0.062  -1.488   0.313  0.00  0.00    -0.107 A 
ATOM      5  C4  BZF d   1      -0.384  -1.354   1.597  0.00  0.00     0.055 A 
ATOM      6  C5  BZF d   1       0.485  -1.552   2.622  0.00  0.00    -0.016 A 
ATOM      7  C6  BZF d   1       1.804  -1.891   2.402  0.00  0.00     0.022 A 
ATOM      8  C7  BZF d   1       2.294  -2.030   1.146  0.00  0.00     0.029 A 
ATOM      9  C7A BZF d   1       1.427  -1.798   0.107  0.00  0.00     0.058 A 
ENDROOT
TORSDOF 0
ENDMDL
