MODEL 1
REMARK minimizedAffinity 5.97317123
REMARK minimizedRMSD -1
REMARK  0 active torsions:
REMARK  status: ('A' for Active; 'I' for Inactive)
ROOT
ATOM      1  O1  BZF d   1      -0.125  -0.137   1.459  0.00  0.00    -0.204 OA
ATOM      2  C2  BZF d   1      -0.961  -1.236   1.410  0.00  0.00     0.174 A 
ATOM      3  C3  BZF d   1      -0.246  -2.378   1.343  0.00  0.00    -0.012 A 
ATOM      4  C3A BZF d   1       1.122  -1.972   1.444  0.00  0.00    -0.107 A 
ATOM      5  C4  BZF d   1       2.305  -2.653   1.454  0.00  0.00     0.055 A 
ATOM      6  C5  BZF d   1       3.470  -1.954   1.491  0.00  0.00    -0.016 A 
ATOM      7  C6  BZF d   1       3.488  -0.575   1.513  0.00  0.00     0.022 A 
ATOM      8  C7  BZF d   1       2.340   0.145   1.509  0.00  0.00     0.029 A 
ATOM      9  C7A BZF d   1       1.161  -0.560   1.505  0.00  0.00     0.058 A 
ENDROOT
TORSDOF 0
ENDMDL
