MODEL 1
REMARK minimizedAffinity -5.36918974
REMARK minimizedRMSD -1
REMARK  0 active torsions:
REMARK  status: ('A' for Active; 'I' for Inactive)
ROOT
ATOM      1  C   UNL d   1       0.751   0.743   0.022  0.00  0.00     0.078 C 
ATOM      2  C1  UNL d   1      -0.335   0.293   0.953  0.00  0.00    -0.077 A 
ATOM      3  C2  UNL d   1      -1.683   0.539   0.663  0.00  0.00    -0.001 A 
ATOM      4  C3  UNL d   1      -2.682   0.123   1.543  0.00  0.00     0.003 A 
ATOM      5  C4  UNL d   1      -2.345  -0.542   2.720  0.00  0.00    -0.005 A 
ATOM      6  C5  UNL d   1      -1.007  -0.790   3.019  0.00  0.00     0.003 A 
ATOM      7  C6  UNL d   1      -0.006  -0.374   2.140  0.00  0.00    -0.001 A 
ENDROOT
TORSDOF 0
ENDMDL
