MODEL 1
REMARK minimizedAffinity -3.05741477
REMARK minimizedRMSD -1
REMARK  0 active torsions:
REMARK  status: ('A' for Active; 'I' for Inactive)
ROOT
ATOM      1  C   UNL d   1       0.475   0.623  -1.475  0.00  0.00     0.078 C 
ATOM      2  C1  UNL d   1      -0.061   0.627  -0.074  0.00  0.00    -0.077 A 
ATOM      3  C2  UNL d   1      -1.423   0.834   0.176  0.00  0.00    -0.001 A 
ATOM      4  C3  UNL d   1      -1.907   0.844   1.485  0.00  0.00     0.003 A 
ATOM      5  C4  UNL d   1      -1.036   0.649   2.554  0.00  0.00    -0.005 A 
ATOM      6  C5  UNL d   1       0.322   0.444   2.316  0.00  0.00     0.003 A 
ATOM      7  C6  UNL d   1       0.807   0.433   1.007  0.00  0.00    -0.001 A 
ENDROOT
TORSDOF 0
ENDMDL
