MODEL 1
REMARK minimizedAffinity -5.77339983
REMARK minimizedRMSD -1
REMARK  0 active torsions:
REMARK  status: ('A' for Active; 'I' for Inactive)
ROOT
ATOM      1  C   UNL d   1      -0.345   0.245  -0.956  0.00  0.00     0.078 C 
ATOM      2  C1  UNL d   1      -0.955   0.135   0.409  0.00  0.00    -0.077 A 
ATOM      3  C2  UNL d   1      -2.284   0.511   0.638  0.00  0.00    -0.001 A 
ATOM      4  C3  UNL d   1      -2.836   0.414   1.916  0.00  0.00     0.003 A 
ATOM      5  C4  UNL d   1      -2.065  -0.059   2.977  0.00  0.00    -0.005 A 
ATOM      6  C5  UNL d   1      -0.741  -0.433   2.759  0.00  0.00     0.003 A 
ATOM      7  C6  UNL d   1      -0.187  -0.336   1.482  0.00  0.00    -0.001 A 
ENDROOT
TORSDOF 0
ENDMDL
