MODEL 1
REMARK minimizedAffinity -3.38123107
REMARK minimizedRMSD -1
REMARK  0 active torsions:
REMARK  status: ('A' for Active; 'I' for Inactive)
ROOT
ATOM      1  C   UNL d   1      -0.775   0.034   2.945  0.00  0.00     0.078 C 
ATOM      2  C1  UNL d   1      -0.762   0.371   1.484  0.00  0.00    -0.077 A 
ATOM      3  C2  UNL d   1       0.443   0.584   0.804  0.00  0.00    -0.001 A 
ATOM      4  C3  UNL d   1       0.439   0.906  -0.554  0.00  0.00     0.003 A 
ATOM      5  C4  UNL d   1      -0.767   1.020  -1.243  0.00  0.00    -0.005 A 
ATOM      6  C5  UNL d   1      -1.971   0.811  -0.574  0.00  0.00     0.003 A 
ATOM      7  C6  UNL d   1      -1.969   0.489   0.784  0.00  0.00    -0.001 A 
ENDROOT
TORSDOF 0
ENDMDL
