MODEL 1
REMARK minimizedAffinity -3.32845783
REMARK minimizedRMSD -1
REMARK  0 active torsions:
REMARK  status: ('A' for Active; 'I' for Inactive)
ROOT
ATOM      1  C   UNL d   1      -1.012  -1.314   3.186  0.00  0.00     0.078 C 
ATOM      2  C1  UNL d   1      -0.519  -0.482   2.041  0.00  0.00    -0.077 A 
ATOM      3  C2  UNL d   1       0.589   0.362   2.187  0.00  0.00    -0.001 A 
ATOM      4  C3  UNL d   1       1.032   1.139   1.115  0.00  0.00     0.003 A 
ATOM      5  C4  UNL d   1       0.371   1.081  -0.111  0.00  0.00    -0.005 A 
ATOM      6  C5  UNL d   1      -0.734   0.246  -0.265  0.00  0.00     0.003 A 
ATOM      7  C6  UNL d   1      -1.178  -0.531   0.806  0.00  0.00    -0.001 A 
ENDROOT
TORSDOF 0
ENDMDL
