MODEL 1
REMARK minimizedAffinity -4.88142347
REMARK minimizedRMSD -1
REMARK  0 active torsions:
REMARK  status: ('A' for Active; 'I' for Inactive)
ROOT
ATOM      1  C   UNL d   1       0.764   0.197   2.259  0.00  0.00     0.078 C 
ATOM      2  C1  UNL d   1      -0.189   0.445   1.128  0.00  0.00    -0.077 A 
ATOM      3  C2  UNL d   1       0.263   0.500  -0.196  0.00  0.00    -0.001 A 
ATOM      4  C3  UNL d   1      -0.633   0.742  -1.239  0.00  0.00     0.003 A 
ATOM      5  C4  UNL d   1      -1.987   0.932  -0.968  0.00  0.00    -0.005 A 
ATOM      6  C5  UNL d   1      -2.445   0.881   0.347  0.00  0.00     0.003 A 
ATOM      7  C6  UNL d   1      -1.550   0.639   1.391  0.00  0.00    -0.001 A 
ENDROOT
TORSDOF 0
ENDMDL
