MODEL 1
REMARK minimizedAffinity -3.17044139
REMARK minimizedRMSD -1
REMARK  0 active torsions:
REMARK  status: ('A' for Active; 'I' for Inactive)
ROOT
ATOM      1  C   UNL d   1      -0.096   0.316  -0.567  0.00  0.00     0.078 C 
ATOM      2  C1  UNL d   1      -0.577   0.402   0.851  0.00  0.00    -0.077 A 
ATOM      3  C2  UNL d   1       0.312   0.264   1.924  0.00  0.00    -0.001 A 
ATOM      4  C3  UNL d   1      -0.152   0.337   3.239  0.00  0.00     0.003 A 
ATOM      5  C4  UNL d   1      -1.506   0.547   3.492  0.00  0.00    -0.005 A 
ATOM      6  C5  UNL d   1      -2.398   0.684   2.431  0.00  0.00     0.003 A 
ATOM      7  C6  UNL d   1      -1.936   0.611   1.116  0.00  0.00    -0.001 A 
ENDROOT
TORSDOF 0
ENDMDL
