MODEL 1
REMARK minimizedAffinity -5.45928192
REMARK minimizedRMSD -1
REMARK  0 active torsions:
REMARK  status: ('A' for Active; 'I' for Inactive)
ROOT
ATOM      1  C   UNL d   1       0.561   0.350  -0.722  0.00  0.00     0.078 C 
ATOM      2  C1  UNL d   1      -0.018   0.146   0.646  0.00  0.00    -0.077 A 
ATOM      3  C2  UNL d   1      -1.357  -0.228   0.814  0.00  0.00    -0.001 A 
ATOM      4  C3  UNL d   1      -1.885  -0.405   2.094  0.00  0.00     0.003 A 
ATOM      5  C4  UNL d   1      -1.082  -0.208   3.216  0.00  0.00    -0.005 A 
ATOM      6  C5  UNL d   1       0.251   0.167   3.059  0.00  0.00     0.003 A 
ATOM      7  C6  UNL d   1       0.781   0.344   1.780  0.00  0.00    -0.001 A 
ENDROOT
TORSDOF 0
ENDMDL
