MODEL 1
REMARK minimizedAffinity -4.92179585
REMARK minimizedRMSD -1
REMARK  0 active torsions:
REMARK  status: ('A' for Active; 'I' for Inactive)
ROOT
ATOM      1  C   UNL d   1       0.602   0.200  -0.877  0.00  0.00     0.078 C 
ATOM      2  C1  UNL d   1       0.050  -0.111   0.483  0.00  0.00    -0.077 A 
ATOM      3  C2  UNL d   1      -0.980  -1.046   0.646  0.00  0.00    -0.001 A 
ATOM      4  C3  UNL d   1      -1.491  -1.318   1.916  0.00  0.00     0.003 A 
ATOM      5  C4  UNL d   1      -0.979  -0.659   3.032  0.00  0.00    -0.005 A 
ATOM      6  C5  UNL d   1       0.044   0.274   2.879  0.00  0.00     0.003 A 
ATOM      7  C6  UNL d   1       0.557   0.548   1.610  0.00  0.00    -0.001 A 
ENDROOT
TORSDOF 0
ENDMDL
