MODEL 1
REMARK minimizedAffinity -5.47003651
REMARK minimizedRMSD -1
REMARK  0 active torsions:
REMARK  status: ('A' for Active; 'I' for Inactive)
ROOT
ATOM      1  C   UNL d   1      -0.143   0.167  -0.910  0.00  0.00     0.078 C 
ATOM      2  C1  UNL d   1      -0.578  -0.056   0.508  0.00  0.00    -0.077 A 
ATOM      3  C2  UNL d   1       0.361  -0.187   1.538  0.00  0.00    -0.001 A 
ATOM      4  C3  UNL d   1      -0.058  -0.405   2.852  0.00  0.00     0.003 A 
ATOM      5  C4  UNL d   1      -1.417  -0.495   3.147  0.00  0.00    -0.005 A 
ATOM      6  C5  UNL d   1      -2.359  -0.368   2.127  0.00  0.00     0.003 A 
ATOM      7  C6  UNL d   1      -1.942  -0.150   0.813  0.00  0.00    -0.001 A 
ENDROOT
TORSDOF 0
ENDMDL
