MODEL 1
REMARK minimizedAffinity -3.88303018
REMARK minimizedRMSD -1
REMARK  0 active torsions:
REMARK  status: ('A' for Active; 'I' for Inactive)
ROOT
ATOM      1  C   UNL d   1      -0.382  -0.285   3.303  0.00  0.00     0.078 C 
ATOM      2  C1  UNL d   1      -0.298  -0.025   1.828  0.00  0.00    -0.077 A 
ATOM      3  C2  UNL d   1      -1.450  -0.005   1.032  0.00  0.00    -0.001 A 
ATOM      4  C3  UNL d   1      -1.356   0.229  -0.340  0.00  0.00     0.003 A 
ATOM      5  C4  UNL d   1      -0.112   0.444  -0.930  0.00  0.00    -0.005 A 
ATOM      6  C5  UNL d   1       1.041   0.424  -0.146  0.00  0.00     0.003 A 
ATOM      7  C6  UNL d   1       0.948   0.190   1.227  0.00  0.00    -0.001 A 
ENDROOT
TORSDOF 0
ENDMDL
