MODEL 1
REMARK minimizedAffinity -3.76041746
REMARK minimizedRMSD -1
REMARK  0 active torsions:
REMARK  status: ('A' for Active; 'I' for Inactive)
ROOT
ATOM      1  C   UNL d   1       0.171   0.366  -1.199  0.00  0.00     0.078 C 
ATOM      2  C1  UNL d   1      -0.140   0.164   0.254  0.00  0.00    -0.077 A 
ATOM      3  C2  UNL d   1      -1.454  -0.060   0.685  0.00  0.00    -0.001 A 
ATOM      4  C3  UNL d   1      -1.730  -0.237   2.042  0.00  0.00     0.003 A 
ATOM      5  C4  UNL d   1      -0.699  -0.191   2.978  0.00  0.00    -0.005 A 
ATOM      6  C5  UNL d   1       0.610   0.033   2.558  0.00  0.00     0.003 A 
ATOM      7  C6  UNL d   1       0.889   0.211   1.202  0.00  0.00    -0.001 A 
ENDROOT
TORSDOF 0
ENDMDL
