MODEL 1
REMARK minimizedAffinity -3.27045751
REMARK minimizedRMSD -1
REMARK  0 active torsions:
REMARK  status: ('A' for Active; 'I' for Inactive)
ROOT
ATOM      1  C   UNL d   1      -0.750  -0.316  -5.511  0.00  0.00     0.172 C 
ATOM      2  N   UNL d   1       0.162  -0.037  -4.427  0.00  0.00    -0.070 N 
ATOM      3  C1  UNL d   1       0.041  -0.498  -3.143  0.00  0.00    -0.004 A 
ATOM      4  C2  UNL d   1       1.107  -0.012  -2.417  0.00  0.00    -0.047 A 
ATOM      5  C3  UNL d   1       1.896   0.769  -3.295  0.00  0.00    -0.047 A 
ATOM      6  C4  UNL d   1       1.288   0.736  -4.532  0.00  0.00    -0.004 A 
ENDROOT
TORSDOF 0
ENDMDL
