MODEL 1
REMARK minimizedAffinity -3.22428012
REMARK minimizedRMSD -1
REMARK  0 active torsions:
REMARK  status: ('A' for Active; 'I' for Inactive)
ROOT
ATOM      1  C   UNL d   1       0.452  -1.099  -0.723  0.00  0.00     0.172 C 
ATOM      2  N   UNL d   1      -0.184  -0.458   0.404  0.00  0.00    -0.070 N 
ATOM      3  C1  UNL d   1       0.442  -0.066   1.557  0.00  0.00    -0.004 A 
ATOM      4  C2  UNL d   1      -0.507   0.503   2.379  0.00  0.00    -0.047 A 
ATOM      5  C3  UNL d   1      -1.745   0.450   1.697  0.00  0.00    -0.047 A 
ATOM      6  C4  UNL d   1      -1.517  -0.149   0.477  0.00  0.00    -0.004 A 
ENDROOT
TORSDOF 0
ENDMDL
