MODEL 1
REMARK minimizedAffinity -0.19233413
REMARK minimizedRMSD -1
REMARK  0 active torsions:
REMARK  status: ('A' for Active; 'I' for Inactive)
ROOT
ATOM      1  C   UNL d   1       1.484   0.625  -4.166  0.00  0.00     0.172 C 
ATOM      2  N   UNL d   1       0.546  -0.353  -4.666  0.00  0.00    -0.070 N 
ATOM      3  C1  UNL d   1      -0.023  -0.349  -5.912  0.00  0.00    -0.004 A 
ATOM      4  C2  UNL d   1      -0.855  -1.444  -6.000  0.00  0.00    -0.047 A 
ATOM      5  C3  UNL d   1      -0.785  -2.129  -4.763  0.00  0.00    -0.047 A 
ATOM      6  C4  UNL d   1       0.090  -1.432  -3.957  0.00  0.00    -0.004 A 
ENDROOT
TORSDOF 0
ENDMDL
