MODEL 1
REMARK minimizedAffinity -3.92392278
REMARK minimizedRMSD -1
REMARK  0 active torsions:
REMARK  status: ('A' for Active; 'I' for Inactive)
ROOT
ATOM      1  C   UNL d   1       0.430  -0.446  -0.147  0.00  0.00     0.172 C 
ATOM      2  N   UNL d   1      -0.045   0.430   0.898  0.00  0.00    -0.070 N 
ATOM      3  C1  UNL d   1      -1.354   0.601   1.262  0.00  0.00    -0.004 A 
ATOM      4  C2  UNL d   1      -1.390   1.514   2.293  0.00  0.00    -0.047 A 
ATOM      5  C3  UNL d   1      -0.056   1.907   2.557  0.00  0.00    -0.047 A 
ATOM      6  C4  UNL d   1       0.756   1.220   1.679  0.00  0.00    -0.004 A 
ENDROOT
TORSDOF 0
ENDMDL
