MODEL 1
REMARK minimizedAffinity -1.02346492
REMARK minimizedRMSD -1
REMARK  0 active torsions:
REMARK  status: ('A' for Active; 'I' for Inactive)
ROOT
ATOM      1  C   UNL d   1       0.826  -0.791  -1.632  0.00  0.00     0.172 C 
ATOM      2  N   UNL d   1       0.721  -0.300  -0.278  0.00  0.00    -0.070 N 
ATOM      3  C1  UNL d   1       1.539  -0.650   0.764  0.00  0.00    -0.004 A 
ATOM      4  C2  UNL d   1       1.112   0.032   1.882  0.00  0.00    -0.047 A 
ATOM      5  C3  UNL d   1      -0.001   0.818   1.500  0.00  0.00    -0.047 A 
ATOM      6  C4  UNL d   1      -0.221   0.593   0.158  0.00  0.00    -0.004 A 
ENDROOT
TORSDOF 0
ENDMDL
