MODEL 1
REMARK minimizedAffinity -2.24629855
REMARK minimizedRMSD -1
REMARK  0 active torsions:
REMARK  status: ('A' for Active; 'I' for Inactive)
ROOT
ATOM      1  C   UNL d   1      -0.382   1.937   2.214  0.00  0.00     0.172 C 
ATOM      2  N   UNL d   1       0.047   0.845   1.372  0.00  0.00    -0.070 N 
ATOM      3  C1  UNL d   1       1.218   0.147   1.506  0.00  0.00    -0.004 A 
ATOM      4  C2  UNL d   1       1.254  -0.809   0.514  0.00  0.00    -0.047 A 
ATOM      5  C3  UNL d   1       0.064  -0.681  -0.241  0.00  0.00    -0.047 A 
ATOM      6  C4  UNL d   1      -0.664   0.351   0.311  0.00  0.00    -0.004 A 
ENDROOT
TORSDOF 0
ENDMDL
