MODEL 1
REMARK minimizedAffinity -1.76509154
REMARK minimizedRMSD -1
REMARK  0 active torsions:
REMARK  status: ('A' for Active; 'I' for Inactive)
ROOT
ATOM      1  C   UNL d   1      -0.169   1.995   2.330  0.00  0.00     0.172 C 
ATOM      2  N   UNL d   1       0.311   0.918   1.497  0.00  0.00    -0.070 N 
ATOM      3  C1  UNL d   1       1.519   0.285   1.626  0.00  0.00    -0.004 A 
ATOM      4  C2  UNL d   1       1.597  -0.680   0.646  0.00  0.00    -0.047 A 
ATOM      5  C3  UNL d   1       0.395  -0.625  -0.099  0.00  0.00    -0.047 A 
ATOM      6  C4  UNL d   1      -0.383   0.372   0.449  0.00  0.00    -0.004 A 
ENDROOT
TORSDOF 0
ENDMDL
