MODEL 1
REMARK minimizedAffinity 4.99879217
REMARK minimizedRMSD -1
REMARK  0 active torsions:
REMARK  status: ('A' for Active; 'I' for Inactive)
ROOT
ATOM      1  C2' OXE d   1       3.747   1.321   4.061  0.00  0.00     0.078 C 
ATOM      2  C1' OXE d   1       6.000   0.016   3.013  0.00  0.00     0.078 C 
ATOM      3  C1  OXE d   1       5.242   0.951   2.104  0.00  0.00    -0.078 A 
ATOM      4  C2  OXE d   1       4.114   1.549   2.611  0.00  0.00    -0.078 A 
ATOM      5  C3  OXE d   1       3.409   2.463   1.832  0.00  0.00     0.003 A 
ATOM      6  C4  OXE d   1       3.749   2.661   0.489  0.00  0.00    -0.002 A 
ATOM      7  C5  OXE d   1       4.871   2.030  -0.060  0.00  0.00    -0.002 A 
ATOM      8  C6  OXE d   1       5.651   1.207   0.745  0.00  0.00     0.003 A 
ENDROOT
TORSDOF 0
ENDMDL
