MODEL 1
REMARK minimizedAffinity 13.0007734
REMARK minimizedRMSD -1
REMARK  0 active torsions:
REMARK  status: ('A' for Active; 'I' for Inactive)
ROOT
ATOM      1  C2' OXE d   1       6.000   5.506  -0.956  0.00  0.00     0.078 C 
ATOM      2  C1' OXE d   1       4.967   6.000   1.607  0.00  0.00     0.078 C 
ATOM      3  C1  OXE d   1       5.178   4.564   1.198  0.00  0.00    -0.078 A 
ATOM      4  C2  OXE d   1       5.640   4.330  -0.075  0.00  0.00    -0.078 A 
ATOM      5  C3  OXE d   1       5.903   3.026  -0.484  0.00  0.00     0.003 A 
ATOM      6  C4  OXE d   1       5.558   1.943   0.334  0.00  0.00    -0.002 A 
ATOM      7  C5  OXE d   1       5.049   2.158   1.619  0.00  0.00    -0.002 A 
ATOM      8  C6  OXE d   1       4.893   3.460   2.081  0.00  0.00     0.003 A 
ENDROOT
TORSDOF 0
ENDMDL
