MODEL 1
REMARK minimizedAffinity 15.1609077
REMARK minimizedRMSD -1
REMARK  0 active torsions:
REMARK  status: ('A' for Active; 'I' for Inactive)
ROOT
ATOM      1  C2' OXE d   1       6.000   0.280   3.034  0.00  0.00     0.078 C 
ATOM      2  C1' OXE d   1       3.893   1.943   3.854  0.00  0.00     0.078 C 
ATOM      3  C1  OXE d   1       4.430   2.126   2.457  0.00  0.00    -0.078 A 
ATOM      4  C2  OXE d   1       5.492   1.339   2.080  0.00  0.00    -0.078 A 
ATOM      5  C3  OXE d   1       5.991   1.429   0.784  0.00  0.00     0.003 A 
ATOM      6  C4  OXE d   1       5.522   2.418  -0.089  0.00  0.00    -0.002 A 
ATOM      7  C5  OXE d   1       4.468   3.256   0.288  0.00  0.00    -0.002 A 
ATOM      8  C6  OXE d   1       3.883   3.095   1.539  0.00  0.00     0.003 A 
ENDROOT
TORSDOF 0
ENDMDL
