MODEL 1
REMARK minimizedAffinity 17.4017715
REMARK minimizedRMSD -1
REMARK  0 active torsions:
REMARK  status: ('A' for Active; 'I' for Inactive)
ROOT
ATOM      1  C2' OXE d   1      -4.183   3.136  -5.618  0.00  0.00     0.078 C 
ATOM      2  C1' OXE d   1      -3.451   1.276  -3.647  0.00  0.00     0.078 C 
ATOM      3  C1  OXE d   1      -2.347   2.020  -4.356  0.00  0.00    -0.078 A 
ATOM      4  C2  OXE d   1      -2.713   2.894  -5.351  0.00  0.00    -0.078 A 
ATOM      5  C3  OXE d   1      -1.738   3.647  -6.000  0.00  0.00     0.003 A 
ATOM      6  C4  OXE d   1      -0.380   3.410  -5.755  0.00  0.00    -0.002 A 
ATOM      7  C5  OXE d   1       0.015   2.495  -4.773  0.00  0.00    -0.002 A 
ATOM      8  C6  OXE d   1      -0.955   1.825  -4.037  0.00  0.00     0.003 A 
ENDROOT
TORSDOF 0
ENDMDL
