MODEL 1
REMARK minimizedAffinity 10.3578215
REMARK minimizedRMSD -1
REMARK  0 active torsions:
REMARK  status: ('A' for Active; 'I' for Inactive)
ROOT
ATOM      1  C2' OXE d   1       5.604   1.940  -3.112  0.00  0.00     0.078 C 
ATOM      2  C1' OXE d   1       2.834   1.780  -2.685  0.00  0.00     0.078 C 
ATOM      3  C1  OXE d   1       3.710   2.109  -1.502  0.00  0.00    -0.078 A 
ATOM      4  C2  OXE d   1       5.068   2.140  -1.710  0.00  0.00    -0.078 A 
ATOM      5  C3  OXE d   1       5.918   2.492  -0.666  0.00  0.00     0.003 A 
ATOM      6  C4  OXE d   1       5.415   2.665   0.630  0.00  0.00    -0.002 A 
ATOM      7  C5  OXE d   1       4.039   2.600   0.871  0.00  0.00    -0.002 A 
ATOM      8  C6  OXE d   1       3.171   2.365  -0.189  0.00  0.00     0.003 A 
ENDROOT
TORSDOF 0
ENDMDL
