MODEL 1
REMARK minimizedAffinity 19.3885555
REMARK minimizedRMSD -1
REMARK  0 active torsions:
REMARK  status: ('A' for Active; 'I' for Inactive)
ROOT
ATOM      1  C2' OXE d   1      -0.290  -3.586   0.718  0.00  0.00     0.078 C 
ATOM      2  C1' OXE d   1      -1.819  -1.235   0.610  0.00  0.00     0.078 C 
ATOM      3  C1  OXE d   1      -1.403  -1.863  -0.696  0.00  0.00    -0.078 A 
ATOM      4  C2  OXE d   1      -0.615  -2.988  -0.633  0.00  0.00    -0.078 A 
ATOM      5  C3  OXE d   1      -0.248  -3.639  -1.808  0.00  0.00     0.003 A 
ATOM      6  C4  OXE d   1      -0.545  -3.073  -3.054  0.00  0.00    -0.002 A 
ATOM      7  C5  OXE d   1      -1.312  -1.906  -3.140  0.00  0.00    -0.002 A 
ATOM      8  C6  OXE d   1      -1.784  -1.314  -1.973  0.00  0.00     0.003 A 
ENDROOT
TORSDOF 0
ENDMDL
