MODEL 1
REMARK minimizedAffinity 12.7453356
REMARK minimizedRMSD -1
REMARK  0 active torsions:
REMARK  status: ('A' for Active; 'I' for Inactive)
ROOT
ATOM      1  C2' OXE d   1       6.000   0.288   3.725  0.00  0.00     0.078 C 
ATOM      2  C1' OXE d   1       3.776   1.884   4.350  0.00  0.00     0.078 C 
ATOM      3  C1  OXE d   1       4.349   1.988   2.959  0.00  0.00    -0.078 A 
ATOM      4  C2  OXE d   1       5.465   1.238   2.676  0.00  0.00    -0.078 A 
ATOM      5  C3  OXE d   1       6.000   1.256   1.391  0.00  0.00     0.003 A 
ATOM      6  C4  OXE d   1       5.506   2.145   0.430  0.00  0.00    -0.002 A 
ATOM      7  C5  OXE d   1       4.394   2.947   0.709  0.00  0.00    -0.002 A 
ATOM      8  C6  OXE d   1       3.779   2.850   1.952  0.00  0.00     0.003 A 
ENDROOT
TORSDOF 0
ENDMDL
