MODEL 1
REMARK minimizedAffinity 8.71595001
REMARK minimizedRMSD -1
REMARK  0 active torsions:
REMARK  status: ('A' for Active; 'I' for Inactive)
ROOT
ATOM      1  C2' OXE d   1       5.964   0.344   2.996  0.00  0.00     0.078 C 
ATOM      2  C1' OXE d   1       4.347   2.439   3.933  0.00  0.00     0.078 C 
ATOM      3  C1  OXE d   1       4.783   2.478   2.489  0.00  0.00    -0.078 A 
ATOM      4  C2  OXE d   1       5.612   1.473   2.052  0.00  0.00    -0.078 A 
ATOM      5  C3  OXE d   1       5.999   1.432   0.716  0.00  0.00     0.003 A 
ATOM      6  C4  OXE d   1       5.678   2.485  -0.149  0.00  0.00    -0.002 A 
ATOM      7  C5  OXE d   1       4.866   3.538   0.287  0.00  0.00    -0.002 A 
ATOM      8  C6  OXE d   1       4.376   3.528   1.588  0.00  0.00     0.003 A 
ENDROOT
TORSDOF 0
ENDMDL
