MODEL 1
REMARK minimizedAffinity 12.8533611
REMARK minimizedRMSD -1
REMARK  0 active torsions:
REMARK  status: ('A' for Active; 'I' for Inactive)
ROOT
ATOM      1  C2' OXE d   1       5.699   0.302   3.121  0.00  0.00     0.078 C 
ATOM      2  C1' OXE d   1       3.662   2.139   3.719  0.00  0.00     0.078 C 
ATOM      3  C1  OXE d   1       4.336   2.249   2.374  0.00  0.00    -0.078 A 
ATOM      4  C2  OXE d   1       5.363   1.376   2.108  0.00  0.00    -0.078 A 
ATOM      5  C3  OXE d   1       5.982   1.399   0.862  0.00  0.00     0.003 A 
ATOM      6  C4  OXE d   1       5.673   2.401  -0.065  0.00  0.00    -0.002 A 
ATOM      7  C5  OXE d   1       4.657   3.325   0.201  0.00  0.00    -0.002 A 
ATOM      8  C6  OXE d   1       3.951   3.236   1.396  0.00  0.00     0.003 A 
ENDROOT
TORSDOF 0
ENDMDL
