MODEL 1
REMARK minimizedAffinity 7.40644693
REMARK minimizedRMSD -1
REMARK  0 active torsions:
REMARK  status: ('A' for Active; 'I' for Inactive)
ROOT
ATOM      1  C2' OXE d   1      -5.983   5.306   1.108  0.00  0.00     0.078 C 
ATOM      2  C1' OXE d   1      -3.497   4.063   0.712  0.00  0.00     0.078 C 
ATOM      3  C1  OXE d   1      -4.139   4.744  -0.470  0.00  0.00    -0.078 A 
ATOM      4  C2  OXE d   1      -5.377   5.309  -0.279  0.00  0.00    -0.078 A 
ATOM      5  C3  OXE d   1      -5.990   5.998  -1.322  0.00  0.00     0.003 A 
ATOM      6  C4  OXE d   1      -5.427   5.988  -2.604  0.00  0.00    -0.002 A 
ATOM      7  C5  OXE d   1      -4.186   5.384  -2.831  0.00  0.00    -0.002 A 
ATOM      8  C6  OXE d   1      -3.510   4.796  -1.767  0.00  0.00     0.003 A 
ENDROOT
TORSDOF 0
ENDMDL
