MODEL 1
REMARK minimizedAffinity 16.3342075
REMARK minimizedRMSD -1
REMARK  0 active torsions:
REMARK  status: ('A' for Active; 'I' for Inactive)
ROOT
ATOM      1  C2' OXE d   1       5.771   1.613  -3.855  0.00  0.00     0.078 C 
ATOM      2  C1' OXE d   1       5.898  -1.170  -3.508  0.00  0.00     0.078 C 
ATOM      3  C1  OXE d   1       4.701  -0.445  -2.945  0.00  0.00    -0.078 A 
ATOM      4  C2  OXE d   1       4.670   0.922  -3.079  0.00  0.00    -0.078 A 
ATOM      5  C3  OXE d   1       3.563   1.634  -2.626  0.00  0.00     0.003 A 
ATOM      6  C4  OXE d   1       2.554   0.989  -1.900  0.00  0.00    -0.002 A 
ATOM      7  C5  OXE d   1       2.586  -0.397  -1.718  0.00  0.00    -0.002 A 
ATOM      8  C6  OXE d   1       3.629  -1.133  -2.270  0.00  0.00     0.003 A 
ENDROOT
TORSDOF 0
ENDMDL
