MODEL 1
REMARK minimizedAffinity 5.52230978
REMARK minimizedRMSD -1
REMARK  0 active torsions:
REMARK  status: ('A' for Active; 'I' for Inactive)
ROOT
ATOM      1  C2' OXE d   1      -2.278  -1.492   0.099  0.00  0.00     0.078 C 
ATOM      2  C1' OXE d   1      -2.598  -1.717   2.879  0.00  0.00     0.078 C 
ATOM      3  C1  OXE d   1      -1.852  -2.817   2.166  0.00  0.00    -0.078 A 
ATOM      4  C2  OXE d   1      -1.741  -2.722   0.799  0.00  0.00    -0.078 A 
ATOM      5  C3  OXE d   1      -1.015  -3.681   0.099  0.00  0.00     0.003 A 
ATOM      6  C4  OXE d   1      -0.530  -4.820   0.753  0.00  0.00    -0.002 A 
ATOM      7  C5  OXE d   1      -0.667  -4.956   2.138  0.00  0.00    -0.002 A 
ATOM      8  C6  OXE d   1      -1.287  -3.945   2.864  0.00  0.00     0.003 A 
ENDROOT
TORSDOF 0
ENDMDL
