MODEL 1
REMARK minimizedAffinity 15.3141832
REMARK minimizedRMSD -1
REMARK  0 active torsions:
REMARK  status: ('A' for Active; 'I' for Inactive)
ROOT
ATOM      1  C2' OXE d   1       5.994   0.660   3.041  0.00  0.00     0.078 C 
ATOM      2  C1' OXE d   1       3.911   2.327   3.915  0.00  0.00     0.078 C 
ATOM      3  C1  OXE d   1       4.450   2.546   2.524  0.00  0.00    -0.078 A 
ATOM      4  C2  OXE d   1       5.501   1.757   2.121  0.00  0.00    -0.078 A 
ATOM      5  C3  OXE d   1       6.000   1.880   0.828  0.00  0.00     0.003 A 
ATOM      6  C4  OXE d   1       5.545   2.904  -0.013  0.00  0.00    -0.002 A 
ATOM      7  C5  OXE d   1       4.503   3.744   0.392  0.00  0.00    -0.002 A 
ATOM      8  C6  OXE d   1       3.917   3.551   1.638  0.00  0.00     0.003 A 
ENDROOT
TORSDOF 0
ENDMDL
