MODEL 1
REMARK minimizedAffinity 8.89040279
REMARK minimizedRMSD -1
REMARK  0 active torsions:
REMARK  status: ('A' for Active; 'I' for Inactive)
ROOT
ATOM      1  C2' OXE d   1       5.992   0.360   3.003  0.00  0.00     0.078 C 
ATOM      2  C1' OXE d   1       4.192   2.325   3.886  0.00  0.00     0.078 C 
ATOM      3  C1  OXE d   1       4.655   2.388   2.451  0.00  0.00    -0.078 A 
ATOM      4  C2  OXE d   1       5.571   1.450   2.041  0.00  0.00    -0.078 A 
ATOM      5  C3  OXE d   1       5.990   1.429   0.714  0.00  0.00     0.003 A 
ATOM      6  C4  OXE d   1       5.604   2.447  -0.167  0.00  0.00    -0.002 A 
ATOM      7  C5  OXE d   1       4.701   3.435   0.242  0.00  0.00    -0.002 A 
ATOM      8  C6  OXE d   1       4.185   3.395   1.532  0.00  0.00     0.003 A 
ENDROOT
TORSDOF 0
ENDMDL
