MODEL 1
REMARK minimizedAffinity 8.67484665
REMARK minimizedRMSD -1
REMARK  0 active torsions:
REMARK  status: ('A' for Active; 'I' for Inactive)
ROOT
ATOM      1  C2' OXE d   1      -1.545  -4.209  -1.396  0.00  0.00     0.078 C 
ATOM      2  C1' OXE d   1      -2.592  -1.604  -1.388  0.00  0.00     0.078 C 
ATOM      3  C1  OXE d   1      -2.117  -2.176  -0.075  0.00  0.00    -0.078 A 
ATOM      4  C2  OXE d   1      -1.650  -3.469  -0.081  0.00  0.00    -0.078 A 
ATOM      5  C3  OXE d   1      -1.149  -4.026   1.093  0.00  0.00     0.003 A 
ATOM      6  C4  OXE d   1      -1.259  -3.338   2.307  0.00  0.00    -0.002 A 
ATOM      7  C5  OXE d   1      -1.768  -2.035   2.342  0.00  0.00    -0.002 A 
ATOM      8  C6  OXE d   1      -2.162  -1.426   1.155  0.00  0.00     0.003 A 
ENDROOT
TORSDOF 0
ENDMDL
