MODEL 1
REMARK minimizedAffinity 3.26392221
REMARK minimizedRMSD -1
REMARK  0 active torsions:
REMARK  status: ('A' for Active; 'I' for Inactive)
ROOT
ATOM      1  C2' OXE d   1      -3.226  -1.108   0.054  0.00  0.00     0.078 C 
ATOM      2  C1' OXE d   1      -0.960  -2.289  -1.109  0.00  0.00     0.078 C 
ATOM      3  C1  OXE d   1      -1.397  -2.787   0.246  0.00  0.00    -0.078 A 
ATOM      4  C2  OXE d   1      -2.478  -2.172   0.828  0.00  0.00    -0.078 A 
ATOM      5  C3  OXE d   1      -2.956  -2.630   2.053  0.00  0.00     0.003 A 
ATOM      6  C4  OXE d   1      -2.253  -3.608   2.767  0.00  0.00    -0.002 A 
ATOM      7  C5  OXE d   1      -1.125  -4.220   2.210  0.00  0.00    -0.002 A 
ATOM      8  C6  OXE d   1      -0.710  -3.852   0.935  0.00  0.00     0.003 A 
ENDROOT
TORSDOF 0
ENDMDL
