MODEL 1
REMARK minimizedAffinity 14.7316494
REMARK minimizedRMSD -1
REMARK  0 active torsions:
REMARK  status: ('A' for Active; 'I' for Inactive)
ROOT
ATOM      1  C2' OXE d   1      -0.368  -4.861   1.462  0.00  0.00     0.078 C 
ATOM      2  C1' OXE d   1      -2.180  -3.167   2.776  0.00  0.00     0.078 C 
ATOM      3  C1  OXE d   1      -1.806  -2.830   1.354  0.00  0.00    -0.078 A 
ATOM      4  C2  OXE d   1      -0.883  -3.638   0.735  0.00  0.00    -0.078 A 
ATOM      5  C3  OXE d   1      -0.544  -3.403  -0.594  0.00  0.00     0.003 A 
ATOM      6  C4  OXE d   1      -1.017  -2.264  -1.257  0.00  0.00    -0.002 A 
ATOM      7  C5  OXE d   1      -1.927  -1.406  -0.631  0.00  0.00    -0.002 A 
ATOM      8  C6  OXE d   1      -2.364  -1.698   0.657  0.00  0.00     0.003 A 
ENDROOT
TORSDOF 0
ENDMDL
