MODEL 1
REMARK minimizedAffinity 16.5984154
REMARK minimizedRMSD -1
REMARK  0 active torsions:
REMARK  status: ('A' for Active; 'I' for Inactive)
ROOT
ATOM      1  C2' OXE d   1       1.935   0.172  -2.235  0.00  0.00     0.078 C 
ATOM      2  C1' OXE d   1       0.386  -0.550  -4.462  0.00  0.00     0.078 C 
ATOM      3  C1  OXE d   1      -0.247  -0.665  -3.098  0.00  0.00    -0.078 A 
ATOM      4  C2  OXE d   1       0.533  -0.355  -2.011  0.00  0.00    -0.078 A 
ATOM      5  C3  OXE d   1      -0.018  -0.391  -0.733  0.00  0.00     0.003 A 
ATOM      6  C4  OXE d   1      -1.312  -0.888  -0.534  0.00  0.00    -0.002 A 
ATOM      7  C5  OXE d   1      -2.110  -1.248  -1.624  0.00  0.00    -0.002 A 
ATOM      8  C6  OXE d   1      -1.609  -1.103  -2.913  0.00  0.00     0.003 A 
ENDROOT
TORSDOF 0
ENDMDL
