MODEL 1
REMARK minimizedAffinity 8.60762882
REMARK minimizedRMSD -1
REMARK  0 active torsions:
REMARK  status: ('A' for Active; 'I' for Inactive)
ROOT
ATOM      1  C2' OXE d   1      -3.242  -0.699  -0.057  0.00  0.00     0.078 C 
ATOM      2  C1' OXE d   1      -2.961  -2.254   2.263  0.00  0.00     0.078 C 
ATOM      3  C1  OXE d   1      -2.061  -2.566   1.094  0.00  0.00    -0.078 A 
ATOM      4  C2  OXE d   1      -2.237  -1.831  -0.054  0.00  0.00    -0.078 A 
ATOM      5  C3  OXE d   1      -1.395  -2.041  -1.143  0.00  0.00     0.003 A 
ATOM      6  C4  OXE d   1      -0.475  -3.096  -1.134  0.00  0.00    -0.002 A 
ATOM      7  C5  OXE d   1      -0.307  -3.883   0.010  0.00  0.00    -0.002 A 
ATOM      8  C6  OXE d   1      -1.061  -3.604   1.145  0.00  0.00     0.003 A 
ENDROOT
TORSDOF 0
ENDMDL
