MODEL 1
REMARK minimizedAffinity 12.2804422
REMARK minimizedRMSD -1
REMARK  1 active torsions:
REMARK  status: ('A' for Active; 'I' for Inactive)
REMARK    1  A    between atoms: C1_2  and  C2_3 
ROOT
ATOM      1  C2  UNL d   1      -5.744   4.415   3.067  0.00  0.00    -0.073 A 
ATOM      2  C3  UNL d   1      -5.794   5.647   3.729  0.00  0.00    -0.002 A 
ATOM      3  C4  UNL d   1      -5.916   5.696   5.118  0.00  0.00     0.004 A 
ATOM      4  C5  UNL d   1      -5.983   4.517   5.859  0.00  0.00    -0.004 A 
ATOM      5  C6  UNL d   1      -5.922   3.276   5.217  0.00  0.00    -0.075 A 
ATOM      6  C7  UNL d   1      -5.995   1.998   5.999  0.00  0.00     0.076 C 
ATOM      7  C8  UNL d   1      -5.802   3.235   3.821  0.00  0.00     0.001 A 
ENDROOT
BRANCH   1   8
ATOM      8  C1  UNL d   1      -5.606   4.357   1.567  0.00  0.00     0.053 C 
ATOM      9  C   UNL d   1      -5.221   2.967   1.084  0.00  0.00     0.018 C 
ENDBRANCH   1   8
TORSDOF 1
ENDMDL
