MODEL 1
REMARK minimizedAffinity 16.9432564
REMARK minimizedRMSD -1
REMARK  1 active torsions:
REMARK  status: ('A' for Active; 'I' for Inactive)
REMARK    1  A    between atoms: C1_2  and  C2_3 
ROOT
ATOM      1  C2  UNL d   1       0.104  -4.152  -0.712  0.00  0.00    -0.073 A 
ATOM      2  C3  UNL d   1      -0.114  -3.593  -1.976  0.00  0.00    -0.002 A 
ATOM      3  C4  UNL d   1       0.670  -2.527  -2.420  0.00  0.00     0.004 A 
ATOM      4  C5  UNL d   1       1.682  -2.015  -1.608  0.00  0.00    -0.004 A 
ATOM      5  C6  UNL d   1       1.923  -2.568  -0.346  0.00  0.00    -0.075 A 
ATOM      6  C7  UNL d   1       3.006  -2.027   0.539  0.00  0.00     0.076 C 
ATOM      7  C8  UNL d   1       1.130  -3.636   0.093  0.00  0.00     0.001 A 
ENDROOT
BRANCH   1   8
ATOM      8  C1  UNL d   1      -0.736  -5.308  -0.231  0.00  0.00     0.053 C 
ATOM      9  C   UNL d   1      -1.532  -5.942  -1.360  0.00  0.00     0.018 C 
ENDBRANCH   1   8
TORSDOF 1
ENDMDL
