MODEL 1
REMARK minimizedAffinity 8.33184433
REMARK minimizedRMSD -1
REMARK  1 active torsions:
REMARK  status: ('A' for Active; 'I' for Inactive)
REMARK    1  A    between atoms: C1_2  and  C2_3 
ROOT
ATOM      1  C2  UNL d   1      -3.378   5.346   4.361  0.00  0.00    -0.073 A 
ATOM      2  C3  UNL d   1      -3.930   5.999   5.468  0.00  0.00    -0.002 A 
ATOM      3  C4  UNL d   1      -5.150   5.578   5.999  0.00  0.00     0.004 A 
ATOM      4  C5  UNL d   1      -5.826   4.496   5.434  0.00  0.00    -0.004 A 
ATOM      5  C6  UNL d   1      -5.284   3.823   4.334  0.00  0.00    -0.075 A 
ATOM      6  C7  UNL d   1      -5.999   2.659   3.713  0.00  0.00     0.076 C 
ATOM      7  C8  UNL d   1      -4.060   4.254   3.805  0.00  0.00     0.001 A 
ENDROOT
BRANCH   1   8
ATOM      8  C1  UNL d   1      -2.058   5.794   3.788  0.00  0.00     0.053 C 
ATOM      9  C   UNL d   1      -1.999   5.609   2.280  0.00  0.00     0.018 C 
ENDBRANCH   1   8
TORSDOF 1
ENDMDL
