MODEL 1
REMARK minimizedAffinity -5.50517082
REMARK minimizedRMSD -1
REMARK  2 active torsions:
REMARK  status: ('A' for Active; 'I' for Inactive)
REMARK    1  A    between atoms: C1_2  and  C2_3 
REMARK    2  A    between atoms: C2_3  and  C3_4 
ROOT
ATOM      1  C3  UNL d   1       1.061  -0.366   0.301  0.00  0.00    -0.075 A 
ATOM      2  C4  UNL d   1       2.203  -0.977  -0.235  0.00  0.00     0.002 A 
ATOM      3  C5  UNL d   1       3.106  -1.644   0.594  0.00  0.00     0.002 A 
ATOM      4  C6  UNL d   1       2.883  -1.701   1.968  0.00  0.00    -0.004 A 
ATOM      5  C7  UNL d   1       1.759  -1.084   2.514  0.00  0.00     0.002 A 
ATOM      6  C8  UNL d   1       0.853  -0.419   1.686  0.00  0.00     0.002 A 
ENDROOT
BRANCH   1   7
ATOM      7  C2  UNL d   1       0.065   0.332  -0.594  0.00  0.00     0.056 C 
BRANCH   7   8
ATOM      8  C1  UNL d   1       0.111  -0.127  -2.055  0.00  0.00     0.007 C 
ATOM      9  C   UNL d   1      -0.304   0.958  -3.039  0.00  0.00     0.009 C 
ENDBRANCH   7   8
ENDBRANCH   1   7
TORSDOF 2
ENDMDL
