MODEL 1
REMARK minimizedAffinity -5.205194
REMARK minimizedRMSD -1
REMARK  2 active torsions:
REMARK  status: ('A' for Active; 'I' for Inactive)
REMARK    1  A    between atoms: C1_2  and  C2_3 
REMARK    2  A    between atoms: C2_3  and  C3_4 
ROOT
ATOM      1  C3  UNL d   1       0.178   0.090  -0.763  0.00  0.00    -0.075 A 
ATOM      2  C4  UNL d   1      -0.121   0.447   0.560  0.00  0.00     0.002 A 
ATOM      3  C5  UNL d   1       0.737   0.088   1.601  0.00  0.00     0.002 A 
ATOM      4  C6  UNL d   1       1.895  -0.638   1.335  0.00  0.00    -0.004 A 
ATOM      5  C7  UNL d   1       2.194  -1.011   0.026  0.00  0.00     0.002 A 
ATOM      6  C8  UNL d   1       1.340  -0.651  -1.018  0.00  0.00     0.002 A 
ENDROOT
BRANCH   1   7
ATOM      7  C2  UNL d   1      -0.730   0.500  -1.898  0.00  0.00     0.056 C 
BRANCH   7   8
ATOM      8  C1  UNL d   1      -0.886   2.017  -2.054  0.00  0.00     0.007 C 
ATOM      9  C   UNL d   1      -0.392   2.535  -3.398  0.00  0.00     0.009 C 
ENDBRANCH   7   8
ENDBRANCH   1   7
TORSDOF 2
ENDMDL
