MODEL 1
REMARK minimizedAffinity -3.95324135
REMARK minimizedRMSD -1
REMARK  2 active torsions:
REMARK  status: ('A' for Active; 'I' for Inactive)
REMARK    1  A    between atoms: C1_2  and  C2_3 
REMARK    2  A    between atoms: C2_3  and  C3_4 
ROOT
ATOM      1  C3  UNL d   1       0.396  -0.982   0.867  0.00  0.00    -0.075 A 
ATOM      2  C4  UNL d   1       1.298  -1.545  -0.047  0.00  0.00     0.002 A 
ATOM      3  C5  UNL d   1       1.131  -1.349  -1.418  0.00  0.00     0.002 A 
ATOM      4  C6  UNL d   1       0.058  -0.598  -1.892  0.00  0.00    -0.004 A 
ATOM      5  C7  UNL d   1      -0.853  -0.048  -0.994  0.00  0.00     0.002 A 
ATOM      6  C8  UNL d   1      -0.686  -0.239   0.379  0.00  0.00     0.002 A 
ENDROOT
BRANCH   1   7
ATOM      7  C2  UNL d   1       0.587  -1.166   2.354  0.00  0.00     0.056 C 
BRANCH   7   8
ATOM      8  C1  UNL d   1       1.757  -0.365   2.936  0.00  0.00     0.007 C 
ATOM      9  C   UNL d   1       1.888   1.029   2.335  0.00  0.00     0.009 C 
ENDBRANCH   7   8
ENDBRANCH   1   7
TORSDOF 2
ENDMDL
