MODEL 1
REMARK minimizedAffinity 6.38768578
REMARK minimizedRMSD -1
REMARK  1 active torsions:
REMARK  status: ('A' for Active; 'I' for Inactive)
REMARK    1  A    between atoms: C1_2  and  C2_3 
ROOT
ATOM      1  C2  UNL d   1       3.527  -1.157   0.087  0.00  0.00    -0.073 A 
ATOM      2  C3  UNL d   1       2.501  -0.862  -0.818  0.00  0.00    -0.002 A 
ATOM      3  C4  UNL d   1       2.256   0.458  -1.200  0.00  0.00     0.004 A 
ATOM      4  C5  UNL d   1       3.037   1.494  -0.687  0.00  0.00    -0.004 A 
ATOM      5  C6  UNL d   1       4.074   1.218   0.210  0.00  0.00    -0.075 A 
ATOM      6  C7  UNL d   1       4.921   2.321   0.772  0.00  0.00     0.076 C 
ATOM      7  C8  UNL d   1       4.312  -0.110   0.590  0.00  0.00     0.001 A 
ENDROOT
BRANCH   1   8
ATOM      8  C1  UNL d   1       3.800  -2.581   0.497  0.00  0.00     0.053 C 
ATOM      9  C   UNL d   1       2.917  -3.568  -0.250  0.00  0.00     0.018 C 
ENDBRANCH   1   8
TORSDOF 1
ENDMDL
