MODEL 1
REMARK minimizedAffinity 26.0396919
REMARK minimizedRMSD -1
REMARK  1 active torsions:
REMARK  status: ('A' for Active; 'I' for Inactive)
REMARK    1  A    between atoms: C1_2  and  C2_3 
ROOT
ATOM      1  C2  UNL d   1       3.060   0.298  -0.056  0.00  0.00    -0.073 A 
ATOM      2  C3  UNL d   1       2.102   0.537  -1.048  0.00  0.00    -0.002 A 
ATOM      3  C4  UNL d   1       1.449  -0.528  -1.669  0.00  0.00     0.004 A 
ATOM      4  C5  UNL d   1       1.741  -1.841  -1.301  0.00  0.00    -0.004 A 
ATOM      5  C6  UNL d   1       2.686  -2.101  -0.303  0.00  0.00    -0.075 A 
ATOM      6  C7  UNL d   1       3.013  -3.508   0.103  0.00  0.00     0.076 C 
ATOM      7  C8  UNL d   1       3.339  -1.026   0.314  0.00  0.00     0.001 A 
ENDROOT
BRANCH   1   8
ATOM      8  C1  UNL d   1       3.763   1.445   0.623  0.00  0.00     0.053 C 
ATOM      9  C   UNL d   1       5.036   1.845  -0.107  0.00  0.00     0.018 C 
ENDBRANCH   1   8
TORSDOF 1
ENDMDL
