MODEL 1
REMARK minimizedAffinity 13.3864374
REMARK minimizedRMSD -1
REMARK  1 active torsions:
REMARK  status: ('A' for Active; 'I' for Inactive)
REMARK    1  A    between atoms: C1_2  and  C2_3 
ROOT
ATOM      1  C2  UNL d   1       2.686   0.372  -0.620  0.00  0.00    -0.073 A 
ATOM      2  C3  UNL d   1       2.097   0.911   0.530  0.00  0.00    -0.002 A 
ATOM      3  C4  UNL d   1       2.771   1.874   1.281  0.00  0.00     0.004 A 
ATOM      4  C5  UNL d   1       4.035   2.313   0.889  0.00  0.00    -0.004 A 
ATOM      5  C6  UNL d   1       4.635   1.795  -0.263  0.00  0.00    -0.075 A 
ATOM      6  C7  UNL d   1       5.996   2.255  -0.697  0.00  0.00     0.076 C 
ATOM      7  C8  UNL d   1       3.954   0.826  -1.011  0.00  0.00     0.001 A 
ENDROOT
BRANCH   1   8
ATOM      8  C1  UNL d   1       1.960  -0.664  -1.438  0.00  0.00     0.053 C 
ATOM      9  C   UNL d   1       2.250  -2.077  -0.957  0.00  0.00     0.018 C 
ENDBRANCH   1   8
TORSDOF 1
ENDMDL
