MODEL 1
REMARK minimizedAffinity 17.4108429
REMARK minimizedRMSD -1
REMARK  1 active torsions:
REMARK  status: ('A' for Active; 'I' for Inactive)
REMARK    1  A    between atoms: C1_2  and  C2_3 
ROOT
ATOM      1  C2  UNL d   1       2.926  -2.006  -0.615  0.00  0.00    -0.073 A 
ATOM      2  C3  UNL d   1       1.906  -2.856  -0.172  0.00  0.00    -0.002 A 
ATOM      3  C4  UNL d   1       2.209  -4.128   0.313  0.00  0.00     0.004 A 
ATOM      4  C5  UNL d   1       3.534  -4.561   0.367  0.00  0.00    -0.004 A 
ATOM      5  C6  UNL d   1       4.569  -3.722  -0.059  0.00  0.00    -0.075 A 
ATOM      6  C7  UNL d   1       5.999  -4.174  -0.009  0.00  0.00     0.076 C 
ATOM      7  C8  UNL d   1       4.255  -2.447  -0.548  0.00  0.00     0.001 A 
ENDROOT
BRANCH   1   8
ATOM      8  C1  UNL d   1       2.604  -0.628  -1.133  0.00  0.00     0.053 C 
ATOM      9  C   UNL d   1       2.073  -0.665  -2.558  0.00  0.00     0.018 C 
ENDBRANCH   1   8
TORSDOF 1
ENDMDL
