MODEL 1
REMARK minimizedAffinity 16.4213448
REMARK minimizedRMSD -1
REMARK  1 active torsions:
REMARK  status: ('A' for Active; 'I' for Inactive)
REMARK    1  A    between atoms: C1_2  and  C2_3 
ROOT
ATOM      1  C2  UNL d   1       0.108   1.494   3.516  0.00  0.00    -0.073 A 
ATOM      2  C3  UNL d   1       1.056   0.696   4.167  0.00  0.00    -0.002 A 
ATOM      3  C4  UNL d   1       1.579   1.086   5.400  0.00  0.00     0.004 A 
ATOM      4  C5  UNL d   1       1.155   2.273   5.999  0.00  0.00    -0.004 A 
ATOM      5  C6  UNL d   1       0.200   3.078   5.370  0.00  0.00    -0.075 A 
ATOM      6  C7  UNL d   1      -0.264   4.358   6.000  0.00  0.00     0.076 C 
ATOM      7  C8  UNL d   1      -0.318   2.681   4.130  0.00  0.00     0.001 A 
ENDROOT
BRANCH   1   8
ATOM      8  C1  UNL d   1      -0.464   1.074   2.187  0.00  0.00     0.053 C 
ATOM      9  C   UNL d   1      -1.950   0.766   2.278  0.00  0.00     0.018 C 
ENDBRANCH   1   8
TORSDOF 1
ENDMDL
