MODEL 1
REMARK minimizedAffinity 19.3669491
REMARK minimizedRMSD -1
REMARK  1 active torsions:
REMARK  status: ('A' for Active; 'I' for Inactive)
REMARK    1  A    between atoms: C1_2  and  C2_3 
ROOT
ATOM      1  C2  UNL d   1      -1.702   0.650   2.683  0.00  0.00    -0.073 A 
ATOM      2  C3  UNL d   1      -0.975   0.134   1.605  0.00  0.00    -0.002 A 
ATOM      3  C4  UNL d   1       0.412   0.001   1.689  0.00  0.00     0.004 A 
ATOM      4  C5  UNL d   1       1.084   0.375   2.853  0.00  0.00    -0.004 A 
ATOM      5  C6  UNL d   1       0.373   0.883   3.945  0.00  0.00    -0.075 A 
ATOM      6  C7  UNL d   1       1.081   1.292   5.203  0.00  0.00     0.076 C 
ATOM      7  C8  UNL d   1      -1.019   1.016   3.852  0.00  0.00     0.001 A 
ENDROOT
BRANCH   1   8
ATOM      8  C1  UNL d   1      -3.200   0.790   2.599  0.00  0.00     0.053 C 
ATOM      9  C   UNL d   1      -3.865  -0.485   2.104  0.00  0.00     0.018 C 
ENDBRANCH   1   8
TORSDOF 1
ENDMDL
