MODEL 1
REMARK minimizedAffinity 14.7762642
REMARK minimizedRMSD -1
REMARK  1 active torsions:
REMARK  status: ('A' for Active; 'I' for Inactive)
REMARK    1  A    between atoms: C1_2  and  C2_3 
ROOT
ATOM      1  C2  UNL d   1      -3.912   0.049   3.250  0.00  0.00    -0.073 A 
ATOM      2  C3  UNL d   1      -3.701  -0.583   4.481  0.00  0.00    -0.002 A 
ATOM      3  C4  UNL d   1      -4.239  -1.848   4.725  0.00  0.00     0.004 A 
ATOM      4  C5  UNL d   1      -4.986  -2.495   3.740  0.00  0.00    -0.004 A 
ATOM      5  C6  UNL d   1      -5.197  -1.884   2.500  0.00  0.00    -0.075 A 
ATOM      6  C7  UNL d   1      -6.000  -2.566   1.431  0.00  0.00     0.076 C 
ATOM      7  C8  UNL d   1      -4.656  -0.613   2.264  0.00  0.00     0.001 A 
ENDROOT
BRANCH   1   8
ATOM      8  C1  UNL d   1      -3.327   1.411   2.980  0.00  0.00     0.053 C 
ATOM      9  C   UNL d   1      -1.807   1.390   2.982  0.00  0.00     0.018 C 
ENDBRANCH   1   8
TORSDOF 1
ENDMDL
