MODEL 1
REMARK minimizedAffinity 13.2250929
REMARK minimizedRMSD -1
REMARK  1 active torsions:
REMARK  status: ('A' for Active; 'I' for Inactive)
REMARK    1  A    between atoms: C1_2  and  C2_3 
ROOT
ATOM      1  C2  UNL d   1      -4.277   1.847   3.731  0.00  0.00    -0.073 A 
ATOM      2  C3  UNL d   1      -4.911   0.606   3.598  0.00  0.00    -0.002 A 
ATOM      3  C4  UNL d   1      -4.253  -0.459   2.981  0.00  0.00     0.004 A 
ATOM      4  C5  UNL d   1      -2.954  -0.297   2.498  0.00  0.00    -0.004 A 
ATOM      5  C6  UNL d   1      -2.300   0.932   2.632  0.00  0.00    -0.075 A 
ATOM      6  C7  UNL d   1      -0.904   1.124   2.116  0.00  0.00     0.076 C 
ATOM      7  C8  UNL d   1      -2.969   1.998   3.250  0.00  0.00     0.001 A 
ENDROOT
BRANCH   1   8
ATOM      8  C1  UNL d   1      -4.981   2.998   4.402  0.00  0.00     0.053 C 
ATOM      9  C   UNL d   1      -4.570   3.147   5.858  0.00  0.00     0.018 C 
ENDBRANCH   1   8
TORSDOF 1
ENDMDL
