MODEL 1
REMARK minimizedAffinity 9.78693008
REMARK minimizedRMSD -1
REMARK  1 active torsions:
REMARK  status: ('A' for Active; 'I' for Inactive)
REMARK    1  A    between atoms: C1_2  and  C2_3 
ROOT
ATOM      1  C2  UNL d   1      -1.741   1.289   2.980  0.00  0.00    -0.073 A 
ATOM      2  C3  UNL d   1      -2.155   0.162   2.261  0.00  0.00    -0.002 A 
ATOM      3  C4  UNL d   1      -3.501  -0.203   2.236  0.00  0.00     0.004 A 
ATOM      4  C5  UNL d   1      -4.448   0.557   2.923  0.00  0.00    -0.004 A 
ATOM      5  C6  UNL d   1      -4.056   1.693   3.638  0.00  0.00    -0.075 A 
ATOM      6  C7  UNL d   1      -5.061   2.520   4.384  0.00  0.00     0.076 C 
ATOM      7  C8  UNL d   1      -2.701   2.052   3.661  0.00  0.00     0.001 A 
ENDROOT
BRANCH   1   8
ATOM      8  C1  UNL d   1      -0.289   1.691   3.005  0.00  0.00     0.053 C 
ATOM      9  C   UNL d   1       0.565   0.695   3.773  0.00  0.00     0.018 C 
ENDBRANCH   1   8
TORSDOF 1
ENDMDL
