MODEL 1
REMARK minimizedAffinity 3.55632496
REMARK minimizedRMSD -1
REMARK  1 active torsions:
REMARK  status: ('A' for Active; 'I' for Inactive)
REMARK    1  A    between atoms: C3_4  and  O_7 
ROOT
ATOM      1  C   UNL d   1      -1.295  -0.353   1.381  0.00  0.00    -0.033 A 
ATOM      2  C1  UNL d   1      -1.516  -1.687   1.031  0.00  0.00     0.039 A 
ATOM      3  C2  UNL d   1      -0.460  -2.600   1.051  0.00  0.00    -0.080 A 
ATOM      4  C3  UNL d   1       0.810  -2.167   1.423  0.00  0.00     0.150 A 
ATOM      5  C4  UNL d   1       1.036  -0.841   1.777  0.00  0.00    -0.007 A 
ATOM      6  C5  UNL d   1      -0.019   0.069   1.755  0.00  0.00     0.039 A 
ENDROOT
BRANCH   4   7
ATOM      7  O   UNL d   1       1.873  -3.020   1.453  0.00  0.00    -0.526 OA
ATOM      8  H5  UNL d   1       1.573  -3.896   1.157  0.00  0.00     0.418 HD
ENDBRANCH   4   7
TORSDOF 1
ENDMDL
