MODEL 1
REMARK minimizedAffinity 6.75264454
REMARK minimizedRMSD -1
REMARK  1 active torsions:
REMARK  status: ('A' for Active; 'I' for Inactive)
REMARK    1  A    between atoms: C3_4  and  O_7 
ROOT
ATOM      1  C   UNL d   1      -2.239   0.354  -0.035  0.00  0.00    -0.033 A 
ATOM      2  C1  UNL d   1      -1.274   1.362  -0.087  0.00  0.00     0.039 A 
ATOM      3  C2  UNL d   1      -0.091   1.236   0.643  0.00  0.00    -0.080 A 
ATOM      4  C3  UNL d   1       0.116   0.098   1.419  0.00  0.00     0.150 A 
ATOM      5  C4  UNL d   1      -0.839  -0.912   1.471  0.00  0.00    -0.007 A 
ATOM      6  C5  UNL d   1      -2.021  -0.784   0.743  0.00  0.00     0.039 A 
ENDROOT
BRANCH   4   7
ATOM      7  O   UNL d   1       1.253  -0.067   2.152  0.00  0.00    -0.526 OA
ATOM      8  H5  UNL d   1       1.809   0.723   2.041  0.00  0.00     0.418 HD
ENDBRANCH   4   7
TORSDOF 1
ENDMDL
