MODEL 1
REMARK minimizedAffinity -4.07519436
REMARK minimizedRMSD -1
REMARK  1 active torsions:
REMARK  status: ('A' for Active; 'I' for Inactive)
REMARK    1  A    between atoms: C3_4  and  O_7 
ROOT
ATOM      1  C   UNL d   1      -2.639  -3.095  -0.064  0.00  0.00    -0.033 A 
ATOM      2  C1  UNL d   1      -2.150  -3.945  -1.057  0.00  0.00     0.039 A 
ATOM      3  C2  UNL d   1      -2.189  -3.553  -2.397  0.00  0.00    -0.080 A 
ATOM      4  C3  UNL d   1      -2.719  -2.309  -2.729  0.00  0.00     0.150 A 
ATOM      5  C4  UNL d   1      -3.205  -1.455  -1.744  0.00  0.00    -0.007 A 
ATOM      6  C5  UNL d   1      -3.165  -1.849  -0.407  0.00  0.00     0.039 A 
ENDROOT
BRANCH   4   7
ATOM      7  O   UNL d   1      -2.783  -1.885  -4.023  0.00  0.00    -0.526 OA
ATOM      8  H5  UNL d   1      -2.438  -2.590  -4.595  0.00  0.00     0.418 HD
ENDBRANCH   4   7
TORSDOF 1
ENDMDL
