MODEL 1
REMARK minimizedAffinity 3.79957819
REMARK minimizedRMSD -1
REMARK  1 active torsions:
REMARK  status: ('A' for Active; 'I' for Inactive)
REMARK    1  A    between atoms: C3_4  and  O_7 
ROOT
ATOM      1  C   UNL d   1      -4.076   5.133  -4.347  0.00  0.00    -0.033 A 
ATOM      2  C1  UNL d   1      -4.359   4.857  -3.008  0.00  0.00     0.039 A 
ATOM      3  C2  UNL d   1      -4.231   3.555  -2.519  0.00  0.00    -0.080 A 
ATOM      4  C3  UNL d   1      -3.819   2.540  -3.378  0.00  0.00     0.150 A 
ATOM      5  C4  UNL d   1      -3.531   2.809  -4.712  0.00  0.00    -0.007 A 
ATOM      6  C5  UNL d   1      -3.661   4.109  -5.199  0.00  0.00     0.039 A 
ENDROOT
BRANCH   4   7
ATOM      7  O   UNL d   1      -3.684   1.254  -2.948  0.00  0.00    -0.526 OA
ATOM      8  H5  UNL d   1      -3.944   1.213  -2.012  0.00  0.00     0.418 HD
ENDBRANCH   4   7
TORSDOF 1
ENDMDL
