MODEL 1
REMARK minimizedAffinity 12.2869873
REMARK minimizedRMSD -1
REMARK  1 active torsions:
REMARK  status: ('A' for Active; 'I' for Inactive)
REMARK    1  A    between atoms: C1_2  and  C2_3 
ROOT
ATOM      1  C2  UNL d   1       0.980  -0.370   1.701  0.00  0.00    -0.076 A 
ATOM      2  C3  UNL d   1       1.665  -1.263   0.859  0.00  0.00     0.004 A 
ATOM      3  C4  UNL d   1       1.006  -1.917  -0.181  0.00  0.00    -0.003 A 
ATOM      4  C5  UNL d   1      -0.348  -1.687  -0.397  0.00  0.00     0.000 A 
ATOM      5  C6  UNL d   1      -1.039  -0.791   0.418  0.00  0.00     0.000 A 
ATOM      6  C7  UNL d   1      -0.387  -0.111   1.461  0.00  0.00    -0.073 A 
ATOM      7  C8  UNL d   1      -1.182   0.840   2.312  0.00  0.00     0.078 C 
ENDROOT
BRANCH   1   8
ATOM      8  C1  UNL d   1       1.740   0.289   2.830  0.00  0.00     0.053 C 
ATOM      9  C   UNL d   1       2.527  -0.711   3.664  0.00  0.00     0.018 C 
ENDBRANCH   1   8
TORSDOF 1
ENDMDL
