MODEL 1
REMARK minimizedAffinity 9.0683403
REMARK minimizedRMSD -1
REMARK  1 active torsions:
REMARK  status: ('A' for Active; 'I' for Inactive)
REMARK    1  A    between atoms: C1_2  and  C2_3 
ROOT
ATOM      1  C2  UNL d   1       0.623  -1.795  -0.138  0.00  0.00    -0.076 A 
ATOM      2  C3  UNL d   1      -0.711  -1.569   0.245  0.00  0.00     0.004 A 
ATOM      3  C4  UNL d   1      -1.028  -0.618   1.215  0.00  0.00    -0.003 A 
ATOM      4  C5  UNL d   1      -0.016   0.122   1.816  0.00  0.00     0.000 A 
ATOM      5  C6  UNL d   1       1.311  -0.076   1.436  0.00  0.00     0.000 A 
ATOM      6  C7  UNL d   1       1.646  -1.019   0.449  0.00  0.00    -0.073 A 
ATOM      7  C8  UNL d   1       3.094  -1.196   0.082  0.00  0.00     0.078 C 
ENDROOT
BRANCH   1   8
ATOM      8  C1  UNL d   1       0.908  -2.857  -1.174  0.00  0.00     0.053 C 
ATOM      9  C   UNL d   1       1.508  -4.117  -0.568  0.00  0.00     0.018 C 
ENDBRANCH   1   8
TORSDOF 1
ENDMDL
