MODEL 1
REMARK minimizedAffinity 3.34198976
REMARK minimizedRMSD -1
REMARK  1 active torsions:
REMARK  status: ('A' for Active; 'I' for Inactive)
REMARK    1  A    between atoms: C1_2  and  C2_3 
ROOT
ATOM      1  C2  UNL d   1       1.913  -1.306   1.031  0.00  0.00    -0.076 A 
ATOM      2  C3  UNL d   1       2.358  -2.313   0.156  0.00  0.00     0.004 A 
ATOM      3  C4  UNL d   1       1.459  -3.200  -0.433  0.00  0.00    -0.003 A 
ATOM      4  C5  UNL d   1       0.100  -3.095  -0.158  0.00  0.00     0.000 A 
ATOM      5  C6  UNL d   1      -0.361  -2.091   0.693  0.00  0.00     0.000 A 
ATOM      6  C7  UNL d   1       0.530  -1.178   1.282  0.00  0.00    -0.073 A 
ATOM      7  C8  UNL d   1      -0.021  -0.119   2.197  0.00  0.00     0.078 C 
ENDROOT
BRANCH   1   8
ATOM      8  C1  UNL d   1       2.937  -0.390   1.662  0.00  0.00     0.053 C 
ATOM      9  C   UNL d   1       4.366  -0.820   1.364  0.00  0.00     0.018 C 
ENDBRANCH   1   8
TORSDOF 1
ENDMDL
