MODEL 1
REMARK minimizedAffinity 4.00124168
REMARK minimizedRMSD -1
REMARK  1 active torsions:
REMARK  status: ('A' for Active; 'I' for Inactive)
REMARK    1  A    between atoms: C1_2  and  C2_3 
ROOT
ATOM      1  C2  UNL d   1       1.133  -2.247   0.306  0.00  0.00    -0.076 A 
ATOM      2  C3  UNL d   1       0.905  -1.375   1.385  0.00  0.00     0.004 A 
ATOM      3  C4  UNL d   1      -0.390  -1.069   1.799  0.00  0.00    -0.003 A 
ATOM      4  C5  UNL d   1      -1.479  -1.631   1.141  0.00  0.00     0.000 A 
ATOM      5  C6  UNL d   1      -1.271  -2.512   0.080  0.00  0.00     0.000 A 
ATOM      6  C7  UNL d   1       0.029  -2.844  -0.339  0.00  0.00    -0.073 A 
ATOM      7  C8  UNL d   1       0.194  -3.795  -1.493  0.00  0.00     0.078 C 
ENDROOT
BRANCH   1   8
ATOM      8  C1  UNL d   1       2.559  -2.521  -0.116  0.00  0.00     0.053 C 
ATOM      9  C   UNL d   1       3.478  -1.334   0.132  0.00  0.00     0.018 C 
ENDBRANCH   1   8
TORSDOF 1
ENDMDL
