MODEL 1
REMARK minimizedAffinity -1.87667358
REMARK minimizedRMSD -1
REMARK  1 active torsions:
REMARK  status: ('A' for Active; 'I' for Inactive)
REMARK    1  A    between atoms: C1_2  and  C2_3 
ROOT
ATOM      1  C2  UNL d   1       1.762  -1.303   0.265  0.00  0.00    -0.076 A 
ATOM      2  C3  UNL d   1       0.516  -0.719   0.552  0.00  0.00     0.004 A 
ATOM      3  C4  UNL d   1      -0.668  -1.434   0.380  0.00  0.00    -0.003 A 
ATOM      4  C5  UNL d   1      -0.625  -2.745  -0.080  0.00  0.00     0.000 A 
ATOM      5  C6  UNL d   1       0.603  -3.346  -0.353  0.00  0.00     0.000 A 
ATOM      6  C7  UNL d   1       1.807  -2.645  -0.169  0.00  0.00    -0.073 A 
ATOM      7  C8  UNL d   1       3.103  -3.341  -0.485  0.00  0.00     0.078 C 
ENDROOT
BRANCH   1   8
ATOM      8  C1  UNL d   1       3.011  -0.470   0.444  0.00  0.00     0.053 C 
ATOM      9  C   UNL d   1       2.985   0.351   1.725  0.00  0.00     0.018 C 
ENDBRANCH   1   8
TORSDOF 1
ENDMDL
