MODEL 1
REMARK minimizedAffinity -3.1268971
REMARK minimizedRMSD -1
REMARK  1 active torsions:
REMARK  status: ('A' for Active; 'I' for Inactive)
REMARK    1  A    between atoms: C1_2  and  C2_3 
ROOT
ATOM      1  C2  UNL d   1       0.854  -1.746   0.519  0.00  0.00    -0.076 A 
ATOM      2  C3  UNL d   1       0.872  -0.559   1.273  0.00  0.00     0.004 A 
ATOM      3  C4  UNL d   1      -0.283   0.203   1.440  0.00  0.00    -0.003 A 
ATOM      4  C5  UNL d   1      -1.476  -0.209   0.856  0.00  0.00     0.000 A 
ATOM      5  C6  UNL d   1      -1.516  -1.393   0.119  0.00  0.00     0.000 A 
ATOM      6  C7  UNL d   1      -0.365  -2.181  -0.045  0.00  0.00    -0.073 A 
ATOM      7  C8  UNL d   1      -0.465  -3.445  -0.855  0.00  0.00     0.078 C 
ENDROOT
BRANCH   1   8
ATOM      8  C1  UNL d   1       2.143  -2.517   0.349  0.00  0.00     0.053 C 
ATOM      9  C   UNL d   1       3.361  -1.608   0.283  0.00  0.00     0.018 C 
ENDBRANCH   1   8
TORSDOF 1
ENDMDL
