MODEL 1
REMARK minimizedAffinity 1.23048997
REMARK minimizedRMSD -1
REMARK  1 active torsions:
REMARK  status: ('A' for Active; 'I' for Inactive)
REMARK    1  A    between atoms: C1_2  and  C2_3 
ROOT
ATOM      1  C2  UNL d   1       0.578  -1.845   0.157  0.00  0.00    -0.076 A 
ATOM      2  C3  UNL d   1      -0.691  -1.421   0.590  0.00  0.00     0.004 A 
ATOM      3  C4  UNL d   1      -0.845  -0.232   1.301  0.00  0.00    -0.003 A 
ATOM      4  C5  UNL d   1       0.266   0.553   1.590  0.00  0.00     0.000 A 
ATOM      5  C6  UNL d   1       1.529   0.156   1.153  0.00  0.00     0.000 A 
ATOM      6  C7  UNL d   1       1.700  -1.032   0.421  0.00  0.00    -0.073 A 
ATOM      7  C8  UNL d   1       3.086  -1.414  -0.021  0.00  0.00     0.078 C 
ENDROOT
BRANCH   1   8
ATOM      8  C1  UNL d   1       0.687  -3.157  -0.587  0.00  0.00     0.053 C 
ATOM      9  C   UNL d   1       1.968  -3.908  -0.257  0.00  0.00     0.018 C 
ENDBRANCH   1   8
TORSDOF 1
ENDMDL
