MODEL 1
REMARK minimizedAffinity -3.63826513
REMARK minimizedRMSD -1
REMARK  1 active torsions:
REMARK  status: ('A' for Active; 'I' for Inactive)
REMARK    1  A    between atoms: C1_2  and  C2_3 
ROOT
ATOM      1  C2  UNL d   1       0.962  -1.848   0.089  0.00  0.00    -0.076 A 
ATOM      2  C3  UNL d   1       0.460  -3.086  -0.349  0.00  0.00     0.004 A 
ATOM      3  C4  UNL d   1      -0.839  -3.484  -0.037  0.00  0.00    -0.003 A 
ATOM      4  C5  UNL d   1      -1.657  -2.650   0.716  0.00  0.00     0.000 A 
ATOM      5  C6  UNL d   1      -1.182  -1.410   1.144  0.00  0.00     0.000 A 
ATOM      6  C7  UNL d   1       0.120  -0.987   0.824  0.00  0.00    -0.073 A 
ATOM      7  C8  UNL d   1       0.583   0.357   1.316  0.00  0.00     0.078 C 
ENDROOT
BRANCH   1   8
ATOM      8  C1  UNL d   1       2.388  -1.482  -0.256  0.00  0.00     0.053 C 
ATOM      9  C   UNL d   1       3.330  -2.674  -0.181  0.00  0.00     0.018 C 
ENDBRANCH   1   8
TORSDOF 1
ENDMDL
