MODEL 1
REMARK minimizedAffinity -1.19096792
REMARK minimizedRMSD -1
REMARK  1 active torsions:
REMARK  status: ('A' for Active; 'I' for Inactive)
REMARK    1  A    between atoms: C1_2  and  C2_3 
ROOT
ATOM      1  C2  UNL d   1      -5.668  -3.867   4.708  0.00  0.00    -0.076 A 
ATOM      2  C3  UNL d   1      -5.785  -3.201   3.476  0.00  0.00     0.004 A 
ATOM      3  C4  UNL d   1      -5.472  -3.844   2.280  0.00  0.00    -0.003 A 
ATOM      4  C5  UNL d   1      -5.037  -5.165   2.297  0.00  0.00     0.000 A 
ATOM      5  C6  UNL d   1      -4.932  -5.847   3.508  0.00  0.00     0.000 A 
ATOM      6  C7  UNL d   1      -5.260  -5.218   4.722  0.00  0.00    -0.073 A 
ATOM      7  C8  UNL d   1      -5.122  -5.999   6.000  0.00  0.00     0.078 C 
ENDROOT
BRANCH   1   8
ATOM      8  C1  UNL d   1      -5.996  -3.110   5.975  0.00  0.00     0.053 C 
ATOM      9  C   UNL d   1      -5.380  -1.720   5.999  0.00  0.00     0.018 C 
ENDBRANCH   1   8
TORSDOF 1
ENDMDL
