MODEL 1
REMARK minimizedAffinity 3.16378498
REMARK minimizedRMSD -1
REMARK  1 active torsions:
REMARK  status: ('A' for Active; 'I' for Inactive)
REMARK    1  A    between atoms: C1_2  and  C2_3 
ROOT
ATOM      1  C2  UNL d   1       0.926  -1.649  -0.057  0.00  0.00    -0.076 A 
ATOM      2  C3  UNL d   1       2.276  -1.344   0.191  0.00  0.00     0.004 A 
ATOM      3  C4  UNL d   1       2.636  -0.445   1.194  0.00  0.00    -0.003 A 
ATOM      4  C5  UNL d   1       1.651   0.163   1.965  0.00  0.00     0.000 A 
ATOM      5  C6  UNL d   1       0.308  -0.141   1.745  0.00  0.00     0.000 A 
ATOM      6  C7  UNL d   1      -0.070  -1.058   0.749  0.00  0.00    -0.073 A 
ATOM      7  C8  UNL d   1      -1.533  -1.344   0.550  0.00  0.00     0.078 C 
ENDROOT
BRANCH   1   8
ATOM      8  C1  UNL d   1       0.595  -2.611  -1.176  0.00  0.00     0.053 C 
ATOM      9  C   UNL d   1       0.705  -4.065  -0.745  0.00  0.00     0.018 C 
ENDBRANCH   1   8
TORSDOF 1
ENDMDL
