MODEL 1
REMARK minimizedAffinity 2.89129734
REMARK minimizedRMSD -1
REMARK  1 active torsions:
REMARK  status: ('A' for Active; 'I' for Inactive)
REMARK    1  A    between atoms: C1_2  and  C2_3 
ROOT
ATOM      1  C2  UNL d   1       0.400  -2.035   0.128  0.00  0.00    -0.076 A 
ATOM      2  C3  UNL d   1      -0.927  -1.682   0.431  0.00  0.00     0.004 A 
ATOM      3  C4  UNL d   1      -1.220  -0.485   1.081  0.00  0.00    -0.003 A 
ATOM      4  C5  UNL d   1      -0.192   0.379   1.440  0.00  0.00     0.000 A 
ATOM      5  C6  UNL d   1       1.129   0.054   1.132  0.00  0.00     0.000 A 
ATOM      6  C7  UNL d   1       1.441  -1.142   0.462  0.00  0.00    -0.073 A 
ATOM      7  C8  UNL d   1       2.883  -1.445   0.160  0.00  0.00     0.078 C 
ENDROOT
BRANCH   1   8
ATOM      8  C1  UNL d   1       0.660  -3.359  -0.554  0.00  0.00     0.053 C 
ATOM      9  C   UNL d   1       1.964  -4.000  -0.105  0.00  0.00     0.018 C 
ENDBRANCH   1   8
TORSDOF 1
ENDMDL
