MODEL 1
REMARK minimizedAffinity -4.67842102
REMARK minimizedRMSD -1
REMARK  0 active torsions:
REMARK  status: ('A' for Active; 'I' for Inactive)
ROOT
ATOM      1  O1  BZF d   1      -0.626  -3.584  -1.713  0.00  0.00    -0.204 OA
ATOM      2  C2  BZF d   1       0.063  -3.831  -2.884  0.00  0.00     0.174 A 
ATOM      3  C3  BZF d   1       0.883  -2.803  -3.184  0.00  0.00    -0.012 A 
ATOM      4  C3A BZF d   1       0.763  -1.894  -2.085  0.00  0.00    -0.107 A 
ATOM      5  C4  BZF d   1       1.343  -0.693  -1.793  0.00  0.00     0.055 A 
ATOM      6  C5  BZF d   1       0.954  -0.027  -0.674  0.00  0.00    -0.016 A 
ATOM      7  C6  BZF d   1      -0.013  -0.530   0.172  0.00  0.00     0.022 A 
ATOM      8  C7  BZF d   1      -0.613  -1.720  -0.074  0.00  0.00     0.029 A 
ATOM      9  C7A BZF d   1      -0.199  -2.411  -1.186  0.00  0.00     0.058 A 
ENDROOT
TORSDOF 0
ENDMDL
