MODEL 1
REMARK minimizedAffinity -0.183623344
REMARK minimizedRMSD -1
REMARK  0 active torsions:
REMARK  status: ('A' for Active; 'I' for Inactive)
ROOT
ATOM      1  O1  BZF d   1       0.259   1.726  -0.893  0.00  0.00    -0.204 OA
ATOM      2  C2  BZF d   1       0.881   0.707  -1.588  0.00  0.00     0.174 A 
ATOM      3  C3  BZF d   1       0.881  -0.434  -0.868  0.00  0.00    -0.012 A 
ATOM      4  C3A BZF d   1       0.136  -0.131   0.316  0.00  0.00    -0.107 A 
ATOM      5  C4  BZF d   1      -0.224  -0.862   1.412  0.00  0.00     0.055 A 
ATOM      6  C5  BZF d   1      -0.888  -0.249   2.426  0.00  0.00    -0.016 A 
ATOM      7  C6  BZF d   1      -1.203   1.094   2.381  0.00  0.00     0.022 A 
ATOM      8  C7  BZF d   1      -0.871   1.859   1.313  0.00  0.00     0.029 A 
ATOM      9  C7A BZF d   1      -0.229   1.235   0.272  0.00  0.00     0.058 A 
ENDROOT
TORSDOF 0
ENDMDL
