MODEL 1
REMARK minimizedAffinity -4.79527617
REMARK minimizedRMSD -1
REMARK  0 active torsions:
REMARK  status: ('A' for Active; 'I' for Inactive)
ROOT
ATOM      1  O1  BZF d   1      -2.202   1.610   2.520  0.00  0.00    -0.204 OA
ATOM      2  C2  BZF d   1      -2.529   2.672   1.699  0.00  0.00     0.174 A 
ATOM      3  C3  BZF d   1      -1.673   2.756   0.661  0.00  0.00    -0.012 A 
ATOM      4  C3A BZF d   1      -0.809   1.624   0.793  0.00  0.00    -0.107 A 
ATOM      5  C4  BZF d   1       0.239   1.151   0.055  0.00  0.00     0.055 A 
ATOM      6  C5  BZF d   1       0.918   0.059   0.496  0.00  0.00    -0.016 A 
ATOM      7  C6  BZF d   1       0.581  -0.579   1.672  0.00  0.00     0.022 A 
ATOM      8  C7  BZF d   1      -0.453  -0.150   2.435  0.00  0.00     0.029 A 
ATOM      9  C7A BZF d   1      -1.162   0.933   1.975  0.00  0.00     0.058 A 
ENDROOT
TORSDOF 0
ENDMDL
