MODEL 1
REMARK minimizedAffinity -2.32410717
REMARK minimizedRMSD -1
REMARK  0 active torsions:
REMARK  status: ('A' for Active; 'I' for Inactive)
ROOT
ATOM      1  O1  BZF d   1      -1.394   2.043   2.206  0.00  0.00    -0.204 OA
ATOM      2  C2  BZF d   1      -2.232   2.857   1.468  0.00  0.00     0.174 A 
ATOM      3  C3  BZF d   1      -2.360   2.393   0.208  0.00  0.00    -0.012 A 
ATOM      4  C3A BZF d   1      -1.625   1.166   0.182  0.00  0.00    -0.107 A 
ATOM      5  C4  BZF d   1      -1.391   0.232  -0.787  0.00  0.00     0.055 A 
ATOM      6  C5  BZF d   1      -0.571  -0.815  -0.510  0.00  0.00    -0.016 A 
ATOM      7  C6  BZF d   1       0.036  -0.957   0.721  0.00  0.00     0.022 A 
ATOM      8  C7  BZF d   1      -0.170  -0.059   1.715  0.00  0.00     0.029 A 
ATOM      9  C7A BZF d   1      -1.025   0.983   1.449  0.00  0.00     0.058 A 
ENDROOT
TORSDOF 0
ENDMDL
