MODEL 1
REMARK minimizedAffinity -3.93194628
REMARK minimizedRMSD -1
REMARK  0 active torsions:
REMARK  status: ('A' for Active; 'I' for Inactive)
ROOT
ATOM      1  O1  BZF d   1      -0.086   1.092   0.102  0.00  0.00    -0.204 OA
ATOM      2  C2  BZF d   1      -1.203   0.595   0.746  0.00  0.00     0.174 A 
ATOM      3  C3  BZF d   1      -1.340  -0.726   0.515  0.00  0.00    -0.012 A 
ATOM      4  C3A BZF d   1      -0.189  -1.095  -0.251  0.00  0.00    -0.107 A 
ATOM      5  C4  BZF d   1       0.252  -2.278  -0.772  0.00  0.00     0.055 A 
ATOM      6  C5  BZF d   1       1.379  -2.286  -1.532  0.00  0.00    -0.016 A 
ATOM      7  C6  BZF d   1       2.085  -1.130  -1.795  0.00  0.00     0.022 A 
ATOM      8  C7  BZF d   1       1.690   0.066  -1.295  0.00  0.00     0.029 A 
ATOM      9  C7A BZF d   1       0.570   0.072  -0.499  0.00  0.00     0.058 A 
ENDROOT
TORSDOF 0
ENDMDL
