MODEL 1
REMARK minimizedAffinity -6.53464556
REMARK minimizedRMSD -1
REMARK  0 active torsions:
REMARK  status: ('A' for Active; 'I' for Inactive)
ROOT
ATOM      1  O1  BZF d   1       0.803   0.505  -0.773  0.00  0.00    -0.204 OA
ATOM      2  C2  BZF d   1       0.597  -0.617   0.007  0.00  0.00     0.174 A 
ATOM      3  C3  BZF d   1      -0.210  -0.334   1.050  0.00  0.00    -0.012 A 
ATOM      4  C3A BZF d   1      -0.604   1.029   0.861  0.00  0.00    -0.107 A 
ATOM      5  C4  BZF d   1      -1.414   1.877   1.560  0.00  0.00     0.055 A 
ATOM      6  C5  BZF d   1      -1.531   3.168   1.150  0.00  0.00    -0.016 A 
ATOM      7  C6  BZF d   1      -0.848   3.644   0.050  0.00  0.00     0.022 A 
ATOM      8  C7  BZF d   1      -0.036   2.839  -0.678  0.00  0.00     0.029 A 
ATOM      9  C7A BZF d   1       0.058   1.526  -0.285  0.00  0.00     0.058 A 
ENDROOT
TORSDOF 0
ENDMDL
