MODEL 1
REMARK minimizedAffinity -6.12896442
REMARK minimizedRMSD -1
REMARK  0 active torsions:
REMARK  status: ('A' for Active; 'I' for Inactive)
ROOT
ATOM      1  O1  BZF d   1       0.445   0.053  -1.238  0.00  0.00    -0.204 OA
ATOM      2  C2  BZF d   1      -0.207  -1.123  -0.920  0.00  0.00     0.174 A 
ATOM      3  C3  BZF d   1      -1.176  -0.901  -0.009  0.00  0.00    -0.012 A 
ATOM      4  C3A BZF d   1      -1.187   0.516   0.191  0.00  0.00    -0.107 A 
ATOM      5  C4  BZF d   1      -1.941   1.348   0.969  0.00  0.00     0.055 A 
ATOM      6  C5  BZF d   1      -1.650   2.675   0.990  0.00  0.00    -0.016 A 
ATOM      7  C6  BZF d   1      -0.611   3.203   0.251  0.00  0.00     0.022 A 
ATOM      8  C7  BZF d   1       0.161   2.417  -0.539  0.00  0.00     0.029 A 
ATOM      9  C7A BZF d   1      -0.151   1.081  -0.587  0.00  0.00     0.058 A 
ENDROOT
TORSDOF 0
ENDMDL
