MODEL 1
REMARK minimizedAffinity -4.65024567
REMARK minimizedRMSD -1
REMARK  0 active torsions:
REMARK  status: ('A' for Active; 'I' for Inactive)
ROOT
ATOM      1  O1  BZF d   1       1.062   1.054  -0.952  0.00  0.00    -0.204 OA
ATOM      2  C2  BZF d   1       1.111  -0.290  -0.633  0.00  0.00     0.174 A 
ATOM      3  C3  BZF d   1       0.411  -0.541   0.492  0.00  0.00    -0.012 A 
ATOM      4  C3A BZF d   1      -0.184   0.710   0.852  0.00  0.00    -0.107 A 
ATOM      5  C4  BZF d   1      -1.007   1.099   1.869  0.00  0.00     0.055 A 
ATOM      6  C5  BZF d   1      -1.349   2.410   1.977  0.00  0.00    -0.016 A 
ATOM      7  C6  BZF d   1      -0.882   3.358   1.090  0.00  0.00     0.022 A 
ATOM      8  C7  BZF d   1      -0.067   3.018   0.062  0.00  0.00     0.029 A 
ATOM      9  C7A BZF d   1       0.253   1.689  -0.070  0.00  0.00     0.058 A 
ENDROOT
TORSDOF 0
ENDMDL
