MODEL 1
REMARK minimizedAffinity -4.34294271
REMARK minimizedRMSD -1
REMARK  0 active torsions:
REMARK  status: ('A' for Active; 'I' for Inactive)
ROOT
ATOM      1  O1  BZF d   1      -0.368   3.548   0.207  0.00  0.00    -0.204 OA
ATOM      2  C2  BZF d   1       0.249   3.661  -1.024  0.00  0.00     0.174 A 
ATOM      3  C3  BZF d   1       0.866   2.509  -1.358  0.00  0.00    -0.012 A 
ATOM      4  C3A BZF d   1       0.542   1.591  -0.309  0.00  0.00    -0.107 A 
ATOM      5  C4  BZF d   1       0.849   0.280  -0.081  0.00  0.00     0.055 A 
ATOM      6  C5  BZF d   1       0.437  -0.303   1.075  0.00  0.00    -0.016 A 
ATOM      7  C6  BZF d   1      -0.278   0.396   2.026  0.00  0.00     0.022 A 
ATOM      8  C7  BZF d   1      -0.611   1.697   1.842  0.00  0.00     0.029 A 
ATOM      9  C7A BZF d   1      -0.224   2.280   0.660  0.00  0.00     0.058 A 
ENDROOT
TORSDOF 0
ENDMDL
