MODEL 1
REMARK minimizedAffinity -6.04001665
REMARK minimizedRMSD -1
REMARK  0 active torsions:
REMARK  status: ('A' for Active; 'I' for Inactive)
ROOT
ATOM      1  O1  BZF d   1       0.734   0.124  -1.167  0.00  0.00    -0.204 OA
ATOM      2  C2  BZF d   1       0.181  -1.033  -0.653  0.00  0.00     0.174 A 
ATOM      3  C3  BZF d   1      -0.803  -0.745   0.223  0.00  0.00    -0.012 A 
ATOM      4  C3A BZF d   1      -0.931   0.680   0.189  0.00  0.00    -0.107 A 
ATOM      5  C4  BZF d   1      -1.751   1.564   0.830  0.00  0.00     0.055 A 
ATOM      6  C5  BZF d   1      -1.571   2.896   0.630  0.00  0.00    -0.016 A 
ATOM      7  C6  BZF d   1      -0.579   3.378  -0.199  0.00  0.00     0.022 A 
ATOM      8  C7  BZF d   1       0.255   2.540  -0.861  0.00  0.00     0.029 A 
ATOM      9  C7A BZF d   1       0.055   1.192  -0.686  0.00  0.00     0.058 A 
ENDROOT
TORSDOF 0
ENDMDL
