MODEL 1
REMARK minimizedAffinity -5.47199821
REMARK minimizedRMSD -1
REMARK  0 active torsions:
REMARK  status: ('A' for Active; 'I' for Inactive)
ROOT
ATOM      1  O1  BZF d   1      -1.744   2.561   1.829  0.00  0.00    -0.204 OA
ATOM      2  C2  BZF d   1      -1.955   3.345   0.711  0.00  0.00     0.174 A 
ATOM      3  C3  BZF d   1      -1.207   2.912  -0.324  0.00  0.00    -0.012 A 
ATOM      4  C3A BZF d   1      -0.553   1.731   0.151  0.00  0.00    -0.107 A 
ATOM      5  C4  BZF d   1       0.311   0.842  -0.420  0.00  0.00     0.055 A 
ATOM      6  C5  BZF d   1       0.822  -0.163   0.338  0.00  0.00    -0.016 A 
ATOM      7  C6  BZF d   1       0.496  -0.304   1.671  0.00  0.00     0.022 A 
ATOM      8  C7  BZF d   1      -0.361   0.550   2.281  0.00  0.00     0.029 A 
ATOM      9  C7A BZF d   1      -0.905   1.547   1.509  0.00  0.00     0.058 A 
ENDROOT
TORSDOF 0
ENDMDL
