MODEL 1
REMARK minimizedAffinity -5.57120657
REMARK minimizedRMSD -1
REMARK  0 active torsions:
REMARK  status: ('A' for Active; 'I' for Inactive)
ROOT
ATOM      1  O1  BZF d   1      -0.674  -0.913  -0.414  0.00  0.00    -0.204 OA
ATOM      2  C2  BZF d   1       0.691  -0.741  -0.545  0.00  0.00     0.174 A 
ATOM      3  C3  BZF d   1       1.065   0.474  -0.097  0.00  0.00    -0.012 A 
ATOM      4  C3A BZF d   1      -0.128   1.066   0.426  0.00  0.00    -0.107 A 
ATOM      5  C4  BZF d   1      -0.397   2.264   1.025  0.00  0.00     0.055 A 
ATOM      6  C5  BZF d   1      -1.681   2.564   1.353  0.00  0.00    -0.016 A 
ATOM      7  C6  BZF d   1      -2.720   1.694   1.092  0.00  0.00     0.022 A 
ATOM      8  C7  BZF d   1      -2.501   0.493   0.504  0.00  0.00     0.029 A 
ATOM      9  C7A BZF d   1      -1.200   0.172   0.202  0.00  0.00     0.058 A 
ENDROOT
TORSDOF 0
ENDMDL
