MODEL 1
REMARK minimizedAffinity -6.18592691
REMARK minimizedRMSD -1
REMARK  0 active torsions:
REMARK  status: ('A' for Active; 'I' for Inactive)
ROOT
ATOM      1  O1  BZF d   1      -1.532   1.569   2.235  0.00  0.00    -0.204 OA
ATOM      2  C2  BZF d   1      -2.186   2.221   1.208  0.00  0.00     0.174 A 
ATOM      3  C3  BZF d   1      -1.739   1.795   0.009  0.00  0.00    -0.012 A 
ATOM      4  C3A BZF d   1      -0.807   0.750   0.304  0.00  0.00    -0.107 A 
ATOM      5  C4  BZF d   1      -0.042  -0.073  -0.472  0.00  0.00     0.055 A 
ATOM      6  C5  BZF d   1       0.817  -0.937   0.130  0.00  0.00    -0.016 A 
ATOM      7  C6  BZF d   1       0.940  -1.002   1.502  0.00  0.00     0.022 A 
ATOM      8  C7  BZF d   1       0.198  -0.209   2.314  0.00  0.00     0.029 A 
ATOM      9  C7A BZF d   1      -0.695   0.642   1.710  0.00  0.00     0.058 A 
ENDROOT
TORSDOF 0
ENDMDL
