MODEL 1
REMARK minimizedAffinity -5.76034212
REMARK minimizedRMSD -1
REMARK  0 active torsions:
REMARK  status: ('A' for Active; 'I' for Inactive)
ROOT
ATOM      1  O1  BZF d   1       1.070   0.668  -0.894  0.00  0.00    -0.204 OA
ATOM      2  C2  BZF d   1       0.738  -0.528  -0.288  0.00  0.00     0.174 A 
ATOM      3  C3  BZF d   1      -0.269  -0.354   0.593  0.00  0.00    -0.012 A 
ATOM      4  C3A BZF d   1      -0.647   1.020   0.465  0.00  0.00    -0.107 A 
ATOM      5  C4  BZF d   1      -1.601   1.791   1.067  0.00  0.00     0.055 A 
ATOM      6  C5  BZF d   1      -1.662   3.116   0.772  0.00  0.00    -0.016 A 
ATOM      7  C6  BZF d   1      -0.783   3.703  -0.114  0.00  0.00     0.022 A 
ATOM      8  C7  BZF d   1       0.177   2.979  -0.739  0.00  0.00     0.029 A 
ATOM      9  C7A BZF d   1       0.220   1.633  -0.468  0.00  0.00     0.058 A 
ENDROOT
TORSDOF 0
ENDMDL
