MODEL 1
REMARK minimizedAffinity -5.75473166
REMARK minimizedRMSD -1
REMARK  0 active torsions:
REMARK  status: ('A' for Active; 'I' for Inactive)
ROOT
ATOM      1  O1  BZF d   1       0.930   1.684  -1.295  0.00  0.00    -0.204 OA
ATOM      2  C2  BZF d   1       0.602   2.988  -1.614  0.00  0.00     0.174 A 
ATOM      3  C3  BZF d   1      -0.258   3.499  -0.710  0.00  0.00    -0.012 A 
ATOM      4  C3A BZF d   1      -0.410   2.481   0.284  0.00  0.00    -0.107 A 
ATOM      5  C4  BZF d   1      -1.124   2.401   1.444  0.00  0.00     0.055 A 
ATOM      6  C5  BZF d   1      -1.114   1.238   2.148  0.00  0.00    -0.016 A 
ATOM      7  C6  BZF d   1      -0.405   0.136   1.718  0.00  0.00     0.022 A 
ATOM      8  C7  BZF d   1       0.324   0.169   0.575  0.00  0.00     0.029 A 
ATOM      9  C7A BZF d   1       0.341   1.353  -0.121  0.00  0.00     0.058 A 
ENDROOT
TORSDOF 0
ENDMDL
