MODEL 1
REMARK minimizedAffinity -4.36555862
REMARK minimizedRMSD -1
REMARK  0 active torsions:
REMARK  status: ('A' for Active; 'I' for Inactive)
ROOT
ATOM      1  O1  BZF d   1       0.951   0.137  -0.256  0.00  0.00    -0.204 OA
ATOM      2  C2  BZF d   1       0.696  -1.203  -0.480  0.00  0.00     0.174 A 
ATOM      3  C3  BZF d   1      -0.582  -1.504  -0.173  0.00  0.00    -0.012 A 
ATOM      4  C3A BZF d   1      -1.188  -0.258   0.182  0.00  0.00    -0.107 A 
ATOM      5  C4  BZF d   1      -2.449   0.097   0.567  0.00  0.00     0.055 A 
ATOM      6  C5  BZF d   1      -2.696   1.388   0.913  0.00  0.00    -0.016 A 
ATOM      7  C6  BZF d   1      -1.705   2.347   0.890  0.00  0.00     0.022 A 
ATOM      8  C7  BZF d   1      -0.440   2.044   0.510  0.00  0.00     0.029 A 
ATOM      9  C7A BZF d   1      -0.196   0.748   0.128  0.00  0.00     0.058 A 
ENDROOT
TORSDOF 0
ENDMDL
