MODEL 1
REMARK minimizedAffinity -4.8665204
REMARK minimizedRMSD -1
REMARK  0 active torsions:
REMARK  status: ('A' for Active; 'I' for Inactive)
ROOT
ATOM      1  O1  BZF d   1      -0.291   2.577  -0.660  0.00  0.00    -0.204 OA
ATOM      2  C2  BZF d   1      -0.788   3.736  -0.095  0.00  0.00     0.174 A 
ATOM      3  C3  BZF d   1      -1.505   3.459   1.013  0.00  0.00    -0.012 A 
ATOM      4  C3A BZF d   1      -1.376   2.046   1.200  0.00  0.00    -0.107 A 
ATOM      5  C4  BZF d   1      -1.851   1.177   2.141  0.00  0.00     0.055 A 
ATOM      6  C5  BZF d   1      -1.605  -0.152   1.996  0.00  0.00    -0.016 A 
ATOM      7  C6  BZF d   1      -0.894  -0.646   0.922  0.00  0.00     0.022 A 
ATOM      8  C7  BZF d   1      -0.398   0.178  -0.034  0.00  0.00     0.029 A 
ATOM      9  C7A BZF d   1      -0.617   1.524   0.127  0.00  0.00     0.058 A 
ENDROOT
TORSDOF 0
ENDMDL
