MODEL 1
REMARK minimizedAffinity -4.62244511
REMARK minimizedRMSD -1
REMARK  0 active torsions:
REMARK  status: ('A' for Active; 'I' for Inactive)
ROOT
ATOM      1  O1  BZF d   1       0.004   2.096  -0.757  0.00  0.00    -0.204 OA
ATOM      2  C2  BZF d   1      -0.458   3.342  -0.379  0.00  0.00     0.174 A 
ATOM      3  C3  BZF d   1      -1.100   3.275   0.805  0.00  0.00    -0.012 A 
ATOM      4  C3A BZF d   1      -0.954   1.918   1.236  0.00  0.00    -0.107 A 
ATOM      5  C4  BZF d   1      -1.363   1.236   2.346  0.00  0.00     0.055 A 
ATOM      6  C5  BZF d   1      -1.123  -0.099   2.428  0.00  0.00    -0.016 A 
ATOM      7  C6  BZF d   1      -0.482  -0.784   1.416  0.00  0.00     0.022 A 
ATOM      8  C7  BZF d   1      -0.053  -0.150   0.298  0.00  0.00     0.029 A 
ATOM      9  C7A BZF d   1      -0.265   1.205   0.227  0.00  0.00     0.058 A 
ENDROOT
TORSDOF 0
ENDMDL
