MODEL 1
REMARK minimizedAffinity -3.08237052
REMARK minimizedRMSD -1
REMARK  1 active torsions:
REMARK  status: ('A' for Active; 'I' for Inactive)
REMARK    1  A    between atoms: C3_4  and  O_7 
ROOT
ATOM      1  C   UNL d   1      -5.974  -4.009  -5.233  0.00  0.00    -0.033 A 
ATOM      2  C1  UNL d   1      -4.818  -3.428  -4.708  0.00  0.00     0.039 A 
ATOM      3  C2  UNL d   1      -3.590  -4.085  -4.823  0.00  0.00    -0.080 A 
ATOM      4  C3  UNL d   1      -3.533  -5.318  -5.466  0.00  0.00     0.150 A 
ATOM      5  C4  UNL d   1      -4.680  -5.900  -5.995  0.00  0.00    -0.007 A 
ATOM      6  C5  UNL d   1      -5.905  -5.244  -5.878  0.00  0.00     0.039 A 
ENDROOT
BRANCH   4   7
ATOM      7  O   UNL d   1      -2.359  -5.998  -5.599  0.00  0.00    -0.526 OA
ATOM      8  H5  UNL d   1      -1.657  -5.489  -5.161  0.00  0.00     0.418 HD
ENDBRANCH   4   7
TORSDOF 1
ENDMDL
