MODEL 1
REMARK minimizedAffinity -3.04638052
REMARK minimizedRMSD -1
REMARK  1 active torsions:
REMARK  status: ('A' for Active; 'I' for Inactive)
REMARK    1  A    between atoms: C3_4  and  O_7 
ROOT
ATOM      1  C   UNL d   1      -6.000  -2.431  -4.836  0.00  0.00    -0.033 A 
ATOM      2  C1  UNL d   1      -5.495  -3.040  -5.987  0.00  0.00     0.039 A 
ATOM      3  C2  UNL d   1      -4.794  -4.243  -5.892  0.00  0.00    -0.080 A 
ATOM      4  C3  UNL d   1      -4.606  -4.828  -4.643  0.00  0.00     0.150 A 
ATOM      5  C4  UNL d   1      -5.110  -4.229  -3.493  0.00  0.00    -0.007 A 
ATOM      6  C5  UNL d   1      -5.809  -3.027  -3.589  0.00  0.00     0.039 A 
ENDROOT
BRANCH   4   7
ATOM      7  O   UNL d   1      -3.924  -6.000  -4.500  0.00  0.00    -0.526 OA
ATOM      8  H5  UNL d   1      -3.610  -6.282  -5.375  0.00  0.00     0.418 HD
ENDBRANCH   4   7
TORSDOF 1
ENDMDL
