MODEL 1
REMARK minimizedAffinity -2.42678213
REMARK minimizedRMSD -1
REMARK  1 active torsions:
REMARK  status: ('A' for Active; 'I' for Inactive)
REMARK    1  A    between atoms: C3_4  and  O_7 
ROOT
ATOM      1  C   UNL d   1      -2.899  -2.101   0.779  0.00  0.00    -0.033 A 
ATOM      2  C1  UNL d   1      -2.887  -1.200  -0.288  0.00  0.00     0.039 A 
ATOM      3  C2  UNL d   1      -1.947  -0.168  -0.322  0.00  0.00    -0.080 A 
ATOM      4  C3  UNL d   1      -1.025  -0.049   0.714  0.00  0.00     0.150 A 
ATOM      5  C4  UNL d   1      -1.029  -0.945   1.778  0.00  0.00    -0.007 A 
ATOM      6  C5  UNL d   1      -1.969  -1.974   1.811  0.00  0.00     0.039 A 
ENDROOT
BRANCH   4   7
ATOM      7  O   UNL d   1      -0.092   0.945   0.726  0.00  0.00    -0.526 OA
ATOM      8  H5  UNL d   1      -0.228   1.504  -0.057  0.00  0.00     0.418 HD
ENDBRANCH   4   7
TORSDOF 1
ENDMDL
