MODEL 1
REMARK minimizedAffinity -3.83046722
REMARK minimizedRMSD -1
REMARK  1 active torsions:
REMARK  status: ('A' for Active; 'I' for Inactive)
REMARK    1  A    between atoms: C3_4  and  O_7 
ROOT
ATOM      1  C   UNL d   1      -4.555  -4.479  -5.548  0.00  0.00    -0.033 A 
ATOM      2  C1  UNL d   1      -3.985  -5.671  -6.000  0.00  0.00     0.039 A 
ATOM      3  C2  UNL d   1      -2.643  -5.949  -5.737  0.00  0.00    -0.080 A 
ATOM      4  C3  UNL d   1      -1.882  -5.028  -5.022  0.00  0.00     0.150 A 
ATOM      5  C4  UNL d   1      -2.444  -3.841  -4.565  0.00  0.00    -0.007 A 
ATOM      6  C5  UNL d   1      -3.785  -3.565  -4.829  0.00  0.00     0.039 A 
ENDROOT
BRANCH   4   7
ATOM      7  O   UNL d   1      -0.566  -5.253  -4.745  0.00  0.00    -0.526 OA
ATOM      8  H5  UNL d   1      -0.307  -6.099  -5.147  0.00  0.00     0.418 HD
ENDBRANCH   4   7
TORSDOF 1
ENDMDL
