MODEL 1
REMARK minimizedAffinity -1.47506225
REMARK minimizedRMSD -1
REMARK  1 active torsions:
REMARK  status: ('A' for Active; 'I' for Inactive)
REMARK    1  A    between atoms: C3_4  and  O_7 
ROOT
ATOM      1  C   UNL d   1      -0.481  -2.088   0.651  0.00  0.00    -0.033 A 
ATOM      2  C1  UNL d   1      -0.119  -1.701   1.943  0.00  0.00     0.039 A 
ATOM      3  C2  UNL d   1      -1.073  -1.154   2.803  0.00  0.00    -0.080 A 
ATOM      4  C3  UNL d   1      -2.383  -0.999   2.361  0.00  0.00     0.150 A 
ATOM      5  C4  UNL d   1      -2.752  -1.386   1.076  0.00  0.00    -0.007 A 
ATOM      6  C5  UNL d   1      -1.799  -1.931   0.218  0.00  0.00     0.039 A 
ENDROOT
BRANCH   4   7
ATOM      7  O   UNL d   1      -3.348  -0.465   3.163  0.00  0.00    -0.526 OA
ATOM      8  H5  UNL d   1      -2.942  -0.218   4.010  0.00  0.00     0.418 HD
ENDBRANCH   4   7
TORSDOF 1
ENDMDL
