MODEL 1
REMARK minimizedAffinity 2.65297365
REMARK minimizedRMSD -1
REMARK  1 active torsions:
REMARK  status: ('A' for Active; 'I' for Inactive)
REMARK    1  A    between atoms: C3_4  and  O_7 
ROOT
ATOM      1  C   UNL d   1      -1.909  -5.998  -5.957  0.00  0.00    -0.033 A 
ATOM      2  C1  UNL d   1      -3.277  -5.722  -5.996  0.00  0.00     0.039 A 
ATOM      3  C2  UNL d   1      -3.899  -5.108  -4.907  0.00  0.00    -0.080 A 
ATOM      4  C3  UNL d   1      -3.142  -4.775  -3.787  0.00  0.00     0.150 A 
ATOM      5  C4  UNL d   1      -1.778  -5.043  -3.743  0.00  0.00    -0.007 A 
ATOM      6  C5  UNL d   1      -1.159  -5.657  -4.831  0.00  0.00     0.039 A 
ENDROOT
BRANCH   4   7
ATOM      7  O   UNL d   1      -3.705  -4.179  -2.698  0.00  0.00    -0.526 OA
ATOM      8  H5  UNL d   1      -4.658  -4.081  -2.859  0.00  0.00     0.418 HD
ENDBRANCH   4   7
TORSDOF 1
ENDMDL
