MODEL 1
REMARK minimizedAffinity -3.40433168
REMARK minimizedRMSD -1
REMARK  1 active torsions:
REMARK  status: ('A' for Active; 'I' for Inactive)
REMARK    1  A    between atoms: C3_4  and  O_7 
ROOT
ATOM      1  C   UNL d   1      -5.236  -4.585  -5.255  0.00  0.00    -0.033 A 
ATOM      2  C1  UNL d   1      -4.541  -3.629  -4.511  0.00  0.00     0.039 A 
ATOM      3  C2  UNL d   1      -3.145  -3.623  -4.509  0.00  0.00    -0.080 A 
ATOM      4  C3  UNL d   1      -2.456  -4.576  -5.253  0.00  0.00     0.150 A 
ATOM      5  C4  UNL d   1      -3.142  -5.530  -5.999  0.00  0.00    -0.007 A 
ATOM      6  C5  UNL d   1      -4.536  -5.535  -6.000  0.00  0.00     0.039 A 
ENDROOT
BRANCH   4   7
ATOM      7  O   UNL d   1      -1.094  -4.613  -5.278  0.00  0.00    -0.526 OA
ATOM      8  H5  UNL d   1      -0.756  -3.914  -4.694  0.00  0.00     0.418 HD
ENDBRANCH   4   7
TORSDOF 1
ENDMDL
