MODEL 1
REMARK minimizedAffinity -1.92619228
REMARK minimizedRMSD -1
REMARK  1 active torsions:
REMARK  status: ('A' for Active; 'I' for Inactive)
REMARK    1  A    between atoms: C3_4  and  O_7 
ROOT
ATOM      1  C   UNL d   1      -3.472  -5.989  -5.612  0.00  0.00    -0.033 A 
ATOM      2  C1  UNL d   1      -4.813  -5.961  -5.999  0.00  0.00     0.039 A 
ATOM      3  C2  UNL d   1      -5.626  -4.888  -5.628  0.00  0.00    -0.080 A 
ATOM      4  C3  UNL d   1      -5.086  -3.850  -4.873  0.00  0.00     0.150 A 
ATOM      5  C4  UNL d   1      -3.750  -3.870  -4.488  0.00  0.00    -0.007 A 
ATOM      6  C5  UNL d   1      -2.940  -4.942  -4.858  0.00  0.00     0.039 A 
ENDROOT
BRANCH   4   7
ATOM      7  O   UNL d   1      -5.842  -2.785  -4.483  0.00  0.00    -0.526 OA
ATOM      8  H5  UNL d   1      -6.751  -2.921  -4.797  0.00  0.00     0.418 HD
ENDBRANCH   4   7
TORSDOF 1
ENDMDL
