MODEL 1
REMARK minimizedAffinity -3.61868763
REMARK minimizedRMSD -1
REMARK  1 active torsions:
REMARK  status: ('A' for Active; 'I' for Inactive)
REMARK    1  A    between atoms: C3_4  and  O_7 
ROOT
ATOM      1  C   UNL d   1      -5.541  -4.073  -5.656  0.00  0.00    -0.033 A 
ATOM      2  C1  UNL d   1      -5.142  -5.411  -5.663  0.00  0.00     0.039 A 
ATOM      3  C2  UNL d   1      -3.791  -5.739  -5.537  0.00  0.00    -0.080 A 
ATOM      4  C3  UNL d   1      -2.850  -4.721  -5.404  0.00  0.00     0.150 A 
ATOM      5  C4  UNL d   1      -3.241  -3.386  -5.392  0.00  0.00    -0.007 A 
ATOM      6  C5  UNL d   1      -4.591  -3.061  -5.519  0.00  0.00     0.039 A 
ENDROOT
BRANCH   4   7
ATOM      7  O   UNL d   1      -1.520  -4.991  -5.283  0.00  0.00    -0.526 OA
ATOM      8  H5  UNL d   1      -1.395  -5.954  -5.336  0.00  0.00     0.418 HD
ENDBRANCH   4   7
TORSDOF 1
ENDMDL
