MODEL 1
REMARK minimizedAffinity -0.959366977
REMARK minimizedRMSD -1
REMARK  1 active torsions:
REMARK  status: ('A' for Active; 'I' for Inactive)
REMARK    1  A    between atoms: C3_4  and  O_7 
ROOT
ATOM      1  C   UNL d   1      -5.999  -4.433  -5.969  0.00  0.00    -0.033 A 
ATOM      2  C1  UNL d   1      -5.384  -5.687  -5.984  0.00  0.00     0.039 A 
ATOM      3  C2  UNL d   1      -4.387  -5.988  -5.054  0.00  0.00    -0.080 A 
ATOM      4  C3  UNL d   1      -4.015  -5.029  -4.116  0.00  0.00     0.150 A 
ATOM      5  C4  UNL d   1      -4.626  -3.779  -4.093  0.00  0.00    -0.007 A 
ATOM      6  C5  UNL d   1      -5.620  -3.480  -5.023  0.00  0.00     0.039 A 
ENDROOT
BRANCH   4   7
ATOM      7  O   UNL d   1      -3.043  -5.275  -3.192  0.00  0.00    -0.526 OA
ATOM      8  H5  UNL d   1      -2.691  -6.168  -3.346  0.00  0.00     0.418 HD
ENDBRANCH   4   7
TORSDOF 1
ENDMDL
