MODEL 1
REMARK minimizedAffinity -3.40426302
REMARK minimizedRMSD -1
REMARK  1 active torsions:
REMARK  status: ('A' for Active; 'I' for Inactive)
REMARK    1  A    between atoms: C3_4  and  O_7 
ROOT
ATOM      1  C   UNL d   1      -5.850  -4.089  -5.255  0.00  0.00    -0.033 A 
ATOM      2  C1  UNL d   1      -5.259  -5.272  -5.704  0.00  0.00     0.039 A 
ATOM      3  C2  UNL d   1      -3.887  -5.317  -5.958  0.00  0.00    -0.080 A 
ATOM      4  C3  UNL d   1      -3.118  -4.173  -5.760  0.00  0.00     0.150 A 
ATOM      5  C4  UNL d   1      -3.699  -2.992  -5.310  0.00  0.00    -0.007 A 
ATOM      6  C5  UNL d   1      -5.070  -2.950  -5.057  0.00  0.00     0.039 A 
ENDROOT
BRANCH   4   7
ATOM      7  O   UNL d   1      -1.776  -4.167  -6.000  0.00  0.00    -0.526 OA
ATOM      8  H5  UNL d   1      -1.519  -5.043  -6.333  0.00  0.00     0.418 HD
ENDBRANCH   4   7
TORSDOF 1
ENDMDL
