MODEL 1
REMARK minimizedAffinity -2.81965613
REMARK minimizedRMSD -1
REMARK  1 active torsions:
REMARK  status: ('A' for Active; 'I' for Inactive)
REMARK    1  A    between atoms: C3_4  and  O_7 
ROOT
ATOM      1  C   UNL d   1      -4.580  -3.178  -4.908  0.00  0.00    -0.033 A 
ATOM      2  C1  UNL d   1      -3.879  -3.218  -3.701  0.00  0.00     0.039 A 
ATOM      3  C2  UNL d   1      -2.737  -4.012  -3.580  0.00  0.00    -0.080 A 
ATOM      4  C3  UNL d   1      -2.306  -4.759  -4.673  0.00  0.00     0.150 A 
ATOM      5  C4  UNL d   1      -2.997  -4.720  -5.879  0.00  0.00    -0.007 A 
ATOM      6  C5  UNL d   1      -4.137  -3.928  -5.998  0.00  0.00     0.039 A 
ENDROOT
BRANCH   4   7
ATOM      7  O   UNL d   1      -1.200  -5.552  -4.601  0.00  0.00    -0.526 OA
ATOM      8  H5  UNL d   1      -0.842  -5.501  -3.699  0.00  0.00     0.418 HD
ENDBRANCH   4   7
TORSDOF 1
ENDMDL
