MODEL 1
REMARK minimizedAffinity 2.79507256
REMARK minimizedRMSD -1
REMARK  1 active torsions:
REMARK  status: ('A' for Active; 'I' for Inactive)
REMARK    1  A    between atoms: C3_4  and  O_7 
ROOT
ATOM      1  C   UNL d   1      -6.000  -4.111  -5.262  0.00  0.00    -0.033 A 
ATOM      2  C1  UNL d   1      -5.419  -3.072  -4.531  0.00  0.00     0.039 A 
ATOM      3  C2  UNL d   1      -4.033  -2.906  -4.532  0.00  0.00    -0.080 A 
ATOM      4  C3  UNL d   1      -3.240  -3.783  -5.267  0.00  0.00     0.150 A 
ATOM      5  C4  UNL d   1      -3.812  -4.817  -6.000  0.00  0.00    -0.007 A 
ATOM      6  C5  UNL d   1      -5.197  -4.982  -5.997  0.00  0.00     0.039 A 
ENDROOT
BRANCH   4   7
ATOM      7  O   UNL d   1      -1.882  -3.664  -5.294  0.00  0.00    -0.526 OA
ATOM      8  H5  UNL d   1      -1.627  -2.923  -4.719  0.00  0.00     0.418 HD
ENDBRANCH   4   7
TORSDOF 1
ENDMDL
