MODEL 1
REMARK minimizedAffinity 0.484180719
REMARK minimizedRMSD -1
REMARK  1 active torsions:
REMARK  status: ('A' for Active; 'I' for Inactive)
REMARK    1  A    between atoms: C3_4  and  O_7 
ROOT
ATOM      1  C   UNL d   1      -6.000  -2.707  -4.530  0.00  0.00    -0.033 A 
ATOM      2  C1  UNL d   1      -5.958  -4.101  -4.582  0.00  0.00     0.039 A 
ATOM      3  C2  UNL d   1      -4.731  -4.762  -4.672  0.00  0.00    -0.080 A 
ATOM      4  C3  UNL d   1      -3.556  -4.017  -4.709  0.00  0.00     0.150 A 
ATOM      5  C4  UNL d   1      -3.590  -2.628  -4.654  0.00  0.00    -0.007 A 
ATOM      6  C5  UNL d   1      -4.816  -1.970  -4.565  0.00  0.00     0.039 A 
ENDROOT
BRANCH   4   7
ATOM      7  O   UNL d   1      -2.335  -4.617  -4.802  0.00  0.00    -0.526 OA
ATOM      8  H5  UNL d   1      -2.468  -5.578  -4.860  0.00  0.00     0.418 HD
ENDBRANCH   4   7
TORSDOF 1
ENDMDL
