MODEL 1
REMARK minimizedAffinity -3.10447407
REMARK minimizedRMSD -1
REMARK  1 active torsions:
REMARK  status: ('A' for Active; 'I' for Inactive)
REMARK    1  A    between atoms: C3_4  and  O_7 
ROOT
ATOM      1  C   UNL d   1      -4.941  -4.147  -4.555  0.00  0.00    -0.033 A 
ATOM      2  C1  UNL d   1      -4.298  -4.878  -3.554  0.00  0.00     0.039 A 
ATOM      3  C2  UNL d   1      -3.019  -5.393  -3.776  0.00  0.00    -0.080 A 
ATOM      4  C3  UNL d   1      -2.395  -5.169  -5.000  0.00  0.00     0.150 A 
ATOM      5  C4  UNL d   1      -3.028  -4.438  -6.000  0.00  0.00    -0.007 A 
ATOM      6  C5  UNL d   1      -4.305  -3.926  -5.777  0.00  0.00     0.039 A 
ENDROOT
BRANCH   4   7
ATOM      7  O   UNL d   1      -1.149  -5.656  -5.264  0.00  0.00    -0.526 OA
ATOM      8  H5  UNL d   1      -0.848  -6.165  -4.492  0.00  0.00     0.418 HD
ENDBRANCH   4   7
TORSDOF 1
ENDMDL
