MODEL 1
REMARK minimizedAffinity -2.82996011
REMARK minimizedRMSD -1
REMARK  1 active torsions:
REMARK  status: ('A' for Active; 'I' for Inactive)
REMARK    1  A    between atoms: C3_4  and  O_7 
ROOT
ATOM      1  C   UNL d   1      -1.219  -5.105  -5.206  0.00  0.00    -0.033 A 
ATOM      2  C1  UNL d   1      -0.335  -5.684  -4.294  0.00  0.00     0.039 A 
ATOM      3  C2  UNL d   1      -0.765  -5.994  -3.002  0.00  0.00    -0.080 A 
ATOM      4  C3  UNL d   1      -2.080  -5.720  -2.636  0.00  0.00     0.150 A 
ATOM      5  C4  UNL d   1      -2.967  -5.146  -3.540  0.00  0.00    -0.007 A 
ATOM      6  C5  UNL d   1      -2.536  -4.837  -4.830  0.00  0.00     0.039 A 
ENDROOT
BRANCH   4   7
ATOM      7  O   UNL d   1      -2.544  -6.000  -1.385  0.00  0.00    -0.526 OA
ATOM      8  H5  UNL d   1      -1.812  -6.366  -0.860  0.00  0.00     0.418 HD
ENDBRANCH   4   7
TORSDOF 1
ENDMDL
