MODEL 1
REMARK minimizedAffinity -4.25500154
REMARK minimizedRMSD -1
REMARK  1 active torsions:
REMARK  status: ('A' for Active; 'I' for Inactive)
REMARK    1  A    between atoms: C3_4  and  O_7 
ROOT
ATOM      1  C   UNL d   1      -3.652  -3.809  -4.128  0.00  0.00    -0.033 A 
ATOM      2  C1  UNL d   1      -2.824  -4.268  -3.102  0.00  0.00     0.039 A 
ATOM      3  C2  UNL d   1      -1.678  -5.007  -3.403  0.00  0.00    -0.080 A 
ATOM      4  C3  UNL d   1      -1.372  -5.279  -4.734  0.00  0.00     0.150 A 
ATOM      5  C4  UNL d   1      -2.190  -4.822  -5.762  0.00  0.00    -0.007 A 
ATOM      6  C5  UNL d   1      -3.334  -4.085  -5.458  0.00  0.00     0.039 A 
ENDROOT
BRANCH   4   7
ATOM      7  O   UNL d   1      -0.267  -6.000  -5.077  0.00  0.00    -0.526 OA
ATOM      8  H5  UNL d   1       0.187  -6.274  -4.263  0.00  0.00     0.418 HD
ENDBRANCH   4   7
TORSDOF 1
ENDMDL
