MODEL 1
REMARK minimizedAffinity -4.88563871
REMARK minimizedRMSD -1
REMARK  1 active torsions:
REMARK  status: ('A' for Active; 'I' for Inactive)
REMARK    1  A    between atoms: C3_4  and  O_7 
ROOT
ATOM      1  C   UNL d   1       1.116   0.975  -1.669  0.00  0.00    -0.033 A 
ATOM      2  C1  UNL d   1       0.257   0.551  -0.653  0.00  0.00     0.039 A 
ATOM      3  C2  UNL d   1       0.250  -0.787  -0.256  0.00  0.00    -0.080 A 
ATOM      4  C3  UNL d   1       1.105  -1.690  -0.882  0.00  0.00     0.150 A 
ATOM      5  C4  UNL d   1       1.966  -1.274  -1.892  0.00  0.00    -0.007 A 
ATOM      6  C5  UNL d   1       1.971   0.063  -2.288  0.00  0.00     0.039 A 
ENDROOT
BRANCH   4   7
ATOM      7  O   UNL d   1       1.130  -3.008  -0.532  0.00  0.00    -0.526 OA
ATOM      8  H5  UNL d   1       0.463  -3.155   0.159  0.00  0.00     0.418 HD
ENDBRANCH   4   7
TORSDOF 1
ENDMDL
