MODEL 1
REMARK minimizedAffinity -2.24712825
REMARK minimizedRMSD -1
REMARK  1 active torsions:
REMARK  status: ('A' for Active; 'I' for Inactive)
REMARK    1  A    between atoms: C3_4  and  O_7 
ROOT
ATOM      1  C   UNL d   1       2.495  -1.411  -1.953  0.00  0.00    -0.033 A 
ATOM      2  C1  UNL d   1       1.763  -2.338  -1.208  0.00  0.00     0.039 A 
ATOM      3  C2  UNL d   1       0.705  -1.910  -0.404  0.00  0.00    -0.080 A 
ATOM      4  C3  UNL d   1       0.389  -0.555  -0.354  0.00  0.00     0.150 A 
ATOM      5  C4  UNL d   1       1.111   0.373  -1.097  0.00  0.00    -0.007 A 
ATOM      6  C5  UNL d   1       2.168  -0.056  -1.898  0.00  0.00     0.039 A 
ENDROOT
BRANCH   4   7
ATOM      7  O   UNL d   1      -0.633  -0.090   0.420  0.00  0.00    -0.526 OA
ATOM      8  H5  UNL d   1      -1.023  -0.841   0.898  0.00  0.00     0.418 HD
ENDBRANCH   4   7
TORSDOF 1
ENDMDL
