MODEL 1
REMARK minimizedAffinity -2.23226357
REMARK minimizedRMSD -1
REMARK  1 active torsions:
REMARK  status: ('A' for Active; 'I' for Inactive)
REMARK    1  A    between atoms: C3_4  and  O_7 
ROOT
ATOM      1  C   UNL d   1       2.063   0.195  -1.282  0.00  0.00    -0.033 A 
ATOM      2  C1  UNL d   1       1.382   1.364  -0.936  0.00  0.00     0.039 A 
ATOM      3  C2  UNL d   1       0.186   1.291  -0.220  0.00  0.00    -0.080 A 
ATOM      4  C3  UNL d   1      -0.317   0.045   0.145  0.00  0.00     0.150 A 
ATOM      5  C4  UNL d   1       0.358  -1.123  -0.193  0.00  0.00    -0.007 A 
ATOM      6  C5  UNL d   1       1.552  -1.048  -0.909  0.00  0.00     0.039 A 
ENDROOT
BRANCH   4   7
ATOM      7  O   UNL d   1      -1.484  -0.077   0.840  0.00  0.00    -0.526 OA
ATOM      8  H5  UNL d   1      -1.854   0.811   0.978  0.00  0.00     0.418 HD
ENDBRANCH   4   7
TORSDOF 1
ENDMDL
