MODEL 1
REMARK minimizedAffinity -2.6539259
REMARK minimizedRMSD -1
REMARK  1 active torsions:
REMARK  status: ('A' for Active; 'I' for Inactive)
REMARK    1  A    between atoms: C3_4  and  O_7 
ROOT
ATOM      1  C   UNL d   1      -0.605   0.323   1.177  0.00  0.00    -0.033 A 
ATOM      2  C1  UNL d   1       0.740   0.686   1.272  0.00  0.00     0.039 A 
ATOM      3  C2  UNL d   1       1.399   1.224   0.166  0.00  0.00    -0.080 A 
ATOM      4  C3  UNL d   1       0.703   1.396  -1.028  0.00  0.00     0.150 A 
ATOM      5  C4  UNL d   1      -0.638   1.040  -1.128  0.00  0.00    -0.007 A 
ATOM      6  C5  UNL d   1      -1.294   0.501  -0.022  0.00  0.00     0.039 A 
ENDROOT
BRANCH   4   7
ATOM      7  O   UNL d   1       1.305   1.914  -2.136  0.00  0.00    -0.526 OA
ATOM      8  H5  UNL d   1       2.239   2.086  -1.927  0.00  0.00     0.418 HD
ENDBRANCH   4   7
TORSDOF 1
ENDMDL
