MODEL 1
REMARK minimizedAffinity -3.52923417
REMARK minimizedRMSD -1
REMARK  1 active torsions:
REMARK  status: ('A' for Active; 'I' for Inactive)
REMARK    1  A    between atoms: C3_4  and  O_7 
ROOT
ATOM      1  C   UNL d   1      -0.703  -0.530   0.574  0.00  0.00    -0.033 A 
ATOM      2  C1  UNL d   1      -0.156  -1.674  -0.010  0.00  0.00     0.039 A 
ATOM      3  C2  UNL d   1       0.683  -1.560  -1.121  0.00  0.00    -0.080 A 
ATOM      4  C3  UNL d   1       0.967  -0.298  -1.636  0.00  0.00     0.150 A 
ATOM      5  C4  UNL d   1       0.428   0.846  -1.056  0.00  0.00    -0.007 A 
ATOM      6  C5  UNL d   1      -0.410   0.730   0.052  0.00  0.00     0.039 A 
ENDROOT
BRANCH   4   7
ATOM      7  O   UNL d   1       1.776  -0.137  -2.721  0.00  0.00    -0.526 OA
ATOM      8  H5  UNL d   1       2.052  -1.015  -3.032  0.00  0.00     0.418 HD
ENDBRANCH   4   7
TORSDOF 1
ENDMDL
