MODEL 1
REMARK minimizedAffinity -4.36461592
REMARK minimizedRMSD -1
REMARK  1 active torsions:
REMARK  status: ('A' for Active; 'I' for Inactive)
REMARK    1  A    between atoms: C3_4  and  O_7 
ROOT
ATOM      1  C   UNL d   1      -0.060   1.064  -0.210  0.00  0.00    -0.033 A 
ATOM      2  C1  UNL d   1       1.267   1.449  -0.408  0.00  0.00     0.039 A 
ATOM      3  C2  UNL d   1       1.958   1.021  -1.544  0.00  0.00    -0.080 A 
ATOM      4  C3  UNL d   1       1.311   0.211  -2.472  0.00  0.00     0.150 A 
ATOM      5  C4  UNL d   1      -0.013  -0.173  -2.283  0.00  0.00    -0.007 A 
ATOM      6  C5  UNL d   1      -0.701   0.254  -1.148  0.00  0.00     0.039 A 
ENDROOT
BRANCH   4   7
ATOM      7  O   UNL d   1       1.946  -0.235  -3.593  0.00  0.00    -0.526 OA
ATOM      8  H5  UNL d   1       2.863   0.086  -3.576  0.00  0.00     0.418 HD
ENDBRANCH   4   7
TORSDOF 1
ENDMDL
