MODEL 1
REMARK minimizedAffinity -4.73151588
REMARK minimizedRMSD -1
REMARK  1 active torsions:
REMARK  status: ('A' for Active; 'I' for Inactive)
REMARK    1  A    between atoms: C3_4  and  O_7 
ROOT
ATOM      1  C   UNL d   1       1.559  -0.189  -2.401  0.00  0.00    -0.033 A 
ATOM      2  C1  UNL d   1       1.266   1.055  -1.839  0.00  0.00     0.039 A 
ATOM      3  C2  UNL d   1       0.369   1.148  -0.774  0.00  0.00    -0.080 A 
ATOM      4  C3  UNL d   1      -0.228  -0.009  -0.280  0.00  0.00     0.150 A 
ATOM      5  C4  UNL d   1       0.062  -1.252  -0.833  0.00  0.00    -0.007 A 
ATOM      6  C5  UNL d   1       0.958  -1.343  -1.897  0.00  0.00     0.039 A 
ENDROOT
BRANCH   4   7
ATOM      7  O   UNL d   1      -1.114   0.032   0.755  0.00  0.00    -0.526 OA
ATOM      8  H5  UNL d   1      -1.239   0.960   1.016  0.00  0.00     0.418 HD
ENDBRANCH   4   7
TORSDOF 1
ENDMDL
