MODEL 1
REMARK minimizedAffinity -2.44304204
REMARK minimizedRMSD -1
REMARK  1 active torsions:
REMARK  status: ('A' for Active; 'I' for Inactive)
REMARK    1  A    between atoms: C3_4  and  O_7 
ROOT
ATOM      1  C   UNL d   1       0.072  -1.939  -0.004  0.00  0.00    -0.033 A 
ATOM      2  C1  UNL d   1      -0.206  -1.290  -1.208  0.00  0.00     0.039 A 
ATOM      3  C2  UNL d   1      -0.730   0.005  -1.200  0.00  0.00    -0.080 A 
ATOM      4  C3  UNL d   1      -0.970   0.637   0.016  0.00  0.00     0.150 A 
ATOM      5  C4  UNL d   1      -0.692  -0.002   1.220  0.00  0.00    -0.007 A 
ATOM      6  C5  UNL d   1      -0.170  -1.295   1.210  0.00  0.00     0.039 A 
ENDROOT
BRANCH   4   7
ATOM      7  O   UNL d   1      -1.485   1.898   0.074  0.00  0.00    -0.526 OA
ATOM      8  H5  UNL d   1      -1.654   2.204  -0.833  0.00  0.00     0.418 HD
ENDBRANCH   4   7
TORSDOF 1
ENDMDL
