MODEL 1
REMARK minimizedAffinity -1.60259426
REMARK minimizedRMSD -1
REMARK  1 active torsions:
REMARK  status: ('A' for Active; 'I' for Inactive)
REMARK    1  A    between atoms: C3_4  and  O_7 
ROOT
ATOM      1  C   UNL d   1       0.821   1.521  -0.655  0.00  0.00    -0.033 A 
ATOM      2  C1  UNL d   1       1.907   1.102  -1.427  0.00  0.00     0.039 A 
ATOM      3  C2  UNL d   1       2.170  -0.260  -1.583  0.00  0.00    -0.080 A 
ATOM      4  C3  UNL d   1       1.342  -1.192  -0.964  0.00  0.00     0.150 A 
ATOM      5  C4  UNL d   1       0.257  -0.782  -0.197  0.00  0.00    -0.007 A 
ATOM      6  C5  UNL d   1      -0.005   0.579  -0.041  0.00  0.00     0.039 A 
ENDROOT
BRANCH   4   7
ATOM      7  O   UNL d   1       1.562  -2.532  -1.083  0.00  0.00    -0.526 OA
ATOM      8  H5  UNL d   1       2.363  -2.665  -1.618  0.00  0.00     0.418 HD
ENDBRANCH   4   7
TORSDOF 1
ENDMDL
