MODEL 1
REMARK minimizedAffinity -4.34979486
REMARK minimizedRMSD -1
REMARK  1 active torsions:
REMARK  status: ('A' for Active; 'I' for Inactive)
REMARK    1  A    between atoms: C3_4  and  O_7 
ROOT
ATOM      1  C   UNL d   1       0.712   1.013  -0.169  0.00  0.00    -0.033 A 
ATOM      2  C1  UNL d   1       0.283  -0.092   0.568  0.00  0.00     0.039 A 
ATOM      3  C2  UNL d   1       0.703  -1.376   0.213  0.00  0.00    -0.080 A 
ATOM      4  C3  UNL d   1       1.551  -1.540  -0.879  0.00  0.00     0.150 A 
ATOM      5  C4  UNL d   1       1.984  -0.443  -1.616  0.00  0.00    -0.007 A 
ATOM      6  C5  UNL d   1       1.563   0.838  -1.261  0.00  0.00     0.039 A 
ENDROOT
BRANCH   4   7
ATOM      7  O   UNL d   1       1.983  -2.773  -1.266  0.00  0.00    -0.526 OA
ATOM      8  H5  UNL d   1       1.580  -3.438  -0.683  0.00  0.00     0.418 HD
ENDBRANCH   4   7
TORSDOF 1
ENDMDL
