MODEL 1
REMARK minimizedAffinity -1.60686505
REMARK minimizedRMSD -1
REMARK  1 active torsions:
REMARK  status: ('A' for Active; 'I' for Inactive)
REMARK    1  A    between atoms: C3_4  and  O_7 
ROOT
ATOM      1  C   UNL d   1       1.066   0.357  -0.439  0.00  0.00    -0.033 A 
ATOM      2  C1  UNL d   1       0.596  -0.856   0.068  0.00  0.00     0.039 A 
ATOM      3  C2  UNL d   1      -0.594  -0.895   0.797  0.00  0.00    -0.080 A 
ATOM      4  C3  UNL d   1      -1.304   0.284   1.011  0.00  0.00     0.150 A 
ATOM      5  C4  UNL d   1      -0.843   1.495   0.506  0.00  0.00    -0.007 A 
ATOM      6  C5  UNL d   1       0.346   1.532  -0.221  0.00  0.00     0.039 A 
ENDROOT
BRANCH   4   7
ATOM      7  O   UNL d   1      -2.468   0.296   1.721  0.00  0.00    -0.526 OA
ATOM      8  H5  UNL d   1      -2.648  -0.607   2.032  0.00  0.00     0.418 HD
ENDBRANCH   4   7
TORSDOF 1
ENDMDL
