MODEL 1
REMARK minimizedAffinity -1.4864198
REMARK minimizedRMSD -1
REMARK  1 active torsions:
REMARK  status: ('A' for Active; 'I' for Inactive)
REMARK    1  A    between atoms: C3_4  and  O_7 
ROOT
ATOM      1  C   UNL d   1       2.446  -0.893  -1.836  0.00  0.00    -0.033 A 
ATOM      2  C1  UNL d   1       1.785  -2.002  -1.305  0.00  0.00     0.039 A 
ATOM      3  C2  UNL d   1       0.700  -1.825  -0.444  0.00  0.00    -0.080 A 
ATOM      4  C3  UNL d   1       0.287  -0.535  -0.123  0.00  0.00     0.150 A 
ATOM      5  C4  UNL d   1       0.939   0.575  -0.651  0.00  0.00    -0.007 A 
ATOM      6  C5  UNL d   1       2.022   0.395  -1.510  0.00  0.00     0.039 A 
ENDROOT
BRANCH   4   7
ATOM      7  O   UNL d   1      -0.763  -0.311   0.718  0.00  0.00    -0.526 OA
ATOM      8  H5  UNL d   1      -1.097  -1.169   1.028  0.00  0.00     0.418 HD
ENDBRANCH   4   7
TORSDOF 1
ENDMDL
