MODEL 1
REMARK minimizedAffinity -1.79915953
REMARK minimizedRMSD -1
REMARK  1 active torsions:
REMARK  status: ('A' for Active; 'I' for Inactive)
REMARK    1  A    between atoms: C3_4  and  O_7 
ROOT
ATOM      1  C   UNL d   1       0.501  -1.170  -1.720  0.00  0.00    -0.033 A 
ATOM      2  C1  UNL d   1       0.024   0.129  -1.535  0.00  0.00     0.039 A 
ATOM      3  C2  UNL d   1      -0.445   0.531  -0.283  0.00  0.00    -0.080 A 
ATOM      4  C3  UNL d   1      -0.432  -0.375   0.774  0.00  0.00     0.150 A 
ATOM      5  C4  UNL d   1       0.045  -1.670   0.598  0.00  0.00    -0.007 A 
ATOM      6  C5  UNL d   1       0.513  -2.069  -0.653  0.00  0.00     0.039 A 
ENDROOT
BRANCH   4   7
ATOM      7  O   UNL d   1      -0.885  -0.031   2.013  0.00  0.00    -0.526 OA
ATOM      8  H5  UNL d   1      -1.210   0.884   1.979  0.00  0.00     0.418 HD
ENDBRANCH   4   7
TORSDOF 1
ENDMDL
