MODEL 1
REMARK minimizedAffinity -0.869980752
REMARK minimizedRMSD -1
REMARK  1 active torsions:
REMARK  status: ('A' for Active; 'I' for Inactive)
REMARK    1  A    between atoms: C3_4  and  O_7 
ROOT
ATOM      1  C   UNL d   1      -3.526   1.037   1.700  0.00  0.00    -0.033 A 
ATOM      2  C1  UNL d   1      -3.514   0.662   0.355  0.00  0.00     0.039 A 
ATOM      3  C2  UNL d   1      -2.357   0.122  -0.211  0.00  0.00    -0.080 A 
ATOM      4  C3  UNL d   1      -1.221  -0.037   0.578  0.00  0.00     0.150 A 
ATOM      5  C4  UNL d   1      -1.227   0.331   1.919  0.00  0.00    -0.007 A 
ATOM      6  C5  UNL d   1      -2.383   0.870   2.482  0.00  0.00     0.039 A 
ENDROOT
BRANCH   4   7
ATOM      7  O   UNL d   1      -0.067  -0.555   0.068  0.00  0.00    -0.526 OA
ATOM      8  H5  UNL d   1      -0.202  -0.737  -0.877  0.00  0.00     0.418 HD
ENDBRANCH   4   7
TORSDOF 1
ENDMDL
