MODEL 1
REMARK minimizedAffinity -3.27239013
REMARK minimizedRMSD -1
REMARK  1 active torsions:
REMARK  status: ('A' for Active; 'I' for Inactive)
REMARK    1  A    between atoms: C3_4  and  O_7 
ROOT
ATOM      1  C   UNL d   1      -0.134   0.655  -0.401  0.00  0.00    -0.033 A 
ATOM      2  C1  UNL d   1      -1.152   1.572  -0.665  0.00  0.00     0.039 A 
ATOM      3  C2  UNL d   1      -2.335   1.538   0.076  0.00  0.00    -0.080 A 
ATOM      4  C3  UNL d   1      -2.486   0.584   1.078  0.00  0.00     0.150 A 
ATOM      5  C4  UNL d   1      -1.473  -0.331   1.350  0.00  0.00    -0.007 A 
ATOM      6  C5  UNL d   1      -0.293  -0.296   0.608  0.00  0.00     0.039 A 
ENDROOT
BRANCH   4   7
ATOM      7  O   UNL d   1      -3.624   0.508   1.825  0.00  0.00    -0.526 OA
ATOM      8  H5  UNL d   1      -4.246   1.183   1.507  0.00  0.00     0.418 HD
ENDBRANCH   4   7
TORSDOF 1
ENDMDL
