MODEL 1
REMARK minimizedAffinity -2.93835592
REMARK minimizedRMSD -1
REMARK  1 active torsions:
REMARK  status: ('A' for Active; 'I' for Inactive)
REMARK    1  A    between atoms: C3_4  and  O_7 
ROOT
ATOM      1  C   UNL d   1       1.720   1.296  -1.258  0.00  0.00    -0.033 A 
ATOM      2  C1  UNL d   1       1.405  -0.053  -1.089  0.00  0.00     0.039 A 
ATOM      3  C2  UNL d   1       0.276  -0.422  -0.355  0.00  0.00    -0.080 A 
ATOM      4  C3  UNL d   1      -0.530   0.566   0.202  0.00  0.00     0.150 A 
ATOM      5  C4  UNL d   1      -0.225   1.913   0.034  0.00  0.00    -0.007 A 
ATOM      6  C5  UNL d   1       0.904   2.280  -0.698  0.00  0.00     0.039 A 
ENDROOT
BRANCH   4   7
ATOM      7  O   UNL d   1      -1.639   0.255   0.931  0.00  0.00    -0.526 OA
ATOM      8  H5  UNL d   1      -1.708  -0.713   0.987  0.00  0.00     0.418 HD
ENDBRANCH   4   7
TORSDOF 1
ENDMDL
