MODEL 1
REMARK minimizedAffinity 12.3113317
REMARK minimizedRMSD -1
REMARK  3 active torsions:
REMARK  status: ('A' for Active; 'I' for Inactive)
REMARK    1  A    between atoms: C3'_2  and  C2'_3 
REMARK    2  A    between atoms: C2'_3  and  C1'_4 
REMARK    3  A    between atoms: C1'_4  and  C1_5 
ROOT
ATOM      1  C1  N4B d   1       3.096   3.606  -3.071  0.00  0.00    -0.075 A 
ATOM      2  C2  N4B d   1       3.294   3.171  -4.399  0.00  0.00     0.002 A 
ATOM      3  C3  N4B d   1       4.474   3.448  -5.044  0.00  0.00     0.002 A 
ATOM      4  C4  N4B d   1       5.460   4.172  -4.389  0.00  0.00    -0.004 A 
ATOM      5  C5  N4B d   1       5.270   4.567  -3.097  0.00  0.00     0.002 A 
ATOM      6  C6  N4B d   1       4.090   4.292  -2.436  0.00  0.00     0.002 A 
ENDROOT
BRANCH   1   7
ATOM      7  C1' N4B d   1       1.788   3.402  -2.354  0.00  0.00     0.057 C 
BRANCH   7   8
ATOM      8  C2' N4B d   1       1.691   1.950  -1.895  0.00  0.00     0.009 C 
BRANCH   8   9
ATOM      9  C3' N4B d   1       1.541   1.841  -0.387  0.00  0.00     0.004 C 
ATOM     10  C4' N4B d   1       2.853   1.658   0.316  0.00  0.00     0.003 C 
ENDBRANCH   8   9
ENDBRANCH   7   8
ENDBRANCH   1   7
TORSDOF 3
ENDMDL
