MODEL 1
REMARK minimizedAffinity 10.1942511
REMARK minimizedRMSD -1
REMARK  3 active torsions:
REMARK  status: ('A' for Active; 'I' for Inactive)
REMARK    1  A    between atoms: C3'_2  and  C2'_3 
REMARK    2  A    between atoms: C2'_3  and  C1'_4 
REMARK    3  A    between atoms: C1'_4  and  C1_5 
ROOT
ATOM      1  C1  N4B d   1       1.160   4.194  -2.895  0.00  0.00    -0.075 A 
ATOM      2  C2  N4B d   1       0.217   4.205  -3.946  0.00  0.00     0.002 A 
ATOM      3  C3  N4B d   1      -0.815   5.111  -3.933  0.00  0.00     0.002 A 
ATOM      4  C4  N4B d   1      -0.934   6.000  -2.875  0.00  0.00    -0.004 A 
ATOM      5  C5  N4B d   1      -0.004   6.000  -1.877  0.00  0.00     0.002 A 
ATOM      6  C6  N4B d   1       1.040   5.097  -1.879  0.00  0.00     0.002 A 
ENDROOT
BRANCH   1   7
ATOM      7  C1' N4B d   1       2.256   3.166  -2.822  0.00  0.00     0.057 C 
BRANCH   7   8
ATOM      8  C2' N4B d   1       1.848   2.068  -1.844  0.00  0.00     0.009 C 
BRANCH   8   9
ATOM      9  C3' N4B d   1       2.888   1.860  -0.757  0.00  0.00     0.004 C 
ATOM     10  C4' N4B d   1       2.298   1.868   0.622  0.00  0.00     0.003 C 
ENDBRANCH   8   9
ENDBRANCH   7   8
ENDBRANCH   1   7
TORSDOF 3
ENDMDL
