MODEL 1
REMARK minimizedAffinity 9.78534698
REMARK minimizedRMSD -1
REMARK  3 active torsions:
REMARK  status: ('A' for Active; 'I' for Inactive)
REMARK    1  A    between atoms: C3'_2  and  C2'_3 
REMARK    2  A    between atoms: C2'_3  and  C1'_4 
REMARK    3  A    between atoms: C1'_4  and  C1_5 
ROOT
ATOM      1  C1  N4B d   1       4.761   4.925  -2.391  0.00  0.00    -0.075 A 
ATOM      2  C2  N4B d   1       3.645   4.100  -2.651  0.00  0.00     0.002 A 
ATOM      3  C3  N4B d   1       3.604   3.342  -3.796  0.00  0.00     0.002 A 
ATOM      4  C4  N4B d   1       4.654   3.407  -4.700  0.00  0.00    -0.004 A 
ATOM      5  C5  N4B d   1       5.739   4.187  -4.429  0.00  0.00     0.002 A 
ATOM      6  C6  N4B d   1       5.796   4.951  -3.280  0.00  0.00     0.002 A 
ENDROOT
BRANCH   1   7
ATOM      7  C1' N4B d   1       4.813   5.836  -1.195  0.00  0.00     0.057 C 
BRANCH   7   8
ATOM      8  C2' N4B d   1       5.999   5.446  -0.319  0.00  0.00     0.009 C 
BRANCH   8   9
ATOM      9  C3' N4B d   1       5.999   3.963   0.010  0.00  0.00     0.004 C 
ATOM     10  C4' N4B d   1       5.729   3.689   1.460  0.00  0.00     0.003 C 
ENDBRANCH   8   9
ENDBRANCH   7   8
ENDBRANCH   1   7
TORSDOF 3
ENDMDL
