MODEL 1
REMARK minimizedAffinity 21.9391308
REMARK minimizedRMSD -1
REMARK  3 active torsions:
REMARK  status: ('A' for Active; 'I' for Inactive)
REMARK    1  A    between atoms: C3'_2  and  C2'_3 
REMARK    2  A    between atoms: C2'_3  and  C1'_4 
REMARK    3  A    between atoms: C1'_4  and  C1_5 
ROOT
ATOM      1  C1  N4B d   1      -0.342   5.023  -3.794  0.00  0.00    -0.075 A 
ATOM      2  C2  N4B d   1      -1.598   5.417  -3.284  0.00  0.00     0.002 A 
ATOM      3  C3  N4B d   1      -2.618   5.739  -4.146  0.00  0.00     0.002 A 
ATOM      4  C4  N4B d   1      -2.400   5.693  -5.515  0.00  0.00    -0.004 A 
ATOM      5  C5  N4B d   1      -1.191   5.287  -5.999  0.00  0.00     0.002 A 
ATOM      6  C6  N4B d   1      -0.158   4.956  -5.145  0.00  0.00     0.002 A 
ENDROOT
BRANCH   1   7
ATOM      7  C1' N4B d   1       0.829   4.744  -2.892  0.00  0.00     0.057 C 
BRANCH   7   8
ATOM      8  C2' N4B d   1       1.392   3.363  -3.215  0.00  0.00     0.009 C 
BRANCH   8   9
ATOM      9  C3' N4B d   1       2.900   3.309  -3.040  0.00  0.00     0.004 C 
ATOM     10  C4' N4B d   1       3.628   3.110  -4.336  0.00  0.00     0.003 C 
ENDBRANCH   8   9
ENDBRANCH   7   8
ENDBRANCH   1   7
TORSDOF 3
ENDMDL
