MODEL 1
REMARK minimizedAffinity 12.8070021
REMARK minimizedRMSD -1
REMARK  3 active torsions:
REMARK  status: ('A' for Active; 'I' for Inactive)
REMARK    1  A    between atoms: C3'_2  and  C2'_3 
REMARK    2  A    between atoms: C2'_3  and  C1'_4 
REMARK    3  A    between atoms: C1'_4  and  C1_5 
ROOT
ATOM      1  C1  N4B d   1      -1.754  -0.066   2.136  0.00  0.00    -0.075 A 
ATOM      2  C2  N4B d   1      -2.629   0.974   2.519  0.00  0.00     0.002 A 
ATOM      3  C3  N4B d   1      -3.969   0.884   2.232  0.00  0.00     0.002 A 
ATOM      4  C4  N4B d   1      -4.452  -0.222   1.549  0.00  0.00    -0.004 A 
ATOM      5  C5  N4B d   1      -3.604  -1.234   1.205  0.00  0.00     0.002 A 
ATOM      6  C6  N4B d   1      -2.255  -1.159   1.491  0.00  0.00     0.002 A 
ENDROOT
BRANCH   1   7
ATOM      7  C1' N4B d   1      -0.268   0.027   2.352  0.00  0.00     0.057 C 
BRANCH   7   8
ATOM      8  C2' N4B d   1       0.303  -1.379   2.511  0.00  0.00     0.009 C 
BRANCH   8   9
ATOM      9  C3' N4B d   1       1.784  -1.356   2.852  0.00  0.00     0.004 C 
ATOM     10  C4' N4B d   1       2.198  -2.507   3.719  0.00  0.00     0.003 C 
ENDBRANCH   8   9
ENDBRANCH   7   8
ENDBRANCH   1   7
TORSDOF 3
ENDMDL
