MODEL 1
REMARK minimizedAffinity 12.8985739
REMARK minimizedRMSD -1
REMARK  3 active torsions:
REMARK  status: ('A' for Active; 'I' for Inactive)
REMARK    1  A    between atoms: C3'_2  and  C2'_3 
REMARK    2  A    between atoms: C2'_3  and  C1'_4 
REMARK    3  A    between atoms: C1'_4  and  C1_5 
ROOT
ATOM      1  C1  N4B d   1      -4.100  -0.010   1.770  0.00  0.00    -0.075 A 
ATOM      2  C2  N4B d   1      -3.033  -0.933   1.705  0.00  0.00     0.002 A 
ATOM      3  C3  N4B d   1      -1.876  -0.695   2.406  0.00  0.00     0.002 A 
ATOM      4  C4  N4B d   1      -1.757   0.462   3.161  0.00  0.00    -0.004 A 
ATOM      5  C5  N4B d   1      -2.802   1.336   3.239  0.00  0.00     0.002 A 
ATOM      6  C6  N4B d   1      -3.972   1.108   2.542  0.00  0.00     0.002 A 
ENDROOT
BRANCH   1   7
ATOM      7  C1' N4B d   1      -5.351  -0.184   0.953  0.00  0.00     0.057 C 
BRANCH   7   8
ATOM      8  C2' N4B d   1      -5.269   0.705  -0.285  0.00  0.00     0.009 C 
BRANCH   8   9
ATOM      9  C3' N4B d   1      -5.824   2.095  -0.024  0.00  0.00     0.004 C 
ATOM     10  C4' N4B d   1      -5.099   3.162  -0.788  0.00  0.00     0.003 C 
ENDBRANCH   8   9
ENDBRANCH   7   8
ENDBRANCH   1   7
TORSDOF 3
ENDMDL
