MODEL 1
REMARK minimizedAffinity 4.14923954
REMARK minimizedRMSD -1
REMARK  3 active torsions:
REMARK  status: ('A' for Active; 'I' for Inactive)
REMARK    1  A    between atoms: C3'_2  and  C2'_3 
REMARK    2  A    between atoms: C2'_3  and  C1'_4 
REMARK    3  A    between atoms: C1'_4  and  C1_5 
ROOT
ATOM      1  C1  N4B d   1      -1.271  -0.506   3.177  0.00  0.00    -0.075 A 
ATOM      2  C2  N4B d   1      -1.529  -1.541   2.251  0.00  0.00     0.002 A 
ATOM      3  C3  N4B d   1      -0.652  -2.591   2.133  0.00  0.00     0.002 A 
ATOM      4  C4  N4B d   1       0.495  -2.618   2.912  0.00  0.00    -0.004 A 
ATOM      5  C5  N4B d   1       0.724  -1.627   3.822  0.00  0.00     0.002 A 
ATOM      6  C6  N4B d   1      -0.150  -0.568   3.954  0.00  0.00     0.002 A 
ENDROOT
BRANCH   1   7
ATOM      7  C1' N4B d   1      -2.156   0.706   3.281  0.00  0.00     0.057 C 
BRANCH   7   8
ATOM      8  C2' N4B d   1      -2.817   0.961   1.930  0.00  0.00     0.009 C 
BRANCH   8   9
ATOM      9  C3' N4B d   1      -4.320   0.746   1.983  0.00  0.00     0.004 C 
ATOM     10  C4' N4B d   1      -4.783  -0.347   1.066  0.00  0.00     0.003 C 
ENDBRANCH   8   9
ENDBRANCH   7   8
ENDBRANCH   1   7
TORSDOF 3
ENDMDL
