MODEL 1
REMARK minimizedAffinity 14.1377888
REMARK minimizedRMSD -1
REMARK  2 active torsions:
REMARK  status: ('A' for Active; 'I' for Inactive)
REMARK    1  A    between atoms: C2'_3  and  C1'_4 
REMARK    2  A    between atoms: C1'_4  and  C1_5 
ROOT
ATOM      1  C1  I4B d   1       2.711  -4.695   1.438  0.00  0.00    -0.075 A 
ATOM      2  C2  I4B d   1       1.536  -5.232   1.902  0.00  0.00     0.003 A 
ATOM      3  C3  I4B d   1       0.456  -4.387   2.253  0.00  0.00     0.002 A 
ATOM      4  C4  I4B d   1       0.610  -3.018   2.172  0.00  0.00    -0.004 A 
ATOM      5  C5  I4B d   1       1.794  -2.476   1.679  0.00  0.00     0.002 A 
ATOM      6  C6  I4B d   1       2.847  -3.320   1.298  0.00  0.00     0.003 A 
ENDROOT
BRANCH   1   7
ATOM      7  C1' I4B d   1       3.843  -5.615   1.108  0.00  0.00     0.060 C 
BRANCH   7   8
ATOM      8  C2' I4B d   1       4.651  -4.981  -0.006  0.00  0.00    -0.013 C 
ATOM      9  C4' I4B d   1       5.987  -4.499   0.495  0.00  0.00     0.013 C 
ATOM     10  C3' I4B d   1       4.816  -5.999  -1.095  0.00  0.00     0.013 C 
ENDBRANCH   7   8
ENDBRANCH   1   7
TORSDOF 2
ENDMDL
