MODEL 1
REMARK minimizedAffinity 5.95662975
REMARK minimizedRMSD -1
REMARK  2 active torsions:
REMARK  status: ('A' for Active; 'I' for Inactive)
REMARK    1  A    between atoms: C2'_3  and  C1'_4 
REMARK    2  A    between atoms: C1'_4  and  C1_5 
ROOT
ATOM      1  C1  I4B d   1       2.978  -4.021   0.879  0.00  0.00    -0.075 A 
ATOM      2  C2  I4B d   1       3.231  -4.882  -0.160  0.00  0.00     0.003 A 
ATOM      3  C3  I4B d   1       4.552  -5.054  -0.638  0.00  0.00     0.002 A 
ATOM      4  C4  I4B d   1       5.577  -4.312  -0.086  0.00  0.00    -0.004 A 
ATOM      5  C5  I4B d   1       5.323  -3.457   0.983  0.00  0.00     0.002 A 
ATOM      6  C6  I4B d   1       4.017  -3.319   1.477  0.00  0.00     0.003 A 
ENDROOT
BRANCH   1   7
ATOM      7  C1' I4B d   1       1.566  -3.838   1.337  0.00  0.00     0.060 C 
BRANCH   7   8
ATOM      8  C2' I4B d   1       1.356  -2.366   1.627  0.00  0.00    -0.013 C 
ATOM      9  C4' I4B d   1       0.721  -1.665   0.455  0.00  0.00     0.013 C 
ATOM     10  C3' I4B d   1       0.500  -2.253   2.853  0.00  0.00     0.013 C 
ENDBRANCH   7   8
ENDBRANCH   1   7
TORSDOF 2
ENDMDL
