MODEL 1
REMARK minimizedAffinity 16.4587212
REMARK minimizedRMSD -1
REMARK  2 active torsions:
REMARK  status: ('A' for Active; 'I' for Inactive)
REMARK    1  A    between atoms: C2'_3  and  C1'_4 
REMARK    2  A    between atoms: C1'_4  and  C1_5 
ROOT
ATOM      1  C1  I4B d   1       1.518   0.647   1.014  0.00  0.00    -0.075 A 
ATOM      2  C2  I4B d   1       1.307  -0.479   1.770  0.00  0.00     0.003 A 
ATOM      3  C3  I4B d   1       1.118  -0.373   3.170  0.00  0.00     0.002 A 
ATOM      4  C4  I4B d   1       1.198   0.865   3.774  0.00  0.00    -0.004 A 
ATOM      5  C5  I4B d   1       1.389   2.008   3.003  0.00  0.00     0.002 A 
ATOM      6  C6  I4B d   1       1.538   1.900   1.612  0.00  0.00     0.003 A 
ENDROOT
BRANCH   1   7
ATOM      7  C1' I4B d   1       1.747   0.495  -0.456  0.00  0.00     0.060 C 
BRANCH   7   8
ATOM      8  C2' I4B d   1       0.451   0.829  -1.167  0.00  0.00    -0.013 C 
ATOM      9  C4' I4B d   1       0.702   1.228  -2.598  0.00  0.00     0.013 C 
ATOM     10  C3' I4B d   1      -0.443  -0.371  -1.088  0.00  0.00     0.013 C 
ENDBRANCH   7   8
ENDBRANCH   1   7
TORSDOF 2
ENDMDL
