MODEL 1
REMARK minimizedAffinity 8.25760651
REMARK minimizedRMSD -1
REMARK  2 active torsions:
REMARK  status: ('A' for Active; 'I' for Inactive)
REMARK    1  A    between atoms: C2'_3  and  C1'_4 
REMARK    2  A    between atoms: C1'_4  and  C1_5 
ROOT
ATOM      1  C1  I4B d   1       2.185  -3.371   1.400  0.00  0.00    -0.075 A 
ATOM      2  C2  I4B d   1       1.299  -2.370   1.710  0.00  0.00     0.003 A 
ATOM      3  C3  I4B d   1       0.154  -2.649   2.496  0.00  0.00     0.002 A 
ATOM      4  C4  I4B d   1      -0.089  -3.943   2.907  0.00  0.00    -0.004 A 
ATOM      5  C5  I4B d   1       0.822  -4.953   2.611  0.00  0.00     0.002 A 
ATOM      6  C6  I4B d   1       1.973  -4.663   1.864  0.00  0.00     0.003 A 
ENDROOT
BRANCH   1   7
ATOM      7  C1' I4B d   1       3.365  -3.049   0.540  0.00  0.00     0.060 C 
BRANCH   7   8
ATOM      8  C2' I4B d   1       4.618  -3.411   1.312  0.00  0.00    -0.013 C 
ATOM      9  C4' I4B d   1       5.369  -4.529   0.639  0.00  0.00     0.013 C 
ATOM     10  C3' I4B d   1       5.466  -2.179   1.423  0.00  0.00     0.013 C 
ENDBRANCH   7   8
ENDBRANCH   1   7
TORSDOF 2
ENDMDL
