MODEL 1
REMARK minimizedAffinity 6.43186855
REMARK minimizedRMSD -1
REMARK  2 active torsions:
REMARK  status: ('A' for Active; 'I' for Inactive)
REMARK    1  A    between atoms: C2'_3  and  C1'_4 
REMARK    2  A    between atoms: C1'_4  and  C1_5 
ROOT
ATOM      1  C1  I4B d   1      -3.225   2.065   3.258  0.00  0.00    -0.075 A 
ATOM      2  C2  I4B d   1      -3.009   0.734   3.004  0.00  0.00     0.003 A 
ATOM      3  C3  I4B d   1      -1.806   0.312   2.387  0.00  0.00     0.002 A 
ATOM      4  C4  I4B d   1      -0.876   1.254   1.997  0.00  0.00    -0.004 A 
ATOM      5  C5  I4B d   1      -1.087   2.601   2.276  0.00  0.00     0.002 A 
ATOM      6  C6  I4B d   1      -2.263   3.009   2.922  0.00  0.00     0.003 A 
ENDROOT
BRANCH   1   7
ATOM      7  C1' I4B d   1      -4.520   2.479   3.882  0.00  0.00     0.060 C 
BRANCH   7   8
ATOM      8  C2' I4B d   1      -4.293   2.632   5.372  0.00  0.00    -0.013 C 
ATOM      9  C4' I4B d   1      -5.276   3.600   5.976  0.00  0.00     0.013 C 
ATOM     10  C3' I4B d   1      -4.413   1.276   6.000  0.00  0.00     0.013 C 
ENDBRANCH   7   8
ENDBRANCH   1   7
TORSDOF 2
ENDMDL
