MODEL 1
REMARK minimizedAffinity -6.41079855
REMARK minimizedRMSD -1
REMARK  2 active torsions:
REMARK  status: ('A' for Active; 'I' for Inactive)
REMARK    1  A    between atoms: C2'_3  and  C1'_4 
REMARK    2  A    between atoms: C1'_4  and  C1_5 
ROOT
ATOM      1  C1  I4B d   1      -1.305   0.902   2.171  0.00  0.00    -0.075 A 
ATOM      2  C2  I4B d   1      -1.830  -0.232   1.604  0.00  0.00     0.003 A 
ATOM      3  C3  I4B d   1      -1.043  -1.023   0.732  0.00  0.00     0.002 A 
ATOM      4  C4  I4B d   1       0.238  -0.618   0.417  0.00  0.00    -0.004 A 
ATOM      5  C5  I4B d   1       0.776   0.520   1.011  0.00  0.00     0.002 A 
ATOM      6  C6  I4B d   1       0.004   1.279   1.903  0.00  0.00     0.003 A 
ENDROOT
BRANCH   1   7
ATOM      7  C1' I4B d   1      -2.175   1.732   3.061  0.00  0.00     0.060 C 
BRANCH   7   8
ATOM      8  C2' I4B d   1      -3.578   1.163   3.005  0.00  0.00    -0.013 C 
ATOM      9  C4' I4B d   1      -3.581  -0.311   3.313  0.00  0.00     0.013 C 
ATOM     10  C3' I4B d   1      -4.425   1.922   3.983  0.00  0.00     0.013 C 
ENDBRANCH   7   8
ENDBRANCH   1   7
TORSDOF 2
ENDMDL
