MODEL 1
REMARK minimizedAffinity -0.0143391481
REMARK minimizedRMSD -1
REMARK  2 active torsions:
REMARK  status: ('A' for Active; 'I' for Inactive)
REMARK    1  A    between atoms: C2'_3  and  C1'_4 
REMARK    2  A    between atoms: C1'_4  and  C1_5 
ROOT
ATOM      1  C1  I4B d   1      -1.829   0.849   1.863  0.00  0.00    -0.075 A 
ATOM      2  C2  I4B d   1      -2.722   1.631   2.552  0.00  0.00     0.003 A 
ATOM      3  C3  I4B d   1      -3.610   1.045   3.486  0.00  0.00     0.002 A 
ATOM      4  C4  I4B d   1      -3.605  -0.324   3.662  0.00  0.00    -0.004 A 
ATOM      5  C5  I4B d   1      -2.684  -1.112   2.979  0.00  0.00     0.002 A 
ATOM      6  C6  I4B d   1      -1.781  -0.521   2.083  0.00  0.00     0.003 A 
ENDROOT
BRANCH   1   7
ATOM      7  C1' I4B d   1      -0.928   1.497   0.860  0.00  0.00     0.060 C 
BRANCH   7   8
ATOM      8  C2' I4B d   1       0.459   1.583   1.464  0.00  0.00    -0.013 C 
ATOM      9  C4' I4B d   1       0.489   0.983   2.845  0.00  0.00     0.013 C 
ATOM     10  C3' I4B d   1       1.410   0.876   0.545  0.00  0.00     0.013 C 
ENDBRANCH   7   8
ENDBRANCH   1   7
TORSDOF 2
ENDMDL
