MODEL 1
REMARK minimizedAffinity -2.94171381
REMARK minimizedRMSD -1
REMARK  2 active torsions:
REMARK  status: ('A' for Active; 'I' for Inactive)
REMARK    1  A    between atoms: C2'_3  and  C1'_4 
REMARK    2  A    between atoms: C1'_4  and  C1_5 
ROOT
ATOM      1  C1  I4B d   1      -1.457   2.219   2.791  0.00  0.00    -0.075 A 
ATOM      2  C2  I4B d   1      -1.439   3.243   1.877  0.00  0.00     0.003 A 
ATOM      3  C3  I4B d   1      -0.673   3.127   0.692  0.00  0.00     0.002 A 
ATOM      4  C4  I4B d   1       0.095   1.998   0.487  0.00  0.00    -0.004 A 
ATOM      5  C5  I4B d   1       0.057   0.952   1.404  0.00  0.00     0.002 A 
ATOM      6  C6  I4B d   1      -0.733   1.057   2.557  0.00  0.00     0.003 A 
ENDROOT
BRANCH   1   7
ATOM      7  C1' I4B d   1      -2.251   2.389   4.047  0.00  0.00     0.060 C 
BRANCH   7   8
ATOM      8  C2' I4B d   1      -3.626   1.796   3.814  0.00  0.00    -0.013 C 
ATOM      9  C4' I4B d   1      -3.546   0.311   3.576  0.00  0.00     0.013 C 
ATOM     10  C3' I4B d   1      -4.474   2.107   5.011  0.00  0.00     0.013 C 
ENDBRANCH   7   8
ENDBRANCH   1   7
TORSDOF 2
ENDMDL
