MODEL 1
REMARK minimizedAffinity -1.02808869
REMARK minimizedRMSD -1
REMARK  2 active torsions:
REMARK  status: ('A' for Active; 'I' for Inactive)
REMARK    1  A    between atoms: C2'_3  and  C1'_4 
REMARK    2  A    between atoms: C1'_4  and  C1_5 
ROOT
ATOM      1  C1  I4B d   1      -0.357   0.839   1.744  0.00  0.00    -0.075 A 
ATOM      2  C2  I4B d   1       0.370  -0.214   2.239  0.00  0.00     0.003 A 
ATOM      3  C3  I4B d   1       1.681  -0.462   1.764  0.00  0.00     0.002 A 
ATOM      4  C4  I4B d   1       2.203   0.333   0.764  0.00  0.00    -0.004 A 
ATOM      5  C5  I4B d   1       1.473   1.415   0.279  0.00  0.00     0.002 A 
ATOM      6  C6  I4B d   1       0.190   1.677   0.781  0.00  0.00     0.003 A 
ENDROOT
BRANCH   1   7
ATOM      7  C1' I4B d   1      -1.750   1.052   2.245  0.00  0.00     0.060 C 
BRANCH   7   8
ATOM      8  C2' I4B d   1      -1.819   2.436   2.859  0.00  0.00    -0.013 C 
ATOM      9  C4' I4B d   1      -1.706   3.506   1.805  0.00  0.00     0.013 C 
ATOM     10  C3' I4B d   1      -3.115   2.546   3.606  0.00  0.00     0.013 C 
ENDBRANCH   7   8
ENDBRANCH   1   7
TORSDOF 2
ENDMDL
