MODEL 1
REMARK minimizedAffinity -0.0480401367
REMARK minimizedRMSD -1
REMARK  2 active torsions:
REMARK  status: ('A' for Active; 'I' for Inactive)
REMARK    1  A    between atoms: C2'_3  and  C1'_4 
REMARK    2  A    between atoms: C1'_4  and  C1_5 
ROOT
ATOM      1  C1  I4B d   1      -1.005   1.502   1.887  0.00  0.00    -0.075 A 
ATOM      2  C2  I4B d   1      -1.546   2.545   2.596  0.00  0.00     0.003 A 
ATOM      3  C3  I4B d   1      -2.667   2.332   3.434  0.00  0.00     0.002 A 
ATOM      4  C4  I4B d   1      -3.242   1.079   3.494  0.00  0.00    -0.004 A 
ATOM      5  C5  I4B d   1      -2.678   0.017   2.792  0.00  0.00     0.002 A 
ATOM      6  C6  I4B d   1      -1.545   0.227   1.993  0.00  0.00     0.003 A 
ENDROOT
BRANCH   1   7
ATOM      7  C1' I4B d   1       0.159   1.770   0.986  0.00  0.00     0.060 C 
BRANCH   7   8
ATOM      8  C2' I4B d   1       0.641   0.442   0.439  0.00  0.00    -0.013 C 
ATOM      9  C4' I4B d   1       1.775   0.633  -0.533  0.00  0.00     0.013 C 
ATOM     10  C3' I4B d   1       1.059  -0.412   1.598  0.00  0.00     0.013 C 
ENDBRANCH   7   8
ENDBRANCH   1   7
TORSDOF 2
ENDMDL
