MODEL 1
REMARK minimizedAffinity -1.03500593
REMARK minimizedRMSD -1
REMARK  2 active torsions:
REMARK  status: ('A' for Active; 'I' for Inactive)
REMARK    1  A    between atoms: C2'_3  and  C1'_4 
REMARK    2  A    between atoms: C1'_4  and  C1_5 
ROOT
ATOM      1  C1  I4B d   1      -0.906   0.559   1.384  0.00  0.00    -0.075 A 
ATOM      2  C2  I4B d   1       0.001  -0.066   0.566  0.00  0.00     0.003 A 
ATOM      3  C3  I4B d   1       1.280   0.505   0.352  0.00  0.00     0.002 A 
ATOM      4  C4  I4B d   1       1.587   1.719   0.932  0.00  0.00    -0.004 A 
ATOM      5  C5  I4B d   1       0.674   2.340   1.779  0.00  0.00     0.002 A 
ATOM      6  C6  I4B d   1      -0.576   1.751   2.017  0.00  0.00     0.003 A 
ENDROOT
BRANCH   1   7
ATOM      7  C1' I4B d   1      -2.259  -0.055   1.561  0.00  0.00     0.060 C 
BRANCH   7   8
ATOM      8  C2' I4B d   1      -2.692   0.176   2.995  0.00  0.00    -0.013 C 
ATOM      9  C4' I4B d   1      -3.871   1.109   3.065  0.00  0.00     0.013 C 
ATOM     10  C3' I4B d   1      -3.019  -1.157   3.600  0.00  0.00     0.013 C 
ENDBRANCH   7   8
ENDBRANCH   1   7
TORSDOF 2
ENDMDL
