MODEL 1
REMARK minimizedAffinity 1.22776234
REMARK minimizedRMSD -1
REMARK  0 active torsions:
REMARK  status: ('A' for Active; 'I' for Inactive)
ROOT
ATOM      1  C   UNL d   1      -5.988  -3.270   4.913  0.00  0.00     0.172 C 
ATOM      2  N   UNL d   1      -5.439  -2.179   4.143  0.00  0.00    -0.070 N 
ATOM      3  C1  UNL d   1      -4.289  -2.224   3.402  0.00  0.00    -0.004 A 
ATOM      4  C2  UNL d   1      -4.112  -0.987   2.820  0.00  0.00    -0.047 A 
ATOM      5  C3  UNL d   1      -5.193  -0.170   3.227  0.00  0.00    -0.047 A 
ATOM      6  C4  UNL d   1      -6.000  -0.933   4.045  0.00  0.00    -0.004 A 
ENDROOT
TORSDOF 0
ENDMDL
