MODEL 1
REMARK minimizedAffinity -1.7725482
REMARK minimizedRMSD -1
REMARK  0 active torsions:
REMARK  status: ('A' for Active; 'I' for Inactive)
ROOT
ATOM      1  C   UNL d   1      -4.911  -5.906  -5.982  0.00  0.00     0.172 C 
ATOM      2  N   UNL d   1      -3.626  -5.247  -5.986  0.00  0.00    -0.070 N 
ATOM      3  C1  UNL d   1      -2.408  -5.873  -5.998  0.00  0.00    -0.004 A 
ATOM      4  C2  UNL d   1      -1.433  -4.898  -5.998  0.00  0.00    -0.047 A 
ATOM      5  C3  UNL d   1      -2.088  -3.644  -5.985  0.00  0.00    -0.047 A 
ATOM      6  C4  UNL d   1      -3.445  -3.889  -5.978  0.00  0.00    -0.004 A 
ENDROOT
TORSDOF 0
ENDMDL
