MODEL 1
REMARK minimizedAffinity 0.846077681
REMARK minimizedRMSD -1
REMARK  0 active torsions:
REMARK  status: ('A' for Active; 'I' for Inactive)
ROOT
ATOM      1  C   UNL d   1      -3.433   3.858  -3.838  0.00  0.00     0.172 C 
ATOM      2  N   UNL d   1      -2.290   4.485  -3.215  0.00  0.00    -0.070 N 
ATOM      3  C1  UNL d   1      -1.120   4.815  -3.844  0.00  0.00    -0.004 A 
ATOM      4  C2  UNL d   1      -0.287   5.391  -2.909  0.00  0.00    -0.047 A 
ATOM      5  C3  UNL d   1      -0.980   5.407  -1.676  0.00  0.00    -0.047 A 
ATOM      6  C4  UNL d   1      -2.218   4.840  -1.894  0.00  0.00    -0.004 A 
ENDROOT
TORSDOF 0
ENDMDL
