MODEL 1
REMARK minimizedAffinity -0.35478273
REMARK minimizedRMSD -1
REMARK  0 active torsions:
REMARK  status: ('A' for Active; 'I' for Inactive)
ROOT
ATOM      1  C   UNL d   1      -0.307  -3.797  -5.890  0.00  0.00     0.172 C 
ATOM      2  N   UNL d   1      -1.605  -4.430  -5.894  0.00  0.00    -0.070 N 
ATOM      3  C1  UNL d   1      -2.808  -3.784  -5.999  0.00  0.00    -0.004 A 
ATOM      4  C2  UNL d   1      -3.803  -4.737  -5.964  0.00  0.00    -0.047 A 
ATOM      5  C3  UNL d   1      -3.177  -5.999  -5.831  0.00  0.00    -0.047 A 
ATOM      6  C4  UNL d   1      -1.816  -5.780  -5.790  0.00  0.00    -0.004 A 
ENDROOT
TORSDOF 0
ENDMDL
