MODEL 1
REMARK minimizedAffinity 2.04887152
REMARK minimizedRMSD -1
REMARK  0 active torsions:
REMARK  status: ('A' for Active; 'I' for Inactive)
ROOT
ATOM      1  C   UNL d   1       0.014   2.945   0.158  0.00  0.00     0.172 C 
ATOM      2  N   UNL d   1      -0.305   4.008  -0.765  0.00  0.00    -0.070 N 
ATOM      3  C1  UNL d   1      -0.272   3.917  -2.131  0.00  0.00    -0.004 A 
ATOM      4  C2  UNL d   1      -0.642   5.140  -2.645  0.00  0.00    -0.047 A 
ATOM      5  C3  UNL d   1      -0.906   5.997  -1.551  0.00  0.00    -0.047 A 
ATOM      6  C4  UNL d   1      -0.690   5.271  -0.399  0.00  0.00    -0.004 A 
ENDROOT
TORSDOF 0
ENDMDL
