MODEL 1
REMARK minimizedAffinity -2.61961699
REMARK minimizedRMSD -1
REMARK  0 active torsions:
REMARK  status: ('A' for Active; 'I' for Inactive)
ROOT
ATOM      1  C   UNL d   1      -5.473  -5.999  -5.327  0.00  0.00     0.172 C 
ATOM      2  N   UNL d   1      -4.190  -5.353  -5.470  0.00  0.00    -0.070 N 
ATOM      3  C1  UNL d   1      -3.978  -4.108  -6.000  0.00  0.00    -0.004 A 
ATOM      4  C2  UNL d   1      -2.623  -3.857  -5.959  0.00  0.00    -0.047 A 
ATOM      5  C3  UNL d   1      -2.000  -4.991  -5.385  0.00  0.00    -0.047 A 
ATOM      6  C4  UNL d   1      -2.993  -5.902  -5.092  0.00  0.00    -0.004 A 
ENDROOT
TORSDOF 0
ENDMDL
