MODEL 1
REMARK minimizedAffinity 2.94094133
REMARK minimizedRMSD -1
REMARK  0 active torsions:
REMARK  status: ('A' for Active; 'I' for Inactive)
ROOT
ATOM      1  C   UNL d   1      -1.989  -0.856   3.595  0.00  0.00     0.172 C 
ATOM      2  N   UNL d   1      -3.052  -0.727   2.626  0.00  0.00    -0.070 N 
ATOM      3  C1  UNL d   1      -3.974  -1.692   2.319  0.00  0.00    -0.004 A 
ATOM      4  C2  UNL d   1      -4.813  -1.182   1.352  0.00  0.00    -0.047 A 
ATOM      5  C3  UNL d   1      -4.380   0.135   1.067  0.00  0.00    -0.047 A 
ATOM      6  C4  UNL d   1      -3.288   0.391   1.870  0.00  0.00    -0.004 A 
ENDROOT
TORSDOF 0
ENDMDL
