MODEL 1
REMARK minimizedAffinity -2.12017107
REMARK minimizedRMSD -1
REMARK  0 active torsions:
REMARK  status: ('A' for Active; 'I' for Inactive)
ROOT
ATOM      1  C   UNL d   1      -2.677  -0.094   3.485  0.00  0.00     0.172 C 
ATOM      2  N   UNL d   1      -3.296  -0.561   2.267  0.00  0.00    -0.070 N 
ATOM      3  C1  UNL d   1      -4.641  -0.726   2.068  0.00  0.00    -0.004 A 
ATOM      4  C2  UNL d   1      -4.823  -1.185   0.781  0.00  0.00    -0.047 A 
ATOM      5  C3  UNL d   1      -3.544  -1.301   0.188  0.00  0.00    -0.047 A 
ATOM      6  C4  UNL d   1      -2.617  -0.908   1.130  0.00  0.00    -0.004 A 
ENDROOT
TORSDOF 0
ENDMDL
