MODEL 1
REMARK minimizedAffinity 2.4158833
REMARK minimizedRMSD -1
REMARK  0 active torsions:
REMARK  status: ('A' for Active; 'I' for Inactive)
ROOT
ATOM      1  C   UNL d   1      -1.426  -2.458  -2.162  0.00  0.00     0.172 C 
ATOM      2  N   UNL d   1      -1.302  -3.687  -1.414  0.00  0.00    -0.070 N 
ATOM      3  C1  UNL d   1      -1.338  -3.798  -0.049  0.00  0.00    -0.004 A 
ATOM      4  C2  UNL d   1      -1.187  -5.130   0.270  0.00  0.00    -0.047 A 
ATOM      5  C3  UNL d   1      -1.054  -5.844  -0.944  0.00  0.00    -0.047 A 
ATOM      6  C4  UNL d   1      -1.129  -4.926  -1.971  0.00  0.00    -0.004 A 
ENDROOT
TORSDOF 0
ENDMDL
