MODEL 1
REMARK minimizedAffinity 2.90303135
REMARK minimizedRMSD -1
REMARK  0 active torsions:
REMARK  status: ('A' for Active; 'I' for Inactive)
ROOT
ATOM      1  C   UNL d   1      -1.914  -0.826   3.023  0.00  0.00     0.172 C 
ATOM      2  N   UNL d   1      -3.024  -0.669   2.113  0.00  0.00    -0.070 N 
ATOM      3  C1  UNL d   1      -3.273   0.434   1.341  0.00  0.00    -0.004 A 
ATOM      4  C2  UNL d   1      -4.419   0.191   0.615  0.00  0.00    -0.047 A 
ATOM      5  C3  UNL d   1      -4.875  -1.102   0.963  0.00  0.00    -0.047 A 
ATOM      6  C4  UNL d   1      -3.992  -1.612   1.892  0.00  0.00    -0.004 A 
ENDROOT
TORSDOF 0
ENDMDL
