MODEL 1
REMARK minimizedAffinity 4.92999935
REMARK minimizedRMSD -1
REMARK  0 active torsions:
REMARK  status: ('A' for Active; 'I' for Inactive)
ROOT
ATOM      1  C   UNL d   1      -1.648  -4.253   1.369  0.00  0.00     0.172 C 
ATOM      2  N   UNL d   1      -1.975  -2.875   1.654  0.00  0.00    -0.070 N 
ATOM      3  C1  UNL d   1      -2.224  -2.355   2.896  0.00  0.00    -0.004 A 
ATOM      4  C2  UNL d   1      -2.494  -1.012   2.745  0.00  0.00    -0.047 A 
ATOM      5  C3  UNL d   1      -2.405  -0.715   1.364  0.00  0.00    -0.047 A 
ATOM      6  C4  UNL d   1      -2.082  -1.887   0.712  0.00  0.00    -0.004 A 
ENDROOT
TORSDOF 0
ENDMDL
