MODEL 1
REMARK minimizedAffinity -1.15346467
REMARK minimizedRMSD -1
REMARK  0 active torsions:
REMARK  status: ('A' for Active; 'I' for Inactive)
ROOT
ATOM      1  C   UNL d   1      -0.763  -2.904  -1.456  0.00  0.00     0.172 C 
ATOM      2  N   UNL d   1      -0.735  -4.163  -0.750  0.00  0.00    -0.070 N 
ATOM      3  C1  UNL d   1       0.393  -4.852  -0.391  0.00  0.00    -0.004 A 
ATOM      4  C2  UNL d   1      -0.003  -5.999   0.263  0.00  0.00    -0.047 A 
ATOM      5  C3  UNL d   1      -1.418  -5.999   0.298  0.00  0.00    -0.047 A 
ATOM      6  C4  UNL d   1      -1.845  -4.851  -0.336  0.00  0.00    -0.004 A 
ENDROOT
TORSDOF 0
ENDMDL
