MODEL 1
REMARK minimizedAffinity -2.57087731
REMARK minimizedRMSD -1
REMARK  0 active torsions:
REMARK  status: ('A' for Active; 'I' for Inactive)
ROOT
ATOM      1  C   UNL d   1      -3.035  -6.000   5.995  0.00  0.00     0.172 C 
ATOM      2  N   UNL d   1      -1.971  -5.312   5.302  0.00  0.00    -0.070 N 
ATOM      3  C1  UNL d   1      -1.500  -5.622   4.055  0.00  0.00    -0.004 A 
ATOM      4  C2  UNL d   1      -0.490  -4.735   3.753  0.00  0.00    -0.047 A 
ATOM      5  C3  UNL d   1      -0.349  -3.861   4.857  0.00  0.00    -0.047 A 
ATOM      6  C4  UNL d   1      -1.278  -4.241   5.802  0.00  0.00    -0.004 A 
ENDROOT
TORSDOF 0
ENDMDL
