MODEL 1
REMARK minimizedAffinity 3.54645729
REMARK minimizedRMSD -1
REMARK  0 active torsions:
REMARK  status: ('A' for Active; 'I' for Inactive)
ROOT
ATOM      1  C   UNL d   1       2.206  -1.463   1.540  0.00  0.00     0.172 C 
ATOM      2  N   UNL d   1       2.660  -0.612   0.465  0.00  0.00    -0.070 N 
ATOM      3  C1  UNL d   1       3.294   0.592   0.613  0.00  0.00    -0.004 A 
ATOM      4  C2  UNL d   1       3.561   1.086  -0.646  0.00  0.00    -0.047 A 
ATOM      5  C3  UNL d   1       3.069   0.146  -1.583  0.00  0.00    -0.047 A 
ATOM      6  C4  UNL d   1       2.516  -0.895  -0.868  0.00  0.00    -0.004 A 
ENDROOT
TORSDOF 0
ENDMDL
