MODEL 1
REMARK minimizedAffinity -0.35482946
REMARK minimizedRMSD -1
REMARK  0 active torsions:
REMARK  status: ('A' for Active; 'I' for Inactive)
ROOT
ATOM      1  C   UNL d   1      -1.502  -5.979   2.177  0.00  0.00     0.172 C 
ATOM      2  N   UNL d   1      -1.128  -5.986   3.571  0.00  0.00    -0.070 N 
ATOM      3  C1  UNL d   1       0.154  -5.995   4.054  0.00  0.00    -0.004 A 
ATOM      4  C2  UNL d   1       0.086  -6.000   5.431  0.00  0.00    -0.047 A 
ATOM      5  C3  UNL d   1      -1.283  -5.995   5.787  0.00  0.00    -0.047 A 
ATOM      6  C4  UNL d   1      -2.013  -5.986   4.617  0.00  0.00    -0.004 A 
ENDROOT
TORSDOF 0
ENDMDL
