MODEL 1
REMARK minimizedAffinity -2.94667292
REMARK minimizedRMSD -1
REMARK  0 active torsions:
REMARK  status: ('A' for Active; 'I' for Inactive)
ROOT
ATOM      1  C   UNL d   1      -4.094   5.846   5.270  0.00  0.00     0.172 C 
ATOM      2  N   UNL d   1      -3.871   5.885   3.844  0.00  0.00    -0.070 N 
ATOM      3  C1  UNL d   1      -2.653   6.000   3.229  0.00  0.00    -0.004 A 
ATOM      4  C2  UNL d   1      -2.866   6.000   1.867  0.00  0.00    -0.047 A 
ATOM      5  C3  UNL d   1      -4.260   5.882   1.657  0.00  0.00    -0.047 A 
ATOM      6  C4  UNL d   1      -4.859   5.813   2.897  0.00  0.00    -0.004 A 
ENDROOT
TORSDOF 0
ENDMDL
