MODEL 1
REMARK minimizedAffinity 4.04491377
REMARK minimizedRMSD -1
REMARK  0 active torsions:
REMARK  status: ('A' for Active; 'I' for Inactive)
ROOT
ATOM      1  C   UNL d   1       0.685   2.321   1.292  0.00  0.00     0.172 C 
ATOM      2  N   UNL d   1       1.772   1.610   0.662  0.00  0.00    -0.070 N 
ATOM      3  C1  UNL d   1       1.790   0.271   0.375  0.00  0.00    -0.004 A 
ATOM      4  C2  UNL d   1       2.999  -0.017  -0.221  0.00  0.00    -0.047 A 
ATOM      5  C3  UNL d   1       3.733   1.191  -0.294  0.00  0.00    -0.047 A 
ATOM      6  C4  UNL d   1       2.950   2.182   0.260  0.00  0.00    -0.004 A 
ENDROOT
TORSDOF 0
ENDMDL
