MODEL 1
REMARK minimizedAffinity 4.0997777
REMARK minimizedRMSD -1
REMARK  0 active torsions:
REMARK  status: ('A' for Active; 'I' for Inactive)
ROOT
ATOM      1  C   UNL d   1      -2.617  -5.996   5.998  0.00  0.00     0.172 C 
ATOM      2  N   UNL d   1      -1.323  -5.356   5.966  0.00  0.00    -0.070 N 
ATOM      3  C1  UNL d   1      -0.114  -5.997   5.991  0.00  0.00    -0.004 A 
ATOM      4  C2  UNL d   1       0.874  -5.038   5.944  0.00  0.00    -0.047 A 
ATOM      5  C3  UNL d   1       0.237  -3.776   5.889  0.00  0.00    -0.047 A 
ATOM      6  C4  UNL d   1      -1.124  -4.002   5.904  0.00  0.00    -0.004 A 
ENDROOT
TORSDOF 0
ENDMDL
