MODEL 1
REMARK minimizedAffinity 3.82390165
REMARK minimizedRMSD -1
REMARK  0 active torsions:
REMARK  status: ('A' for Active; 'I' for Inactive)
ROOT
ATOM      1  C2' OXE d   1       3.428   2.642   5.893  0.00  0.00     0.078 C 
ATOM      2  C1' OXE d   1       2.952   3.335   3.214  0.00  0.00     0.078 C 
ATOM      3  C1  OXE d   1       4.024   4.092   3.957  0.00  0.00    -0.078 A 
ATOM      4  C2  OXE d   1       4.218   3.779   5.280  0.00  0.00    -0.078 A 
ATOM      5  C3  OXE d   1       5.232   4.409   5.997  0.00  0.00     0.003 A 
ATOM      6  C4  OXE d   1       5.952   5.466   5.426  0.00  0.00    -0.002 A 
ATOM      7  C5  OXE d   1       5.742   5.828   4.091  0.00  0.00    -0.002 A 
ATOM      8  C6  OXE d   1       4.814   5.124   3.332  0.00  0.00     0.003 A 
ENDROOT
TORSDOF 0
ENDMDL
