MODEL 1
REMARK minimizedAffinity 8.7110424
REMARK minimizedRMSD -1
REMARK  0 active torsions:
REMARK  status: ('A' for Active; 'I' for Inactive)
ROOT
ATOM      1  C2' OXE d   1       1.513   2.764   5.239  0.00  0.00     0.078 C 
ATOM      2  C1' OXE d   1       2.517   2.735   2.617  0.00  0.00     0.078 C 
ATOM      3  C1  OXE d   1       3.370   3.364   3.690  0.00  0.00    -0.078 A 
ATOM      4  C2  OXE d   1       2.851   3.415   4.962  0.00  0.00    -0.078 A 
ATOM      5  C3  OXE d   1       3.619   3.935   5.999  0.00  0.00     0.003 A 
ATOM      6  C4  OXE d   1       4.851   4.545   5.733  0.00  0.00    -0.002 A 
ATOM      7  C5  OXE d   1       5.381   4.539   4.438  0.00  0.00    -0.002 A 
ATOM      8  C6  OXE d   1       4.674   3.916   3.416  0.00  0.00     0.003 A 
ENDROOT
TORSDOF 0
ENDMDL
