MODEL 1
REMARK minimizedAffinity 10.3547573
REMARK minimizedRMSD -1
REMARK  0 active torsions:
REMARK  status: ('A' for Active; 'I' for Inactive)
ROOT
ATOM      1  C2' OXE d   1       3.578   4.213   2.686  0.00  0.00     0.078 C 
ATOM      2  C1' OXE d   1       0.985   5.215   2.299  0.00  0.00     0.078 C 
ATOM      3  C1  OXE d   1       1.142   3.981   3.152  0.00  0.00    -0.078 A 
ATOM      4  C2  OXE d   1       2.410   3.471   3.297  0.00  0.00    -0.078 A 
ATOM      5  C3  OXE d   1       2.618   2.366   4.118  0.00  0.00     0.003 A 
ATOM      6  C4  OXE d   1       1.531   1.679   4.671  0.00  0.00    -0.002 A 
ATOM      7  C5  OXE d   1       0.228   2.159   4.503  0.00  0.00    -0.002 A 
ATOM      8  C6  OXE d   1       0.021   3.330   3.783  0.00  0.00     0.003 A 
ENDROOT
TORSDOF 0
ENDMDL
