MODEL 1
REMARK minimizedAffinity 7.4187398
REMARK minimizedRMSD -1
REMARK  0 active torsions:
REMARK  status: ('A' for Active; 'I' for Inactive)
ROOT
ATOM      1  C2' OXE d   1       3.200   0.679   1.084  0.00  0.00     0.078 C 
ATOM      2  C1' OXE d   1       2.519  -0.226  -1.484  0.00  0.00     0.078 C 
ATOM      3  C1  OXE d   1       3.757   0.623  -1.343  0.00  0.00    -0.078 A 
ATOM      4  C2  OXE d   1       4.057   1.100  -0.090  0.00  0.00    -0.078 A 
ATOM      5  C3  OXE d   1       5.218   1.843   0.105  0.00  0.00     0.003 A 
ATOM      6  C4  OXE d   1       6.000   2.236  -0.987  0.00  0.00    -0.002 A 
ATOM      7  C5  OXE d   1       5.690   1.794  -2.278  0.00  0.00    -0.002 A 
ATOM      8  C6  OXE d   1       4.599   0.954  -2.466  0.00  0.00     0.003 A 
ENDROOT
TORSDOF 0
ENDMDL
