MODEL 1
REMARK minimizedAffinity 6.55446291
REMARK minimizedRMSD -1
REMARK  0 active torsions:
REMARK  status: ('A' for Active; 'I' for Inactive)
ROOT
ATOM      1  C2' OXE d   1       2.368   2.847   2.266  0.00  0.00     0.078 C 
ATOM      2  C1' OXE d   1       0.826   2.798   4.611  0.00  0.00     0.078 C 
ATOM      3  C1  OXE d   1       2.250   3.283   4.716  0.00  0.00    -0.078 A 
ATOM      4  C2  OXE d   1       3.012   3.259   3.572  0.00  0.00    -0.078 A 
ATOM      5  C3  OXE d   1       4.315   3.747   3.602  0.00  0.00     0.003 A 
ATOM      6  C4  OXE d   1       4.906   4.117   4.816  0.00  0.00    -0.002 A 
ATOM      7  C5  OXE d   1       4.161   4.111   5.999  0.00  0.00    -0.002 A 
ATOM      8  C6  OXE d   1       2.822   3.738   5.959  0.00  0.00     0.003 A 
ENDROOT
TORSDOF 0
ENDMDL
