MODEL 1
REMARK minimizedAffinity 4.70617723
REMARK minimizedRMSD -1
REMARK  0 active torsions:
REMARK  status: ('A' for Active; 'I' for Inactive)
ROOT
ATOM      1  C2' OXE d   1       5.999   1.926  -2.385  0.00  0.00     0.078 C 
ATOM      2  C1' OXE d   1       5.683   1.743   0.398  0.00  0.00     0.078 C 
ATOM      3  C1  OXE d   1       4.627   1.110  -0.473  0.00  0.00    -0.078 A 
ATOM      4  C2  OXE d   1       4.765   1.245  -1.834  0.00  0.00    -0.078 A 
ATOM      5  C3  OXE d   1       3.848   0.634  -2.684  0.00  0.00     0.003 A 
ATOM      6  C4  OXE d   1       2.704   0.015  -2.166  0.00  0.00    -0.002 A 
ATOM      7  C5  OXE d   1       2.523  -0.099  -0.783  0.00  0.00    -0.002 A 
ATOM      8  C6  OXE d   1       3.495   0.405   0.075  0.00  0.00     0.003 A 
ENDROOT
TORSDOF 0
ENDMDL
