MODEL 1
REMARK minimizedAffinity 6.26468086
REMARK minimizedRMSD -1
REMARK  0 active torsions:
REMARK  status: ('A' for Active; 'I' for Inactive)
ROOT
ATOM      1  C2' OXE d   1       1.217   0.775  -1.114  0.00  0.00     0.078 C 
ATOM      2  C1' OXE d   1      -1.233  -0.415  -1.793  0.00  0.00     0.078 C 
ATOM      3  C1  OXE d   1      -1.270   0.924  -1.098  0.00  0.00    -0.078 A 
ATOM      4  C2  OXE d   1      -0.067   1.476  -0.728  0.00  0.00    -0.078 A 
ATOM      5  C3  OXE d   1      -0.041   2.735  -0.133  0.00  0.00     0.003 A 
ATOM      6  C4  OXE d   1      -1.234   3.372   0.229  0.00  0.00    -0.002 A 
ATOM      7  C5  OXE d   1      -2.470   2.808  -0.103  0.00  0.00    -0.002 A 
ATOM      8  C6  OXE d   1      -2.505   1.607  -0.804  0.00  0.00     0.003 A 
ENDROOT
TORSDOF 0
ENDMDL
