MODEL 1
REMARK minimizedAffinity 15.0192938
REMARK minimizedRMSD -1
REMARK  2 active torsions:
REMARK  status: ('A' for Active; 'I' for Inactive)
REMARK    1  A    between atoms: C2'_3  and  C1'_4 
REMARK    2  A    between atoms: C1'_4  and  C1_5 
ROOT
ATOM      1  C1  I4B d   1       3.135   0.801  -2.461  0.00  0.00    -0.075 A 
ATOM      2  C2  I4B d   1       3.862   0.835  -1.297  0.00  0.00     0.003 A 
ATOM      3  C3  I4B d   1       3.211   1.033  -0.055  0.00  0.00     0.002 A 
ATOM      4  C4  I4B d   1       1.847   1.241  -0.029  0.00  0.00    -0.004 A 
ATOM      5  C5  I4B d   1       1.108   1.183  -1.207  0.00  0.00     0.002 A 
ATOM      6  C6  I4B d   1       1.754   0.949  -2.430  0.00  0.00     0.003 A 
ENDROOT
BRANCH   1   7
ATOM      7  C1' I4B d   1       3.859   0.623  -3.758  0.00  0.00     0.060 C 
BRANCH   7   8
ATOM      8  C2' I4B d   1       5.343   0.768  -3.488  0.00  0.00    -0.013 C 
ATOM      9  C4' I4B d   1       6.000  -0.576  -3.317  0.00  0.00     0.013 C 
ATOM     10  C3' I4B d   1       5.949   1.526  -4.631  0.00  0.00     0.013 C 
ENDBRANCH   7   8
ENDBRANCH   1   7
TORSDOF 2
ENDMDL
