MODEL 1
REMARK minimizedAffinity 10.500083
REMARK minimizedRMSD -1
REMARK  2 active torsions:
REMARK  status: ('A' for Active; 'I' for Inactive)
REMARK    1  A    between atoms: C2'_3  and  C1'_4 
REMARK    2  A    between atoms: C1'_4  and  C1_5 
ROOT
ATOM      1  C1  I4B d   1      -3.454   1.873  -5.327  0.00  0.00    -0.075 A 
ATOM      2  C2  I4B d   1      -2.285   2.534  -5.613  0.00  0.00     0.003 A 
ATOM      3  C3  I4B d   1      -2.249   3.950  -5.612  0.00  0.00     0.002 A 
ATOM      4  C4  I4B d   1      -3.408   4.659  -5.372  0.00  0.00    -0.004 A 
ATOM      5  C5  I4B d   1      -4.586   3.987  -5.059  0.00  0.00     0.002 A 
ATOM      6  C6  I4B d   1      -4.607   2.585  -5.024  0.00  0.00     0.003 A 
ENDROOT
BRANCH   1   7
ATOM      7  C1' I4B d   1      -3.464   0.378  -5.369  0.00  0.00     0.060 C 
BRANCH   7   8
ATOM      8  C2' I4B d   1      -4.250  -0.117  -4.172  0.00  0.00    -0.013 C 
ATOM      9  C4' I4B d   1      -4.473  -1.605  -4.243  0.00  0.00     0.013 C 
ATOM     10  C3' I4B d   1      -3.493   0.259  -2.933  0.00  0.00     0.013 C 
ENDBRANCH   7   8
ENDBRANCH   1   7
TORSDOF 2
ENDMDL
