MODEL 1
REMARK minimizedAffinity 6.54506731
REMARK minimizedRMSD -1
REMARK  2 active torsions:
REMARK  status: ('A' for Active; 'I' for Inactive)
REMARK    1  A    between atoms: C2'_3  and  C1'_4 
REMARK    2  A    between atoms: C1'_4  and  C1_5 
ROOT
ATOM      1  C1  I4B d   1       3.504  -4.040   1.039  0.00  0.00    -0.075 A 
ATOM      2  C2  I4B d   1       3.651  -5.228   0.368  0.00  0.00     0.003 A 
ATOM      3  C3  I4B d   1       4.921  -5.618  -0.121  0.00  0.00     0.002 A 
ATOM      4  C4  I4B d   1       6.000  -4.771   0.038  0.00  0.00    -0.004 A 
ATOM      5  C5  I4B d   1       5.853  -3.578   0.739  0.00  0.00     0.002 A 
ATOM      6  C6  I4B d   1       4.600  -3.215   1.253  0.00  0.00     0.003 A 
ENDROOT
BRANCH   1   7
ATOM      7  C1' I4B d   1       2.141  -3.644   1.513  0.00  0.00     0.060 C 
BRANCH   7   8
ATOM      8  C2' I4B d   1       2.287  -2.398   2.363  0.00  0.00    -0.013 C 
ATOM      9  C4' I4B d   1       0.945  -1.783   2.664  0.00  0.00     0.013 C 
ATOM     10  C3' I4B d   1       3.003  -2.779   3.624  0.00  0.00     0.013 C 
ENDBRANCH   7   8
ENDBRANCH   1   7
TORSDOF 2
ENDMDL
