MODEL 1
REMARK minimizedAffinity 17.7686157
REMARK minimizedRMSD -1
REMARK  2 active torsions:
REMARK  status: ('A' for Active; 'I' for Inactive)
REMARK    1  A    between atoms: C2'_3  and  C1'_4 
REMARK    2  A    between atoms: C1'_4  and  C1_5 
ROOT
ATOM      1  C1  I4B d   1      -4.379  -0.344  -3.761  0.00  0.00    -0.075 A 
ATOM      2  C2  I4B d   1      -3.610  -0.322  -2.624  0.00  0.00     0.003 A 
ATOM      3  C3  I4B d   1      -3.491  -1.483  -1.822  0.00  0.00     0.002 A 
ATOM      4  C4  I4B d   1      -4.193  -2.621  -2.165  0.00  0.00    -0.004 A 
ATOM      5  C5  I4B d   1      -4.954  -2.647  -3.330  0.00  0.00     0.002 A 
ATOM      6  C6  I4B d   1      -5.038  -1.506  -4.140  0.00  0.00     0.003 A 
ENDROOT
BRANCH   1   7
ATOM      7  C1' I4B d   1      -4.509   0.910  -4.566  0.00  0.00     0.060 C 
BRANCH   7   8
ATOM      8  C2' I4B d   1      -3.786   0.697  -5.881  0.00  0.00    -0.013 C 
ATOM      9  C4' I4B d   1      -2.589   1.604  -5.998  0.00  0.00     0.013 C 
ATOM     10  C3' I4B d   1      -3.382  -0.745  -5.959  0.00  0.00     0.013 C 
ENDBRANCH   7   8
ENDBRANCH   1   7
TORSDOF 2
ENDMDL
