MODEL 1
REMARK minimizedAffinity 17.3858585
REMARK minimizedRMSD -1
REMARK  2 active torsions:
REMARK  status: ('A' for Active; 'I' for Inactive)
REMARK    1  A    between atoms: C2'_3  and  C1'_4 
REMARK    2  A    between atoms: C1'_4  and  C1_5 
ROOT
ATOM      1  C1  I4B d   1      -0.148  -1.327  -0.208  0.00  0.00    -0.075 A 
ATOM      2  C2  I4B d   1      -1.502  -1.415  -0.005  0.00  0.00     0.003 A 
ATOM      3  C3  I4B d   1      -2.009  -1.835   1.249  0.00  0.00     0.002 A 
ATOM      4  C4  I4B d   1      -1.131  -2.203   2.248  0.00  0.00    -0.004 A 
ATOM      5  C5  I4B d   1       0.242  -2.092   2.048  0.00  0.00     0.002 A 
ATOM      6  C6  I4B d   1       0.737  -1.640   0.816  0.00  0.00     0.003 A 
ENDROOT
BRANCH   1   7
ATOM      7  C1' I4B d   1       0.354  -0.912  -1.555  0.00  0.00     0.060 C 
BRANCH   7   8
ATOM      8  C2' I4B d   1       0.865   0.510  -1.444  0.00  0.00    -0.013 C 
ATOM      9  C4' I4B d   1       1.856   0.647  -0.318  0.00  0.00     0.013 C 
ATOM     10  C3' I4B d   1       1.484   0.883  -2.758  0.00  0.00     0.013 C 
ENDBRANCH   7   8
ENDBRANCH   1   7
TORSDOF 2
ENDMDL
