MODEL 1
REMARK minimizedAffinity 3.03149986
REMARK minimizedRMSD -1
REMARK  1 active torsions:
REMARK  status: ('A' for Active; 'I' for Inactive)
REMARK    1  A    between atoms: C1_2  and  C2_3 
ROOT
ATOM      1  C2  UNL d   1      -0.542   5.069   5.565  0.00  0.00    -0.073 A 
ATOM      2  C3  UNL d   1      -1.308   5.999   4.852  0.00  0.00    -0.002 A 
ATOM      3  C4  UNL d   1      -2.625   5.703   4.499  0.00  0.00     0.004 A 
ATOM      4  C5  UNL d   1      -3.192   4.481   4.860  0.00  0.00    -0.004 A 
ATOM      5  C6  UNL d   1      -2.446   3.544   5.582  0.00  0.00    -0.075 A 
ATOM      6  C7  UNL d   1      -3.040   2.223   5.976  0.00  0.00     0.076 C 
ATOM      7  C8  UNL d   1      -1.123   3.847   5.931  0.00  0.00     0.001 A 
ENDROOT
BRANCH   1   8
ATOM      8  C1  UNL d   1       0.879   5.386   5.954  0.00  0.00     0.053 C 
ATOM      9  C   UNL d   1       1.733   5.747   4.749  0.00  0.00     0.018 C 
ENDBRANCH   1   8
TORSDOF 1
ENDMDL
