MODEL 1
REMARK minimizedAffinity -1.88257289
REMARK minimizedRMSD -1
REMARK  1 active torsions:
REMARK  status: ('A' for Active; 'I' for Inactive)
REMARK    1  A    between atoms: C1_2  and  C2_3 
ROOT
ATOM      1  C2  UNL d   1      -1.293   4.717   5.262  0.00  0.00    -0.073 A 
ATOM      2  C3  UNL d   1      -1.406   5.007   3.898  0.00  0.00    -0.002 A 
ATOM      3  C4  UNL d   1      -0.353   5.623   3.219  0.00  0.00     0.004 A 
ATOM      4  C5  UNL d   1       0.823   5.948   3.895  0.00  0.00    -0.004 A 
ATOM      5  C6  UNL d   1       0.959   5.655   5.255  0.00  0.00    -0.075 A 
ATOM      6  C7  UNL d   1       2.217   5.999   5.997  0.00  0.00     0.076 C 
ATOM      7  C8  UNL d   1      -0.103   5.039   5.931  0.00  0.00     0.001 A 
ENDROOT
BRANCH   1   8
ATOM      8  C1  UNL d   1      -2.425   4.046   5.998  0.00  0.00     0.053 C 
ATOM      9  C   UNL d   1      -2.314   2.530   5.953  0.00  0.00     0.018 C 
ENDBRANCH   1   8
TORSDOF 1
ENDMDL
