MODEL 1
REMARK minimizedAffinity 0.484115094
REMARK minimizedRMSD -1
REMARK  1 active torsions:
REMARK  status: ('A' for Active; 'I' for Inactive)
REMARK    1  A    between atoms: C1_2  and  C2_3 
ROOT
ATOM      1  C2  UNL d   1       0.551   5.587   5.277  0.00  0.00    -0.073 A 
ATOM      2  C3  UNL d   1       0.336   5.972   3.949  0.00  0.00    -0.002 A 
ATOM      3  C4  UNL d   1      -0.833   5.595   3.286  0.00  0.00     0.004 A 
ATOM      4  C5  UNL d   1      -1.800   4.836   3.946  0.00  0.00    -0.004 A 
ATOM      5  C6  UNL d   1      -1.609   4.452   5.277  0.00  0.00    -0.075 A 
ATOM      6  C7  UNL d   1      -2.638   3.634   5.999  0.00  0.00     0.076 C 
ATOM      7  C8  UNL d   1      -0.431   4.832   5.935  0.00  0.00     0.001 A 
ENDROOT
BRANCH   1   8
ATOM      8  C1  UNL d   1       1.809   5.998   5.999  0.00  0.00     0.053 C 
ATOM      9  C   UNL d   1       3.025   5.964   5.088  0.00  0.00     0.018 C 
ENDBRANCH   1   8
TORSDOF 1
ENDMDL
