MODEL 1
REMARK minimizedAffinity -4.1552968
REMARK minimizedRMSD -1
REMARK  0 active torsions:
REMARK  status: ('A' for Active; 'I' for Inactive)
ROOT
ATOM      1  N1  IND d   1      -0.171   0.979  -0.011  0.00  0.00    -0.196 N 
ATOM      2  C2  IND d   1      -1.205   0.115  -0.241  0.00  0.00     0.054 A 
ATOM      3  C3  IND d   1      -0.763  -1.162  -0.223  0.00  0.00    -0.031 A 
ATOM      4  C4  IND d   1       1.596  -2.070   0.267  0.00  0.00     0.051 A 
ATOM      5  C5  IND d   1       2.880  -1.664   0.498  0.00  0.00    -0.031 A 
ATOM      6  C6  IND d   1       3.219  -0.328   0.575  0.00  0.00     0.015 A 
ATOM      7  C7  IND d   1       2.281   0.654   0.435  0.00  0.00    -0.016 A 
ATOM      8  C8  IND d   1       0.977   0.245   0.193  0.00  0.00    -0.047 A 
ATOM      9  C9  IND d   1       0.634  -1.108   0.072  0.00  0.00    -0.096 A 
ATOM     10  HN1 IND d   1      -0.228   1.837   0.003  0.00  0.00     0.298 HD
ENDROOT
TORSDOF 0
ENDMDL
