MODEL 1
REMARK minimizedAffinity -3.47866488
REMARK minimizedRMSD -1
REMARK  0 active torsions:
REMARK  status: ('A' for Active; 'I' for Inactive)
ROOT
ATOM      1  N1  IND d   1       2.562  -1.813  -0.489  0.00  0.00    -0.196 N 
ATOM      2  C2  IND d   1       3.286  -1.581   0.647  0.00  0.00     0.054 A 
ATOM      3  C3  IND d   1       2.617  -0.738   1.466  0.00  0.00    -0.031 A 
ATOM      4  C4  IND d   1       0.278   0.301   1.188  0.00  0.00     0.051 A 
ATOM      5  C5  IND d   1      -0.753   0.410   0.297  0.00  0.00    -0.031 A 
ATOM      6  C6  IND d   1      -0.732  -0.231  -0.925  0.00  0.00     0.015 A 
ATOM      7  C7  IND d   1       0.320  -1.018  -1.298  0.00  0.00    -0.016 A 
ATOM      8  C8  IND d   1       1.372  -1.126  -0.399  0.00  0.00    -0.047 A 
ATOM      9  C9  IND d   1       1.375  -0.444   0.824  0.00  0.00    -0.096 A 
ATOM     10  HN1 IND d   1       2.810  -2.306  -1.149  0.00  0.00     0.298 HD
ENDROOT
TORSDOF 0
ENDMDL
