MODEL 1
REMARK minimizedAffinity -0.251341671
REMARK minimizedRMSD -1
REMARK  0 active torsions:
REMARK  status: ('A' for Active; 'I' for Inactive)
ROOT
ATOM      1  N1  IND d   1       0.582   1.002  -0.144  0.00  0.00    -0.196 N 
ATOM      2  C2  IND d   1      -0.461   0.120  -0.098  0.00  0.00     0.054 A 
ATOM      3  C3  IND d   1      -0.011  -1.148  -0.230  0.00  0.00    -0.031 A 
ATOM      4  C4  IND d   1       2.405  -2.013  -0.431  0.00  0.00     0.051 A 
ATOM      5  C5  IND d   1       3.696  -1.583  -0.556  0.00  0.00    -0.031 A 
ATOM      6  C6  IND d   1       4.022  -0.242  -0.546  0.00  0.00     0.015 A 
ATOM      7  C7  IND d   1       3.066   0.723  -0.400  0.00  0.00    -0.016 A 
ATOM      8  C8  IND d   1       1.753   0.290  -0.280  0.00  0.00    -0.047 A 
ATOM      9  C9  IND d   1       1.412  -1.068  -0.332  0.00  0.00    -0.096 A 
ATOM     10  HN1 IND d   1       0.518   1.859  -0.096  0.00  0.00     0.298 HD
ENDROOT
TORSDOF 0
ENDMDL
