MODEL 1
REMARK minimizedAffinity -3.44436693
REMARK minimizedRMSD -1
REMARK  0 active torsions:
REMARK  status: ('A' for Active; 'I' for Inactive)
ROOT
ATOM      1  N1  IND d   1       0.432   1.993  -0.028  0.00  0.00    -0.196 N 
ATOM      2  C2  IND d   1       1.542   2.581   0.511  0.00  0.00     0.054 A 
ATOM      3  C3  IND d   1       2.434   1.639   0.892  0.00  0.00    -0.031 A 
ATOM      4  C4  IND d   1       2.323  -0.920   0.633  0.00  0.00     0.051 A 
ATOM      5  C5  IND d   1       1.491  -1.927   0.232  0.00  0.00    -0.031 A 
ATOM      6  C6  IND d   1       0.238  -1.673  -0.289  0.00  0.00     0.015 A 
ATOM      7  C7  IND d   1      -0.226  -0.397  -0.440  0.00  0.00    -0.016 A 
ATOM      8  C8  IND d   1       0.614   0.628  -0.027  0.00  0.00    -0.047 A 
ATOM      9  C9  IND d   1       1.869   0.375   0.542  0.00  0.00    -0.096 A 
ATOM     10  HN1 IND d   1      -0.264   2.407  -0.319  0.00  0.00     0.298 HD
ENDROOT
TORSDOF 0
ENDMDL
