MODEL 1
REMARK minimizedAffinity -2.92357397
REMARK minimizedRMSD -1
REMARK  0 active torsions:
REMARK  status: ('A' for Active; 'I' for Inactive)
ROOT
ATOM      1  N1  IND d   1      -2.330   1.881   0.820  0.00  0.00    -0.196 N 
ATOM      2  C2  IND d   1      -3.328   1.308   1.558  0.00  0.00     0.054 A 
ATOM      3  C3  IND d   1      -3.073  -0.005   1.754  0.00  0.00    -0.031 A 
ATOM      4  C4  IND d   1      -1.029  -1.399   1.040  0.00  0.00     0.051 A 
ATOM      5  C5  IND d   1       0.126  -1.323   0.314  0.00  0.00    -0.031 A 
ATOM      6  C6  IND d   1       0.531  -0.151  -0.291  0.00  0.00     0.015 A 
ATOM      7  C7  IND d   1      -0.201   0.998  -0.181  0.00  0.00    -0.016 A 
ATOM      8  C8  IND d   1      -1.379   0.922   0.549  0.00  0.00    -0.047 A 
ATOM      9  C9  IND d   1      -1.817  -0.275   1.129  0.00  0.00    -0.096 A 
ATOM     10  HN1 IND d   1      -2.301   2.702   0.567  0.00  0.00     0.298 HD
ENDROOT
TORSDOF 0
ENDMDL
