MODEL 1
REMARK minimizedAffinity 4.69284058
REMARK minimizedRMSD -1
REMARK  0 active torsions:
REMARK  status: ('A' for Active; 'I' for Inactive)
ROOT
ATOM      1  N1  IND d   1       2.029  -1.707  -3.031  0.00  0.00    -0.196 N 
ATOM      2  C2  IND d   1       3.106  -2.385  -2.531  0.00  0.00     0.054 A 
ATOM      3  C3  IND d   1       2.916  -2.674  -1.224  0.00  0.00    -0.031 A 
ATOM      4  C4  IND d   1       0.868  -2.220   0.269  0.00  0.00     0.051 A 
ATOM      5  C5  IND d   1      -0.347  -1.595   0.270  0.00  0.00    -0.031 A 
ATOM      6  C6  IND d   1      -0.844  -0.966  -0.853  0.00  0.00     0.015 A 
ATOM      7  C7  IND d   1      -0.146  -0.947  -2.027  0.00  0.00    -0.016 A 
ATOM      8  C8  IND d   1       1.092  -1.574  -2.029  0.00  0.00    -0.047 A 
ATOM      9  C9  IND d   1       1.621  -2.178  -0.881  0.00  0.00    -0.096 A 
ATOM     10  HN1 IND d   1       1.950  -1.414  -3.835  0.00  0.00     0.298 HD
ENDROOT
TORSDOF 0
ENDMDL
