MODEL 1
REMARK minimizedAffinity 4.57358599
REMARK minimizedRMSD -1
REMARK  0 active torsions:
REMARK  status: ('A' for Active; 'I' for Inactive)
ROOT
ATOM      1  N1  IND d   1       2.510  -2.717   0.875  0.00  0.00    -0.196 N 
ATOM      2  C2  IND d   1       3.132  -1.541   0.560  0.00  0.00     0.054 A 
ATOM      3  C3  IND d   1       2.544  -0.971  -0.515  0.00  0.00    -0.031 A 
ATOM      4  C4  IND d   1       0.484  -1.742  -1.853  0.00  0.00     0.051 A 
ATOM      5  C5  IND d   1      -0.403  -2.776  -1.965  0.00  0.00    -0.031 A 
ATOM      6  C6  IND d   1      -0.365  -3.864  -1.117  0.00  0.00     0.015 A 
ATOM      7  C7  IND d   1       0.558  -3.953  -0.114  0.00  0.00    -0.016 A 
ATOM      8  C8  IND d   1       1.465  -2.908  -0.002  0.00  0.00    -0.047 A 
ATOM      9  C9  IND d   1       1.458  -1.822  -0.886  0.00  0.00    -0.096 A 
ATOM     10  HN1 IND d   1       2.734  -3.247   1.513  0.00  0.00     0.298 HD
ENDROOT
TORSDOF 0
ENDMDL
