MODEL 1
REMARK minimizedAffinity 4.73897409
REMARK minimizedRMSD -1
REMARK  0 active torsions:
REMARK  status: ('A' for Active; 'I' for Inactive)
ROOT
ATOM      1  C1  DEN d   1       3.758   1.123  -1.138  0.00  0.00     0.130 A 
ATOM      2  C2  DEN d   1       4.916   2.009  -1.054  0.00  0.00    -0.031 A 
ATOM      3  C3  DEN d   1       6.000   1.280  -0.365  0.00  0.00     0.027 A 
ATOM      4  C4  DEN d   1       6.000  -1.124   0.569  0.00  0.00     0.027 A 
ATOM      5  C5  DEN d   1       5.242  -2.260   0.744  0.00  0.00    -0.003 A 
ATOM      6  C6  DEN d   1       3.936  -2.336   0.338  0.00  0.00     0.001 A 
ATOM      7  C7  DEN d   1       3.362  -1.271  -0.305  0.00  0.00     0.017 A 
ATOM      8  C8  DEN d   1       4.118  -0.119  -0.479  0.00  0.00    -0.094 A 
ATOM      9  C9  DEN d   1       5.440  -0.067  -0.071  0.00  0.00    -0.072 A 
ENDROOT
TORSDOF 0
ENDMDL
