MODEL 1
REMARK minimizedAffinity 7.96588612
REMARK minimizedRMSD -1
REMARK  0 active torsions:
REMARK  status: ('A' for Active; 'I' for Inactive)
ROOT
ATOM      1  C1  DEN d   1       4.659   0.673  -2.020  0.00  0.00     0.130 A 
ATOM      2  C2  DEN d   1       4.361   1.110  -0.659  0.00  0.00    -0.031 A 
ATOM      3  C3  DEN d   1       3.627   0.022   0.019  0.00  0.00     0.027 A 
ATOM      4  C4  DEN d   1       2.931  -2.285  -0.901  0.00  0.00     0.027 A 
ATOM      5  C5  DEN d   1       2.952  -3.105  -2.008  0.00  0.00    -0.003 A 
ATOM      6  C6  DEN d   1       3.508  -2.713  -3.196  0.00  0.00     0.001 A 
ATOM      7  C7  DEN d   1       4.108  -1.485  -3.293  0.00  0.00     0.017 A 
ATOM      8  C8  DEN d   1       4.084  -0.650  -2.184  0.00  0.00    -0.094 A 
ATOM      9  C9  DEN d   1       3.527  -1.069  -0.988  0.00  0.00    -0.072 A 
ENDROOT
TORSDOF 0
ENDMDL
