MODEL 1
REMARK minimizedAffinity 10.2780781
REMARK minimizedRMSD -1
REMARK  0 active torsions:
REMARK  status: ('A' for Active; 'I' for Inactive)
ROOT
ATOM      1  C1  DEN d   1       3.643  -1.432  -2.407  0.00  0.00     0.130 A 
ATOM      2  C2  DEN d   1       2.888  -2.013  -1.299  0.00  0.00    -0.031 A 
ATOM      3  C3  DEN d   1       3.131  -1.187  -0.099  0.00  0.00     0.027 A 
ATOM      4  C4  DEN d   1       4.589   0.925   0.150  0.00  0.00     0.027 A 
ATOM      5  C5  DEN d   1       5.432   1.792  -0.511  0.00  0.00    -0.003 A 
ATOM      6  C6  DEN d   1       5.762   1.626  -1.830  0.00  0.00     0.001 A 
ATOM      7  C7  DEN d   1       5.210   0.595  -2.543  0.00  0.00     0.017 A 
ATOM      8  C8  DEN d   1       4.365  -0.287  -1.882  0.00  0.00    -0.094 A 
ATOM      9  C9  DEN d   1       4.034  -0.095  -0.552  0.00  0.00    -0.072 A 
ENDROOT
TORSDOF 0
ENDMDL
