MODEL 1
REMARK minimizedAffinity 10.6776524
REMARK minimizedRMSD -1
REMARK  0 active torsions:
REMARK  status: ('A' for Active; 'I' for Inactive)
ROOT
ATOM      1  C1  DEN d   1       2.517  -0.938  -0.076  0.00  0.00     0.130 A 
ATOM      2  C2  DEN d   1       3.051  -2.127   0.581  0.00  0.00    -0.031 A 
ATOM      3  C3  DEN d   1       4.515  -1.970   0.691  0.00  0.00     0.027 A 
ATOM      4  C4  DEN d   1       5.999  -0.008  -0.085  0.00  0.00     0.027 A 
ATOM      5  C5  DEN d   1       6.000   1.222  -0.706  0.00  0.00    -0.003 A 
ATOM      6  C6  DEN d   1       4.854   1.797  -1.187  0.00  0.00     0.001 A 
ATOM      7  C7  DEN d   1       3.652   1.163  -1.015  0.00  0.00     0.017 A 
ATOM      8  C8  DEN d   1       3.644  -0.080  -0.396  0.00  0.00    -0.094 A 
ATOM      9  C9  DEN d   1       4.811  -0.639   0.094  0.00  0.00    -0.072 A 
ENDROOT
TORSDOF 0
ENDMDL
