MODEL 1
REMARK minimizedAffinity 3.23410559
REMARK minimizedRMSD -1
REMARK  0 active torsions:
REMARK  status: ('A' for Active; 'I' for Inactive)
ROOT
ATOM      1  C1  DEN d   1       4.287  -2.262   0.739  0.00  0.00     0.130 A 
ATOM      2  C2  DEN d   1       2.993  -2.581   0.142  0.00  0.00    -0.031 A 
ATOM      3  C3  DEN d   1       2.621  -1.474  -0.761  0.00  0.00     0.027 A 
ATOM      4  C4  DEN d   1       3.919   0.690  -1.295  0.00  0.00     0.027 A 
ATOM      5  C5  DEN d   1       5.060   1.411  -1.022  0.00  0.00    -0.003 A 
ATOM      6  C6  DEN d   1       6.000   0.978  -0.124  0.00  0.00     0.001 A 
ATOM      7  C7  DEN d   1       5.837  -0.231   0.499  0.00  0.00     0.017 A 
ATOM      8  C8  DEN d   1       4.685  -0.960   0.234  0.00  0.00    -0.094 A 
ATOM      9  C9  DEN d   1       3.753  -0.511  -0.686  0.00  0.00    -0.072 A 
ENDROOT
TORSDOF 0
ENDMDL
