MODEL 1
REMARK minimizedAffinity 6.68851709
REMARK minimizedRMSD -1
REMARK  0 active torsions:
REMARK  status: ('A' for Active; 'I' for Inactive)
ROOT
ATOM      1  C1  DEN d   1       5.100   1.114   0.528  0.00  0.00     0.130 A 
ATOM      2  C2  DEN d   1       4.240   0.380  -0.396  0.00  0.00    -0.031 A 
ATOM      3  C3  DEN d   1       3.897   1.281  -1.515  0.00  0.00     0.027 A 
ATOM      4  C4  DEN d   1       4.615   3.728  -1.906  0.00  0.00     0.027 A 
ATOM      5  C5  DEN d   1       5.335   4.783  -1.389  0.00  0.00    -0.003 A 
ATOM      6  C6  DEN d   1       5.993   4.701  -0.191  0.00  0.00     0.001 A 
ATOM      7  C7  DEN d   1       5.982   3.524   0.510  0.00  0.00     0.017 A 
ATOM      8  C8  DEN d   1       5.253   2.458  -0.001  0.00  0.00    -0.094 A 
ATOM      9  C9  DEN d   1       4.605   2.557  -1.220  0.00  0.00    -0.072 A 
ENDROOT
TORSDOF 0
ENDMDL
