MODEL 1
REMARK minimizedAffinity 1.9678688
REMARK minimizedRMSD -1
REMARK  0 active torsions:
REMARK  status: ('A' for Active; 'I' for Inactive)
ROOT
ATOM      1  C4' PXY d   1      -0.323   0.087   2.111  0.00  0.00     0.077 C 
ATOM      2  C1' PXY d   1      -5.841  -1.409   2.961  0.00  0.00     0.077 C 
ATOM      3  C1  PXY d   1      -4.397  -1.005   2.743  0.00  0.00    -0.082 A 
ATOM      4  C2  PXY d   1      -3.671  -1.635   1.834  0.00  0.00     0.003 A 
ATOM      5  C3  PXY d   1      -2.354  -1.304   1.646  0.00  0.00     0.003 A 
ATOM      6  C4  PXY d   1      -1.788  -0.281   2.359  0.00  0.00    -0.082 A 
ATOM      7  C5  PXY d   1      -2.525   0.374   3.281  0.00  0.00     0.003 A 
ATOM      8  C6  PXY d   1      -3.848  -0.005   3.485  0.00  0.00     0.003 A 
ENDROOT
TORSDOF 0
ENDMDL
