MODEL 1
REMARK minimizedAffinity 3.34568763
REMARK minimizedRMSD -1
REMARK  0 active torsions:
REMARK  status: ('A' for Active; 'I' for Inactive)
ROOT
ATOM      1  C4' PXY d   1       0.913   3.028  -3.382  0.00  0.00     0.077 C 
ATOM      2  C1' PXY d   1       4.145   1.472   1.151  0.00  0.00     0.077 C 
ATOM      3  C1  PXY d   1       3.308   1.887  -0.043  0.00  0.00    -0.082 A 
ATOM      4  C2  PXY d   1       1.988   1.883   0.051  0.00  0.00     0.003 A 
ATOM      5  C3  PXY d   1       1.215   2.225  -1.028  0.00  0.00     0.003 A 
ATOM      6  C4  PXY d   1       1.799   2.626  -2.200  0.00  0.00    -0.082 A 
ATOM      7  C5  PXY d   1       3.145   2.643  -2.300  0.00  0.00     0.003 A 
ATOM      8  C6  PXY d   1       3.912   2.253  -1.206  0.00  0.00     0.003 A 
ENDROOT
TORSDOF 0
ENDMDL
