MODEL 1
REMARK minimizedAffinity 10.7253904
REMARK minimizedRMSD -1
REMARK  0 active torsions:
REMARK  status: ('A' for Active; 'I' for Inactive)
ROOT
ATOM      1  C4' PXY d   1      -3.558  -5.107  -5.757  0.00  0.00     0.077 C 
ATOM      2  C1' PXY d   1      -0.339  -3.590  -1.202  0.00  0.00     0.077 C 
ATOM      3  C1  PXY d   1      -1.175  -3.998  -2.399  0.00  0.00    -0.082 A 
ATOM      4  C2  PXY d   1      -1.941  -3.101  -2.998  0.00  0.00     0.003 A 
ATOM      5  C3  PXY d   1      -2.727  -3.460  -4.062  0.00  0.00     0.003 A 
ATOM      6  C4  PXY d   1      -2.690  -4.738  -4.551  0.00  0.00    -0.082 A 
ATOM      7  C5  PXY d   1      -1.903  -5.657  -3.952  0.00  0.00     0.003 A 
ATOM      8  C6  PXY d   1      -1.143  -5.282  -2.848  0.00  0.00     0.003 A 
ENDROOT
TORSDOF 0
ENDMDL
