MODEL 1
REMARK minimizedAffinity 13.4981613
REMARK minimizedRMSD -1
REMARK  0 active torsions:
REMARK  status: ('A' for Active; 'I' for Inactive)
ROOT
ATOM      1  C4' PXY d   1       2.148   1.950  -2.235  0.00  0.00     0.077 C 
ATOM      2  C1' PXY d   1       6.000   5.123  -5.152  0.00  0.00     0.077 C 
ATOM      3  C1  PXY d   1       4.997   4.293  -4.376  0.00  0.00    -0.082 A 
ATOM      4  C2  PXY d   1       4.254   3.402  -5.012  0.00  0.00     0.003 A 
ATOM      5  C3  PXY d   1       3.320   2.665  -4.331  0.00  0.00     0.003 A 
ATOM      6  C4  PXY d   1       3.181   2.804  -2.976  0.00  0.00    -0.082 A 
ATOM      7  C5  PXY d   1       3.942   3.703  -2.318  0.00  0.00     0.003 A 
ATOM      8  C6  PXY d   1       4.856   4.471  -3.034  0.00  0.00     0.003 A 
ENDROOT
TORSDOF 0
ENDMDL
