MODEL 1
REMARK minimizedAffinity 9.24417019
REMARK minimizedRMSD -1
REMARK  0 active torsions:
REMARK  status: ('A' for Active; 'I' for Inactive)
ROOT
ATOM      1  C4' PXY d   1      -5.396   0.213   1.103  0.00  0.00     0.077 C 
ATOM      2  C1' PXY d   1       0.037  -1.406   2.230  0.00  0.00     0.077 C 
ATOM      3  C1  PXY d   1      -1.388  -0.976   1.946  0.00  0.00    -0.082 A 
ATOM      4  C2  PXY d   1      -2.111  -1.647   1.064  0.00  0.00     0.003 A 
ATOM      5  C3  PXY d   1      -3.391  -1.252   0.772  0.00  0.00     0.003 A 
ATOM      6  C4  PXY d   1      -3.956  -0.192   1.428  0.00  0.00    -0.082 A 
ATOM      7  C5  PXY d   1      -3.229   0.492   2.338  0.00  0.00     0.003 A 
ATOM      8  C6  PXY d   1      -1.917   0.100   2.590  0.00  0.00     0.003 A 
ENDROOT
TORSDOF 0
ENDMDL
