MODEL 1
REMARK minimizedAffinity 13.3961306
REMARK minimizedRMSD -1
REMARK  0 active torsions:
REMARK  status: ('A' for Active; 'I' for Inactive)
ROOT
ATOM      1  C4' PXY d   1       3.739   2.935  -5.993  0.00  0.00     0.077 C 
ATOM      2  C1' PXY d   1       5.986   4.667  -0.956  0.00  0.00     0.077 C 
ATOM      3  C1  PXY d   1       5.390   4.203  -2.271  0.00  0.00    -0.082 A 
ATOM      4  C2  PXY d   1       6.000   4.501  -3.407  0.00  0.00     0.003 A 
ATOM      5  C3  PXY d   1       5.458   4.117  -4.606  0.00  0.00     0.003 A 
ATOM      6  C4  PXY d   1       4.309   3.374  -4.641  0.00  0.00    -0.082 A 
ATOM      7  C5  PXY d   1       3.686   3.057  -3.486  0.00  0.00     0.003 A 
ATOM      8  C6  PXY d   1       4.230   3.492  -2.281  0.00  0.00     0.003 A 
ENDROOT
TORSDOF 0
ENDMDL
