MODEL 1
REMARK minimizedAffinity 20.4188652
REMARK minimizedRMSD -1
REMARK  0 active torsions:
REMARK  status: ('A' for Active; 'I' for Inactive)
ROOT
ATOM      1  C4' PXY d   1      -4.429   0.430   1.068  0.00  0.00     0.077 C 
ATOM      2  C1' PXY d   1       0.752  -1.815   2.304  0.00  0.00     0.077 C 
ATOM      3  C1  PXY d   1      -0.607  -1.220   1.991  0.00  0.00    -0.082 A 
ATOM      4  C2  PXY d   1      -1.398  -1.819   1.116  0.00  0.00     0.003 A 
ATOM      5  C3  PXY d   1      -2.617  -1.278   0.798  0.00  0.00     0.003 A 
ATOM      6  C4  PXY d   1      -3.053  -0.140   1.422  0.00  0.00    -0.082 A 
ATOM      7  C5  PXY d   1      -2.256   0.472   2.324  0.00  0.00     0.003 A 
ATOM      8  C6  PXY d   1      -1.005  -0.071   2.602  0.00  0.00     0.003 A 
ENDROOT
TORSDOF 0
ENDMDL
