MODEL 1
REMARK minimizedAffinity 7.4734292
REMARK minimizedRMSD -1
REMARK  0 active torsions:
REMARK  status: ('A' for Active; 'I' for Inactive)
ROOT
ATOM      1  C4' PXY d   1      -5.515   0.419   0.491  0.00  0.00     0.077 C 
ATOM      2  C1' PXY d   1      -3.782   0.669   6.000  0.00  0.00     0.077 C 
ATOM      3  C1  PXY d   1      -4.248   0.600   4.559  0.00  0.00    -0.082 A 
ATOM      4  C2  PXY d   1      -3.366   0.396   3.595  0.00  0.00     0.003 A 
ATOM      5  C3  PXY d   1      -3.766   0.363   2.284  0.00  0.00     0.003 A 
ATOM      6  C4  PXY d   1      -5.091   0.486   1.961  0.00  0.00    -0.082 A 
ATOM      7  C5  PXY d   1      -5.999   0.684   2.940  0.00  0.00     0.003 A 
ATOM      8  C6  PXY d   1      -5.567   0.756   4.261  0.00  0.00     0.003 A 
ENDROOT
TORSDOF 0
ENDMDL
