MODEL 1
REMARK minimizedAffinity 12.3911381
REMARK minimizedRMSD -1
REMARK  0 active torsions:
REMARK  status: ('A' for Active; 'I' for Inactive)
ROOT
ATOM      1  C4' PXY d   1       0.640  -1.171   2.357  0.00  0.00     0.077 C 
ATOM      2  C1' PXY d   1      -4.869   0.229   1.305  0.00  0.00     0.077 C 
ATOM      3  C1  PXY d   1      -3.422  -0.126   1.585  0.00  0.00    -0.082 A 
ATOM      4  C2  PXY d   1      -2.855  -1.125   0.929  0.00  0.00     0.003 A 
ATOM      5  C3  PXY d   1      -1.557  -1.480   1.194  0.00  0.00     0.003 A 
ATOM      6  C4  PXY d   1      -0.816  -0.771   2.100  0.00  0.00    -0.082 A 
ATOM      7  C5  PXY d   1      -1.384   0.257   2.765  0.00  0.00     0.003 A 
ATOM      8  C6  PXY d   1      -2.715   0.575   2.512  0.00  0.00     0.003 A 
ENDROOT
TORSDOF 0
ENDMDL
