MODEL 1
REMARK minimizedAffinity 11.6177092
REMARK minimizedRMSD -1
REMARK  0 active torsions:
REMARK  status: ('A' for Active; 'I' for Inactive)
ROOT
ATOM      1  C4' PXY d   1       0.045  -4.513   0.401  0.00  0.00     0.077 C 
ATOM      2  C1' PXY d   1      -1.514   0.482   2.859  0.00  0.00     0.077 C 
ATOM      3  C1  PXY d   1      -1.093  -0.825   2.215  0.00  0.00    -0.082 A 
ATOM      4  C2  PXY d   1      -1.948  -1.482   1.449  0.00  0.00     0.003 A 
ATOM      5  C3  PXY d   1      -1.594  -2.680   0.885  0.00  0.00     0.003 A 
ATOM      6  C4  PXY d   1      -0.334  -3.185   1.064  0.00  0.00    -0.082 A 
ATOM      7  C5  PXY d   1       0.547  -2.516   1.836  0.00  0.00     0.003 A 
ATOM      8  C6  PXY d   1       0.155  -1.321   2.433  0.00  0.00     0.003 A 
ENDROOT
TORSDOF 0
ENDMDL
