MODEL 1
REMARK minimizedAffinity 9.23569489
REMARK minimizedRMSD -1
REMARK  0 active torsions:
REMARK  status: ('A' for Active; 'I' for Inactive)
ROOT
ATOM      1  C4' PXY d   1      -4.720   0.515   1.903  0.00  0.00     0.077 C 
ATOM      2  C1' PXY d   1       0.697  -1.292   2.802  0.00  0.00     0.077 C 
ATOM      3  C1  PXY d   1      -0.724  -0.814   2.578  0.00  0.00    -0.082 A 
ATOM      4  C2  PXY d   1      -1.472  -1.394   1.654  0.00  0.00     0.003 A 
ATOM      5  C3  PXY d   1      -2.748  -0.953   1.417  0.00  0.00     0.003 A 
ATOM      6  C4  PXY d   1      -3.283   0.058   2.170  0.00  0.00    -0.082 A 
ATOM      7  C5  PXY d   1      -2.530   0.648   3.122  0.00  0.00     0.003 A 
ATOM      8  C6  PXY d   1      -1.223   0.213   3.319  0.00  0.00     0.003 A 
ENDROOT
TORSDOF 0
ENDMDL
