MODEL 1
REMARK minimizedAffinity 5.7673769
REMARK minimizedRMSD -1
REMARK  0 active torsions:
REMARK  status: ('A' for Active; 'I' for Inactive)
ROOT
ATOM      1  C4' PXY d   1      -5.243   2.559   5.679  0.00  0.00     0.077 C 
ATOM      2  C1' PXY d   1      -4.602  -2.302   2.617  0.00  0.00     0.077 C 
ATOM      3  C1  PXY d   1      -4.772  -1.034   3.430  0.00  0.00    -0.082 A 
ATOM      4  C2  PXY d   1      -5.084   0.097   2.820  0.00  0.00     0.003 A 
ATOM      5  C3  PXY d   1      -5.211   1.260   3.537  0.00  0.00     0.003 A 
ATOM      6  C4  PXY d   1      -5.070   1.253   4.899  0.00  0.00    -0.082 A 
ATOM      7  C5  PXY d   1      -4.762   0.100   5.530  0.00  0.00     0.003 A 
ATOM      8  C6  PXY d   1      -4.597  -1.061   4.780  0.00  0.00     0.003 A 
ENDROOT
TORSDOF 0
ENDMDL
