MODEL 1
REMARK minimizedAffinity 18.1851788
REMARK minimizedRMSD -1
REMARK  0 active torsions:
REMARK  status: ('A' for Active; 'I' for Inactive)
ROOT
ATOM      1  C4' PXY d   1      -4.820  -2.701   2.637  0.00  0.00     0.077 C 
ATOM      2  C1' PXY d   1      -4.896   2.252  -0.341  0.00  0.00     0.077 C 
ATOM      3  C1  PXY d   1      -4.864   0.951   0.435  0.00  0.00    -0.082 A 
ATOM      4  C2  PXY d   1      -6.000   0.363   0.774  0.00  0.00     0.003 A 
ATOM      5  C3  PXY d   1      -5.990  -0.798   1.504  0.00  0.00     0.003 A 
ATOM      6  C4  PXY d   1      -4.804  -1.391   1.845  0.00  0.00    -0.082 A 
ATOM      7  C5  PXY d   1      -3.641  -0.803   1.495  0.00  0.00     0.003 A 
ATOM      8  C6  PXY d   1      -3.673   0.396   0.789  0.00  0.00     0.003 A 
ENDROOT
TORSDOF 0
ENDMDL
