MODEL 1
REMARK minimizedAffinity 13.5161247
REMARK minimizedRMSD -1
REMARK  0 active torsions:
REMARK  status: ('A' for Active; 'I' for Inactive)
ROOT
ATOM      1  C4' PXY d   1       2.484   1.222  -1.198  0.00  0.00     0.077 C 
ATOM      2  C1' PXY d   1       5.976   3.596   2.750  0.00  0.00     0.077 C 
ATOM      3  C1  PXY d   1       5.056   2.965   1.724  0.00  0.00    -0.082 A 
ATOM      4  C2  PXY d   1       5.352   3.053   0.437  0.00  0.00     0.003 A 
ATOM      5  C3  PXY d   1       4.515   2.516  -0.506  0.00  0.00     0.003 A 
ATOM      6  C4  PXY d   1       3.389   1.835  -0.126  0.00  0.00    -0.082 A 
ATOM      7  C5  PXY d   1       3.085   1.732   1.185  0.00  0.00     0.003 A 
ATOM      8  C6  PXY d   1       3.927   2.320   2.125  0.00  0.00     0.003 A 
ENDROOT
TORSDOF 0
ENDMDL
