MODEL 1
REMARK minimizedAffinity 7.25714397
REMARK minimizedRMSD -1
REMARK  0 active torsions:
REMARK  status: ('A' for Active; 'I' for Inactive)
ROOT
ATOM      1  C4' PXY d   1       1.752  -4.873  -3.081  0.00  0.00     0.077 C 
ATOM      2  C1' PXY d   1      -3.162  -5.746  -5.998  0.00  0.00     0.077 C 
ATOM      3  C1  PXY d   1      -1.879  -5.506  -5.227  0.00  0.00    -0.082 A 
ATOM      4  C2  PXY d   1      -0.739  -5.999  -5.686  0.00  0.00     0.003 A 
ATOM      5  C3  PXY d   1       0.426  -5.819  -4.985  0.00  0.00     0.003 A 
ATOM      6  C4  PXY d   1       0.433  -5.082  -3.831  0.00  0.00    -0.082 A 
ATOM      7  C5  PXY d   1      -0.723  -4.567  -3.363  0.00  0.00     0.003 A 
ATOM      8  C6  PXY d   1      -1.902  -4.796  -4.067  0.00  0.00     0.003 A 
ENDROOT
TORSDOF 0
ENDMDL
