MODEL 1
REMARK minimizedAffinity 12.5229778
REMARK minimizedRMSD -1
REMARK  0 active torsions:
REMARK  status: ('A' for Active; 'I' for Inactive)
ROOT
ATOM      1  C4' PXY d   1      -2.493   1.673   4.498  0.00  0.00     0.077 C 
ATOM      2  C1' PXY d   1      -1.739  -2.525   0.597  0.00  0.00     0.077 C 
ATOM      3  C1  PXY d   1      -1.925  -1.428   1.626  0.00  0.00    -0.082 A 
ATOM      4  C2  PXY d   1      -3.134  -0.938   1.847  0.00  0.00     0.003 A 
ATOM      5  C3  PXY d   1      -3.316   0.077   2.751  0.00  0.00     0.003 A 
ATOM      6  C4  PXY d   1      -2.258   0.558   3.475  0.00  0.00    -0.082 A 
ATOM      7  C5  PXY d   1      -1.024   0.056   3.263  0.00  0.00     0.003 A 
ATOM      8  C6  PXY d   1      -0.853  -0.945   2.311  0.00  0.00     0.003 A 
ENDROOT
TORSDOF 0
ENDMDL
