MODEL 1
REMARK minimizedAffinity 1.64529324
REMARK minimizedRMSD -1
REMARK  0 active torsions:
REMARK  status: ('A' for Active; 'I' for Inactive)
ROOT
ATOM      1  C4' PXY d   1       1.404  -1.254   3.565  0.00  0.00     0.077 C 
ATOM      2  C1' PXY d   1      -3.061   2.168   4.896  0.00  0.00     0.077 C 
ATOM      3  C1  PXY d   1      -1.886   1.271   4.559  0.00  0.00    -0.082 A 
ATOM      4  C2  PXY d   1      -1.467   1.186   3.307  0.00  0.00     0.003 A 
ATOM      5  C3  PXY d   1      -0.426   0.355   2.980  0.00  0.00     0.003 A 
ATOM      6  C4  PXY d   1       0.227  -0.354   3.952  0.00  0.00    -0.082 A 
ATOM      7  C5  PXY d   1      -0.188  -0.264   5.233  0.00  0.00     0.003 A 
ATOM      8  C6  PXY d   1      -1.273   0.553   5.539  0.00  0.00     0.003 A 
ENDROOT
TORSDOF 0
ENDMDL
