MODEL 1
REMARK minimizedAffinity 8.3848896
REMARK minimizedRMSD -1
REMARK  0 active torsions:
REMARK  status: ('A' for Active; 'I' for Inactive)
ROOT
ATOM      1  C4' PXY d   1       6.000   4.174   2.288  0.00  0.00     0.077 C 
ATOM      2  C1' PXY d   1       2.756   1.316  -1.549  0.00  0.00     0.077 C 
ATOM      3  C1  PXY d   1       3.616   2.066  -0.552  0.00  0.00    -0.082 A 
ATOM      4  C2  PXY d   1       3.337   1.990   0.740  0.00  0.00     0.003 A 
ATOM      5  C3  PXY d   1       4.086   2.687   1.653  0.00  0.00     0.003 A 
ATOM      6  C4  PXY d   1       5.164   3.426   1.245  0.00  0.00    -0.082 A 
ATOM      7  C5  PXY d   1       5.461   3.500  -0.069  0.00  0.00     0.003 A 
ATOM      8  C6  PXY d   1       4.664   2.818  -0.984  0.00  0.00     0.003 A 
ENDROOT
TORSDOF 0
ENDMDL
