MODEL 1
REMARK minimizedAffinity 20.944313
REMARK minimizedRMSD -1
REMARK  0 active torsions:
REMARK  status: ('A' for Active; 'I' for Inactive)
ROOT
ATOM      1  C4' PXY d   1      -1.163   5.019  -4.414  0.00  0.00     0.077 C 
ATOM      2  C1' PXY d   1       2.699   1.747  -1.623  0.00  0.00     0.077 C 
ATOM      3  C1  PXY d   1       1.686   2.613  -2.345  0.00  0.00    -0.082 A 
ATOM      4  C2  PXY d   1       0.962   2.095  -3.324  0.00  0.00     0.003 A 
ATOM      5  C3  PXY d   1       0.064   2.872  -4.008  0.00  0.00     0.003 A 
ATOM      6  C4  PXY d   1      -0.135   4.179  -3.651  0.00  0.00    -0.082 A 
ATOM      7  C5  PXY d   1       0.592   4.712  -2.646  0.00  0.00     0.003 A 
ATOM      8  C6  PXY d   1       1.528   3.917  -1.991  0.00  0.00     0.003 A 
ENDROOT
TORSDOF 0
ENDMDL
