MODEL 1
REMARK minimizedAffinity 12.2556581
REMARK minimizedRMSD -1
REMARK  0 active torsions:
REMARK  status: ('A' for Active; 'I' for Inactive)
ROOT
ATOM      1  C4' PXY d   1      -5.977  -1.953  -5.999  0.00  0.00     0.077 C 
ATOM      2  C1' PXY d   1      -5.949  -0.003  -0.558  0.00  0.00     0.077 C 
ATOM      3  C1  PXY d   1      -5.951  -0.526  -1.981  0.00  0.00    -0.082 A 
ATOM      4  C2  PXY d   1      -5.918   0.328  -2.991  0.00  0.00     0.003 A 
ATOM      5  C3  PXY d   1      -5.952  -0.127  -4.285  0.00  0.00     0.003 A 
ATOM      6  C4  PXY d   1      -5.967  -1.471  -4.546  0.00  0.00    -0.082 A 
ATOM      7  C5  PXY d   1      -5.990  -2.348  -3.521  0.00  0.00     0.003 A 
ATOM      8  C6  PXY d   1      -5.997  -1.865  -2.215  0.00  0.00     0.003 A 
ENDROOT
TORSDOF 0
ENDMDL
