MODEL 1
REMARK minimizedAffinity 17.0993195
REMARK minimizedRMSD -1
REMARK  0 active torsions:
REMARK  status: ('A' for Active; 'I' for Inactive)
ROOT
ATOM      1  C1  DEN d   1       1.439   1.272   1.813  0.00  0.00     0.130 A 
ATOM      2  C2  DEN d   1       0.600   2.300   2.423  0.00  0.00    -0.031 A 
ATOM      3  C3  DEN d   1       0.201   1.827   3.763  0.00  0.00     0.027 A 
ATOM      4  C4  DEN d   1       0.801  -0.383   4.950  0.00  0.00     0.027 A 
ATOM      5  C5  DEN d   1       1.478  -1.576   4.825  0.00  0.00    -0.003 A 
ATOM      6  C6  DEN d   1       2.156  -1.916   3.684  0.00  0.00     0.001 A 
ATOM      7  C7  DEN d   1       2.209  -1.032   2.638  0.00  0.00     0.017 A 
ATOM      8  C8  DEN d   1       1.523   0.169   2.754  0.00  0.00    -0.094 A 
ATOM      9  C9  DEN d   1       0.853   0.499   3.920  0.00  0.00    -0.072 A 
ENDROOT
TORSDOF 0
ENDMDL
