MODEL 1
REMARK minimizedAffinity 12.4577255
REMARK minimizedRMSD -1
REMARK  0 active torsions:
REMARK  status: ('A' for Active; 'I' for Inactive)
ROOT
ATOM      1  C1  DEN d   1       3.688  -6.000  -1.136  0.00  0.00     0.130 A 
ATOM      2  C2  DEN d   1       4.898  -5.977  -0.320  0.00  0.00    -0.031 A 
ATOM      3  C3  DEN d   1       5.867  -5.068  -0.964  0.00  0.00     0.027 A 
ATOM      4  C4  DEN d   1       5.608  -3.696  -3.133  0.00  0.00     0.027 A 
ATOM      5  C5  DEN d   1       4.763  -3.398  -4.179  0.00  0.00    -0.003 A 
ATOM      6  C6  DEN d   1       3.524  -3.969  -4.302  0.00  0.00     0.001 A 
ATOM      7  C7  DEN d   1       3.076  -4.832  -3.337  0.00  0.00     0.017 A 
ATOM      8  C8  DEN d   1       3.925  -5.143  -2.283  0.00  0.00    -0.094 A 
ATOM      9  C9  DEN d   1       5.170  -4.546  -2.171  0.00  0.00    -0.072 A 
ENDROOT
TORSDOF 0
ENDMDL
