MODEL 1
REMARK minimizedAffinity 14.4924145
REMARK minimizedRMSD -1
REMARK  0 active torsions:
REMARK  status: ('A' for Active; 'I' for Inactive)
ROOT
ATOM      1  C1  DEN d   1       0.782   2.570   0.000  0.00  0.00     0.130 A 
ATOM      2  C2  DEN d   1       0.001   3.719   0.450  0.00  0.00    -0.031 A 
ATOM      3  C3  DEN d   1      -1.412   3.478   0.094  0.00  0.00     0.027 A 
ATOM      4  C4  DEN d   1      -2.460   1.445  -1.098  0.00  0.00     0.027 A 
ATOM      5  C5  DEN d   1      -2.195   0.226  -1.681  0.00  0.00    -0.003 A 
ATOM      6  C6  DEN d   1      -0.925  -0.278  -1.774  0.00  0.00     0.001 A 
ATOM      7  C7  DEN d   1       0.124   0.420  -1.235  0.00  0.00     0.017 A 
ATOM      8  C8  DEN d   1      -0.135   1.654  -0.653  0.00  0.00    -0.094 A 
ATOM      9  C9  DEN d   1      -1.428   2.141  -0.558  0.00  0.00    -0.072 A 
ENDROOT
TORSDOF 0
ENDMDL
