MODEL 1
REMARK minimizedAffinity 14.5508537
REMARK minimizedRMSD -1
REMARK  0 active torsions:
REMARK  status: ('A' for Active; 'I' for Inactive)
ROOT
ATOM      1  C1  DEN d   1      -0.724   1.657   3.746  0.00  0.00     0.130 A 
ATOM      2  C2  DEN d   1      -0.353   2.748   2.848  0.00  0.00    -0.031 A 
ATOM      3  C3  DEN d   1       0.946   2.410   2.232  0.00  0.00     0.027 A 
ATOM      4  C4  DEN d   1       2.408   0.314   2.575  0.00  0.00     0.027 A 
ATOM      5  C5  DEN d   1       2.515  -0.883   3.249  0.00  0.00    -0.003 A 
ATOM      6  C6  DEN d   1       1.574  -1.297   4.155  0.00  0.00     0.001 A 
ATOM      7  C7  DEN d   1       0.462  -0.529   4.377  0.00  0.00     0.017 A 
ATOM      8  C8  DEN d   1       0.351   0.682   3.706  0.00  0.00    -0.094 A 
ATOM      9  C9  DEN d   1       1.306   1.077   2.785  0.00  0.00    -0.072 A 
ENDROOT
TORSDOF 0
ENDMDL
