MODEL 1
REMARK minimizedAffinity 10.4725256
REMARK minimizedRMSD -1
REMARK  0 active torsions:
REMARK  status: ('A' for Active; 'I' for Inactive)
ROOT
ATOM      1  C1  DEN d   1       0.398   2.512   1.386  0.00  0.00     0.130 A 
ATOM      2  C2  DEN d   1       1.119   2.979   2.567  0.00  0.00    -0.031 A 
ATOM      3  C3  DEN d   1       1.420   4.413   2.381  0.00  0.00     0.027 A 
ATOM      4  C4  DEN d   1       0.838   5.947   0.391  0.00  0.00     0.027 A 
ATOM      5  C5  DEN d   1       0.242   5.999  -0.850  0.00  0.00    -0.003 A 
ATOM      6  C6  DEN d   1      -0.309   4.894  -1.442  0.00  0.00     0.001 A 
ATOM      7  C7  DEN d   1      -0.315   3.698  -0.774  0.00  0.00     0.017 A 
ATOM      8  C8  DEN d   1       0.290   3.636   0.474  0.00  0.00    -0.094 A 
ATOM      9  C9  DEN d   1       0.830   4.767   1.061  0.00  0.00    -0.072 A 
ENDROOT
TORSDOF 0
ENDMDL
