MODEL 1
REMARK minimizedAffinity 14.0540371
REMARK minimizedRMSD -1
REMARK  0 active torsions:
REMARK  status: ('A' for Active; 'I' for Inactive)
ROOT
ATOM      1  C1  DEN d   1      -1.497   4.863  -0.693  0.00  0.00     0.130 A 
ATOM      2  C2  DEN d   1      -0.337   4.560   0.141  0.00  0.00    -0.031 A 
ATOM      3  C3  DEN d   1       0.879   4.804  -0.662  0.00  0.00     0.027 A 
ATOM      4  C4  DEN d   1       1.077   5.622  -3.100  0.00  0.00     0.027 A 
ATOM      5  C5  DEN d   1       0.367   5.999  -4.218  0.00  0.00    -0.003 A 
ATOM      6  C6  DEN d   1      -1.003   5.992  -4.251  0.00  0.00     0.001 A 
ATOM      7  C7  DEN d   1      -1.706   5.643  -3.129  0.00  0.00     0.017 A 
ATOM      8  C8  DEN d   1      -0.998   5.254  -2.000  0.00  0.00    -0.094 A 
ATOM      9  C9  DEN d   1       0.386   5.279  -1.983  0.00  0.00    -0.072 A 
ENDROOT
TORSDOF 0
ENDMDL
