MODEL 1
REMARK minimizedAffinity 8.38520432
REMARK minimizedRMSD -1
REMARK  0 active torsions:
REMARK  status: ('A' for Active; 'I' for Inactive)
ROOT
ATOM      1  C1  DEN d   1      -4.503  -5.977  -2.701  0.00  0.00     0.130 A 
ATOM      2  C2  DEN d   1      -5.742  -5.999  -3.472  0.00  0.00    -0.031 A 
ATOM      3  C3  DEN d   1      -5.388  -5.998  -4.906  0.00  0.00     0.027 A 
ATOM      4  C4  DEN d   1      -3.052  -5.968  -6.000  0.00  0.00     0.027 A 
ATOM      5  C5  DEN d   1      -1.697  -5.934  -5.753  0.00  0.00    -0.003 A 
ATOM      6  C6  DEN d   1      -1.188  -5.878  -4.483  0.00  0.00     0.001 A 
ATOM      7  C7  DEN d   1      -2.038  -5.900  -3.409  0.00  0.00     0.017 A 
ATOM      8  C8  DEN d   1      -3.405  -5.927  -3.650  0.00  0.00    -0.094 A 
ATOM      9  C9  DEN d   1      -3.900  -5.995  -4.941  0.00  0.00    -0.072 A 
ENDROOT
TORSDOF 0
ENDMDL
