MODEL 1
REMARK minimizedAffinity 13.0048628
REMARK minimizedRMSD -1
REMARK  0 active torsions:
REMARK  status: ('A' for Active; 'I' for Inactive)
ROOT
ATOM      1  C1  DEN d   1      -4.359   3.867  -2.275  0.00  0.00     0.130 A 
ATOM      2  C2  DEN d   1      -3.431   4.906  -1.837  0.00  0.00    -0.031 A 
ATOM      3  C3  DEN d   1      -3.349   5.924  -2.904  0.00  0.00     0.027 A 
ATOM      4  C4  DEN d   1      -4.566   5.993  -5.177  0.00  0.00     0.027 A 
ATOM      5  C5  DEN d   1      -5.447   5.326  -6.000  0.00  0.00    -0.003 A 
ATOM      6  C6  DEN d   1      -5.996   4.119  -5.656  0.00  0.00     0.001 A 
ATOM      7  C7  DEN d   1      -5.705   3.563  -4.438  0.00  0.00     0.017 A 
ATOM      8  C8  DEN d   1      -4.812   4.226  -3.607  0.00  0.00    -0.094 A 
ATOM      9  C9  DEN d   1      -4.277   5.451  -3.967  0.00  0.00    -0.072 A 
ENDROOT
TORSDOF 0
ENDMDL
