MODEL 1
REMARK minimizedAffinity 11.7918987
REMARK minimizedRMSD -1
REMARK  0 active torsions:
REMARK  status: ('A' for Active; 'I' for Inactive)
ROOT
ATOM      1  C1  DEN d   1       0.829   2.537   1.108  0.00  0.00     0.130 A 
ATOM      2  C2  DEN d   1       0.034   2.232   2.294  0.00  0.00    -0.031 A 
ATOM      3  C3  DEN d   1      -1.005   3.272   2.428  0.00  0.00     0.027 A 
ATOM      4  C4  DEN d   1      -1.461   5.313   0.919  0.00  0.00     0.027 A 
ATOM      5  C5  DEN d   1      -1.042   5.997  -0.201  0.00  0.00    -0.003 A 
ATOM      6  C6  DEN d   1       0.042   5.598  -0.938  0.00  0.00     0.001 A 
ATOM      7  C7  DEN d   1       0.717   4.459  -0.589  0.00  0.00     0.017 A 
ATOM      8  C8  DEN d   1       0.305   3.768   0.543  0.00  0.00    -0.094 A 
ATOM      9  C9  DEN d   1      -0.800   4.181   1.268  0.00  0.00    -0.072 A 
ENDROOT
TORSDOF 0
ENDMDL
