MODEL 1
REMARK minimizedAffinity 4.22293615
REMARK minimizedRMSD -1
REMARK  0 active torsions:
REMARK  status: ('A' for Active; 'I' for Inactive)
ROOT
ATOM      1  C1  DEN d   1      -5.999  -3.701   3.602  0.00  0.00     0.130 A 
ATOM      2  C2  DEN d   1      -5.988  -4.506   4.821  0.00  0.00    -0.031 A 
ATOM      3  C3  DEN d   1      -5.974  -3.586   5.976  0.00  0.00     0.027 A 
ATOM      4  C4  DEN d   1      -5.973  -1.007   5.996  0.00  0.00     0.027 A 
ATOM      5  C5  DEN d   1      -5.969   0.122   5.207  0.00  0.00    -0.003 A 
ATOM      6  C6  DEN d   1      -5.940   0.056   3.839  0.00  0.00     0.001 A 
ATOM      7  C7  DEN d   1      -5.960  -1.165   3.217  0.00  0.00     0.017 A 
ATOM      8  C8  DEN d   1      -5.957  -2.307   4.006  0.00  0.00    -0.094 A 
ATOM      9  C9  DEN d   1      -5.999  -2.220   5.388  0.00  0.00    -0.072 A 
ENDROOT
TORSDOF 0
ENDMDL
