MODEL 1
REMARK minimizedAffinity -3.21238065
REMARK minimizedRMSD -1
REMARK  0 active torsions:
REMARK  status: ('A' for Active; 'I' for Inactive)
ROOT
ATOM      1  N1  IND d   1      -2.577  -5.979  -4.453  0.00  0.00    -0.196 N 
ATOM      2  C2  IND d   1      -1.466  -5.989  -5.249  0.00  0.00     0.054 A 
ATOM      3  C3  IND d   1      -1.413  -4.863  -5.996  0.00  0.00    -0.031 A 
ATOM      4  C4  IND d   1      -2.989  -2.827  -6.000  0.00  0.00     0.051 A 
ATOM      5  C5  IND d   1      -4.163  -2.373  -5.469  0.00  0.00    -0.031 A 
ATOM      6  C6  IND d   1      -4.882  -3.112  -4.551  0.00  0.00     0.015 A 
ATOM      7  C7  IND d   1      -4.445  -4.333  -4.120  0.00  0.00    -0.016 A 
ATOM      8  C8  IND d   1      -3.257  -4.800  -4.663  0.00  0.00    -0.047 A 
ATOM      9  C9  IND d   1      -2.544  -4.074  -5.626  0.00  0.00    -0.096 A 
ATOM     10  HN1 IND d   1      -2.811  -6.605  -3.912  0.00  0.00     0.298 HD
ENDROOT
TORSDOF 0
ENDMDL
