MODEL 1
REMARK minimizedAffinity -2.98154211
REMARK minimizedRMSD -1
REMARK  0 active torsions:
REMARK  status: ('A' for Active; 'I' for Inactive)
ROOT
ATOM      1  N1  IND d   1      -3.685  -5.858  -4.044  0.00  0.00    -0.196 N 
ATOM      2  C2  IND d   1      -2.869  -5.984  -5.134  0.00  0.00     0.054 A 
ATOM      3  C3  IND d   1      -3.081  -4.968  -6.000  0.00  0.00    -0.031 A 
ATOM      4  C4  IND d   1      -4.646  -2.935  -5.784  0.00  0.00     0.051 A 
ATOM      5  C5  IND d   1      -5.617  -2.403  -4.983  0.00  0.00    -0.031 A 
ATOM      6  C6  IND d   1      -5.999  -3.007  -3.803  0.00  0.00     0.015 A 
ATOM      7  C7  IND d   1      -5.414  -4.164  -3.372  0.00  0.00    -0.016 A 
ATOM      8  C8  IND d   1      -4.433  -4.710  -4.187  0.00  0.00    -0.047 A 
ATOM      9  C9  IND d   1      -4.070  -4.125  -5.407  0.00  0.00    -0.096 A 
ATOM     10  HN1 IND d   1      -3.724  -6.405  -3.381  0.00  0.00     0.298 HD
ENDROOT
TORSDOF 0
ENDMDL
