MODEL 1
REMARK minimizedAffinity -1.23540235
REMARK minimizedRMSD -1
REMARK  0 active torsions:
REMARK  status: ('A' for Active; 'I' for Inactive)
ROOT
ATOM      1  N1  IND d   1      -1.819  -5.923  -6.000  0.00  0.00    -0.196 N 
ATOM      2  C2  IND d   1      -0.734  -5.679  -5.205  0.00  0.00     0.054 A 
ATOM      3  C3  IND d   1      -1.048  -4.782  -4.243  0.00  0.00    -0.031 A 
ATOM      4  C4  IND d   1      -3.308  -3.663  -3.725  0.00  0.00     0.051 A 
ATOM      5  C5  IND d   1      -4.584  -3.545  -4.197  0.00  0.00    -0.031 A 
ATOM      6  C6  IND d   1      -5.014  -4.229  -5.316  0.00  0.00     0.015 A 
ATOM      7  C7  IND d   1      -4.182  -5.070  -6.000  0.00  0.00    -0.016 A 
ATOM      8  C8  IND d   1      -2.883  -5.187  -5.527  0.00  0.00    -0.047 A 
ATOM      9  C9  IND d   1      -2.429  -4.462  -4.417  0.00  0.00    -0.096 A 
ATOM     10  HN1 IND d   1      -1.834  -6.448  -6.681  0.00  0.00     0.298 HD
ENDROOT
TORSDOF 0
ENDMDL
