MODEL 1
REMARK minimizedAffinity -4.12473583
REMARK minimizedRMSD -1
REMARK  0 active torsions:
REMARK  status: ('A' for Active; 'I' for Inactive)
ROOT
ATOM      1  N1  IND d   1      -4.330  -5.931  -5.120  0.00  0.00    -0.196 N 
ATOM      2  C2  IND d   1      -2.966  -5.997  -5.046  0.00  0.00     0.054 A 
ATOM      3  C3  IND d   1      -2.428  -4.764  -5.181  0.00  0.00    -0.031 A 
ATOM      4  C4  IND d   1      -3.600  -2.486  -5.431  0.00  0.00     0.051 A 
ATOM      5  C5  IND d   1      -4.835  -1.921  -5.586  0.00  0.00    -0.031 A 
ATOM      6  C6  IND d   1      -5.988  -2.679  -5.591  0.00  0.00     0.015 A 
ATOM      7  C7  IND d   1      -5.949  -4.035  -5.429  0.00  0.00    -0.016 A 
ATOM      8  C8  IND d   1      -4.697  -4.613  -5.278  0.00  0.00    -0.047 A 
ATOM      9  C9  IND d   1      -3.520  -3.854  -5.315  0.00  0.00    -0.096 A 
ATOM     10  HN1 IND d   1      -4.867  -6.601  -5.075  0.00  0.00     0.298 HD
ENDROOT
TORSDOF 0
ENDMDL
