MODEL 1
REMARK minimizedAffinity 0.250474423
REMARK minimizedRMSD -1
REMARK  0 active torsions:
REMARK  status: ('A' for Active; 'I' for Inactive)
ROOT
ATOM      1  N1  IND d   1       0.158  -1.707   3.930  0.00  0.00    -0.196 N 
ATOM      2  C2  IND d   1       1.196  -2.504   3.537  0.00  0.00     0.054 A 
ATOM      3  C3  IND d   1       1.018  -2.914   2.261  0.00  0.00    -0.031 A 
ATOM      4  C4  IND d   1      -0.853  -2.313   0.597  0.00  0.00     0.051 A 
ATOM      5  C5  IND d   1      -2.043  -1.646   0.509  0.00  0.00    -0.031 A 
ATOM      6  C6  IND d   1      -2.569  -0.949   1.577  0.00  0.00     0.015 A 
ATOM      7  C7  IND d   1      -1.916  -0.883   2.775  0.00  0.00    -0.016 A 
ATOM      8  C8  IND d   1      -0.712  -1.565   2.871  0.00  0.00    -0.047 A 
ATOM      9  C9  IND d   1      -0.194  -2.310   1.804  0.00  0.00    -0.096 A 
ATOM     10  HN1 IND d   1       0.064  -1.353   4.708  0.00  0.00     0.298 HD
ENDROOT
TORSDOF 0
ENDMDL
