MODEL 1
REMARK minimizedAffinity 5.41128683
REMARK minimizedRMSD -1
REMARK  0 active torsions:
REMARK  status: ('A' for Active; 'I' for Inactive)
ROOT
ATOM      1  N1  IND d   1      -3.353  -4.299  -2.659  0.00  0.00    -0.196 N 
ATOM      2  C2  IND d   1      -4.543  -3.855  -3.163  0.00  0.00     0.054 A 
ATOM      3  C3  IND d   1      -4.626  -4.130  -4.484  0.00  0.00    -0.031 A 
ATOM      4  C4  IND d   1      -2.970  -5.390  -6.000  0.00  0.00     0.051 A 
ATOM      5  C5  IND d   1      -1.726  -5.955  -6.000  0.00  0.00    -0.031 A 
ATOM      6  C6  IND d   1      -0.945  -6.000  -4.863  0.00  0.00     0.015 A 
ATOM      7  C7  IND d   1      -1.387  -5.489  -3.675  0.00  0.00    -0.016 A 
ATOM      8  C8  IND d   1      -2.648  -4.909  -3.673  0.00  0.00    -0.047 A 
ATOM      9  C9  IND d   1      -3.427  -4.822  -4.834  0.00  0.00    -0.096 A 
ATOM     10  HN1 IND d   1      -3.089  -4.212  -1.845  0.00  0.00     0.298 HD
ENDROOT
TORSDOF 0
ENDMDL
