MODEL 1
REMARK minimizedAffinity -0.838918567
REMARK minimizedRMSD -1
REMARK  0 active torsions:
REMARK  status: ('A' for Active; 'I' for Inactive)
ROOT
ATOM      1  N1  IND d   1      -3.084  -5.904  -6.000  0.00  0.00    -0.196 N 
ATOM      2  C2  IND d   1      -1.986  -5.846  -5.188  0.00  0.00     0.054 A 
ATOM      3  C3  IND d   1      -2.176  -4.938  -4.205  0.00  0.00    -0.031 A 
ATOM      4  C4  IND d   1      -4.250  -3.507  -3.678  0.00  0.00     0.051 A 
ATOM      5  C5  IND d   1      -5.488  -3.186  -4.159  0.00  0.00    -0.031 A 
ATOM      6  C6  IND d   1      -6.000  -3.769  -5.301  0.00  0.00     0.015 A 
ATOM      7  C7  IND d   1      -5.294  -4.707  -6.000  0.00  0.00    -0.016 A 
ATOM      8  C8  IND d   1      -4.033  -5.030  -5.517  0.00  0.00    -0.047 A 
ATOM      9  C9  IND d   1      -3.491  -4.410  -4.384  0.00  0.00    -0.096 A 
ATOM     10  HN1 IND d   1      -3.168  -6.403  -6.695  0.00  0.00     0.298 HD
ENDROOT
TORSDOF 0
ENDMDL
