MODEL 1
REMARK minimizedAffinity -1.24707842
REMARK minimizedRMSD -1
REMARK  0 active torsions:
REMARK  status: ('A' for Active; 'I' for Inactive)
ROOT
ATOM      1  N1  IND d   1      -5.398  -4.235  -4.770  0.00  0.00    -0.196 N 
ATOM      2  C2  IND d   1      -5.271  -3.009  -4.180  0.00  0.00     0.054 A 
ATOM      3  C3  IND d   1      -3.971  -2.639  -4.139  0.00  0.00    -0.031 A 
ATOM      4  C4  IND d   1      -1.898  -3.845  -5.073  0.00  0.00     0.051 A 
ATOM      5  C5  IND d   1      -1.507  -5.013  -5.666  0.00  0.00    -0.031 A 
ATOM      6  C6  IND d   1      -2.412  -6.000  -6.000  0.00  0.00     0.015 A 
ATOM      7  C7  IND d   1      -3.749  -5.850  -5.762  0.00  0.00    -0.016 A 
ATOM      8  C8  IND d   1      -4.148  -4.669  -5.154  0.00  0.00    -0.047 A 
ATOM      9  C9  IND d   1      -3.230  -3.682  -4.774  0.00  0.00    -0.096 A 
ATOM     10  HN1 IND d   1      -6.135  -4.664  -4.882  0.00  0.00     0.298 HD
ENDROOT
TORSDOF 0
ENDMDL
