MODEL 1
REMARK minimizedAffinity -0.459093362
REMARK minimizedRMSD -1
REMARK  0 active torsions:
REMARK  status: ('A' for Active; 'I' for Inactive)
ROOT
ATOM      1  N1  IND d   1      -3.093  -6.000  -4.047  0.00  0.00    -0.196 N 
ATOM      2  C2  IND d   1      -2.564  -5.322  -2.984  0.00  0.00     0.054 A 
ATOM      3  C3  IND d   1      -3.196  -4.139  -2.819  0.00  0.00    -0.031 A 
ATOM      4  C4  IND d   1      -5.192  -3.156  -4.112  0.00  0.00     0.051 A 
ATOM      5  C5  IND d   1      -5.997  -3.390  -5.192  0.00  0.00    -0.031 A 
ATOM      6  C6  IND d   1      -5.874  -4.531  -5.959  0.00  0.00     0.015 A 
ATOM      7  C7  IND d   1      -4.946  -5.489  -5.666  0.00  0.00    -0.016 A 
ATOM      8  C8  IND d   1      -4.122  -5.251  -4.575  0.00  0.00    -0.047 A 
ATOM      9  C9  IND d   1      -4.214  -4.075  -3.819  0.00  0.00    -0.096 A 
ATOM     10  HN1 IND d   1      -2.828  -6.765  -4.337  0.00  0.00     0.298 HD
ENDROOT
TORSDOF 0
ENDMDL
