MODEL 1
REMARK minimizedAffinity -4.20687151
REMARK minimizedRMSD -1
REMARK  0 active torsions:
REMARK  status: ('A' for Active; 'I' for Inactive)
ROOT
ATOM      1  N1  IND d   1      -4.124  -5.940  -4.923  0.00  0.00    -0.196 N 
ATOM      2  C2  IND d   1      -2.794  -5.961  -5.240  0.00  0.00     0.054 A 
ATOM      3  C3  IND d   1      -2.376  -4.726  -5.597  0.00  0.00    -0.031 A 
ATOM      4  C4  IND d   1      -3.677  -2.505  -5.634  0.00  0.00     0.051 A 
ATOM      5  C5  IND d   1      -4.931  -1.988  -5.460  0.00  0.00    -0.031 A 
ATOM      6  C6  IND d   1      -6.000  -2.777  -5.088  0.00  0.00     0.015 A 
ATOM      7  C7  IND d   1      -5.853  -4.117  -4.864  0.00  0.00    -0.016 A 
ATOM      8  C8  IND d   1      -4.583  -4.647  -5.046  0.00  0.00    -0.047 A 
ATOM      9  C9  IND d   1      -3.503  -3.859  -5.465  0.00  0.00    -0.096 A 
ATOM     10  HN1 IND d   1      -4.594  -6.619  -4.685  0.00  0.00     0.298 HD
ENDROOT
TORSDOF 0
ENDMDL
