MODEL 1
REMARK minimizedAffinity -1.33761156
REMARK minimizedRMSD -1
REMARK  0 active torsions:
REMARK  status: ('A' for Active; 'I' for Inactive)
ROOT
ATOM      1  N1  IND d   1      -1.877  -5.218  -3.928  0.00  0.00    -0.196 N 
ATOM      2  C2  IND d   1      -1.688  -5.990  -5.039  0.00  0.00     0.054 A 
ATOM      3  C3  IND d   1      -2.580  -5.660  -6.000  0.00  0.00    -0.031 A 
ATOM      4  C4  IND d   1      -4.373  -3.813  -6.000  0.00  0.00     0.051 A 
ATOM      5  C5  IND d   1      -4.950  -2.871  -5.195  0.00  0.00    -0.031 A 
ATOM      6  C6  IND d   1      -4.521  -2.657  -3.901  0.00  0.00     0.015 A 
ATOM      7  C7  IND d   1      -3.487  -3.372  -3.365  0.00  0.00    -0.016 A 
ATOM      8  C8  IND d   1      -2.905  -4.335  -4.178  0.00  0.00    -0.047 A 
ATOM      9  C9  IND d   1      -3.363  -4.585  -5.477  0.00  0.00    -0.096 A 
ATOM     10  HN1 IND d   1      -1.430  -5.274  -3.195  0.00  0.00     0.298 HD
ENDROOT
TORSDOF 0
ENDMDL
