MODEL 1
REMARK minimizedAffinity 2.79419136
REMARK minimizedRMSD -1
REMARK  0 active torsions:
REMARK  status: ('A' for Active; 'I' for Inactive)
ROOT
ATOM      1  N1  IND d   1       2.015  -3.441   3.857  0.00  0.00    -0.196 N 
ATOM      2  C2  IND d   1       1.463  -3.246   5.092  0.00  0.00     0.054 A 
ATOM      3  C3  IND d   1       0.513  -2.286   5.036  0.00  0.00    -0.031 A 
ATOM      4  C4  IND d   1      -0.369  -0.974   3.005  0.00  0.00     0.051 A 
ATOM      5  C5  IND d   1      -0.149  -0.779   1.670  0.00  0.00    -0.031 A 
ATOM      6  C6  IND d   1       0.822  -1.477   0.982  0.00  0.00     0.015 A 
ATOM      7  C7  IND d   1       1.605  -2.409   1.603  0.00  0.00    -0.016 A 
ATOM      8  C8  IND d   1       1.388  -2.605   2.959  0.00  0.00    -0.047 A 
ATOM      9  C9  IND d   1       0.433  -1.869   3.672  0.00  0.00    -0.096 A 
ATOM     10  HN1 IND d   1       2.648  -3.993   3.672  0.00  0.00     0.298 HD
ENDROOT
TORSDOF 0
ENDMDL
