MODEL 1
REMARK minimizedAffinity 6.28332376
REMARK minimizedRMSD -1
REMARK  0 active torsions:
REMARK  status: ('A' for Active; 'I' for Inactive)
ROOT
ATOM      1  N1  IND d   1      -5.496  -5.543  -4.309  0.00  0.00    -0.196 N 
ATOM      2  C2  IND d   1      -6.000  -4.997  -5.457  0.00  0.00     0.054 A 
ATOM      3  C3  IND d   1      -5.108  -4.138  -6.000  0.00  0.00    -0.031 A 
ATOM      4  C4  IND d   1      -2.723  -3.552  -5.228  0.00  0.00     0.051 A 
ATOM      5  C5  IND d   1      -1.836  -3.771  -4.212  0.00  0.00    -0.031 A 
ATOM      6  C6  IND d   1      -2.128  -4.610  -3.157  0.00  0.00     0.015 A 
ATOM      7  C7  IND d   1      -3.319  -5.274  -3.083  0.00  0.00    -0.016 A 
ATOM      8  C8  IND d   1      -4.226  -5.049  -4.110  0.00  0.00    -0.047 A 
ATOM      9  C9  IND d   1      -3.952  -4.166  -5.162  0.00  0.00    -0.096 A 
ATOM     10  HN1 IND d   1      -5.905  -6.101  -3.798  0.00  0.00     0.298 HD
ENDROOT
TORSDOF 0
ENDMDL
