MODEL 1
REMARK minimizedAffinity -2.58046889
REMARK minimizedRMSD -1
REMARK  0 active torsions:
REMARK  status: ('A' for Active; 'I' for Inactive)
ROOT
ATOM      1  N1  IND d   1      -5.758  -3.928  -4.125  0.00  0.00    -0.196 N 
ATOM      2  C2  IND d   1      -5.997  -3.035  -5.131  0.00  0.00     0.054 A 
ATOM      3  C3  IND d   1      -4.956  -3.006  -5.992  0.00  0.00    -0.031 A 
ATOM      4  C4  IND d   1      -2.800  -4.413  -6.000  0.00  0.00     0.051 A 
ATOM      5  C5  IND d   1      -2.115  -5.338  -5.263  0.00  0.00    -0.031 A 
ATOM      6  C6  IND d   1      -2.621  -5.853  -4.086  0.00  0.00     0.015 A 
ATOM      7  C7  IND d   1      -3.841  -5.468  -3.607  0.00  0.00    -0.016 A 
ATOM      8  C8  IND d   1      -4.536  -4.524  -4.349  0.00  0.00    -0.047 A 
ATOM      9  C9  IND d   1      -4.009  -3.967  -5.521  0.00  0.00    -0.096 A 
ATOM     10  HN1 IND d   1      -6.282  -4.091  -3.463  0.00  0.00     0.298 HD
ENDROOT
TORSDOF 0
ENDMDL
