MODEL 1
REMARK minimizedAffinity -4.84836626
REMARK minimizedRMSD -1
REMARK  0 active torsions:
REMARK  status: ('A' for Active; 'I' for Inactive)
ROOT
ATOM      1  N1  IND d   1      -4.046  -4.060  -3.801  0.00  0.00    -0.196 N 
ATOM      2  C2  IND d   1      -4.519  -3.574  -4.988  0.00  0.00     0.054 A 
ATOM      3  C3  IND d   1      -3.685  -3.907  -5.999  0.00  0.00    -0.031 A 
ATOM      4  C4  IND d   1      -1.542  -5.332  -5.948  0.00  0.00     0.051 A 
ATOM      5  C5  IND d   1      -0.690  -5.966  -5.087  0.00  0.00    -0.031 A 
ATOM      6  C6  IND d   1      -0.919  -6.000  -3.727  0.00  0.00     0.015 A 
ATOM      7  C7  IND d   1      -2.020  -5.408  -3.175  0.00  0.00    -0.016 A 
ATOM      8  C8  IND d   1      -2.884  -4.758  -4.045  0.00  0.00    -0.047 A 
ATOM      9  C9  IND d   1      -2.634  -4.683  -5.422  0.00  0.00    -0.096 A 
ATOM     10  HN1 IND d   1      -4.413  -3.948  -3.031  0.00  0.00     0.298 HD
ENDROOT
TORSDOF 0
ENDMDL
