MODEL 1
REMARK minimizedAffinity -3.00269675
REMARK minimizedRMSD -1
REMARK  0 active torsions:
REMARK  status: ('A' for Active; 'I' for Inactive)
ROOT
ATOM      1  N1  IND d   1      -5.034  -3.791  -4.293  0.00  0.00    -0.196 N 
ATOM      2  C2  IND d   1      -5.931  -4.326  -5.175  0.00  0.00     0.054 A 
ATOM      3  C3  IND d   1      -5.315  -5.207  -5.995  0.00  0.00    -0.031 A 
ATOM      4  C4  IND d   1      -2.865  -6.000  -6.000  0.00  0.00     0.051 A 
ATOM      5  C5  IND d   1      -1.657  -5.768  -5.404  0.00  0.00    -0.031 A 
ATOM      6  C6  IND d   1      -1.510  -4.849  -4.385  0.00  0.00     0.015 A 
ATOM      7  C7  IND d   1      -2.574  -4.132  -3.914  0.00  0.00    -0.016 A 
ATOM      8  C8  IND d   1      -3.801  -4.360  -4.521  0.00  0.00    -0.047 A 
ATOM      9  C9  IND d   1      -3.947  -5.260  -5.584  0.00  0.00    -0.096 A 
ATOM     10  HN1 IND d   1      -5.211  -3.198  -3.695  0.00  0.00     0.298 HD
ENDROOT
TORSDOF 0
ENDMDL
