MODEL 1
REMARK minimizedAffinity -2.83384824
REMARK minimizedRMSD -1
REMARK  0 active torsions:
REMARK  status: ('A' for Active; 'I' for Inactive)
ROOT
ATOM      1  C4' PXY d   1      -5.994   3.384  -3.007  0.00  0.00     0.077 C 
ATOM      2  C1' PXY d   1      -0.585   1.485  -3.749  0.00  0.00     0.077 C 
ATOM      3  C1  PXY d   1      -2.008   1.971  -3.559  0.00  0.00    -0.082 A 
ATOM      4  C2  PXY d   1      -2.261   3.270  -3.558  0.00  0.00     0.003 A 
ATOM      5  C3  PXY d   1      -3.537   3.728  -3.356  0.00  0.00     0.003 A 
ATOM      6  C4  PXY d   1      -4.574   2.847  -3.205  0.00  0.00    -0.082 A 
ATOM      7  C5  PXY d   1      -4.326   1.520  -3.215  0.00  0.00     0.003 A 
ATOM      8  C6  PXY d   1      -3.018   1.076  -3.381  0.00  0.00     0.003 A 
ENDROOT
TORSDOF 0
ENDMDL
