MODEL 1
REMARK minimizedAffinity 2.90375519
REMARK minimizedRMSD -1
REMARK  0 active torsions:
REMARK  status: ('A' for Active; 'I' for Inactive)
ROOT
ATOM      1  C4' PXY d   1       3.716  -0.729  -3.964  0.00  0.00     0.077 C 
ATOM      2  C1' PXY d   1       5.589  -5.804  -6.000  0.00  0.00     0.077 C 
ATOM      3  C1  PXY d   1       5.109  -4.467  -5.470  0.00  0.00    -0.082 A 
ATOM      4  C2  PXY d   1       4.213  -4.433  -4.497  0.00  0.00     0.003 A 
ATOM      5  C3  PXY d   1       3.744  -3.233  -4.028  0.00  0.00     0.003 A 
ATOM      6  C4  PXY d   1       4.236  -2.056  -4.523  0.00  0.00    -0.082 A 
ATOM      7  C5  PXY d   1       5.158  -2.082  -5.509  0.00  0.00     0.003 A 
ATOM      8  C6  PXY d   1       5.591  -3.311  -6.000  0.00  0.00     0.003 A 
ENDROOT
TORSDOF 0
ENDMDL
