MODEL 1
REMARK minimizedAffinity 1.56648695
REMARK minimizedRMSD -1
REMARK  0 active torsions:
REMARK  status: ('A' for Active; 'I' for Inactive)
ROOT
ATOM      1  C4' PXY d   1       4.546  -3.265   1.757  0.00  0.00     0.077 C 
ATOM      2  C1' PXY d   1       0.460  -5.643  -1.569  0.00  0.00     0.077 C 
ATOM      3  C1  PXY d   1       1.533  -5.009  -0.705  0.00  0.00    -0.082 A 
ATOM      4  C2  PXY d   1       2.200  -5.755   0.161  0.00  0.00     0.003 A 
ATOM      5  C3  PXY d   1       3.152  -5.192   0.972  0.00  0.00     0.003 A 
ATOM      6  C4  PXY d   1       3.461  -3.863   0.858  0.00  0.00    -0.082 A 
ATOM      7  C5  PXY d   1       2.792  -3.098  -0.031  0.00  0.00     0.003 A 
ATOM      8  C6  PXY d   1       1.801  -3.680  -0.816  0.00  0.00     0.003 A 
ENDROOT
TORSDOF 0
ENDMDL
