MODEL 1
REMARK minimizedAffinity 7.03691149
REMARK minimizedRMSD -1
REMARK  0 active torsions:
REMARK  status: ('A' for Active; 'I' for Inactive)
ROOT
ATOM      1  C4' PXY d   1       2.463  -1.831  -4.122  0.00  0.00     0.077 C 
ATOM      2  C1' PXY d   1       6.000  -6.000  -6.000  0.00  0.00     0.077 C 
ATOM      3  C1  PXY d   1       5.062  -4.915  -5.508  0.00  0.00    -0.082 A 
ATOM      4  C2  PXY d   1       5.364  -3.644  -5.720  0.00  0.00     0.003 A 
ATOM      5  C3  PXY d   1       4.543  -2.649  -5.253  0.00  0.00     0.003 A 
ATOM      6  C4  PXY d   1       3.375  -2.960  -4.610  0.00  0.00    -0.082 A 
ATOM      7  C5  PXY d   1       3.055  -4.254  -4.399  0.00  0.00     0.003 A 
ATOM      8  C6  PXY d   1       3.922  -5.248  -4.844  0.00  0.00     0.003 A 
ENDROOT
TORSDOF 0
ENDMDL
