MODEL 1
REMARK minimizedAffinity 7.38812971
REMARK minimizedRMSD -1
REMARK  0 active torsions:
REMARK  status: ('A' for Active; 'I' for Inactive)
ROOT
ATOM      1  C4' PXY d   1       5.368  -0.924  -5.999  0.00  0.00     0.077 C 
ATOM      2  C1' PXY d   1       3.134  -5.999  -4.365  0.00  0.00     0.077 C 
ATOM      3  C1  PXY d   1       3.708  -4.663  -4.792  0.00  0.00    -0.082 A 
ATOM      4  C2  PXY d   1       4.786  -4.629  -5.558  0.00  0.00     0.003 A 
ATOM      5  C3  PXY d   1       5.338  -3.429  -5.927  0.00  0.00     0.003 A 
ATOM      6  C4  PXY d   1       4.748  -2.251  -5.552  0.00  0.00    -0.082 A 
ATOM      7  C5  PXY d   1       3.641  -2.278  -4.779  0.00  0.00     0.003 A 
ATOM      8  C6  PXY d   1       3.121  -3.506  -4.381  0.00  0.00     0.003 A 
ENDROOT
TORSDOF 0
ENDMDL
