MODEL 1
REMARK minimizedAffinity 7.95281363
REMARK minimizedRMSD -1
REMARK  0 active torsions:
REMARK  status: ('A' for Active; 'I' for Inactive)
ROOT
ATOM      1  C4' PXY d   1       1.351  -1.693  -3.385  0.00  0.00     0.077 C 
ATOM      2  C1' PXY d   1       0.303  -5.999   0.326  0.00  0.00     0.077 C 
ATOM      3  C1  PXY d   1       0.584  -4.878  -0.655  0.00  0.00    -0.082 A 
ATOM      4  C2  PXY d   1       0.583  -3.624  -0.233  0.00  0.00     0.003 A 
ATOM      5  C3  PXY d   1       0.804  -2.596  -1.113  0.00  0.00     0.003 A 
ATOM      6  C4  PXY d   1       1.081  -2.857  -2.429  0.00  0.00    -0.082 A 
ATOM      7  C5  PXY d   1       1.095  -4.135  -2.865  0.00  0.00     0.003 A 
ATOM      8  C6  PXY d   1       0.828  -5.162  -1.964  0.00  0.00     0.003 A 
ENDROOT
TORSDOF 0
ENDMDL
