MODEL 1
REMARK minimizedAffinity 9.41634178
REMARK minimizedRMSD -1
REMARK  0 active torsions:
REMARK  status: ('A' for Active; 'I' for Inactive)
ROOT
ATOM      1  C4' PXY d   1      -2.194   0.409  -2.421  0.00  0.00     0.077 C 
ATOM      2  C1' PXY d   1       0.731  -0.971   2.370  0.00  0.00     0.077 C 
ATOM      3  C1  PXY d   1      -0.039  -0.597   1.119  0.00  0.00    -0.082 A 
ATOM      4  C2  PXY d   1      -0.490  -1.550   0.320  0.00  0.00     0.003 A 
ATOM      5  C3  PXY d   1      -1.161  -1.230  -0.832  0.00  0.00     0.003 A 
ATOM      6  C4  PXY d   1      -1.419   0.078  -1.142  0.00  0.00    -0.082 A 
ATOM      7  C5  PXY d   1      -0.972   1.056  -0.326  0.00  0.00     0.003 A 
ATOM      8  C6  PXY d   1      -0.257   0.711   0.817  0.00  0.00     0.003 A 
ENDROOT
TORSDOF 0
ENDMDL
