MODEL 1
REMARK minimizedAffinity 5.79040718
REMARK minimizedRMSD -1
REMARK  0 active torsions:
REMARK  status: ('A' for Active; 'I' for Inactive)
ROOT
ATOM      1  C4' PXY d   1       5.997  -5.995  -5.997  0.00  0.00     0.077 C 
ATOM      2  C1' PXY d   1       2.648  -1.695  -4.074  0.00  0.00     0.077 C 
ATOM      3  C1  PXY d   1       3.531  -2.815  -4.588  0.00  0.00    -0.082 A 
ATOM      4  C2  PXY d   1       3.211  -4.072  -4.327  0.00  0.00     0.003 A 
ATOM      5  C3  PXY d   1       4.015  -5.096  -4.757  0.00  0.00     0.003 A 
ATOM      6  C4  PXY d   1       5.130  -4.833  -5.507  0.00  0.00    -0.082 A 
ATOM      7  C5  PXY d   1       5.457  -3.553  -5.787  0.00  0.00     0.003 A 
ATOM      8  C6  PXY d   1       4.650  -2.526  -5.306  0.00  0.00     0.003 A 
ENDROOT
TORSDOF 0
ENDMDL
