MODEL 1
REMARK minimizedAffinity 6.11783695
REMARK minimizedRMSD -1
REMARK  0 active torsions:
REMARK  status: ('A' for Active; 'I' for Inactive)
ROOT
ATOM      1  C4' PXY d   1      -6.000   3.662  -2.992  0.00  0.00     0.077 C 
ATOM      2  C1' PXY d   1      -0.845   1.048  -3.012  0.00  0.00     0.077 C 
ATOM      3  C1  PXY d   1      -2.191   1.745  -3.006  0.00  0.00    -0.082 A 
ATOM      4  C2  PXY d   1      -3.267   1.086  -2.607  0.00  0.00     0.003 A 
ATOM      5  C3  PXY d   1      -4.497   1.692  -2.625  0.00  0.00     0.003 A 
ATOM      6  C4  PXY d   1      -4.619   3.001  -3.006  0.00  0.00    -0.082 A 
ATOM      7  C5  PXY d   1      -3.524   3.683  -3.404  0.00  0.00     0.003 A 
ATOM      8  C6  PXY d   1      -2.291   3.038  -3.417  0.00  0.00     0.003 A 
ENDROOT
TORSDOF 0
ENDMDL
