MODEL 1
REMARK minimizedAffinity 9.70871353
REMARK minimizedRMSD -1
REMARK  0 active torsions:
REMARK  status: ('A' for Active; 'I' for Inactive)
ROOT
ATOM      1  C4' PXY d   1       5.996  -4.904   1.460  0.00  0.00     0.077 C 
ATOM      2  C1' PXY d   1       1.716  -1.698   3.655  0.00  0.00     0.077 C 
ATOM      3  C1  PXY d   1       2.834  -2.536   3.067  0.00  0.00    -0.082 A 
ATOM      4  C2  PXY d   1       3.339  -3.538   3.768  0.00  0.00     0.003 A 
ATOM      5  C3  PXY d   1       4.373  -4.285   3.265  0.00  0.00     0.003 A 
ATOM      6  C4  PXY d   1       4.859  -4.038   2.009  0.00  0.00    -0.082 A 
ATOM      7  C5  PXY d   1       4.342  -3.025   1.283  0.00  0.00     0.003 A 
ATOM      8  C6  PXY d   1       3.321  -2.252   1.828  0.00  0.00     0.003 A 
ENDROOT
TORSDOF 0
ENDMDL
