MODEL 1
REMARK minimizedAffinity 10.4576416
REMARK minimizedRMSD -1
REMARK  0 active torsions:
REMARK  status: ('A' for Active; 'I' for Inactive)
ROOT
ATOM      1  C4' PXY d   1       1.305   5.783  -0.568  0.00  0.00     0.077 C 
ATOM      2  C1' PXY d   1       5.769   3.855  -3.694  0.00  0.00     0.077 C 
ATOM      3  C1  PXY d   1       4.606   4.366  -2.866  0.00  0.00    -0.082 A 
ATOM      4  C2  PXY d   1       3.418   3.797  -2.986  0.00  0.00     0.003 A 
ATOM      5  C3  PXY d   1       2.348   4.266  -2.268  0.00  0.00     0.003 A 
ATOM      6  C4  PXY d   1       2.509   5.294  -1.378  0.00  0.00    -0.082 A 
ATOM      7  C5  PXY d   1       3.721   5.873  -1.241  0.00  0.00     0.003 A 
ATOM      8  C6  PXY d   1       4.784   5.409  -2.010  0.00  0.00     0.003 A 
ENDROOT
TORSDOF 0
ENDMDL
