MODEL 1
REMARK minimizedAffinity 8.0566721
REMARK minimizedRMSD -1
REMARK  0 active torsions:
REMARK  status: ('A' for Active; 'I' for Inactive)
ROOT
ATOM      1  C4' PXY d   1      -6.000  -4.381  -4.674  0.00  0.00     0.077 C 
ATOM      2  C1' PXY d   1      -4.869   1.260  -4.112  0.00  0.00     0.077 C 
ATOM      3  C1  PXY d   1      -5.175  -0.216  -4.268  0.00  0.00    -0.082 A 
ATOM      4  C2  PXY d   1      -4.910  -1.048  -3.274  0.00  0.00     0.003 A 
ATOM      5  C3  PXY d   1      -5.150  -2.391  -3.411  0.00  0.00     0.003 A 
ATOM      6  C4  PXY d   1      -5.717  -2.881  -4.557  0.00  0.00    -0.082 A 
ATOM      7  C5  PXY d   1      -6.000  -2.037  -5.572  0.00  0.00     0.003 A 
ATOM      8  C6  PXY d   1      -5.710  -0.683  -5.429  0.00  0.00     0.003 A 
ENDROOT
TORSDOF 0
ENDMDL
