MODEL 1
REMARK minimizedAffinity 8.34695435
REMARK minimizedRMSD -1
REMARK  0 active torsions:
REMARK  status: ('A' for Active; 'I' for Inactive)
ROOT
ATOM      1  C4' PXY d   1      -5.067   5.354  -2.885  0.00  0.00     0.077 C 
ATOM      2  C1' PXY d   1      -2.702   0.088  -3.187  0.00  0.00     0.077 C 
ATOM      3  C1  PXY d   1      -3.316   1.472  -3.118  0.00  0.00    -0.082 A 
ATOM      4  C2  PXY d   1      -3.722   1.951  -1.954  0.00  0.00     0.003 A 
ATOM      5  C3  PXY d   1      -4.309   3.188  -1.879  0.00  0.00     0.003 A 
ATOM      6  C4  PXY d   1      -4.433   3.965  -2.999  0.00  0.00    -0.082 A 
ATOM      7  C5  PXY d   1      -4.011   3.488  -4.190  0.00  0.00     0.003 A 
ATOM      8  C6  PXY d   1      -3.456   2.213  -4.251  0.00  0.00     0.003 A 
ENDROOT
TORSDOF 0
ENDMDL
