MODEL 1
REMARK minimizedAffinity -1.35571039
REMARK minimizedRMSD -1
REMARK  0 active torsions:
REMARK  status: ('A' for Active; 'I' for Inactive)
ROOT
ATOM      1  C4' PXY d   1       5.960  -5.172  -4.530  0.00  0.00     0.077 C 
ATOM      2  C1' PXY d   1       5.993   0.591  -4.974  0.00  0.00     0.077 C 
ATOM      3  C1  PXY d   1       5.979  -0.921  -4.869  0.00  0.00    -0.082 A 
ATOM      4  C2  PXY d   1       5.979  -1.494  -3.677  0.00  0.00     0.003 A 
ATOM      5  C3  PXY d   1       5.999  -2.861  -3.564  0.00  0.00     0.003 A 
ATOM      6  C4  PXY d   1       5.964  -3.649  -4.683  0.00  0.00    -0.082 A 
ATOM      7  C5  PXY d   1       5.953  -3.071  -5.904  0.00  0.00     0.003 A 
ATOM      8  C6  PXY d   1       5.974  -1.683  -5.997  0.00  0.00     0.003 A 
ENDROOT
TORSDOF 0
ENDMDL
