MODEL 1
REMARK minimizedAffinity -0.477845699
REMARK minimizedRMSD -1
REMARK  0 active torsions:
REMARK  status: ('A' for Active; 'I' for Inactive)
ROOT
ATOM      1  C   UNL d   1       1.128   0.745  -4.436  0.00  0.00    -0.002 A 
ATOM      2  C1  UNL d   1      -0.078   0.060  -4.447  0.00  0.00     0.010 A 
ATOM      3  C2  UNL d   1      -0.591  -0.495  -3.273  0.00  0.00     0.041 A 
ATOM      4  C3  UNL d   1       0.135  -0.346  -2.075  0.00  0.00    -0.075 A 
ATOM      5  S   UNL d   1      -0.298  -0.940  -0.515  0.00  0.00     0.015 SA
ATOM      6  C4  UNL d   1       1.107  -0.297   0.203  0.00  0.00     0.022 A 
ATOM      7  C5  UNL d   1       1.900   0.357  -0.710  0.00  0.00     0.026 A 
ATOM      8  C6  UNL d   1       1.352   0.341  -2.038  0.00  0.00    -0.082 A 
ATOM      9  C7  UNL d   1       1.846   0.891  -3.245  0.00  0.00     0.045 A 
ENDROOT
TORSDOF 0
ENDMDL
