MODEL 1
REMARK minimizedAffinity -3.06859875
REMARK minimizedRMSD -1
REMARK  0 active torsions:
REMARK  status: ('A' for Active; 'I' for Inactive)
ROOT
ATOM      1  C   UNL d   1       0.014   1.626   2.620  0.00  0.00    -0.002 A 
ATOM      2  C1  UNL d   1      -1.315   1.231   2.663  0.00  0.00     0.010 A 
ATOM      3  C2  UNL d   1      -1.821   0.335   1.719  0.00  0.00     0.041 A 
ATOM      4  C3  UNL d   1      -0.959  -0.162   0.722  0.00  0.00    -0.075 A 
ATOM      5  S   UNL d   1      -1.357  -1.269  -0.539  0.00  0.00     0.015 SA
ATOM      6  C4  UNL d   1       0.229  -1.244  -1.163  0.00  0.00     0.022 A 
ATOM      7  C5  UNL d   1       1.055  -0.417  -0.440  0.00  0.00     0.026 A 
ATOM      8  C6  UNL d   1       0.384   0.220   0.658  0.00  0.00    -0.082 A 
ATOM      9  C7  UNL d   1       0.866   1.130   1.630  0.00  0.00     0.045 A 
ENDROOT
TORSDOF 0
ENDMDL
