MODEL 1
REMARK minimizedAffinity -1.55750048
REMARK minimizedRMSD -1
REMARK  0 active torsions:
REMARK  status: ('A' for Active; 'I' for Inactive)
ROOT
ATOM      1  C   UNL d   1       1.906  -0.587   0.207  0.00  0.00    -0.002 A 
ATOM      2  C1  UNL d   1       0.789  -1.146  -0.398  0.00  0.00     0.010 A 
ATOM      3  C2  UNL d   1      -0.496  -0.777   0.004  0.00  0.00     0.041 A 
ATOM      4  C3  UNL d   1      -0.641   0.175   1.033  0.00  0.00    -0.075 A 
ATOM      5  S   UNL d   1      -2.117   0.780   1.689  0.00  0.00     0.015 SA
ATOM      6  C4  UNL d   1      -1.299   1.795   2.787  0.00  0.00     0.022 A 
ATOM      7  C5  UNL d   1       0.067   1.687   2.670  0.00  0.00     0.026 A 
ATOM      8  C6  UNL d   1       0.468   0.752   1.657  0.00  0.00    -0.082 A 
ATOM      9  C7  UNL d   1       1.758   0.356   1.228  0.00  0.00     0.045 A 
ENDROOT
TORSDOF 0
ENDMDL
