MODEL 1
REMARK minimizedAffinity -3.29775953
REMARK minimizedRMSD -1
REMARK  0 active torsions:
REMARK  status: ('A' for Active; 'I' for Inactive)
ROOT
ATOM      1  C   UNL d   1      -1.341   0.631   2.947  0.00  0.00    -0.002 A 
ATOM      2  C1  UNL d   1      -0.015   0.667   3.355  0.00  0.00     0.010 A 
ATOM      3  C2  UNL d   1       1.008   0.301   2.478  0.00  0.00     0.041 A 
ATOM      4  C3  UNL d   1       0.673  -0.105   1.171  0.00  0.00    -0.075 A 
ATOM      5  S   UNL d   1       1.758  -0.596  -0.075  0.00  0.00     0.015 SA
ATOM      6  C4  UNL d   1       0.487  -0.865  -1.178  0.00  0.00     0.022 A 
ATOM      7  C5  UNL d   1      -0.742  -0.591  -0.626  0.00  0.00     0.026 A 
ATOM      8  C6  UNL d   1      -0.655  -0.148   0.737  0.00  0.00    -0.082 A 
ATOM      9  C7  UNL d   1      -1.670   0.229   1.650  0.00  0.00     0.045 A 
ENDROOT
TORSDOF 0
ENDMDL
