MODEL 1
REMARK minimizedAffinity -3.79962778
REMARK minimizedRMSD -1
REMARK  0 active torsions:
REMARK  status: ('A' for Active; 'I' for Inactive)
ROOT
ATOM      1  C   UNL d   1      -1.813   0.609   2.503  0.00  0.00    -0.002 A 
ATOM      2  C1  UNL d   1      -0.554   1.137   2.751  0.00  0.00     0.010 A 
ATOM      3  C2  UNL d   1       0.460   1.035   1.795  0.00  0.00     0.041 A 
ATOM      4  C3  UNL d   1       0.183   0.389   0.575  0.00  0.00    -0.075 A 
ATOM      5  S   UNL d   1       1.268   0.147  -0.743  0.00  0.00     0.015 SA
ATOM      6  C4  UNL d   1       0.085  -0.663  -1.666  0.00  0.00     0.022 A 
ATOM      7  C5  UNL d   1      -1.114  -0.755  -1.000  0.00  0.00     0.026 A 
ATOM      8  C6  UNL d   1      -1.078  -0.150   0.302  0.00  0.00    -0.082 A 
ATOM      9  C7  UNL d   1      -2.084  -0.032   1.291  0.00  0.00     0.045 A 
ENDROOT
TORSDOF 0
ENDMDL
