MODEL 1
REMARK minimizedAffinity 3.13599706
REMARK minimizedRMSD -1
REMARK  2 active torsions:
REMARK  status: ('A' for Active; 'I' for Inactive)
REMARK    1  A    between atoms: C2'_3  and  C1'_4 
REMARK    2  A    between atoms: C1'_4  and  C1_5 
ROOT
ATOM      1  C1  I4B d   1       3.102   5.283  -5.260  0.00  0.00    -0.075 A 
ATOM      2  C2  I4B d   1       4.249   5.999  -5.029  0.00  0.00     0.003 A 
ATOM      3  C3  I4B d   1       5.375   5.373  -4.442  0.00  0.00     0.002 A 
ATOM      4  C4  I4B d   1       5.293   4.050  -4.058  0.00  0.00    -0.004 A 
ATOM      5  C5  I4B d   1       4.137   3.319  -4.314  0.00  0.00     0.002 A 
ATOM      6  C6  I4B d   1       3.038   3.935  -4.929  0.00  0.00     0.003 A 
ENDROOT
BRANCH   1   7
ATOM      7  C1' I4B d   1       1.920   5.985  -5.851  0.00  0.00     0.060 C 
BRANCH   7   8
ATOM      8  C2' I4B d   1       0.677   5.476  -5.150  0.00  0.00    -0.013 C 
ATOM      9  C4' I4B d   1       0.592   5.999  -3.741  0.00  0.00     0.013 C 
ATOM     10  C3' I4B d   1      -0.515   5.899  -5.957  0.00  0.00     0.013 C 
ENDBRANCH   7   8
ENDBRANCH   1   7
TORSDOF 2
ENDMDL
