MODEL 1
REMARK minimizedAffinity 2.13636208
REMARK minimizedRMSD -1
REMARK  2 active torsions:
REMARK  status: ('A' for Active; 'I' for Inactive)
REMARK    1  A    between atoms: C2'_3  and  C1'_4 
REMARK    2  A    between atoms: C1'_4  and  C1_5 
ROOT
ATOM      1  C1  I4B d   1       1.455   5.870  -5.178  0.00  0.00    -0.075 A 
ATOM      2  C2  I4B d   1       1.408   5.970  -3.810  0.00  0.00     0.003 A 
ATOM      3  C3  I4B d   1       0.161   5.999  -3.140  0.00  0.00     0.002 A 
ATOM      4  C4  I4B d   1      -1.006   5.978  -3.876  0.00  0.00    -0.004 A 
ATOM      5  C5  I4B d   1      -0.956   5.853  -5.261  0.00  0.00     0.002 A 
ATOM      6  C6  I4B d   1       0.282   5.786  -5.916  0.00  0.00     0.003 A 
ENDROOT
BRANCH   1   7
ATOM      7  C1' I4B d   1       2.789   5.874  -5.856  0.00  0.00     0.060 C 
BRANCH   7   8
ATOM      8  C2' I4B d   1       3.801   5.281  -4.897  0.00  0.00    -0.013 C 
ATOM      9  C4' I4B d   1       3.885   3.785  -5.049  0.00  0.00     0.013 C 
ATOM     10  C3' I4B d   1       5.128   5.928  -5.166  0.00  0.00     0.013 C 
ENDBRANCH   7   8
ENDBRANCH   1   7
TORSDOF 2
ENDMDL
