MODEL 1
REMARK minimizedAffinity -0.951803744
REMARK minimizedRMSD -1
REMARK  2 active torsions:
REMARK  status: ('A' for Active; 'I' for Inactive)
REMARK    1  A    between atoms: C2'_3  and  C1'_4 
REMARK    2  A    between atoms: C1'_4  and  C1_5 
ROOT
ATOM      1  C1  I4B d   1       3.498   4.732  -5.370  0.00  0.00    -0.075 A 
ATOM      2  C2  I4B d   1       4.326   5.817  -5.516  0.00  0.00     0.003 A 
ATOM      3  C3  I4B d   1       5.606   5.824  -4.911  0.00  0.00     0.002 A 
ATOM      4  C4  I4B d   1       5.995   4.753  -4.133  0.00  0.00    -0.004 A 
ATOM      5  C5  I4B d   1       5.164   3.644  -4.005  0.00  0.00     0.002 A 
ATOM      6  C6  I4B d   1       3.913   3.627  -4.637  0.00  0.00     0.003 A 
ENDROOT
BRANCH   1   7
ATOM      7  C1' I4B d   1       2.140   4.772  -5.995  0.00  0.00     0.060 C 
BRANCH   7   8
ATOM      8  C2' I4B d   1       1.418   5.994  -5.466  0.00  0.00    -0.013 C 
ATOM      9  C4' I4B d   1      -0.028   5.999  -5.888  0.00  0.00     0.013 C 
ATOM     10  C3' I4B d   1       1.546   5.996  -3.972  0.00  0.00     0.013 C 
ENDBRANCH   7   8
ENDBRANCH   1   7
TORSDOF 2
ENDMDL
