MODEL 1
REMARK minimizedAffinity 1.07723296
REMARK minimizedRMSD -1
REMARK  2 active torsions:
REMARK  status: ('A' for Active; 'I' for Inactive)
REMARK    1  A    between atoms: C2'_3  and  C1'_4 
REMARK    2  A    between atoms: C1'_4  and  C1_5 
ROOT
ATOM      1  C1  I4B d   1      -0.708   5.953  -3.614  0.00  0.00    -0.075 A 
ATOM      2  C2  I4B d   1      -0.057   5.990  -2.407  0.00  0.00     0.003 A 
ATOM      3  C3  I4B d   1      -0.794   5.988  -1.198  0.00  0.00     0.002 A 
ATOM      4  C4  I4B d   1      -2.173   5.999  -1.244  0.00  0.00    -0.004 A 
ATOM      5  C5  I4B d   1      -2.832   5.938  -2.469  0.00  0.00     0.002 A 
ATOM      6  C6  I4B d   1      -2.095   5.903  -3.661  0.00  0.00     0.003 A 
ENDROOT
BRANCH   1   7
ATOM      7  C1' I4B d   1       0.101   5.990  -4.872  0.00  0.00     0.060 C 
BRANCH   7   8
ATOM      8  C2' I4B d   1       1.523   5.597  -4.524  0.00  0.00    -0.013 C 
ATOM      9  C4' I4B d   1       1.628   4.120  -4.249  0.00  0.00     0.013 C 
ATOM     10  C3' I4B d   1       2.407   6.000  -5.665  0.00  0.00     0.013 C 
ENDBRANCH   7   8
ENDBRANCH   1   7
TORSDOF 2
ENDMDL
