MODEL 1
REMARK minimizedAffinity -1.03097105
REMARK minimizedRMSD -1
REMARK  2 active torsions:
REMARK  status: ('A' for Active; 'I' for Inactive)
REMARK    1  A    between atoms: C2'_3  and  C1'_4 
REMARK    2  A    between atoms: C1'_4  and  C1_5 
ROOT
ATOM      1  C1  I4B d   1      -1.381   5.945  -3.444  0.00  0.00    -0.075 A 
ATOM      2  C2  I4B d   1      -1.685   5.892  -2.106  0.00  0.00     0.003 A 
ATOM      3  C3  I4B d   1      -3.035   5.871  -1.682  0.00  0.00     0.002 A 
ATOM      4  C4  I4B d   1      -4.044   5.955  -2.620  0.00  0.00    -0.004 A 
ATOM      5  C5  I4B d   1      -3.734   5.986  -3.977  0.00  0.00     0.002 A 
ATOM      6  C6  I4B d   1      -2.395   5.968  -4.392  0.00  0.00     0.003 A 
ENDROOT
BRANCH   1   7
ATOM      7  C1' I4B d   1       0.056   6.000  -3.855  0.00  0.00     0.060 C 
BRANCH   7   8
ATOM      8  C2' I4B d   1       0.194   5.258  -5.169  0.00  0.00    -0.013 C 
ATOM      9  C4' I4B d   1       1.318   5.822  -5.998  0.00  0.00     0.013 C 
ATOM     10  C3' I4B d   1       0.423   3.809  -4.861  0.00  0.00     0.013 C 
ENDBRANCH   7   8
ENDBRANCH   1   7
TORSDOF 2
ENDMDL
