MODEL 1
REMARK minimizedAffinity 11.0689363
REMARK minimizedRMSD -1
REMARK  2 active torsions:
REMARK  status: ('A' for Active; 'I' for Inactive)
REMARK    1  A    between atoms: C2'_3  and  C1'_4 
REMARK    2  A    between atoms: C1'_4  and  C1_5 
ROOT
ATOM      1  C1  I4B d   1       3.127   4.614  -5.406  0.00  0.00    -0.075 A 
ATOM      2  C2  I4B d   1       3.756   5.833  -5.464  0.00  0.00     0.003 A 
ATOM      3  C3  I4B d   1       5.044   5.998  -4.900  0.00  0.00     0.002 A 
ATOM      4  C4  I4B d   1       5.641   4.939  -4.248  0.00  0.00    -0.004 A 
ATOM      5  C5  I4B d   1       5.012   3.698  -4.210  0.00  0.00     0.002 A 
ATOM      6  C6  I4B d   1       3.753   3.531  -4.803  0.00  0.00     0.003 A 
ENDROOT
BRANCH   1   7
ATOM      7  C1' I4B d   1       1.754   4.484  -5.983  0.00  0.00     0.060 C 
BRANCH   7   8
ATOM      8  C2' I4B d   1       0.868   3.838  -4.937  0.00  0.00    -0.013 C 
ATOM      9  C4' I4B d   1       0.519   4.811  -3.842  0.00  0.00     0.013 C 
ATOM     10  C3' I4B d   1      -0.366   3.332  -5.624  0.00  0.00     0.013 C 
ENDBRANCH   7   8
ENDBRANCH   1   7
TORSDOF 2
ENDMDL
