MODEL 1
REMARK minimizedAffinity 0.649439991
REMARK minimizedRMSD -1
REMARK  2 active torsions:
REMARK  status: ('A' for Active; 'I' for Inactive)
REMARK    1  A    between atoms: C2'_3  and  C1'_4 
REMARK    2  A    between atoms: C1'_4  and  C1_5 
ROOT
ATOM      1  C1  I4B d   1       0.746   5.935  -4.623  0.00  0.00    -0.075 A 
ATOM      2  C2  I4B d   1       1.013   5.994  -3.278  0.00  0.00     0.003 A 
ATOM      3  C3  I4B d   1      -0.047   6.000  -2.340  0.00  0.00     0.002 A 
ATOM      4  C4  I4B d   1      -1.352   5.996  -2.789  0.00  0.00    -0.004 A 
ATOM      5  C5  I4B d   1      -1.621   5.913  -4.152  0.00  0.00     0.002 A 
ATOM      6  C6  I4B d   1      -0.566   5.869  -5.075  0.00  0.00     0.003 A 
ENDROOT
BRANCH   1   7
ATOM      7  C1' I4B d   1       1.889   5.963  -5.587  0.00  0.00     0.060 C 
BRANCH   7   8
ATOM      8  C2' I4B d   1       3.114   5.425  -4.875  0.00  0.00    -0.013 C 
ATOM      9  C4' I4B d   1       3.065   3.924  -4.766  0.00  0.00     0.013 C 
ATOM     10  C3' I4B d   1       4.326   5.873  -5.636  0.00  0.00     0.013 C 
ENDBRANCH   7   8
ENDBRANCH   1   7
TORSDOF 2
ENDMDL
