MODEL 1
REMARK minimizedAffinity 4.39329433
REMARK minimizedRMSD -1
REMARK  2 active torsions:
REMARK  status: ('A' for Active; 'I' for Inactive)
REMARK    1  A    between atoms: C2'_3  and  C1'_4 
REMARK    2  A    between atoms: C1'_4  and  C1_5 
ROOT
ATOM      1  C1  I4B d   1      -1.159  -2.710   2.256  0.00  0.00    -0.075 A 
ATOM      2  C2  I4B d   1      -0.525  -3.910   2.051  0.00  0.00     0.003 A 
ATOM      3  C3  I4B d   1      -0.526  -4.899   3.065  0.00  0.00     0.002 A 
ATOM      4  C4  I4B d   1      -1.126  -4.628   4.277  0.00  0.00    -0.004 A 
ATOM      5  C5  I4B d   1      -1.788  -3.420   4.475  0.00  0.00     0.002 A 
ATOM      6  C6  I4B d   1      -1.815  -2.459   3.454  0.00  0.00     0.003 A 
ENDROOT
BRANCH   1   7
ATOM      7  C1' I4B d   1      -1.109  -1.675   1.177  0.00  0.00     0.060 C 
BRANCH   7   8
ATOM      8  C2' I4B d   1       0.220  -0.955   1.281  0.00  0.00    -0.013 C 
ATOM      9  C4' I4B d   1       0.868  -0.808  -0.071  0.00  0.00     0.013 C 
ATOM     10  C3' I4B d   1      -0.027   0.383   1.911  0.00  0.00     0.013 C 
ENDBRANCH   7   8
ENDBRANCH   1   7
TORSDOF 2
ENDMDL
