MODEL 1
REMARK minimizedAffinity 0.0916879177
REMARK minimizedRMSD -1
REMARK  2 active torsions:
REMARK  status: ('A' for Active; 'I' for Inactive)
REMARK    1  A    between atoms: C2'_3  and  C1'_4 
REMARK    2  A    between atoms: C1'_4  and  C1_5 
ROOT
ATOM      1  C1  I4B d   1      -0.610   5.224  -2.646  0.00  0.00    -0.075 A 
ATOM      2  C2  I4B d   1      -1.953   5.226  -2.361  0.00  0.00     0.003 A 
ATOM      3  C3  I4B d   1      -2.892   5.594  -3.354  0.00  0.00     0.002 A 
ATOM      4  C4  I4B d   1      -2.445   5.999  -4.595  0.00  0.00    -0.004 A 
ATOM      5  C5  I4B d   1      -1.084   5.975  -4.890  0.00  0.00     0.002 A 
ATOM      6  C6  I4B d   1      -0.162   5.573  -3.913  0.00  0.00     0.003 A 
ENDROOT
BRANCH   1   7
ATOM      7  C1' I4B d   1       0.356   4.862  -1.563  0.00  0.00     0.060 C 
BRANCH   7   8
ATOM      8  C2' I4B d   1       0.550   3.359  -1.593  0.00  0.00    -0.013 C 
ATOM      9  C4' I4B d   1       1.542   2.959  -2.653  0.00  0.00     0.013 C 
ATOM     10  C3' I4B d   1       1.005   2.923  -0.233  0.00  0.00     0.013 C 
ENDBRANCH   7   8
ENDBRANCH   1   7
TORSDOF 2
ENDMDL
