MODEL 1
REMARK minimizedAffinity 0.394760311
REMARK minimizedRMSD -1
REMARK  2 active torsions:
REMARK  status: ('A' for Active; 'I' for Inactive)
REMARK    1  A    between atoms: C2'_3  and  C1'_4 
REMARK    2  A    between atoms: C1'_4  and  C1_5 
ROOT
ATOM      1  C1  I4B d   1      -0.547   5.887  -3.332  0.00  0.00    -0.075 A 
ATOM      2  C2  I4B d   1       0.818   5.766  -3.417  0.00  0.00     0.003 A 
ATOM      3  C3  I4B d   1       1.444   5.634  -4.680  0.00  0.00     0.002 A 
ATOM      4  C4  I4B d   1       0.669   5.577  -5.820  0.00  0.00    -0.004 A 
ATOM      5  C5  I4B d   1      -0.712   5.722  -5.734  0.00  0.00     0.002 A 
ATOM      6  C6  I4B d   1      -1.324   5.891  -4.483  0.00  0.00     0.003 A 
ENDROOT
BRANCH   1   7
ATOM      7  C1' I4B d   1      -1.178   5.991  -1.980  0.00  0.00     0.060 C 
BRANCH   7   8
ATOM      8  C2' I4B d   1      -2.610   5.509  -2.094  0.00  0.00    -0.013 C 
ATOM      9  C4' I4B d   1      -3.443   5.995  -0.938  0.00  0.00     0.013 C 
ATOM     10  C3' I4B d   1      -3.159   5.996  -3.401  0.00  0.00     0.013 C 
ENDBRANCH   7   8
ENDBRANCH   1   7
TORSDOF 2
ENDMDL
