MODEL 1
REMARK minimizedAffinity 4.78145647
REMARK minimizedRMSD -1
REMARK  2 active torsions:
REMARK  status: ('A' for Active; 'I' for Inactive)
REMARK    1  A    between atoms: C2'_3  and  C1'_4 
REMARK    2  A    between atoms: C1'_4  and  C1_5 
ROOT
ATOM      1  C1  I4B d   1       1.826   5.342  -5.509  0.00  0.00    -0.075 A 
ATOM      2  C2  I4B d   1       2.928   5.997  -5.999  0.00  0.00     0.003 A 
ATOM      3  C3  I4B d   1       4.221   5.449  -5.818  0.00  0.00     0.002 A 
ATOM      4  C4  I4B d   1       4.370   4.279  -5.102  0.00  0.00    -0.004 A 
ATOM      5  C5  I4B d   1       3.249   3.605  -4.626  0.00  0.00     0.002 A 
ATOM      6  C6  I4B d   1       1.968   4.133  -4.841  0.00  0.00     0.003 A 
ENDROOT
BRANCH   1   7
ATOM      7  C1' I4B d   1       0.478   5.965  -5.690  0.00  0.00     0.060 C 
BRANCH   7   8
ATOM      8  C2' I4B d   1      -0.426   5.450  -4.589  0.00  0.00    -0.013 C 
ATOM      9  C4' I4B d   1       0.017   5.953  -3.240  0.00  0.00     0.013 C 
ATOM     10  C3' I4B d   1      -1.827   5.888  -4.897  0.00  0.00     0.013 C 
ENDBRANCH   7   8
ENDBRANCH   1   7
TORSDOF 2
ENDMDL
