MODEL 1
REMARK minimizedAffinity 7.04771757
REMARK minimizedRMSD -1
REMARK  2 active torsions:
REMARK  status: ('A' for Active; 'I' for Inactive)
REMARK    1  A    between atoms: C2'_3  and  C1'_4 
REMARK    2  A    between atoms: C1'_4  and  C1_5 
ROOT
ATOM      1  C1  I4B d   1       1.062   1.886   0.540  0.00  0.00    -0.075 A 
ATOM      2  C2  I4B d   1       0.341   2.135   1.681  0.00  0.00     0.003 A 
ATOM      3  C3  I4B d   1      -0.448   1.113   2.263  0.00  0.00     0.002 A 
ATOM      4  C4  I4B d   1      -0.526  -0.119   1.647  0.00  0.00    -0.004 A 
ATOM      5  C5  I4B d   1       0.223  -0.377   0.503  0.00  0.00     0.002 A 
ATOM      6  C6  I4B d   1       1.032   0.627  -0.048  0.00  0.00     0.003 A 
ENDROOT
BRANCH   1   7
ATOM      7  C1' I4B d   1       1.859   2.997  -0.067  0.00  0.00     0.060 C 
BRANCH   7   8
ATOM      8  C2' I4B d   1       2.976   2.379  -0.883  0.00  0.00    -0.013 C 
ATOM      9  C4' I4B d   1       2.818   2.694  -2.348  0.00  0.00     0.013 C 
ATOM     10  C3' I4B d   1       4.279   2.899  -0.355  0.00  0.00     0.013 C 
ENDBRANCH   7   8
ENDBRANCH   1   7
TORSDOF 2
ENDMDL
