MODEL 1
REMARK minimizedAffinity 0.645191193
REMARK minimizedRMSD -1
REMARK  2 active torsions:
REMARK  status: ('A' for Active; 'I' for Inactive)
REMARK    1  A    between atoms: C2'_3  and  C1'_4 
REMARK    2  A    between atoms: C1'_4  and  C1_5 
ROOT
ATOM      1  C1  I4B d   1       3.586   5.390  -5.597  0.00  0.00    -0.075 A 
ATOM      2  C2  I4B d   1       3.580   4.225  -4.872  0.00  0.00     0.003 A 
ATOM      3  C3  I4B d   1       4.800   3.609  -4.502  0.00  0.00     0.002 A 
ATOM      4  C4  I4B d   1       5.994   4.161  -4.919  0.00  0.00    -0.004 A 
ATOM      5  C5  I4B d   1       5.999   5.356  -5.634  0.00  0.00     0.002 A 
ATOM      6  C6  I4B d   1       4.788   5.981  -5.965  0.00  0.00     0.003 A 
ENDROOT
BRANCH   1   7
ATOM      7  C1' I4B d   1       2.279   5.996  -5.998  0.00  0.00     0.060 C 
BRANCH   7   8
ATOM      8  C2' I4B d   1       1.187   5.334  -5.182  0.00  0.00    -0.013 C 
ATOM      9  C4' I4B d   1       1.031   5.997  -3.839  0.00  0.00     0.013 C 
ATOM     10  C3' I4B d   1      -0.086   5.402  -5.971  0.00  0.00     0.013 C 
ENDBRANCH   7   8
ENDBRANCH   1   7
TORSDOF 2
ENDMDL
