MODEL 1
REMARK minimizedAffinity 4.10214376
REMARK minimizedRMSD -1
REMARK  2 active torsions:
REMARK  status: ('A' for Active; 'I' for Inactive)
REMARK    1  A    between atoms: C2'_3  and  C1'_4 
REMARK    2  A    between atoms: C1'_4  and  C1_5 
ROOT
ATOM      1  C1  I4B d   1       1.490   5.918  -5.255  0.00  0.00    -0.075 A 
ATOM      2  C2  I4B d   1       1.480   5.985  -3.884  0.00  0.00     0.003 A 
ATOM      3  C3  I4B d   1       0.252   5.999  -3.180  0.00  0.00     0.002 A 
ATOM      4  C4  I4B d   1      -0.935   5.996  -3.883  0.00  0.00    -0.004 A 
ATOM      5  C5  I4B d   1      -0.923   5.905  -5.272  0.00  0.00     0.002 A 
ATOM      6  C6  I4B d   1       0.296   5.853  -5.962  0.00  0.00     0.003 A 
ENDROOT
BRANCH   1   7
ATOM      7  C1' I4B d   1       2.805   5.937  -5.968  0.00  0.00     0.060 C 
BRANCH   7   8
ATOM      8  C2' I4B d   1       3.888   5.611  -4.960  0.00  0.00    -0.013 C 
ATOM      9  C4' I4B d   1       3.862   4.153  -4.585  0.00  0.00     0.013 C 
ATOM     10  C3' I4B d   1       5.208   5.993  -5.559  0.00  0.00     0.013 C 
ENDBRANCH   7   8
ENDBRANCH   1   7
TORSDOF 2
ENDMDL
