MODEL 1
REMARK minimizedAffinity 7.79927969
REMARK minimizedRMSD -1
REMARK  0 active torsions:
REMARK  status: ('A' for Active; 'I' for Inactive)
ROOT
ATOM      1  C4' PXY d   1       3.170  -1.927  -3.182  0.00  0.00     0.077 C 
ATOM      2  C1' PXY d   1      -1.106  -5.816  -3.160  0.00  0.00     0.077 C 
ATOM      3  C1  PXY d   1       0.007  -4.787  -3.164  0.00  0.00    -0.082 A 
ATOM      4  C2  PXY d   1       1.155  -5.066  -3.759  0.00  0.00     0.003 A 
ATOM      5  C3  PXY d   1       2.183  -4.159  -3.745  0.00  0.00     0.003 A 
ATOM      6  C4  PXY d   1       2.016  -2.932  -3.161  0.00  0.00    -0.082 A 
ATOM      7  C5  PXY d   1       0.844  -2.635  -2.561  0.00  0.00     0.003 A 
ATOM      8  C6  PXY d   1      -0.173  -3.585  -2.551  0.00  0.00     0.003 A 
ENDROOT
TORSDOF 0
ENDMDL
