MODEL 1
REMARK minimizedAffinity 3.80007935
REMARK minimizedRMSD -1
REMARK  0 active torsions:
REMARK  status: ('A' for Active; 'I' for Inactive)
ROOT
ATOM      1  C4' PXY d   1       2.472  -1.290   2.346  0.00  0.00     0.077 C 
ATOM      2  C1' PXY d   1       5.999  -4.051   6.000  0.00  0.00     0.077 C 
ATOM      3  C1  PXY d   1       5.066  -3.324   5.051  0.00  0.00    -0.082 A 
ATOM      4  C2  PXY d   1       5.045  -3.656   3.771  0.00  0.00     0.003 A 
ATOM      5  C3  PXY d   1       4.231  -2.987   2.894  0.00  0.00     0.003 A 
ATOM      6  C4  PXY d   1       3.391  -2.003   3.341  0.00  0.00    -0.082 A 
ATOM      7  C5  PXY d   1       3.399  -1.665   4.648  0.00  0.00     0.003 A 
ATOM      8  C6  PXY d   1       4.262  -2.329   5.515  0.00  0.00     0.003 A 
ENDROOT
TORSDOF 0
ENDMDL
