MODEL 1
REMARK minimizedAffinity 3.10324287
REMARK minimizedRMSD -1
REMARK  0 active torsions:
REMARK  status: ('A' for Active; 'I' for Inactive)
ROOT
ATOM      1  C4' PXY d   1       2.220   4.112  -0.855  0.00  0.00     0.077 C 
ATOM      2  C1' PXY d   1       6.000   5.635  -4.955  0.00  0.00     0.077 C 
ATOM      3  C1  PXY d   1       4.999   5.234  -3.889  0.00  0.00    -0.082 A 
ATOM      4  C2  PXY d   1       5.189   5.618  -2.637  0.00  0.00     0.003 A 
ATOM      5  C3  PXY d   1       4.311   5.237  -1.655  0.00  0.00     0.003 A 
ATOM      6  C4  PXY d   1       3.199   4.501  -1.966  0.00  0.00    -0.082 A 
ATOM      7  C5  PXY d   1       2.993   4.115  -3.243  0.00  0.00     0.003 A 
ATOM      8  C6  PXY d   1       3.918   4.477  -4.218  0.00  0.00     0.003 A 
ENDROOT
TORSDOF 0
ENDMDL
