MODEL 1
REMARK minimizedAffinity 10.54603
REMARK minimizedRMSD -1
REMARK  0 active torsions:
REMARK  status: ('A' for Active; 'I' for Inactive)
ROOT
ATOM      1  C4' PXY d   1      -0.010  -6.000  -4.721  0.00  0.00     0.077 C 
ATOM      2  C1' PXY d   1       0.023  -2.730   0.046  0.00  0.00     0.077 C 
ATOM      3  C1  PXY d   1       0.020  -3.597  -1.198  0.00  0.00    -0.082 A 
ATOM      4  C2  PXY d   1       0.003  -3.028  -2.392  0.00  0.00     0.003 A 
ATOM      5  C3  PXY d   1      -0.033  -3.798  -3.526  0.00  0.00     0.003 A 
ATOM      6  C4  PXY d   1       0.003  -5.163  -3.438  0.00  0.00    -0.082 A 
ATOM      7  C5  PXY d   1       0.032  -5.751  -2.224  0.00  0.00     0.003 A 
ATOM      8  C6  PXY d   1       0.026  -4.953  -1.084  0.00  0.00     0.003 A 
ENDROOT
TORSDOF 0
ENDMDL
