MODEL 1
REMARK minimizedAffinity 1.56847918
REMARK minimizedRMSD -1
REMARK  0 active torsions:
REMARK  status: ('A' for Active; 'I' for Inactive)
ROOT
ATOM      1  C4' PXY d   1       3.964  -2.628   0.344  0.00  0.00     0.077 C 
ATOM      2  C1' PXY d   1       4.659  -3.598   6.000  0.00  0.00     0.077 C 
ATOM      3  C1  PXY d   1       4.466  -3.337   4.519  0.00  0.00    -0.082 A 
ATOM      4  C2  PXY d   1       5.010  -4.156   3.634  0.00  0.00     0.003 A 
ATOM      5  C3  PXY d   1       4.872  -3.917   2.291  0.00  0.00     0.003 A 
ATOM      6  C4  PXY d   1       4.125  -2.858   1.849  0.00  0.00    -0.082 A 
ATOM      7  C5  PXY d   1       3.558  -2.024   2.746  0.00  0.00     0.003 A 
ATOM      8  C6  PXY d   1       3.744  -2.261   4.105  0.00  0.00     0.003 A 
ENDROOT
TORSDOF 0
ENDMDL
