MODEL 1
REMARK minimizedAffinity 7.37071705
REMARK minimizedRMSD -1
REMARK  0 active torsions:
REMARK  status: ('A' for Active; 'I' for Inactive)
ROOT
ATOM      1  C4' PXY d   1       0.665  -1.522  -2.387  0.00  0.00     0.077 C 
ATOM      2  C1' PXY d   1      -3.407  -3.735   1.067  0.00  0.00     0.077 C 
ATOM      3  C1  PXY d   1      -2.340  -3.143   0.167  0.00  0.00    -0.082 A 
ATOM      4  C2  PXY d   1      -2.086  -3.705  -1.003  0.00  0.00     0.003 A 
ATOM      5  C3  PXY d   1      -1.103  -3.202  -1.816  0.00  0.00     0.003 A 
ATOM      6  C4  PXY d   1      -0.409  -2.080  -1.450  0.00  0.00    -0.082 A 
ATOM      7  C5  PXY d   1      -0.670  -1.494  -0.262  0.00  0.00     0.003 A 
ATOM      8  C6  PXY d   1      -1.643  -2.045   0.566  0.00  0.00     0.003 A 
ENDROOT
TORSDOF 0
ENDMDL
