MODEL 1
REMARK minimizedAffinity 21.0626907
REMARK minimizedRMSD -1
REMARK  0 active torsions:
REMARK  status: ('A' for Active; 'I' for Inactive)
ROOT
ATOM      1  C4' PXY d   1      -1.113  -1.070   5.112  0.00  0.00     0.077 C 
ATOM      2  C1' PXY d   1      -5.826   2.157   5.998  0.00  0.00     0.077 C 
ATOM      3  C1  PXY d   1      -4.585   1.321   5.759  0.00  0.00    -0.082 A 
ATOM      4  C2  PXY d   1      -4.659   0.002   5.841  0.00  0.00     0.003 A 
ATOM      5  C3  PXY d   1      -3.539  -0.768   5.659  0.00  0.00     0.003 A 
ATOM      6  C4  PXY d   1      -2.342  -0.186   5.337  0.00  0.00    -0.082 A 
ATOM      7  C5  PXY d   1      -2.261   1.158   5.240  0.00  0.00     0.003 A 
ATOM      8  C6  PXY d   1      -3.400   1.925   5.469  0.00  0.00     0.003 A 
ENDROOT
TORSDOF 0
ENDMDL
