MODEL 1
REMARK minimizedAffinity 3.3658638
REMARK minimizedRMSD -1
REMARK  0 active torsions:
REMARK  status: ('A' for Active; 'I' for Inactive)
ROOT
ATOM      1  C4' PXY d   1       4.214   5.951  -0.756  0.00  0.00     0.077 C 
ATOM      2  C1' PXY d   1       5.556   3.915  -5.997  0.00  0.00     0.077 C 
ATOM      3  C1  PXY d   1       5.211   4.439  -4.617  0.00  0.00    -0.082 A 
ATOM      4  C2  PXY d   1       4.146   5.207  -4.457  0.00  0.00     0.003 A 
ATOM      5  C3  PXY d   1       3.837   5.716  -3.221  0.00  0.00     0.003 A 
ATOM      6  C4  PXY d   1       4.596   5.391  -2.129  0.00  0.00    -0.082 A 
ATOM      7  C5  PXY d   1       5.678   4.599  -2.282  0.00  0.00     0.003 A 
ATOM      8  C6  PXY d   1       5.998   4.126  -3.552  0.00  0.00     0.003 A 
ENDROOT
TORSDOF 0
ENDMDL
