MODEL 1
REMARK minimizedAffinity 6.61797571
REMARK minimizedRMSD -1
REMARK  0 active torsions:
REMARK  status: ('A' for Active; 'I' for Inactive)
ROOT
ATOM      1  C4' PXY d   1      -0.221  -2.205  -1.942  0.00  0.00     0.077 C 
ATOM      2  C1' PXY d   1      -2.243  -1.517   3.429  0.00  0.00     0.077 C 
ATOM      3  C1  PXY d   1      -1.719  -1.687   2.017  0.00  0.00    -0.082 A 
ATOM      4  C2  PXY d   1      -1.389  -2.892   1.582  0.00  0.00     0.003 A 
ATOM      5  C3  PXY d   1      -0.883  -3.059   0.318  0.00  0.00     0.003 A 
ATOM      6  C4  PXY d   1      -0.763  -1.988  -0.527  0.00  0.00    -0.082 A 
ATOM      7  C5  PXY d   1      -1.107  -0.757  -0.094  0.00  0.00     0.003 A 
ATOM      8  C6  PXY d   1      -1.580  -0.603   1.206  0.00  0.00     0.003 A 
ENDROOT
TORSDOF 0
ENDMDL
