MODEL 1
REMARK minimizedAffinity 0.89102459
REMARK minimizedRMSD -1
REMARK  0 active torsions:
REMARK  status: ('A' for Active; 'I' for Inactive)
ROOT
ATOM      1  C4' PXY d   1      -2.192  -2.677   1.768  0.00  0.00     0.077 C 
ATOM      2  C1' PXY d   1       0.190  -2.257  -3.482  0.00  0.00     0.077 C 
ATOM      3  C1  PXY d   1      -0.445  -2.372  -2.110  0.00  0.00    -0.082 A 
ATOM      4  C2  PXY d   1      -0.039  -1.579  -1.132  0.00  0.00     0.003 A 
ATOM      5  C3  PXY d   1      -0.581  -1.691   0.122  0.00  0.00     0.003 A 
ATOM      6  C4  PXY d   1      -1.586  -2.589   0.365  0.00  0.00    -0.082 A 
ATOM      7  C5  PXY d   1      -2.013  -3.394  -0.630  0.00  0.00     0.003 A 
ATOM      8  C6  PXY d   1      -1.422  -3.293  -1.886  0.00  0.00     0.003 A 
ENDROOT
TORSDOF 0
ENDMDL
