MODEL 1
REMARK minimizedAffinity 2.97163677
REMARK minimizedRMSD -1
REMARK  0 active torsions:
REMARK  status: ('A' for Active; 'I' for Inactive)
ROOT
ATOM      1  C4' PXY d   1       0.000  -2.108  -0.747  0.00  0.00     0.077 C 
ATOM      2  C1' PXY d   1      -0.364  -4.493  -6.000  0.00  0.00     0.077 C 
ATOM      3  C1  PXY d   1      -0.270  -3.856  -4.628  0.00  0.00    -0.082 A 
ATOM      4  C2  PXY d   1       0.340  -4.502  -3.647  0.00  0.00     0.003 A 
ATOM      5  C3  PXY d   1       0.406  -3.954  -2.392  0.00  0.00     0.003 A 
ATOM      6  C4  PXY d   1      -0.110  -2.709  -2.151  0.00  0.00    -0.082 A 
ATOM      7  C5  PXY d   1      -0.725  -2.039  -3.149  0.00  0.00     0.003 A 
ATOM      8  C6  PXY d   1      -0.818  -2.630  -4.406  0.00  0.00     0.003 A 
ENDROOT
TORSDOF 0
ENDMDL
