MODEL 1
REMARK minimizedAffinity 4.87505484
REMARK minimizedRMSD -1
REMARK  0 active torsions:
REMARK  status: ('A' for Active; 'I' for Inactive)
ROOT
ATOM      1  C4' PXY d   1       4.205   3.348  -5.672  0.00  0.00     0.077 C 
ATOM      2  C1' PXY d   1       5.789   5.993  -0.782  0.00  0.00     0.077 C 
ATOM      3  C1  PXY d   1       5.362   5.305  -2.064  0.00  0.00    -0.082 A 
ATOM      4  C2  PXY d   1       5.998   4.217  -2.465  0.00  0.00     0.003 A 
ATOM      5  C3  PXY d   1       5.646   3.600  -3.638  0.00  0.00     0.003 A 
ATOM      6  C4  PXY d   1       4.596   4.071  -4.380  0.00  0.00    -0.082 A 
ATOM      7  C5  PXY d   1       3.934   5.174  -3.971  0.00  0.00     0.003 A 
ATOM      8  C6  PXY d   1       4.334   5.809  -2.799  0.00  0.00     0.003 A 
ENDROOT
TORSDOF 0
ENDMDL
