MODEL 1
REMARK minimizedAffinity 4.28892517
REMARK minimizedRMSD -1
REMARK  0 active torsions:
REMARK  status: ('A' for Active; 'I' for Inactive)
ROOT
ATOM      1  C4' PXY d   1      -1.026  -5.998  -5.935  0.00  0.00     0.077 C 
ATOM      2  C1' PXY d   1       0.182  -2.178  -1.768  0.00  0.00     0.077 C 
ATOM      3  C1  PXY d   1      -0.129  -3.189  -2.854  0.00  0.00    -0.082 A 
ATOM      4  C2  PXY d   1      -0.304  -2.779  -4.099  0.00  0.00     0.003 A 
ATOM      5  C3  PXY d   1      -0.618  -3.676  -5.088  0.00  0.00     0.003 A 
ATOM      6  C4  PXY d   1      -0.701  -5.014  -4.808  0.00  0.00    -0.082 A 
ATOM      7  C5  PXY d   1      -0.513  -5.442  -3.542  0.00  0.00     0.003 A 
ATOM      8  C6  PXY d   1      -0.236  -4.510  -2.545  0.00  0.00     0.003 A 
ENDROOT
TORSDOF 0
ENDMDL
