MODEL 1
REMARK minimizedAffinity 4.68857813
REMARK minimizedRMSD -1
REMARK  0 active torsions:
REMARK  status: ('A' for Active; 'I' for Inactive)
ROOT
ATOM      1  C4' PXY d   1      -2.587  -2.433   0.721  0.00  0.00     0.077 C 
ATOM      2  C1' PXY d   1       1.075  -2.522  -3.752  0.00  0.00     0.077 C 
ATOM      3  C1  PXY d   1       0.125  -2.498  -2.571  0.00  0.00    -0.082 A 
ATOM      4  C2  PXY d   1      -1.074  -3.047  -2.684  0.00  0.00     0.003 A 
ATOM      5  C3  PXY d   1      -1.957  -3.005  -1.636  0.00  0.00     0.003 A 
ATOM      6  C4  PXY d   1      -1.591  -2.443  -0.443  0.00  0.00    -0.082 A 
ATOM      7  C5  PXY d   1      -0.366  -1.890  -0.316  0.00  0.00     0.003 A 
ATOM      8  C6  PXY d   1       0.501  -1.906  -1.405  0.00  0.00     0.003 A 
ENDROOT
TORSDOF 0
ENDMDL
