MODEL 1
REMARK minimizedAffinity 1.76012945
REMARK minimizedRMSD -1
REMARK  0 active torsions:
REMARK  status: ('A' for Active; 'I' for Inactive)
ROOT
ATOM      1  C4' PXY d   1      -1.872   0.647   3.905  0.00  0.00     0.077 C 
ATOM      2  C1' PXY d   1      -1.465  -2.557  -0.889  0.00  0.00     0.077 C 
ATOM      3  C1  PXY d   1      -1.562  -1.709   0.364  0.00  0.00    -0.082 A 
ATOM      4  C2  PXY d   1      -2.118  -2.214   1.454  0.00  0.00     0.003 A 
ATOM      5  C3  PXY d   1      -2.242  -1.451   2.586  0.00  0.00     0.003 A 
ATOM      6  C4  PXY d   1      -1.744  -0.176   2.620  0.00  0.00    -0.082 A 
ATOM      7  C5  PXY d   1      -1.166   0.343   1.516  0.00  0.00     0.003 A 
ATOM      8  C6  PXY d   1      -1.087  -0.434   0.364  0.00  0.00     0.003 A 
ENDROOT
TORSDOF 0
ENDMDL
