MODEL 1
REMARK minimizedAffinity 2.51050067
REMARK minimizedRMSD -1
REMARK  0 active torsions:
REMARK  status: ('A' for Active; 'I' for Inactive)
ROOT
ATOM      1  C4' PXY d   1      -0.307  -4.314  -5.603  0.00  0.00     0.077 C 
ATOM      2  C1' PXY d   1      -0.560  -2.123  -0.259  0.00  0.00     0.077 C 
ATOM      3  C1  PXY d   1      -0.494  -2.686  -1.666  0.00  0.00    -0.082 A 
ATOM      4  C2  PXY d   1      -0.936  -3.910  -1.902  0.00  0.00     0.003 A 
ATOM      5  C3  PXY d   1      -0.854  -4.446  -3.161  0.00  0.00     0.003 A 
ATOM      6  C4  PXY d   1      -0.363  -3.702  -4.200  0.00  0.00    -0.082 A 
ATOM      7  C5  PXY d   1       0.081  -2.448  -3.969  0.00  0.00     0.003 A 
ATOM      8  C6  PXY d   1       0.027  -1.938  -2.676  0.00  0.00     0.003 A 
ENDROOT
TORSDOF 0
ENDMDL
