MODEL 1
REMARK minimizedAffinity 5.80261707
REMARK minimizedRMSD -1
REMARK  0 active torsions:
REMARK  status: ('A' for Active; 'I' for Inactive)
ROOT
ATOM      1  C4' PXY d   1      -0.004  -2.029  -2.617  0.00  0.00     0.077 C 
ATOM      2  C1' PXY d   1      -2.959  -3.292   2.188  0.00  0.00     0.077 C 
ATOM      3  C1  PXY d   1      -2.195  -2.964   0.921  0.00  0.00    -0.082 A 
ATOM      4  C2  PXY d   1      -0.873  -3.033   0.917  0.00  0.00     0.003 A 
ATOM      5  C3  PXY d   1      -0.164  -2.708  -0.211  0.00  0.00     0.003 A 
ATOM      6  C4  PXY d   1      -0.817  -2.361  -1.363  0.00  0.00    -0.082 A 
ATOM      7  C5  PXY d   1      -2.166  -2.299  -1.371  0.00  0.00     0.003 A 
ATOM      8  C6  PXY d   1      -2.865  -2.592  -0.204  0.00  0.00     0.003 A 
ENDROOT
TORSDOF 0
ENDMDL
