MODEL 1
REMARK minimizedAffinity 6.88608265
REMARK minimizedRMSD -1
REMARK  0 active torsions:
REMARK  status: ('A' for Active; 'I' for Inactive)
ROOT
ATOM      1  C4' PXY d   1       3.357  -1.773  -3.125  0.00  0.00     0.077 C 
ATOM      2  C1' PXY d   1      -2.103  -2.798  -1.527  0.00  0.00     0.077 C 
ATOM      3  C1  PXY d   1      -0.671  -2.541  -1.953  0.00  0.00    -0.082 A 
ATOM      4  C2  PXY d   1       0.099  -1.755  -1.217  0.00  0.00     0.003 A 
ATOM      5  C3  PXY d   1       1.386  -1.486  -1.605  0.00  0.00     0.003 A 
ATOM      6  C4  PXY d   1       1.908  -2.069  -2.729  0.00  0.00    -0.082 A 
ATOM      7  C5  PXY d   1       1.132  -2.880  -3.479  0.00  0.00     0.003 A 
ATOM      8  C6  PXY d   1      -0.185  -3.108  -3.090  0.00  0.00     0.003 A 
ENDROOT
TORSDOF 0
ENDMDL
