MODEL 1
REMARK minimizedAffinity 4.53900003
REMARK minimizedRMSD -1
REMARK  0 active torsions:
REMARK  status: ('A' for Active; 'I' for Inactive)
ROOT
ATOM      1  C4' PXY d   1      -0.547  -4.923  -5.594  0.00  0.00     0.077 C 
ATOM      2  C1' PXY d   1      -0.199  -1.712  -0.800  0.00  0.00     0.077 C 
ATOM      3  C1  PXY d   1      -0.287  -2.544  -2.064  0.00  0.00    -0.082 A 
ATOM      4  C2  PXY d   1      -0.984  -3.668  -2.060  0.00  0.00     0.003 A 
ATOM      5  C3  PXY d   1      -1.049  -4.449  -3.185  0.00  0.00     0.003 A 
ATOM      6  C4  PXY d   1      -0.437  -4.047  -4.343  0.00  0.00    -0.082 A 
ATOM      7  C5  PXY d   1       0.267  -2.896  -4.358  0.00  0.00     0.003 A 
ATOM      8  C6  PXY d   1       0.354  -2.138  -3.194  0.00  0.00     0.003 A 
ENDROOT
TORSDOF 0
ENDMDL
