MODEL 1
REMARK minimizedAffinity 3.45389867
REMARK minimizedRMSD -1
REMARK  0 active torsions:
REMARK  status: ('A' for Active; 'I' for Inactive)
ROOT
ATOM      1  C1  BNZ d   1       4.435   4.821  -2.033  0.00  0.00     0.000 A 
ATOM      2  C2  BNZ d   1       4.350   3.644  -1.339  0.00  0.00     0.000 A 
ATOM      3  C3  BNZ d   1       3.905   3.623  -0.047  0.00  0.00     0.000 A 
ATOM      4  C4  BNZ d   1       3.586   4.783   0.563  0.00  0.00     0.000 A 
ATOM      5  C5  BNZ d   1       3.675   5.980  -0.120  0.00  0.00     0.000 A 
ATOM      6  C6  BNZ d   1       4.086   5.992  -1.434  0.00  0.00     0.000 A 
ENDROOT
TORSDOF 0
ENDMDL
