MODEL 1
REMARK minimizedAffinity 0.339286089
REMARK minimizedRMSD -1
REMARK  0 active torsions:
REMARK  status: ('A' for Active; 'I' for Inactive)
ROOT
ATOM      1  C1  BNZ d   1       1.540  -0.157  -2.905  0.00  0.00     0.000 A 
ATOM      2  C2  BNZ d   1       0.783   0.167  -1.811  0.00  0.00     0.000 A 
ATOM      3  C3  BNZ d   1       0.332  -0.803  -0.959  0.00  0.00     0.000 A 
ATOM      4  C4  BNZ d   1       0.605  -2.097  -1.224  0.00  0.00     0.000 A 
ATOM      5  C5  BNZ d   1       1.360  -2.440  -2.328  0.00  0.00     0.000 A 
ATOM      6  C6  BNZ d   1       1.845  -1.459  -3.161  0.00  0.00     0.000 A 
ENDROOT
TORSDOF 0
ENDMDL
