MODEL 1
REMARK minimizedAffinity -0.508320808
REMARK minimizedRMSD -1
REMARK  0 active torsions:
REMARK  status: ('A' for Active; 'I' for Inactive)
ROOT
ATOM      1  C1  BNZ d   1       0.221   0.194  -1.495  0.00  0.00     0.000 A 
ATOM      2  C2  BNZ d   1       0.978   0.010  -2.622  0.00  0.00     0.000 A 
ATOM      3  C3  BNZ d   1       1.528  -1.209  -2.903  0.00  0.00     0.000 A 
ATOM      4  C4  BNZ d   1       1.355  -2.231  -2.040  0.00  0.00     0.000 A 
ATOM      5  C5  BNZ d   1       0.602  -2.058  -0.895  0.00  0.00     0.000 A 
ATOM      6  C6  BNZ d   1       0.017  -0.840  -0.635  0.00  0.00     0.000 A 
ENDROOT
TORSDOF 0
ENDMDL
