MODEL 1
REMARK minimizedAffinity 1.74100828
REMARK minimizedRMSD -1
REMARK  0 active torsions:
REMARK  status: ('A' for Active; 'I' for Inactive)
ROOT
ATOM      1  C1  BNZ d   1       3.402   3.671   1.410  0.00  0.00     0.000 A 
ATOM      2  C2  BNZ d   1       3.379   3.671   0.040  0.00  0.00     0.000 A 
ATOM      3  C3  BNZ d   1       3.752   4.781  -0.666  0.00  0.00     0.000 A 
ATOM      4  C4  BNZ d   1       4.108   5.900  -0.003  0.00  0.00     0.000 A 
ATOM      5  C5  BNZ d   1       4.127   5.919   1.378  0.00  0.00     0.000 A 
ATOM      6  C6  BNZ d   1       3.789   4.788   2.085  0.00  0.00     0.000 A 
ENDROOT
TORSDOF 0
ENDMDL
