MODEL 1
REMARK minimizedAffinity 0.703799963
REMARK minimizedRMSD -1
REMARK  0 active torsions:
REMARK  status: ('A' for Active; 'I' for Inactive)
ROOT
ATOM      1  C1  BNZ d   1       5.831   0.338   5.999  0.00  0.00     0.000 A 
ATOM      2  C2  BNZ d   1       5.999  -1.021   6.000  0.00  0.00     0.000 A 
ATOM      3  C3  BNZ d   1       5.579  -1.779   4.942  0.00  0.00     0.000 A 
ATOM      4  C4  BNZ d   1       4.957  -1.182   3.905  0.00  0.00     0.000 A 
ATOM      5  C5  BNZ d   1       4.773   0.186   3.893  0.00  0.00     0.000 A 
ATOM      6  C6  BNZ d   1       5.232   0.950   4.942  0.00  0.00     0.000 A 
ENDROOT
TORSDOF 0
ENDMDL
