MODEL 1
REMARK minimizedAffinity 4.80039454
REMARK minimizedRMSD -1
REMARK  0 active torsions:
REMARK  status: ('A' for Active; 'I' for Inactive)
ROOT
ATOM      1  C1  BNZ d   1       5.789  -0.399   6.000  0.00  0.00     0.000 A 
ATOM      2  C2  BNZ d   1       6.000  -1.752   5.999  0.00  0.00     0.000 A 
ATOM      3  C3  BNZ d   1       5.759  -2.497   4.878  0.00  0.00     0.000 A 
ATOM      4  C4  BNZ d   1       5.270  -1.895   3.774  0.00  0.00     0.000 A 
ATOM      5  C5  BNZ d   1       5.044  -0.533   3.763  0.00  0.00     0.000 A 
ATOM      6  C6  BNZ d   1       5.325   0.219   4.880  0.00  0.00     0.000 A 
ENDROOT
TORSDOF 0
ENDMDL
