MODEL 1
REMARK minimizedAffinity -2.43858933
REMARK minimizedRMSD -1
REMARK  0 active torsions:
REMARK  status: ('A' for Active; 'I' for Inactive)
ROOT
ATOM      1  C1  BNZ d   1       4.490   4.877   0.880  0.00  0.00     0.000 A 
ATOM      2  C2  BNZ d   1       4.432   5.994   1.669  0.00  0.00     0.000 A 
ATOM      3  C3  BNZ d   1       4.992   6.000   2.916  0.00  0.00     0.000 A 
ATOM      4  C4  BNZ d   1       5.574   4.878   3.387  0.00  0.00     0.000 A 
ATOM      5  C5  BNZ d   1       5.632   3.741   2.607  0.00  0.00     0.000 A 
ATOM      6  C6  BNZ d   1       5.101   3.750   1.337  0.00  0.00     0.000 A 
ENDROOT
TORSDOF 0
ENDMDL
