MODEL 1
REMARK minimizedAffinity -4.24969435
REMARK minimizedRMSD -1
REMARK  0 active torsions:
REMARK  status: ('A' for Active; 'I' for Inactive)
ROOT
ATOM      1  C1  BNZ d   1       1.075  -0.087  -1.937  0.00  0.00     0.000 A 
ATOM      2  C2  BNZ d   1       1.311  -1.274  -1.296  0.00  0.00     0.000 A 
ATOM      3  C3  BNZ d   1       1.986  -2.285  -1.920  0.00  0.00     0.000 A 
ATOM      4  C4  BNZ d   1       2.390  -2.123  -3.197  0.00  0.00     0.000 A 
ATOM      5  C5  BNZ d   1       2.151  -0.936  -3.860  0.00  0.00     0.000 A 
ATOM      6  C6  BNZ d   1       1.505   0.093  -3.216  0.00  0.00     0.000 A 
ENDROOT
TORSDOF 0
ENDMDL
