MODEL 1
REMARK minimizedAffinity -1.02081335
REMARK minimizedRMSD -1
REMARK  0 active torsions:
REMARK  status: ('A' for Active; 'I' for Inactive)
ROOT
ATOM      1  C1  BNZ d   1       5.889  -0.022   5.999  0.00  0.00     0.000 A 
ATOM      2  C2  BNZ d   1       5.979   1.344   5.989  0.00  0.00     0.000 A 
ATOM      3  C3  BNZ d   1       5.999   2.036   4.810  0.00  0.00     0.000 A 
ATOM      4  C4  BNZ d   1       5.969   1.359   3.644  0.00  0.00     0.000 A 
ATOM      5  C5  BNZ d   1       5.888  -0.019   3.638  0.00  0.00     0.000 A 
ATOM      6  C6  BNZ d   1       5.829  -0.710   4.826  0.00  0.00     0.000 A 
ENDROOT
TORSDOF 0
ENDMDL
