MODEL 1
REMARK minimizedAffinity 0.387106508
REMARK minimizedRMSD -1
REMARK  0 active torsions:
REMARK  status: ('A' for Active; 'I' for Inactive)
ROOT
ATOM      1  C1  BNZ d   1      -3.621  -4.116  -1.985  0.00  0.00     0.000 A 
ATOM      2  C2  BNZ d   1      -3.349  -5.396  -1.582  0.00  0.00     0.000 A 
ATOM      3  C3  BNZ d   1      -2.310  -5.657  -0.733  0.00  0.00     0.000 A 
ATOM      4  C4  BNZ d   1      -1.521  -4.644  -0.320  0.00  0.00     0.000 A 
ATOM      5  C5  BNZ d   1      -1.777  -3.349  -0.725  0.00  0.00     0.000 A 
ATOM      6  C6  BNZ d   1      -2.847  -3.086  -1.549  0.00  0.00     0.000 A 
ENDROOT
TORSDOF 0
ENDMDL
