MODEL 1
REMARK minimizedAffinity 1.67666483
REMARK minimizedRMSD -1
REMARK  0 active torsions:
REMARK  status: ('A' for Active; 'I' for Inactive)
ROOT
ATOM      1  C1  BNZ d   1      -3.388  -1.777  -1.337  0.00  0.00     0.000 A 
ATOM      2  C2  BNZ d   1      -3.657  -3.075  -1.678  0.00  0.00     0.000 A 
ATOM      3  C3  BNZ d   1      -2.723  -4.056  -1.491  0.00  0.00     0.000 A 
ATOM      4  C4  BNZ d   1      -1.510  -3.731  -1.000  0.00  0.00     0.000 A 
ATOM      5  C5  BNZ d   1      -1.220  -2.425  -0.660  0.00  0.00     0.000 A 
ATOM      6  C6  BNZ d   1      -2.176  -1.447  -0.814  0.00  0.00     0.000 A 
ENDROOT
TORSDOF 0
ENDMDL
