MODEL 1
REMARK minimizedAffinity 2.23649192
REMARK minimizedRMSD -1
REMARK  0 active torsions:
REMARK  status: ('A' for Active; 'I' for Inactive)
ROOT
ATOM      1  C1  BNZ d   1       4.194   4.457   3.045  0.00  0.00     0.000 A 
ATOM      2  C2  BNZ d   1       4.226   4.464   4.415  0.00  0.00     0.000 A 
ATOM      3  C3  BNZ d   1       5.116   5.251   5.090  0.00  0.00     0.000 A 
ATOM      4  C4  BNZ d   1       5.999   5.998   4.397  0.00  0.00     0.000 A 
ATOM      5  C5  BNZ d   1       5.986   5.995   3.017  0.00  0.00     0.000 A 
ATOM      6  C6  BNZ d   1       5.063   5.232   2.340  0.00  0.00     0.000 A 
ENDROOT
TORSDOF 0
ENDMDL
