MODEL 1
REMARK minimizedAffinity -0.466172278
REMARK minimizedRMSD -1
REMARK  0 active torsions:
REMARK  status: ('A' for Active; 'I' for Inactive)
ROOT
ATOM      1  C1  BNZ d   1      -3.413  -3.299  -1.528  0.00  0.00     0.000 A 
ATOM      2  C2  BNZ d   1      -3.237  -4.645  -1.344  0.00  0.00     0.000 A 
ATOM      3  C3  BNZ d   1      -2.142  -5.123  -0.680  0.00  0.00     0.000 A 
ATOM      4  C4  BNZ d   1      -1.205  -4.260  -0.237  0.00  0.00     0.000 A 
ATOM      5  C5  BNZ d   1      -1.364  -2.901  -0.423  0.00  0.00     0.000 A 
ATOM      6  C6  BNZ d   1      -2.486  -2.420  -1.057  0.00  0.00     0.000 A 
ENDROOT
TORSDOF 0
ENDMDL
