MODEL 1
REMARK minimizedAffinity 3.73986125
REMARK minimizedRMSD -1
REMARK  0 active torsions:
REMARK  status: ('A' for Active; 'I' for Inactive)
ROOT
ATOM      1  C1  BNZ d   1       4.184   3.783   1.823  0.00  0.00     0.000 A 
ATOM      2  C2  BNZ d   1       4.383   3.791   3.178  0.00  0.00     0.000 A 
ATOM      3  C3  BNZ d   1       4.861   4.905   3.808  0.00  0.00     0.000 A 
ATOM      4  C4  BNZ d   1       5.178   5.995   3.080  0.00  0.00     0.000 A 
ATOM      5  C5  BNZ d   1       4.992   5.999   1.712  0.00  0.00     0.000 A 
ATOM      6  C6  BNZ d   1       4.473   4.889   1.085  0.00  0.00     0.000 A 
ENDROOT
TORSDOF 0
ENDMDL
