MODEL 1
REMARK minimizedAffinity 1.34061003
REMARK minimizedRMSD -1
REMARK  0 active torsions:
REMARK  status: ('A' for Active; 'I' for Inactive)
ROOT
ATOM      1  C1  BNZ d   1      -1.578  -0.226  -0.114  0.00  0.00     0.000 A 
ATOM      2  C2  BNZ d   1      -0.747   0.713  -0.664  0.00  0.00     0.000 A 
ATOM      3  C3  BNZ d   1       0.585   0.734  -0.357  0.00  0.00     0.000 A 
ATOM      4  C4  BNZ d   1       1.076  -0.158   0.528  0.00  0.00     0.000 A 
ATOM      5  C5  BNZ d   1       0.248  -1.105   1.098  0.00  0.00     0.000 A 
ATOM      6  C6  BNZ d   1      -1.084  -1.147   0.757  0.00  0.00     0.000 A 
ENDROOT
TORSDOF 0
ENDMDL
