MODEL 1
REMARK minimizedAffinity 0.610400379
REMARK minimizedRMSD -1
REMARK  0 active torsions:
REMARK  status: ('A' for Active; 'I' for Inactive)
ROOT
ATOM      1  C1  BNZ d   1       4.841   3.746   0.388  0.00  0.00     0.000 A 
ATOM      2  C2  BNZ d   1       4.931   3.761   1.755  0.00  0.00     0.000 A 
ATOM      3  C3  BNZ d   1       4.601   4.881   2.466  0.00  0.00     0.000 A 
ATOM      4  C4  BNZ d   1       4.221   5.996   1.808  0.00  0.00     0.000 A 
ATOM      5  C5  BNZ d   1       4.134   5.999   0.430  0.00  0.00     0.000 A 
ATOM      6  C6  BNZ d   1       4.430   4.858  -0.280  0.00  0.00     0.000 A 
ENDROOT
TORSDOF 0
ENDMDL
