MODEL 1
REMARK minimizedAffinity 0.987644553
REMARK minimizedRMSD -1
REMARK  0 active torsions:
REMARK  status: ('A' for Active; 'I' for Inactive)
ROOT
ATOM      1  C1  BNZ d   1       5.253   5.651   3.344  0.00  0.00     0.000 A 
ATOM      2  C2  BNZ d   1       4.502   4.574   2.957  0.00  0.00     0.000 A 
ATOM      3  C3  BNZ d   1       4.476   3.432   3.708  0.00  0.00     0.000 A 
ATOM      4  C4  BNZ d   1       5.230   3.355   4.824  0.00  0.00     0.000 A 
ATOM      5  C5  BNZ d   1       5.999   4.430   5.223  0.00  0.00     0.000 A 
ATOM      6  C6  BNZ d   1       5.993   5.591   4.485  0.00  0.00     0.000 A 
ENDROOT
TORSDOF 0
ENDMDL
