MODEL 1
REMARK minimizedAffinity -0.337104708
REMARK minimizedRMSD -1
REMARK  0 active torsions:
REMARK  status: ('A' for Active; 'I' for Inactive)
ROOT
ATOM      1  C   UNL d   1      -1.191   0.133   1.373  0.00  0.00     0.124 A 
ATOM      2  C1  UNL d   1      -1.328  -0.748   0.309  0.00  0.00     0.062 A 
ATOM      3  C2  UNL d   1      -0.568  -0.576  -0.844  0.00  0.00     0.162 A 
ATOM      4  C3  UNL d   1       0.336   0.482  -0.940  0.00  0.00    -0.034 A 
ATOM      5  C4  UNL d   1       0.468   1.364   0.134  0.00  0.00     0.162 A 
ATOM      6  C5  UNL d   1      -0.294   1.188   1.285  0.00  0.00     0.062 A 
ATOM      7  F   UNL d   1      -0.160   2.040   2.311  0.00  0.00    -0.097 F 
ATOM      8  F1  UNL d   1       1.328   2.392   0.075  0.00  0.00    -0.096 F 
ATOM      9  I   UNL d   1       1.474   0.743  -2.663  0.00  0.00    -0.060 I 
ATOM     10  F2  UNL d   1      -0.721  -1.442  -1.857  0.00  0.00    -0.096 F 
ATOM     11  F3  UNL d   1      -2.195  -1.767   0.392  0.00  0.00    -0.097 F 
ATOM     12  F4  UNL d   1      -1.924  -0.034   2.482  0.00  0.00    -0.092 F 
ENDROOT
TORSDOF 0
ENDMDL
