MODEL 1
REMARK minimizedAffinity -0.511808217
REMARK minimizedRMSD -1
REMARK  0 active torsions:
REMARK  status: ('A' for Active; 'I' for Inactive)
ROOT
ATOM      1  C   UNL d   1      -0.611   0.718   2.019  0.00  0.00     0.124 A 
ATOM      2  C1  UNL d   1      -1.753   0.649   1.232  0.00  0.00     0.062 A 
ATOM      3  C2  UNL d   1      -1.653   0.326  -0.118  0.00  0.00     0.162 A 
ATOM      4  C3  UNL d   1      -0.408   0.068  -0.690  0.00  0.00    -0.034 A 
ATOM      5  C4  UNL d   1       0.736   0.140   0.107  0.00  0.00     0.162 A 
ATOM      6  C5  UNL d   1       0.631   0.464   1.456  0.00  0.00     0.062 A 
ATOM      7  F   UNL d   1       1.735   0.530   2.215  0.00  0.00    -0.097 F 
ATOM      8  F1  UNL d   1       1.949  -0.101  -0.410  0.00  0.00    -0.096 F 
ATOM      9  I   UNL d   1      -0.255  -0.415  -2.709  0.00  0.00    -0.060 I 
ATOM     10  F2  UNL d   1      -2.773   0.266  -0.854  0.00  0.00    -0.096 F 
ATOM     11  F3  UNL d   1      -2.954   0.895   1.774  0.00  0.00    -0.097 F 
ATOM     12  F4  UNL d   1      -0.710   1.030   3.318  0.00  0.00    -0.092 F 
ENDROOT
TORSDOF 0
ENDMDL
