MODEL 1
REMARK minimizedAffinity 1.82575607
REMARK minimizedRMSD -1
REMARK  0 active torsions:
REMARK  status: ('A' for Active; 'I' for Inactive)
ROOT
ATOM      1  C   UNL d   1       0.949  -0.700  -1.343  0.00  0.00     0.124 A 
ATOM      2  C1  UNL d   1      -0.095   0.208  -1.448  0.00  0.00     0.062 A 
ATOM      3  C2  UNL d   1      -0.670   0.749  -0.301  0.00  0.00     0.162 A 
ATOM      4  C3  UNL d   1      -0.200   0.384   0.961  0.00  0.00    -0.034 A 
ATOM      5  C4  UNL d   1       0.850  -0.531   1.058  0.00  0.00     0.162 A 
ATOM      6  C5  UNL d   1       1.420  -1.069  -0.091  0.00  0.00     0.062 A 
ATOM      7  F   UNL d   1       2.429  -1.946   0.012  0.00  0.00    -0.097 F 
ATOM      8  F1  UNL d   1       1.326  -0.904   2.255  0.00  0.00    -0.096 F 
ATOM      9  I   UNL d   1      -1.056   1.191   2.678  0.00  0.00    -0.060 I 
ATOM     10  F2  UNL d   1      -1.677   1.625  -0.432  0.00  0.00    -0.096 F 
ATOM     11  F3  UNL d   1      -0.553   0.565  -2.656  0.00  0.00    -0.097 F 
ATOM     12  F4  UNL d   1       1.499  -1.220  -2.448  0.00  0.00    -0.092 F 
ENDROOT
TORSDOF 0
ENDMDL
