MODEL 1
REMARK minimizedAffinity 2.49059629
REMARK minimizedRMSD -1
REMARK  0 active torsions:
REMARK  status: ('A' for Active; 'I' for Inactive)
ROOT
ATOM      1  C   UNL d   1       1.949   0.781   1.693  0.00  0.00     0.124 A 
ATOM      2  C1  UNL d   1       0.893   1.470   1.113  0.00  0.00     0.062 A 
ATOM      3  C2  UNL d   1       0.154   0.885   0.088  0.00  0.00     0.162 A 
ATOM      4  C3  UNL d   1       0.468  -0.397  -0.362  0.00  0.00    -0.034 A 
ATOM      5  C4  UNL d   1       1.532  -1.083   0.225  0.00  0.00     0.162 A 
ATOM      6  C5  UNL d   1       2.267  -0.495   1.249  0.00  0.00     0.062 A 
ATOM      7  F   UNL d   1       3.287  -1.162   1.808  0.00  0.00    -0.097 F 
ATOM      8  F1  UNL d   1       1.861  -2.318  -0.184  0.00  0.00    -0.096 F 
ATOM      9  I   UNL d   1      -0.635  -1.275  -1.894  0.00  0.00    -0.060 I 
ATOM     10  F2  UNL d   1      -0.861   1.574  -0.454  0.00  0.00    -0.096 F 
ATOM     11  F3  UNL d   1       0.584   2.703   1.540  0.00  0.00    -0.097 F 
ATOM     12  F4  UNL d   1       2.659   1.346   2.678  0.00  0.00    -0.092 F 
ENDROOT
TORSDOF 0
ENDMDL
