MODEL 1
REMARK minimizedAffinity 18.5361519
REMARK minimizedRMSD -1
REMARK  2 active torsions:
REMARK  status: ('A' for Active; 'I' for Inactive)
REMARK    1  A    between atoms: C2'_3  and  C1'_4 
REMARK    2  A    between atoms: C1'_4  and  C1_5 
ROOT
ATOM      1  C1  I4B d   1      -3.511  -3.028   3.975  0.00  0.00    -0.075 A 
ATOM      2  C2  I4B d   1      -4.314  -3.965   4.577  0.00  0.00     0.003 A 
ATOM      3  C3  I4B d   1      -5.495  -4.408   3.935  0.00  0.00     0.002 A 
ATOM      4  C4  I4B d   1      -5.860  -3.855   2.725  0.00  0.00    -0.004 A 
ATOM      5  C5  I4B d   1      -5.034  -2.922   2.106  0.00  0.00     0.002 A 
ATOM      6  C6  I4B d   1      -3.845  -2.514   2.729  0.00  0.00     0.003 A 
ENDROOT
BRANCH   1   7
ATOM      7  C1' I4B d   1      -2.287  -2.558   4.696  0.00  0.00     0.060 C 
BRANCH   7   8
ATOM      8  C2' I4B d   1      -1.294  -3.701   4.724  0.00  0.00    -0.013 C 
ATOM      9  C4' I4B d   1      -0.384  -3.663   3.524  0.00  0.00     0.013 C 
ATOM     10  C3' I4B d   1      -0.512  -3.604   6.000  0.00  0.00     0.013 C 
ENDBRANCH   7   8
ENDBRANCH   1   7
TORSDOF 2
ENDMDL
