MODEL 1
REMARK minimizedAffinity 11.5163727
REMARK minimizedRMSD -1
REMARK  2 active torsions:
REMARK  status: ('A' for Active; 'I' for Inactive)
REMARK    1  A    between atoms: C2'_3  and  C1'_4 
REMARK    2  A    between atoms: C1'_4  and  C1_5 
ROOT
ATOM      1  C1  I4B d   1      -2.758   4.858  -0.411  0.00  0.00    -0.075 A 
ATOM      2  C2  I4B d   1      -3.454   4.895  -1.593  0.00  0.00     0.003 A 
ATOM      3  C3  I4B d   1      -4.735   5.496  -1.647  0.00  0.00     0.002 A 
ATOM      4  C4  I4B d   1      -5.299   6.000  -0.492  0.00  0.00    -0.004 A 
ATOM      5  C5  I4B d   1      -4.581   5.983   0.700  0.00  0.00     0.002 A 
ATOM      6  C6  I4B d   1      -3.297   5.420   0.739  0.00  0.00     0.003 A 
ENDROOT
BRANCH   1   7
ATOM      7  C1' I4B d   1      -1.421   4.186  -0.382  0.00  0.00     0.060 C 
BRANCH   7   8
ATOM      8  C2' I4B d   1      -1.603   2.765  -0.875  0.00  0.00    -0.013 C 
ATOM      9  C4' I4B d   1      -1.160   2.624  -2.307  0.00  0.00     0.013 C 
ATOM     10  C3' I4B d   1      -0.819   1.859   0.027  0.00  0.00     0.013 C 
ENDBRANCH   7   8
ENDBRANCH   1   7
TORSDOF 2
ENDMDL
