MODEL 1
REMARK minimizedAffinity 20.0007439
REMARK minimizedRMSD -1
REMARK  2 active torsions:
REMARK  status: ('A' for Active; 'I' for Inactive)
REMARK    1  A    between atoms: C2'_3  and  C1'_4 
REMARK    2  A    between atoms: C1'_4  and  C1_5 
ROOT
ATOM      1  C1  I4B d   1       2.785  -3.336  -5.995  0.00  0.00    -0.075 A 
ATOM      2  C2  I4B d   1       1.580  -3.993  -5.998  0.00  0.00     0.003 A 
ATOM      3  C3  I4B d   1       0.368  -3.259  -5.994  0.00  0.00     0.002 A 
ATOM      4  C4  I4B d   1       0.408  -1.881  -5.936  0.00  0.00    -0.004 A 
ATOM      5  C5  I4B d   1       1.631  -1.217  -5.955  0.00  0.00     0.002 A 
ATOM      6  C6  I4B d   1       2.827  -1.948  -5.997  0.00  0.00     0.003 A 
ENDROOT
BRANCH   1   7
ATOM      7  C1' I4B d   1       4.045  -4.142  -5.966  0.00  0.00     0.060 C 
BRANCH   7   8
ATOM      8  C2' I4B d   1       5.021  -3.449  -5.038  0.00  0.00    -0.013 C 
ATOM      9  C4' I4B d   1       5.979  -4.433  -4.420  0.00  0.00     0.013 C 
ATOM     10  C3' I4B d   1       5.753  -2.406  -5.830  0.00  0.00     0.013 C 
ENDBRANCH   7   8
ENDBRANCH   1   7
TORSDOF 2
ENDMDL
