MODEL 1
REMARK minimizedAffinity 16.6831856
REMARK minimizedRMSD -1
REMARK  2 active torsions:
REMARK  status: ('A' for Active; 'I' for Inactive)
REMARK    1  A    between atoms: C2'_3  and  C1'_4 
REMARK    2  A    between atoms: C1'_4  and  C1_5 
ROOT
ATOM      1  C1  I4B d   1      -3.769  -3.330   4.343  0.00  0.00    -0.075 A 
ATOM      2  C2  I4B d   1      -2.534  -3.692   3.867  0.00  0.00     0.003 A 
ATOM      3  C3  I4B d   1      -1.361  -3.136   4.431  0.00  0.00     0.002 A 
ATOM      4  C4  I4B d   1      -1.470  -2.190   5.430  0.00  0.00    -0.004 A 
ATOM      5  C5  I4B d   1      -2.722  -1.840   5.927  0.00  0.00     0.002 A 
ATOM      6  C6  I4B d   1      -3.879  -2.423   5.389  0.00  0.00     0.003 A 
ENDROOT
BRANCH   1   7
ATOM      7  C1' I4B d   1      -4.989  -3.912   3.701  0.00  0.00     0.060 C 
BRANCH   7   8
ATOM      8  C2' I4B d   1      -5.967  -4.274   4.800  0.00  0.00    -0.013 C 
ATOM      9  C4' I4B d   1      -5.891  -5.741   5.135  0.00  0.00     0.013 C 
ATOM     10  C3' I4B d   1      -5.652  -3.429   5.998  0.00  0.00     0.013 C 
ENDBRANCH   7   8
ENDBRANCH   1   7
TORSDOF 2
ENDMDL
