MODEL 1
REMARK minimizedAffinity 23.2580509
REMARK minimizedRMSD -1
REMARK  2 active torsions:
REMARK  status: ('A' for Active; 'I' for Inactive)
REMARK    1  A    between atoms: C2'_3  and  C1'_4 
REMARK    2  A    between atoms: C1'_4  and  C1_5 
ROOT
ATOM      1  C1  I4B d   1      -3.680  -3.186   5.196  0.00  0.00    -0.075 A 
ATOM      2  C2  I4B d   1      -4.766  -2.897   5.984  0.00  0.00     0.003 A 
ATOM      3  C3  I4B d   1      -5.938  -3.688   5.902  0.00  0.00     0.002 A 
ATOM      4  C4  I4B d   1      -5.998  -4.720   4.989  0.00  0.00    -0.004 A 
ATOM      5  C5  I4B d   1      -4.888  -5.027   4.207  0.00  0.00     0.002 A 
ATOM      6  C6  I4B d   1      -3.717  -4.263   4.320  0.00  0.00     0.003 A 
ENDROOT
BRANCH   1   7
ATOM      7  C1' I4B d   1      -2.471  -2.310   5.285  0.00  0.00     0.060 C 
BRANCH   7   8
ATOM      8  C2' I4B d   1      -1.608  -2.582   4.070  0.00  0.00    -0.013 C 
ATOM      9  C4' I4B d   1      -0.726  -1.403   3.752  0.00  0.00     0.013 C 
ATOM     10  C3' I4B d   1      -0.791  -3.809   4.348  0.00  0.00     0.013 C 
ENDBRANCH   7   8
ENDBRANCH   1   7
TORSDOF 2
ENDMDL
