MODEL 1
REMARK minimizedAffinity 20.1579266
REMARK minimizedRMSD -1
REMARK  2 active torsions:
REMARK  status: ('A' for Active; 'I' for Inactive)
REMARK    1  A    between atoms: C2'_3  and  C1'_4 
REMARK    2  A    between atoms: C1'_4  and  C1_5 
ROOT
ATOM      1  C1  I4B d   1      -3.977   4.869  -1.862  0.00  0.00    -0.075 A 
ATOM      2  C2  I4B d   1      -3.125   4.967  -0.791  0.00  0.00     0.003 A 
ATOM      3  C3  I4B d   1      -3.614   5.377   0.473  0.00  0.00     0.002 A 
ATOM      4  C4  I4B d   1      -4.942   5.725   0.608  0.00  0.00    -0.004 A 
ATOM      5  C5  I4B d   1      -5.810   5.603  -0.474  0.00  0.00     0.002 A 
ATOM      6  C6  I4B d   1      -5.327   5.160  -1.714  0.00  0.00     0.003 A 
ENDROOT
BRANCH   1   7
ATOM      7  C1' I4B d   1      -3.421   4.464  -3.191  0.00  0.00     0.060 C 
BRANCH   7   8
ATOM      8  C2' I4B d   1      -2.848   3.069  -3.052  0.00  0.00    -0.013 C 
ATOM      9  C4' I4B d   1      -3.678   2.061  -3.803  0.00  0.00     0.013 C 
ATOM     10  C3' I4B d   1      -1.437   3.095  -3.560  0.00  0.00     0.013 C 
ENDBRANCH   7   8
ENDBRANCH   1   7
TORSDOF 2
ENDMDL
