MODEL 1
REMARK minimizedAffinity 11.7359209
REMARK minimizedRMSD -1
REMARK  2 active torsions:
REMARK  status: ('A' for Active; 'I' for Inactive)
REMARK    1  A    between atoms: C2'_3  and  C1'_4 
REMARK    2  A    between atoms: C1'_4  and  C1_5 
ROOT
ATOM      1  C1  I4B d   1      -0.340   3.576   0.119  0.00  0.00    -0.075 A 
ATOM      2  C2  I4B d   1      -1.675   3.547   0.433  0.00  0.00     0.003 A 
ATOM      3  C3  I4B d   1      -2.201   2.486   1.211  0.00  0.00     0.002 A 
ATOM      4  C4  I4B d   1      -1.371   1.458   1.607  0.00  0.00    -0.004 A 
ATOM      5  C5  I4B d   1      -0.013   1.501   1.307  0.00  0.00     0.002 A 
ATOM      6  C6  I4B d   1       0.509   2.573   0.569  0.00  0.00     0.003 A 
ENDROOT
BRANCH   1   7
ATOM      7  C1' I4B d   1       0.176   4.693  -0.732  0.00  0.00     0.060 C 
BRANCH   7   8
ATOM      8  C2' I4B d   1       0.459   4.137  -2.112  0.00  0.00    -0.013 C 
ATOM      9  C4' I4B d   1      -0.814   3.945  -2.894  0.00  0.00     0.013 C 
ATOM     10  C3' I4B d   1       1.387   5.084  -2.813  0.00  0.00     0.013 C 
ENDBRANCH   7   8
ENDBRANCH   1   7
TORSDOF 2
ENDMDL
