MODEL 1
REMARK minimizedAffinity 3.78143144
REMARK minimizedRMSD -1
REMARK  2 active torsions:
REMARK  status: ('A' for Active; 'I' for Inactive)
REMARK    1  A    between atoms: C2'_3  and  C1'_4 
REMARK    2  A    between atoms: C1'_4  and  C1_5 
ROOT
ATOM      1  C1  I4B d   1      -0.002   3.488   0.447  0.00  0.00    -0.075 A 
ATOM      2  C2  I4B d   1       0.007   4.000  -0.826  0.00  0.00     0.003 A 
ATOM      3  C3  I4B d   1       0.592   5.264  -1.082  0.00  0.00     0.002 A 
ATOM      4  C4  I4B d   1       1.107   5.999  -0.035  0.00  0.00    -0.004 A 
ATOM      5  C5  I4B d   1       1.117   5.469   1.252  0.00  0.00     0.002 A 
ATOM      6  C6  I4B d   1       0.571   4.200   1.493  0.00  0.00     0.003 A 
ENDROOT
BRANCH   1   7
ATOM      7  C1' I4B d   1      -0.657   2.165   0.687  0.00  0.00     0.060 C 
BRANCH   7   8
ATOM      8  C2' I4B d   1      -1.169   2.150   2.113  0.00  0.00    -0.013 C 
ATOM      9  C4' I4B d   1      -2.524   1.498   2.199  0.00  0.00     0.013 C 
ATOM     10  C3' I4B d   1      -0.165   1.424   2.958  0.00  0.00     0.013 C 
ENDBRANCH   7   8
ENDBRANCH   1   7
TORSDOF 2
ENDMDL
