MODEL 1
REMARK minimizedAffinity 5.73364735
REMARK minimizedRMSD -1
REMARK  2 active torsions:
REMARK  status: ('A' for Active; 'I' for Inactive)
REMARK    1  A    between atoms: C2'_3  and  C1'_4 
REMARK    2  A    between atoms: C1'_4  and  C1_5 
ROOT
ATOM      1  C1  I4B d   1      -0.446   2.575  -1.275  0.00  0.00    -0.075 A 
ATOM      2  C2  I4B d   1       0.085   2.649  -0.011  0.00  0.00     0.003 A 
ATOM      3  C3  I4B d   1       0.341   3.910   0.581  0.00  0.00     0.002 A 
ATOM      4  C4  I4B d   1       0.101   5.061  -0.141  0.00  0.00    -0.004 A 
ATOM      5  C5  I4B d   1      -0.458   4.984  -1.413  0.00  0.00     0.002 A 
ATOM      6  C6  I4B d   1      -0.744   3.734  -1.979  0.00  0.00     0.003 A 
ENDROOT
BRANCH   1   7
ATOM      7  C1' I4B d   1      -0.673   1.227  -1.883  0.00  0.00     0.060 C 
BRANCH   7   8
ATOM      8  C2' I4B d   1      -2.120   1.154  -2.328  0.00  0.00    -0.013 C 
ATOM      9  C4' I4B d   1      -2.226   1.107  -3.830  0.00  0.00     0.013 C 
ATOM     10  C3' I4B d   1      -2.736  -0.062  -1.703  0.00  0.00     0.013 C 
ENDBRANCH   7   8
ENDBRANCH   1   7
TORSDOF 2
ENDMDL
