MODEL 1
REMARK minimizedAffinity 6.4990716
REMARK minimizedRMSD -1
REMARK  2 active torsions:
REMARK  status: ('A' for Active; 'I' for Inactive)
REMARK    1  A    between atoms: C2'_3  and  C1'_4 
REMARK    2  A    between atoms: C1'_4  and  C1_5 
ROOT
ATOM      1  C1  I4B d   1      -0.924   1.886  -0.026  0.00  0.00    -0.075 A 
ATOM      2  C2  I4B d   1      -0.188   2.886  -0.609  0.00  0.00     0.003 A 
ATOM      3  C3  I4B d   1      -0.545   3.382  -1.887  0.00  0.00     0.002 A 
ATOM      4  C4  I4B d   1      -1.608   2.817  -2.562  0.00  0.00    -0.004 A 
ATOM      5  C5  I4B d   1      -2.367   1.818  -1.959  0.00  0.00     0.002 A 
ATOM      6  C6  I4B d   1      -2.031   1.358  -0.678  0.00  0.00     0.003 A 
ENDROOT
BRANCH   1   7
ATOM      7  C1' I4B d   1      -0.499   1.363   1.310  0.00  0.00     0.060 C 
BRANCH   7   8
ATOM      8  C2' I4B d   1      -1.370   2.015   2.365  0.00  0.00    -0.013 C 
ATOM      9  C4' I4B d   1      -2.250   1.001   3.047  0.00  0.00     0.013 C 
ATOM     10  C3' I4B d   1      -0.470   2.700   3.349  0.00  0.00     0.013 C 
ENDBRANCH   7   8
ENDBRANCH   1   7
TORSDOF 2
ENDMDL
