MODEL 1
REMARK minimizedAffinity 19.2147522
REMARK minimizedRMSD -1
REMARK  2 active torsions:
REMARK  status: ('A' for Active; 'I' for Inactive)
REMARK    1  A    between atoms: C2'_3  and  C1'_4 
REMARK    2  A    between atoms: C1'_4  and  C1_5 
ROOT
ATOM      1  C1  I4B d   1       1.159  -3.037   0.150  0.00  0.00    -0.075 A 
ATOM      2  C2  I4B d   1       1.967  -1.930   0.228  0.00  0.00     0.003 A 
ATOM      3  C3  I4B d   1       2.187  -1.294   1.473  0.00  0.00     0.002 A 
ATOM      4  C4  I4B d   1       1.543  -1.764   2.600  0.00  0.00    -0.004 A 
ATOM      5  C5  I4B d   1       0.743  -2.900   2.524  0.00  0.00     0.002 A 
ATOM      6  C6  I4B d   1       0.559  -3.548   1.294  0.00  0.00     0.003 A 
ENDROOT
BRANCH   1   7
ATOM      7  C1' I4B d   1       0.922  -3.664  -1.187  0.00  0.00     0.060 C 
BRANCH   7   8
ATOM      8  C2' I4B d   1       2.210  -4.332  -1.624  0.00  0.00    -0.013 C 
ATOM      9  C4' I4B d   1       1.975  -5.768  -2.013  0.00  0.00     0.013 C 
ATOM     10  C3' I4B d   1       2.773  -3.546  -2.770  0.00  0.00     0.013 C 
ENDBRANCH   7   8
ENDBRANCH   1   7
TORSDOF 2
ENDMDL
