MODEL 1
REMARK minimizedAffinity 14.431859
REMARK minimizedRMSD -1
REMARK  2 active torsions:
REMARK  status: ('A' for Active; 'I' for Inactive)
REMARK    1  A    between atoms: C2'_3  and  C1'_4 
REMARK    2  A    between atoms: C1'_4  and  C1_5 
ROOT
ATOM      1  C1  I4B d   1       2.616  -3.163  -3.744  0.00  0.00    -0.075 A 
ATOM      2  C2  I4B d   1       1.357  -3.318  -4.269  0.00  0.00     0.003 A 
ATOM      3  C3  I4B d   1       0.968  -2.583  -5.416  0.00  0.00     0.002 A 
ATOM      4  C4  I4B d   1       1.845  -1.674  -5.970  0.00  0.00    -0.004 A 
ATOM      5  C5  I4B d   1       3.129  -1.535  -5.450  0.00  0.00     0.002 A 
ATOM      6  C6  I4B d   1       3.521  -2.293  -4.337  0.00  0.00     0.003 A 
ENDROOT
BRANCH   1   7
ATOM      7  C1' I4B d   1       2.982  -3.930  -2.513  0.00  0.00     0.060 C 
BRANCH   7   8
ATOM      8  C2' I4B d   1       1.709  -4.499  -1.921  0.00  0.00    -0.013 C 
ATOM      9  C4' I4B d   1       1.833  -5.981  -1.682  0.00  0.00     0.013 C 
ATOM     10  C3' I4B d   1       1.424  -3.767  -0.644  0.00  0.00     0.013 C 
ENDBRANCH   7   8
ENDBRANCH   1   7
TORSDOF 2
ENDMDL
