MODEL 1
REMARK minimizedAffinity 4.2824831
REMARK minimizedRMSD -1
REMARK  2 active torsions:
REMARK  status: ('A' for Active; 'I' for Inactive)
REMARK    1  A    between atoms: C2'_3  and  C1'_4 
REMARK    2  A    between atoms: C1'_4  and  C1_5 
ROOT
ATOM      1  C1  I4B d   1      -0.121   2.705   1.199  0.00  0.00    -0.075 A 
ATOM      2  C2  I4B d   1      -0.097   2.019   0.010  0.00  0.00     0.003 A 
ATOM      3  C3  I4B d   1       0.145   2.705  -1.204  0.00  0.00     0.002 A 
ATOM      4  C4  I4B d   1       0.306   4.076  -1.190  0.00  0.00    -0.004 A 
ATOM      5  C5  I4B d   1       0.304   4.766   0.019  0.00  0.00     0.002 A 
ATOM      6  C6  I4B d   1       0.101   4.075   1.222  0.00  0.00     0.003 A 
ENDROOT
BRANCH   1   7
ATOM      7  C1' I4B d   1      -0.412   1.953   2.459  0.00  0.00     0.060 C 
BRANCH   7   8
ATOM      8  C2' I4B d   1      -0.985   0.603   2.076  0.00  0.00    -0.013 C 
ATOM      9  C4' I4B d   1      -0.082  -0.518   2.519  0.00  0.00     0.013 C 
ATOM     10  C3' I4B d   1      -2.343   0.483   2.700  0.00  0.00     0.013 C 
ENDBRANCH   7   8
ENDBRANCH   1   7
TORSDOF 2
ENDMDL
