MODEL 1
REMARK minimizedAffinity -1.77101445
REMARK minimizedRMSD -1
REMARK  2 active torsions:
REMARK  status: ('A' for Active; 'I' for Inactive)
REMARK    1  A    between atoms: C2'_3  and  C1'_4 
REMARK    2  A    between atoms: C1'_4  and  C1_5 
ROOT
ATOM      1  C1  I4B d   1       0.561   0.559   0.637  0.00  0.00    -0.075 A 
ATOM      2  C2  I4B d   1       1.933   0.621   0.642  0.00  0.00     0.003 A 
ATOM      3  C3  I4B d   1       2.599   1.719   0.045  0.00  0.00     0.002 A 
ATOM      4  C4  I4B d   1       1.862   2.699  -0.587  0.00  0.00    -0.004 A 
ATOM      5  C5  I4B d   1       0.471   2.646  -0.572  0.00  0.00     0.002 A 
ATOM      6  C6  I4B d   1      -0.184   1.576   0.055  0.00  0.00     0.003 A 
ENDROOT
BRANCH   1   7
ATOM      7  C1' I4B d   1      -0.109  -0.631   1.248  0.00  0.00     0.060 C 
BRANCH   7   8
ATOM      8  C2' I4B d   1       0.930  -1.723   1.403  0.00  0.00    -0.013 C 
ATOM      9  C4' I4B d   1       1.072  -2.139   2.843  0.00  0.00     0.013 C 
ATOM     10  C3' I4B d   1       0.517  -2.880   0.542  0.00  0.00     0.013 C 
ENDBRANCH   7   8
ENDBRANCH   1   7
TORSDOF 2
ENDMDL
