MODEL 1
REMARK minimizedAffinity 1.52918994
REMARK minimizedRMSD -1
REMARK  2 active torsions:
REMARK  status: ('A' for Active; 'I' for Inactive)
REMARK    1  A    between atoms: C2'_3  and  C1'_4 
REMARK    2  A    between atoms: C1'_4  and  C1_5 
ROOT
ATOM      1  C1  I4B d   1       1.762  -3.555   2.942  0.00  0.00    -0.075 A 
ATOM      2  C2  I4B d   1       1.748  -2.313   3.525  0.00  0.00     0.003 A 
ATOM      3  C3  I4B d   1       1.251  -1.196   2.812  0.00  0.00     0.002 A 
ATOM      4  C4  I4B d   1       0.827  -1.355   1.508  0.00  0.00    -0.004 A 
ATOM      5  C5  I4B d   1       0.820  -2.620   0.926  0.00  0.00     0.002 A 
ATOM      6  C6  I4B d   1       1.279  -3.729   1.652  0.00  0.00     0.003 A 
ENDROOT
BRANCH   1   7
ATOM      7  C1' I4B d   1       2.324  -4.707   3.712  0.00  0.00     0.060 C 
BRANCH   7   8
ATOM      8  C2' I4B d   1       1.939  -4.529   5.167  0.00  0.00    -0.013 C 
ATOM      9  C4' I4B d   1       0.513  -4.948   5.409  0.00  0.00     0.013 C 
ATOM     10  C3' I4B d   1       2.890  -5.336   6.000  0.00  0.00     0.013 C 
ENDBRANCH   7   8
ENDBRANCH   1   7
TORSDOF 2
ENDMDL
