MODEL 1
REMARK minimizedAffinity 5.35339546
REMARK minimizedRMSD -1
REMARK  2 active torsions:
REMARK  status: ('A' for Active; 'I' for Inactive)
REMARK    1  A    between atoms: C2'_3  and  C1'_4 
REMARK    2  A    between atoms: C1'_4  and  C1_5 
ROOT
ATOM      1  C1  I4B d   1       0.876  -1.768   1.977  0.00  0.00    -0.075 A 
ATOM      2  C2  I4B d   1       1.403  -0.502   2.043  0.00  0.00     0.003 A 
ATOM      3  C3  I4B d   1       2.124  -0.089   3.189  0.00  0.00     0.002 A 
ATOM      4  C4  I4B d   1       2.250  -0.950   4.260  0.00  0.00    -0.004 A 
ATOM      5  C5  I4B d   1       1.735  -2.241   4.182  0.00  0.00     0.002 A 
ATOM      6  C6  I4B d   1       1.054  -2.657   3.029  0.00  0.00     0.003 A 
ENDROOT
BRANCH   1   7
ATOM      7  C1' I4B d   1       0.091  -2.160   0.765  0.00  0.00     0.060 C 
BRANCH   7   8
ATOM      8  C2' I4B d   1       1.071  -2.408  -0.364  0.00  0.00    -0.013 C 
ATOM      9  C4' I4B d   1       0.945  -3.812  -0.896  0.00  0.00     0.013 C 
ATOM     10  C3' I4B d   1       0.804  -1.396  -1.439  0.00  0.00     0.013 C 
ENDBRANCH   7   8
ENDBRANCH   1   7
TORSDOF 2
ENDMDL
