MODEL 1
REMARK minimizedAffinity 6.28577995
REMARK minimizedRMSD -1
REMARK  2 active torsions:
REMARK  status: ('A' for Active; 'I' for Inactive)
REMARK    1  A    between atoms: C2'_3  and  C1'_4 
REMARK    2  A    between atoms: C1'_4  and  C1_5 
ROOT
ATOM      1  C1  I4B d   1      -5.844   2.934  -1.011  0.00  0.00    -0.075 A 
ATOM      2  C2  I4B d   1      -5.977   1.568  -0.988  0.00  0.00     0.003 A 
ATOM      3  C3  I4B d   1      -5.819   0.857   0.226  0.00  0.00     0.002 A 
ATOM      4  C4  I4B d   1      -5.482   1.542   1.376  0.00  0.00    -0.004 A 
ATOM      5  C5  I4B d   1      -5.371   2.929   1.356  0.00  0.00     0.002 A 
ATOM      6  C6  I4B d   1      -5.565   3.631   0.157  0.00  0.00     0.003 A 
ENDROOT
BRANCH   1   7
ATOM      7  C1' I4B d   1      -5.984   3.650  -2.317  0.00  0.00     0.060 C 
BRANCH   7   8
ATOM      8  C2' I4B d   1      -5.561   2.700  -3.418  0.00  0.00    -0.013 C 
ATOM      9  C4' I4B d   1      -5.852   3.277  -4.778  0.00  0.00     0.013 C 
ATOM     10  C3' I4B d   1      -4.097   2.420  -3.251  0.00  0.00     0.013 C 
ENDBRANCH   7   8
ENDBRANCH   1   7
TORSDOF 2
ENDMDL
