MODEL 1
REMARK minimizedAffinity 15.1054554
REMARK minimizedRMSD -1
REMARK  2 active torsions:
REMARK  status: ('A' for Active; 'I' for Inactive)
REMARK    1  A    between atoms: C2'_3  and  C1'_4 
REMARK    2  A    between atoms: C1'_4  and  C1_5 
ROOT
ATOM      1  C1  I4B d   1       1.261  -1.697   1.078  0.00  0.00    -0.075 A 
ATOM      2  C2  I4B d   1       1.586  -0.897   0.011  0.00  0.00     0.003 A 
ATOM      3  C3  I4B d   1       1.440  -1.379  -1.312  0.00  0.00     0.002 A 
ATOM      4  C4  I4B d   1       1.018  -2.676  -1.520  0.00  0.00    -0.004 A 
ATOM      5  C5  I4B d   1       0.667  -3.478  -0.437  0.00  0.00     0.002 A 
ATOM      6  C6  I4B d   1       0.778  -2.982   0.870  0.00  0.00     0.003 A 
ENDROOT
BRANCH   1   7
ATOM      7  C1' I4B d   1       1.459  -1.166   2.463  0.00  0.00     0.060 C 
BRANCH   7   8
ATOM      8  C2' I4B d   1       1.425  -2.339   3.421  0.00  0.00    -0.013 C 
ATOM      9  C4' I4B d   1       2.746  -3.062   3.445  0.00  0.00     0.013 C 
ATOM     10  C3' I4B d   1       1.069  -1.816   4.781  0.00  0.00     0.013 C 
ENDBRANCH   7   8
ENDBRANCH   1   7
TORSDOF 2
ENDMDL
