MODEL 1
REMARK minimizedAffinity 3.08064127
REMARK minimizedRMSD -1
REMARK  2 active torsions:
REMARK  status: ('A' for Active; 'I' for Inactive)
REMARK    1  A    between atoms: C2'_3  and  C1'_4 
REMARK    2  A    between atoms: C1'_4  and  C1_5 
ROOT
ATOM      1  C1  I4B d   1      -5.241   2.479  -0.956  0.00  0.00    -0.075 A 
ATOM      2  C2  I4B d   1      -4.331   1.983  -0.056  0.00  0.00     0.003 A 
ATOM      3  C3  I4B d   1      -4.151   2.616   1.198  0.00  0.00     0.002 A 
ATOM      4  C4  I4B d   1      -4.860   3.763   1.488  0.00  0.00    -0.004 A 
ATOM      5  C5  I4B d   1      -5.799   4.252   0.584  0.00  0.00     0.002 A 
ATOM      6  C6  I4B d   1      -6.000   3.599  -0.641  0.00  0.00     0.003 A 
ENDROOT
BRANCH   1   7
ATOM      7  C1' I4B d   1      -5.382   1.806  -2.284  0.00  0.00     0.060 C 
BRANCH   7   8
ATOM      8  C2' I4B d   1      -4.221   2.242  -3.155  0.00  0.00    -0.013 C 
ATOM      9  C4' I4B d   1      -3.343   1.074  -3.518  0.00  0.00     0.013 C 
ATOM     10  C3' I4B d   1      -4.783   2.900  -4.380  0.00  0.00     0.013 C 
ENDBRANCH   7   8
ENDBRANCH   1   7
TORSDOF 2
ENDMDL
