MODEL 1
REMARK minimizedAffinity -5.92945051
REMARK minimizedRMSD -1
REMARK  3 active torsions:
REMARK  status: ('A' for Active; 'I' for Inactive)
REMARK    1  A    between atoms: C3'_2  and  C2'_3 
REMARK    2  A    between atoms: C2'_3  and  C1'_4 
REMARK    3  A    between atoms: C1'_4  and  C1_5 
ROOT
ATOM      1  C1  N4B d   1      -0.755   1.036   0.223  0.00  0.00    -0.075 A 
ATOM      2  C2  N4B d   1      -1.589   1.607   1.209  0.00  0.00     0.002 A 
ATOM      3  C3  N4B d   1      -1.965   2.924   1.113  0.00  0.00     0.002 A 
ATOM      4  C4  N4B d   1      -1.504   3.693   0.054  0.00  0.00    -0.004 A 
ATOM      5  C5  N4B d   1      -0.719   3.128  -0.908  0.00  0.00     0.002 A 
ATOM      6  C6  N4B d   1      -0.338   1.804  -0.826  0.00  0.00     0.002 A 
ENDROOT
BRANCH   1   7
ATOM      7  C1' N4B d   1      -0.248  -0.376   0.331  0.00  0.00     0.057 C 
BRANCH   7   8
ATOM      8  C2' N4B d   1       0.344  -0.800  -1.009  0.00  0.00     0.009 C 
BRANCH   8   9
ATOM      9  C3' N4B d   1       0.835  -2.237  -0.985  0.00  0.00     0.004 C 
ATOM     10  C4' N4B d   1       0.323  -3.045  -2.140  0.00  0.00     0.003 C 
ENDBRANCH   8   9
ENDBRANCH   7   8
ENDBRANCH   1   7
TORSDOF 3
ENDMDL
