MODEL 1
REMARK minimizedAffinity -1.60127914
REMARK minimizedRMSD -1
REMARK  3 active torsions:
REMARK  status: ('A' for Active; 'I' for Inactive)
REMARK    1  A    between atoms: C3'_2  and  C2'_3 
REMARK    2  A    between atoms: C2'_3  and  C1'_4 
REMARK    3  A    between atoms: C1'_4  and  C1_5 
ROOT
ATOM      1  C1  N4B d   1      -0.060   0.363  -0.476  0.00  0.00    -0.075 A 
ATOM      2  C2  N4B d   1      -0.180  -0.537   0.606  0.00  0.00     0.002 A 
ATOM      3  C3  N4B d   1      -0.940  -0.199   1.698  0.00  0.00     0.002 A 
ATOM      4  C4  N4B d   1      -1.571   1.035   1.740  0.00  0.00    -0.004 A 
ATOM      5  C5  N4B d   1      -1.471   1.888   0.680  0.00  0.00     0.002 A 
ATOM      6  C6  N4B d   1      -0.714   1.560  -0.427  0.00  0.00     0.002 A 
ENDROOT
BRANCH   1   7
ATOM      7  C1' N4B d   1       0.829   0.074  -1.655  0.00  0.00     0.057 C 
BRANCH   7   8
ATOM      8  C2' N4B d   1       1.152  -1.417  -1.685  0.00  0.00     0.009 C 
BRANCH   8   9
ATOM      9  C3' N4B d   1       0.479  -2.121  -2.850  0.00  0.00     0.004 C 
ATOM     10  C4' N4B d   1       0.312  -3.594  -2.621  0.00  0.00     0.003 C 
ENDBRANCH   8   9
ENDBRANCH   7   8
ENDBRANCH   1   7
TORSDOF 3
ENDMDL
