MODEL 1
REMARK minimizedAffinity -5.5047164
REMARK minimizedRMSD -1
REMARK  3 active torsions:
REMARK  status: ('A' for Active; 'I' for Inactive)
REMARK    1  A    between atoms: C3'_2  and  C2'_3 
REMARK    2  A    between atoms: C2'_3  and  C1'_4 
REMARK    3  A    between atoms: C1'_4  and  C1_5 
ROOT
ATOM      1  C1  N4B d   1       0.011   0.227   0.007  0.00  0.00    -0.075 A 
ATOM      2  C2  N4B d   1      -0.032  -0.066   1.388  0.00  0.00     0.002 A 
ATOM      3  C3  N4B d   1      -1.023   0.470   2.173  0.00  0.00     0.002 A 
ATOM      4  C4  N4B d   1      -1.966   1.313   1.606  0.00  0.00    -0.004 A 
ATOM      5  C5  N4B d   1      -1.933   1.571   0.267  0.00  0.00     0.002 A 
ATOM      6  C6  N4B d   1      -0.945   1.036  -0.535  0.00  0.00     0.002 A 
ENDROOT
BRANCH   1   7
ATOM      7  C1' N4B d   1       1.125  -0.267  -0.875  0.00  0.00     0.057 C 
BRANCH   7   8
ATOM      8  C2' N4B d   1       1.080  -1.791  -0.934  0.00  0.00     0.009 C 
BRANCH   8   9
ATOM      9  C3' N4B d   1       0.654  -2.294  -2.302  0.00  0.00     0.004 C 
ATOM     10  C4' N4B d   1      -0.347  -3.408  -2.225  0.00  0.00     0.003 C 
ENDBRANCH   8   9
ENDBRANCH   7   8
ENDBRANCH   1   7
TORSDOF 3
ENDMDL
