MODEL 1
REMARK minimizedAffinity 4.15914011
REMARK minimizedRMSD -1
REMARK  1 active torsions:
REMARK  status: ('A' for Active; 'I' for Inactive)
REMARK    1  A    between atoms: C1_2  and  C2_3 
ROOT
ATOM      1  C2  UNL d   1       1.224  -3.829   5.398  0.00  0.00    -0.076 A 
ATOM      2  C3  UNL d   1       1.970  -2.800   5.998  0.00  0.00     0.004 A 
ATOM      3  C4  UNL d   1       1.944  -1.503   5.487  0.00  0.00    -0.003 A 
ATOM      4  C5  UNL d   1       1.171  -1.214   4.368  0.00  0.00     0.000 A 
ATOM      5  C6  UNL d   1       0.410  -2.219   3.771  0.00  0.00     0.000 A 
ATOM      6  C7  UNL d   1       0.413  -3.528   4.283  0.00  0.00    -0.073 A 
ATOM      7  C8  UNL d   1      -0.422  -4.573   3.595  0.00  0.00     0.078 C 
ENDROOT
BRANCH   1   8
ATOM      8  C1  UNL d   1       1.312  -5.222   5.980  0.00  0.00     0.053 C 
ATOM      9  C   UNL d   1      -0.031  -5.934   5.992  0.00  0.00     0.018 C 
ENDBRANCH   1   8
TORSDOF 1
ENDMDL
