MODEL 1
REMARK minimizedAffinity 2.3476119
REMARK minimizedRMSD -1
REMARK  1 active torsions:
REMARK  status: ('A' for Active; 'I' for Inactive)
REMARK    1  A    between atoms: C1_2  and  C2_3 
ROOT
ATOM      1  C2  UNL d   1       3.220   3.691   5.761  0.00  0.00    -0.076 A 
ATOM      2  C3  UNL d   1       4.044   4.804   5.522  0.00  0.00     0.004 A 
ATOM      3  C4  UNL d   1       5.415   4.652   5.322  0.00  0.00    -0.003 A 
ATOM      4  C5  UNL d   1       5.984   3.383   5.357  0.00  0.00     0.000 A 
ATOM      5  C6  UNL d   1       5.179   2.266   5.575  0.00  0.00     0.000 A 
ATOM      6  C7  UNL d   1       3.792   2.401   5.762  0.00  0.00    -0.073 A 
ATOM      7  C8  UNL d   1       2.972   1.162   6.000  0.00  0.00     0.078 C 
ENDROOT
BRANCH   1   8
ATOM      8  C1  UNL d   1       1.744   3.920   5.998  0.00  0.00     0.053 C 
ATOM      9  C   UNL d   1       1.376   5.396   5.998  0.00  0.00     0.018 C 
ENDBRANCH   1   8
TORSDOF 1
ENDMDL
