MODEL 1
REMARK minimizedAffinity 8.93189812
REMARK minimizedRMSD -1
REMARK  1 active torsions:
REMARK  status: ('A' for Active; 'I' for Inactive)
REMARK    1  A    between atoms: C1_2  and  C2_3 
ROOT
ATOM      1  C2  UNL d   1       4.564   3.701   5.186  0.00  0.00    -0.076 A 
ATOM      2  C3  UNL d   1       5.486   2.671   4.925  0.00  0.00     0.004 A 
ATOM      3  C4  UNL d   1       5.174   1.342   5.203  0.00  0.00    -0.003 A 
ATOM      4  C5  UNL d   1       3.935   1.019   5.746  0.00  0.00     0.000 A 
ATOM      5  C6  UNL d   1       3.002   2.025   5.995  0.00  0.00     0.000 A 
ATOM      6  C7  UNL d   1       3.294   3.369   5.705  0.00  0.00    -0.073 A 
ATOM      7  C8  UNL d   1       2.253   4.414   5.999  0.00  0.00     0.078 C 
ENDROOT
BRANCH   1   8
ATOM      8  C1  UNL d   1       4.968   5.127   4.890  0.00  0.00     0.053 C 
ATOM      9  C   UNL d   1       5.829   5.730   5.990  0.00  0.00     0.018 C 
ENDBRANCH   1   8
TORSDOF 1
ENDMDL
