MODEL 1
REMARK minimizedAffinity 5.82302856
REMARK minimizedRMSD -1
REMARK  1 active torsions:
REMARK  status: ('A' for Active; 'I' for Inactive)
REMARK    1  A    between atoms: C1_2  and  C2_3 
ROOT
ATOM      1  C2  UNL d   1      -4.021   3.596   0.914  0.00  0.00    -0.076 A 
ATOM      2  C3  UNL d   1      -4.666   3.956  -0.282  0.00  0.00     0.004 A 
ATOM      3  C4  UNL d   1      -5.647   3.140  -0.842  0.00  0.00    -0.003 A 
ATOM      4  C5  UNL d   1      -6.000   1.950  -0.214  0.00  0.00     0.000 A 
ATOM      5  C6  UNL d   1      -5.383   1.586   0.983  0.00  0.00     0.000 A 
ATOM      6  C7  UNL d   1      -4.404   2.406   1.569  0.00  0.00    -0.073 A 
ATOM      7  C8  UNL d   1      -3.767   1.962   2.858  0.00  0.00     0.078 C 
ENDROOT
BRANCH   1   8
ATOM      8  C1  UNL d   1      -2.945   4.508   1.460  0.00  0.00     0.053 C 
ATOM      9  C   UNL d   1      -3.029   5.915   0.888  0.00  0.00     0.018 C 
ENDBRANCH   1   8
TORSDOF 1
ENDMDL
