MODEL 1
REMARK minimizedAffinity -3.13717628
REMARK minimizedRMSD -1
REMARK  1 active torsions:
REMARK  status: ('A' for Active; 'I' for Inactive)
REMARK    1  A    between atoms: C1_2  and  C2_3 
ROOT
ATOM      1  C2  UNL d   1       3.623   2.959   5.918  0.00  0.00    -0.076 A 
ATOM      2  C3  UNL d   1       2.236   3.186   5.965  0.00  0.00     0.004 A 
ATOM      3  C4  UNL d   1       1.722   4.481   5.997  0.00  0.00    -0.003 A 
ATOM      4  C5  UNL d   1       2.587   5.571   5.981  0.00  0.00     0.000 A 
ATOM      5  C6  UNL d   1       3.964   5.364   5.916  0.00  0.00     0.000 A 
ATOM      6  C7  UNL d   1       4.498   4.065   5.867  0.00  0.00    -0.073 A 
ATOM      7  C8  UNL d   1       5.992   3.900   5.804  0.00  0.00     0.078 C 
ENDROOT
BRANCH   1   8
ATOM      8  C1  UNL d   1       4.123   1.532   5.912  0.00  0.00     0.053 C 
ATOM      9  C   UNL d   1       2.991   0.518   5.968  0.00  0.00     0.018 C 
ENDBRANCH   1   8
TORSDOF 1
ENDMDL
