MODEL 1
REMARK minimizedAffinity -0.772408605
REMARK minimizedRMSD -1
REMARK  1 active torsions:
REMARK  status: ('A' for Active; 'I' for Inactive)
REMARK    1  A    between atoms: C1_2  and  C2_3 
ROOT
ATOM      1  C2  UNL d   1       4.314   2.537   4.719  0.00  0.00    -0.076 A 
ATOM      2  C3  UNL d   1       4.181   3.316   5.881  0.00  0.00     0.004 A 
ATOM      3  C4  UNL d   1       4.816   4.551   5.994  0.00  0.00    -0.003 A 
ATOM      4  C5  UNL d   1       5.594   5.028   4.945  0.00  0.00     0.000 A 
ATOM      5  C6  UNL d   1       5.723   4.277   3.778  0.00  0.00     0.000 A 
ATOM      6  C7  UNL d   1       5.076   3.037   3.641  0.00  0.00    -0.073 A 
ATOM      7  C8  UNL d   1       5.255   2.266   2.362  0.00  0.00     0.078 C 
ENDROOT
BRANCH   1   8
ATOM      8  C1  UNL d   1       3.624   1.193   4.664  0.00  0.00     0.053 C 
ATOM      9  C   UNL d   1       3.014   0.796   6.000  0.00  0.00     0.018 C 
ENDBRANCH   1   8
TORSDOF 1
ENDMDL
