MODEL 1
REMARK minimizedAffinity 2.05682635
REMARK minimizedRMSD -1
REMARK  1 active torsions:
REMARK  status: ('A' for Active; 'I' for Inactive)
REMARK    1  A    between atoms: C1_2  and  C2_3 
ROOT
ATOM      1  C2  UNL d   1       3.169   4.503   5.806  0.00  0.00    -0.076 A 
ATOM      2  C3  UNL d   1       3.732   5.788   5.899  0.00  0.00     0.004 A 
ATOM      3  C4  UNL d   1       5.105   5.982   5.759  0.00  0.00    -0.003 A 
ATOM      4  C5  UNL d   1       5.938   4.893   5.523  0.00  0.00     0.000 A 
ATOM      5  C6  UNL d   1       5.395   3.614   5.411  0.00  0.00     0.000 A 
ATOM      6  C7  UNL d   1       4.011   3.403   5.533  0.00  0.00    -0.073 A 
ATOM      7  C8  UNL d   1       3.480   2.001   5.409  0.00  0.00     0.078 C 
ENDROOT
BRANCH   1   8
ATOM      8  C1  UNL d   1       1.677   4.351   5.993  0.00  0.00     0.053 C 
ATOM      9  C   UNL d   1       0.946   5.684   5.955  0.00  0.00     0.018 C 
ENDBRANCH   1   8
TORSDOF 1
ENDMDL
