MODEL 1
REMARK minimizedAffinity -2.94793081
REMARK minimizedRMSD -1
REMARK  0 active torsions:
REMARK  status: ('A' for Active; 'I' for Inactive)
ROOT
ATOM      1  N1  IND d   1       1.106   1.407  -0.313  0.00  0.00    -0.196 N 
ATOM      2  C2  IND d   1       0.027   1.189  -1.125  0.00  0.00     0.054 A 
ATOM      3  C3  IND d   1      -0.748   0.201  -0.622  0.00  0.00    -0.031 A 
ATOM      4  C4  IND d   1      -0.490  -1.125   1.569  0.00  0.00     0.051 A 
ATOM      5  C5  IND d   1       0.358  -1.307   2.625  0.00  0.00    -0.031 A 
ATOM      6  C6  IND d   1       1.521  -0.576   2.760  0.00  0.00     0.015 A 
ATOM      7  C7  IND d   1       1.875   0.375   1.845  0.00  0.00    -0.016 A 
ATOM      8  C8  IND d   1       1.019   0.557   0.768  0.00  0.00    -0.047 A 
ATOM      9  C9  IND d   1      -0.141  -0.211   0.603  0.00  0.00    -0.096 A 
ATOM     10  HN1 IND d   1       1.732   1.978  -0.454  0.00  0.00     0.298 HD
ENDROOT
TORSDOF 0
ENDMDL
