MODEL 1
REMARK minimizedAffinity -5.04201174
REMARK minimizedRMSD -1
REMARK  0 active torsions:
REMARK  status: ('A' for Active; 'I' for Inactive)
ROOT
ATOM      1  N1  IND d   1      -0.918  -0.149   0.967  0.00  0.00    -0.196 N 
ATOM      2  C2  IND d   1      -0.980  -0.192   2.332  0.00  0.00     0.054 A 
ATOM      3  C3  IND d   1       0.057  -0.904   2.827  0.00  0.00    -0.031 A 
ATOM      4  C4  IND d   1       2.029  -2.001   1.588  0.00  0.00     0.051 A 
ATOM      5  C5  IND d   1       2.501  -2.261   0.332  0.00  0.00    -0.031 A 
ATOM      6  C6  IND d   1       1.846  -1.820  -0.799  0.00  0.00     0.015 A 
ATOM      7  C7  IND d   1       0.695  -1.088  -0.716  0.00  0.00    -0.016 A 
ATOM      8  C8  IND d   1       0.209  -0.828   0.557  0.00  0.00    -0.047 A 
ATOM      9  C9  IND d   1       0.846  -1.310   1.708  0.00  0.00    -0.096 A 
ATOM     10  HN1 IND d   1      -1.487   0.236   0.451  0.00  0.00     0.298 HD
ENDROOT
TORSDOF 0
ENDMDL
