MODEL 1
REMARK minimizedAffinity -3.73261976
REMARK minimizedRMSD -1
REMARK  0 active torsions:
REMARK  status: ('A' for Active; 'I' for Inactive)
ROOT
ATOM      1  N1  IND d   1       0.252  -0.977   2.468  0.00  0.00    -0.196 N 
ATOM      2  C2  IND d   1       1.415  -1.019   3.186  0.00  0.00     0.054 A 
ATOM      3  C3  IND d   1       2.460  -0.649   2.412  0.00  0.00    -0.031 A 
ATOM      4  C4  IND d   1       2.479   0.163  -0.030  0.00  0.00     0.051 A 
ATOM      5  C5  IND d   1       1.665   0.337  -1.114  0.00  0.00    -0.031 A 
ATOM      6  C6  IND d   1       0.310   0.078  -1.058  0.00  0.00     0.015 A 
ATOM      7  C7  IND d   1      -0.285  -0.354   0.094  0.00  0.00    -0.016 A 
ATOM      8  C8  IND d   1       0.540  -0.538   1.194  0.00  0.00    -0.047 A 
ATOM      9  C9  IND d   1       1.922  -0.318   1.131  0.00  0.00    -0.096 A 
ATOM     10  HN1 IND d   1      -0.527  -1.189   2.762  0.00  0.00     0.298 HD
ENDROOT
TORSDOF 0
ENDMDL
