MODEL 1
REMARK minimizedAffinity -4.11060047
REMARK minimizedRMSD -1
REMARK  0 active torsions:
REMARK  status: ('A' for Active; 'I' for Inactive)
ROOT
ATOM      1  N1  IND d   1      -1.205  -0.547  -0.465  0.00  0.00    -0.196 N 
ATOM      2  C2  IND d   1      -2.282  -0.717   0.360  0.00  0.00     0.054 A 
ATOM      3  C3  IND d   1      -1.874  -0.887   1.637  0.00  0.00    -0.031 A 
ATOM      4  C4  IND d   1       0.506  -0.823   2.616  0.00  0.00     0.051 A 
ATOM      5  C5  IND d   1       1.820  -0.733   2.249  0.00  0.00    -0.031 A 
ATOM      6  C6  IND d   1       2.200  -0.570   0.933  0.00  0.00     0.015 A 
ATOM      7  C7  IND d   1       1.275  -0.480  -0.069  0.00  0.00    -0.016 A 
ATOM      8  C8  IND d   1      -0.059  -0.578   0.298  0.00  0.00    -0.047 A 
ATOM      9  C9  IND d   1      -0.449  -0.786   1.628  0.00  0.00    -0.096 A 
ATOM     10  HN1 IND d   1      -1.238  -0.439  -1.318  0.00  0.00     0.298 HD
ENDROOT
TORSDOF 0
ENDMDL
