MODEL 1
REMARK minimizedAffinity -1.57442796
REMARK minimizedRMSD -1
REMARK  0 active torsions:
REMARK  status: ('A' for Active; 'I' for Inactive)
ROOT
ATOM      1  N1  IND d   1       1.621  -1.846  -0.372  0.00  0.00    -0.196 N 
ATOM      2  C2  IND d   1       0.987  -1.063  -1.297  0.00  0.00     0.054 A 
ATOM      3  C3  IND d   1       0.072  -0.271  -0.694  0.00  0.00    -0.031 A 
ATOM      4  C4  IND d   1      -0.480  -0.020   1.808  0.00  0.00     0.051 A 
ATOM      5  C5  IND d   1      -0.189  -0.550   3.033  0.00  0.00    -0.031 A 
ATOM      6  C6  IND d   1       0.741  -1.558   3.190  0.00  0.00     0.015 A 
ATOM      7  C7  IND d   1       1.426  -2.067   2.123  0.00  0.00    -0.016 A 
ATOM      8  C8  IND d   1       1.128  -1.536   0.876  0.00  0.00    -0.047 A 
ATOM      9  C9  IND d   1       0.154  -0.543   0.706  0.00  0.00    -0.096 A 
ATOM     10  HN1 IND d   1       2.226  -2.433  -0.542  0.00  0.00     0.298 HD
ENDROOT
TORSDOF 0
ENDMDL
