MODEL 1
REMARK minimizedAffinity -3.62677312
REMARK minimizedRMSD -1
REMARK  0 active torsions:
REMARK  status: ('A' for Active; 'I' for Inactive)
ROOT
ATOM      1  N1  IND d   1      -1.720  -0.950   0.511  0.00  0.00    -0.196 N 
ATOM      2  C2  IND d   1      -1.522  -0.517  -0.770  0.00  0.00     0.054 A 
ATOM      3  C3  IND d   1      -0.249  -0.091  -0.931  0.00  0.00    -0.031 A 
ATOM      4  C4  IND d   1       1.706  -0.109   0.743  0.00  0.00     0.051 A 
ATOM      5  C5  IND d   1       2.003  -0.379   2.050  0.00  0.00    -0.031 A 
ATOM      6  C6  IND d   1       1.055  -0.865   2.927  0.00  0.00     0.015 A 
ATOM      7  C7  IND d   1      -0.227  -1.112   2.526  0.00  0.00    -0.016 A 
ATOM      8  C8  IND d   1      -0.534  -0.832   1.202  0.00  0.00    -0.047 A 
ATOM      9  C9  IND d   1       0.413  -0.299   0.318  0.00  0.00    -0.096 A 
ATOM     10  HN1 IND d   1      -2.461  -1.246   0.832  0.00  0.00     0.298 HD
ENDROOT
TORSDOF 0
ENDMDL
