MODEL 1
REMARK minimizedAffinity 0.0325174518
REMARK minimizedRMSD -1
REMARK  0 active torsions:
REMARK  status: ('A' for Active; 'I' for Inactive)
ROOT
ATOM      1  N1  IND d   1      -0.764  -1.121   3.085  0.00  0.00    -0.196 N 
ATOM      2  C2  IND d   1       0.286  -1.915   3.455  0.00  0.00     0.054 A 
ATOM      3  C3  IND d   1       1.169  -2.032   2.438  0.00  0.00    -0.031 A 
ATOM      4  C4  IND d   1       1.142  -0.925   0.113  0.00  0.00     0.051 A 
ATOM      5  C5  IND d   1       0.368  -0.144  -0.699  0.00  0.00    -0.031 A 
ATOM      6  C6  IND d   1      -0.846   0.363  -0.282  0.00  0.00     0.015 A 
ATOM      7  C7  IND d   1      -1.328   0.117   0.972  0.00  0.00    -0.016 A 
ATOM      8  C8  IND d   1      -0.548  -0.681   1.797  0.00  0.00    -0.047 A 
ATOM      9  C9  IND d   1       0.664  -1.234   1.365  0.00  0.00    -0.096 A 
ATOM     10  HN1 IND d   1      -1.445  -0.930   3.574  0.00  0.00     0.298 HD
ENDROOT
TORSDOF 0
ENDMDL
