MODEL 1
REMARK minimizedAffinity -1.26654541
REMARK minimizedRMSD -1
REMARK  0 active torsions:
REMARK  status: ('A' for Active; 'I' for Inactive)
ROOT
ATOM      1  N1  IND d   1      -1.461  -0.254   0.424  0.00  0.00    -0.196 N 
ATOM      2  C2  IND d   1      -0.983   0.009  -0.830  0.00  0.00     0.054 A 
ATOM      3  C3  IND d   1       0.369   0.001  -0.829  0.00  0.00    -0.031 A 
ATOM      4  C4  IND d   1       2.000  -0.523   1.093  0.00  0.00     0.051 A 
ATOM      5  C5  IND d   1       2.036  -0.786   2.433  0.00  0.00    -0.031 A 
ATOM      6  C6  IND d   1       0.885  -0.890   3.187  0.00  0.00     0.015 A 
ATOM      7  C7  IND d   1      -0.351  -0.745   2.624  0.00  0.00    -0.016 A 
ATOM      8  C8  IND d   1      -0.391  -0.471   1.264  0.00  0.00    -0.047 A 
ATOM      9  C9  IND d   1       0.775  -0.323   0.502  0.00  0.00    -0.096 A 
ATOM     10  HN1 IND d   1      -2.290  -0.280   0.649  0.00  0.00     0.298 HD
ENDROOT
TORSDOF 0
ENDMDL
