MODEL 1
REMARK minimizedAffinity -3.16672039
REMARK minimizedRMSD -1
REMARK  0 active torsions:
REMARK  status: ('A' for Active; 'I' for Inactive)
ROOT
ATOM      1  N1  IND d   1      -1.580  -0.402  -0.480  0.00  0.00    -0.196 N 
ATOM      2  C2  IND d   1      -1.242  -0.410  -1.805  0.00  0.00     0.054 A 
ATOM      3  C3  IND d   1       0.096  -0.536  -1.948  0.00  0.00    -0.031 A 
ATOM      4  C4  IND d   1       1.911  -0.847  -0.149  0.00  0.00     0.051 A 
ATOM      5  C5  IND d   1       2.093  -0.867   1.206  0.00  0.00    -0.031 A 
ATOM      6  C6  IND d   1       1.038  -0.734   2.085  0.00  0.00     0.015 A 
ATOM      7  C7  IND d   1      -0.245  -0.586   1.641  0.00  0.00    -0.016 A 
ATOM      8  C8  IND d   1      -0.433  -0.557   0.266  0.00  0.00    -0.047 A 
ATOM      9  C9  IND d   1       0.639  -0.650  -0.631  0.00  0.00    -0.096 A 
ATOM     10  HN1 IND d   1      -2.376  -0.315  -0.166  0.00  0.00     0.298 HD
ENDROOT
TORSDOF 0
ENDMDL
