MODEL 1
REMARK minimizedAffinity 10.0532722
REMARK minimizedRMSD -1
REMARK  2 active torsions:
REMARK  status: ('A' for Active; 'I' for Inactive)
REMARK    1  A    between atoms: C2'_3  and  C1'_4 
REMARK    2  A    between atoms: C1'_4  and  C1_5 
ROOT
ATOM      1  C1  I4B d   1       2.484  -3.371   1.901  0.00  0.00    -0.075 A 
ATOM      2  C2  I4B d   1       1.612  -2.560   2.583  0.00  0.00     0.003 A 
ATOM      3  C3  I4B d   1       0.958  -1.496   1.915  0.00  0.00     0.002 A 
ATOM      4  C4  I4B d   1       1.242  -1.250   0.588  0.00  0.00    -0.004 A 
ATOM      5  C5  I4B d   1       2.109  -2.088  -0.108  0.00  0.00     0.002 A 
ATOM      6  C6  I4B d   1       2.724  -3.163   0.549  0.00  0.00     0.003 A 
ENDROOT
BRANCH   1   7
ATOM      7  C1' I4B d   1       3.182  -4.466   2.644  0.00  0.00     0.060 C 
BRANCH   7   8
ATOM      8  C2' I4B d   1       4.509  -3.924   3.135  0.00  0.00    -0.013 C 
ATOM      9  C4' I4B d   1       4.642  -4.075   4.627  0.00  0.00     0.013 C 
ATOM     10  C3' I4B d   1       5.602  -4.657   2.417  0.00  0.00     0.013 C 
ENDBRANCH   7   8
ENDBRANCH   1   7
TORSDOF 2
ENDMDL
