MODEL 1
REMARK minimizedAffinity 4.88949919
REMARK minimizedRMSD -1
REMARK  2 active torsions:
REMARK  status: ('A' for Active; 'I' for Inactive)
REMARK    1  A    between atoms: C2'_3  and  C1'_4 
REMARK    2  A    between atoms: C1'_4  and  C1_5 
ROOT
ATOM      1  C1  I4B d   1       1.824  -3.518   1.302  0.00  0.00    -0.075 A 
ATOM      2  C2  I4B d   1       1.608  -2.184   1.541  0.00  0.00     0.003 A 
ATOM      3  C3  I4B d   1       0.431  -1.760   2.203  0.00  0.00     0.002 A 
ATOM      4  C4  I4B d   1      -0.521  -2.693   2.562  0.00  0.00    -0.004 A 
ATOM      5  C5  I4B d   1      -0.290  -4.047   2.340  0.00  0.00     0.002 A 
ATOM      6  C6  I4B d   1       0.896  -4.464   1.717  0.00  0.00     0.003 A 
ENDROOT
BRANCH   1   7
ATOM      7  C1' I4B d   1       3.062  -3.928   0.570  0.00  0.00     0.060 C 
BRANCH   7   8
ATOM      8  C2' I4B d   1       3.808  -4.924   1.435  0.00  0.00    -0.013 C 
ATOM      9  C4' I4B d   1       5.171  -5.223   0.871  0.00  0.00     0.013 C 
ATOM     10  C3' I4B d   1       3.908  -4.351   2.818  0.00  0.00     0.013 C 
ENDBRANCH   7   8
ENDBRANCH   1   7
TORSDOF 2
ENDMDL
