MODEL 1
REMARK minimizedAffinity 2.13354731
REMARK minimizedRMSD -1
REMARK  2 active torsions:
REMARK  status: ('A' for Active; 'I' for Inactive)
REMARK    1  A    between atoms: C2'_3  and  C1'_4 
REMARK    2  A    between atoms: C1'_4  and  C1_5 
ROOT
ATOM      1  C1  I4B d   1       3.541  -2.878   2.643  0.00  0.00    -0.075 A 
ATOM      2  C2  I4B d   1       3.455  -3.698   1.546  0.00  0.00     0.003 A 
ATOM      3  C3  I4B d   1       2.418  -3.517   0.599  0.00  0.00     0.002 A 
ATOM      4  C4  I4B d   1       1.465  -2.542   0.814  0.00  0.00    -0.004 A 
ATOM      5  C5  I4B d   1       1.566  -1.697   1.915  0.00  0.00     0.002 A 
ATOM      6  C6  I4B d   1       2.618  -1.857   2.829  0.00  0.00     0.003 A 
ENDROOT
BRANCH   1   7
ATOM      7  C1' I4B d   1       4.630  -3.118   3.640  0.00  0.00     0.060 C 
BRANCH   7   8
ATOM      8  C2' I4B d   1       4.485  -2.093   4.746  0.00  0.00    -0.013 C 
ATOM      9  C4' I4B d   1       3.895  -2.710   5.986  0.00  0.00     0.013 C 
ATOM     10  C3' I4B d   1       5.841  -1.515   5.021  0.00  0.00     0.013 C 
ENDBRANCH   7   8
ENDBRANCH   1   7
TORSDOF 2
ENDMDL
