MODEL 1
REMARK minimizedAffinity -2.62391734
REMARK minimizedRMSD -1
REMARK  1 active torsions:
REMARK  status: ('A' for Active; 'I' for Inactive)
REMARK    1  A    between atoms: C1_2  and  C2_3 
ROOT
ATOM      1  C2  UNL d   1       0.034  -0.191  -0.352  0.00  0.00    -0.077 A 
ATOM      2  C3  UNL d   1      -1.072   0.163   0.432  0.00  0.00     0.002 A 
ATOM      3  C4  UNL d   1      -0.959   1.160   1.403  0.00  0.00     0.002 A 
ATOM      4  C5  UNL d   1       0.256   1.814   1.595  0.00  0.00    -0.004 A 
ATOM      5  C6  UNL d   1       1.363   1.468   0.821  0.00  0.00     0.002 A 
ATOM      6  C7  UNL d   1       1.252   0.470  -0.149  0.00  0.00     0.002 A 
ENDROOT
BRANCH   1   7
ATOM      7  C1  UNL d   1      -0.098  -1.231  -1.433  0.00  0.00     0.055 C 
ATOM      8  C   UNL d   1      -1.559  -1.520  -1.748  0.00  0.00     0.019 C 
ENDBRANCH   1   7
TORSDOF 1
ENDMDL
