MODEL 1
REMARK minimizedAffinity -5.00787687
REMARK minimizedRMSD -1
REMARK  1 active torsions:
REMARK  status: ('A' for Active; 'I' for Inactive)
REMARK    1  A    between atoms: C1_2  and  C2_3 
ROOT
ATOM      1  C2  UNL d   1      -0.235  -0.600  -0.079  0.00  0.00    -0.077 A 
ATOM      2  C3  UNL d   1      -0.874   0.223   0.859  0.00  0.00     0.002 A 
ATOM      3  C4  UNL d   1      -0.196   1.302   1.429  0.00  0.00     0.002 A 
ATOM      4  C5  UNL d   1       1.122   1.570   1.065  0.00  0.00    -0.004 A 
ATOM      5  C6  UNL d   1       1.767   0.756   0.134  0.00  0.00     0.002 A 
ATOM      6  C7  UNL d   1       1.091  -0.324  -0.436  0.00  0.00     0.002 A 
ENDROOT
BRANCH   1   7
ATOM      7  C1  UNL d   1      -0.981  -1.734  -0.732  0.00  0.00     0.055 C 
ATOM      8  C   UNL d   1      -1.374  -1.389  -2.161  0.00  0.00     0.019 C 
ENDBRANCH   1   7
TORSDOF 1
ENDMDL
