MODEL 1
REMARK minimizedAffinity -3.6515255
REMARK minimizedRMSD -1
REMARK  1 active torsions:
REMARK  status: ('A' for Active; 'I' for Inactive)
REMARK    1  A    between atoms: C1_2  and  C2_3 
ROOT
ATOM      1  C2  UNL d   1       0.027  -0.028  -0.520  0.00  0.00    -0.077 A 
ATOM      2  C3  UNL d   1       1.322   0.389  -0.183  0.00  0.00     0.002 A 
ATOM      3  C4  UNL d   1       1.521   1.316   0.842  0.00  0.00     0.002 A 
ATOM      4  C5  UNL d   1       0.430   1.829   1.541  0.00  0.00    -0.004 A 
ATOM      5  C6  UNL d   1      -0.862   1.422   1.211  0.00  0.00     0.002 A 
ATOM      6  C7  UNL d   1      -1.063   0.497   0.186  0.00  0.00     0.002 A 
ENDROOT
BRANCH   1   7
ATOM      7  C1  UNL d   1      -0.187  -1.064  -1.593  0.00  0.00     0.055 C 
ATOM      8  C   UNL d   1      -1.622  -1.050  -2.099  0.00  0.00     0.019 C 
ENDBRANCH   1   7
TORSDOF 1
ENDMDL
