MODEL 1
REMARK minimizedAffinity -4.22216034
REMARK minimizedRMSD -1
REMARK  1 active torsions:
REMARK  status: ('A' for Active; 'I' for Inactive)
REMARK    1  A    between atoms: C1_2  and  C2_3 
ROOT
ATOM      1  C2  UNL d   1       0.068  -0.092  -0.382  0.00  0.00    -0.077 A 
ATOM      2  C3  UNL d   1      -0.856  -0.166   0.669  0.00  0.00     0.002 A 
ATOM      3  C4  UNL d   1      -0.823   0.767   1.707  0.00  0.00     0.002 A 
ATOM      4  C5  UNL d   1       0.130   1.784   1.701  0.00  0.00    -0.004 A 
ATOM      5  C6  UNL d   1       1.055   1.865   0.661  0.00  0.00     0.002 A 
ATOM      6  C7  UNL d   1       1.024   0.932  -0.376  0.00  0.00     0.002 A 
ENDROOT
BRANCH   1   7
ATOM      7  C1  UNL d   1       0.002  -1.068  -1.528  0.00  0.00     0.055 C 
ATOM      8  C   UNL d   1      -1.409  -1.168  -2.089  0.00  0.00     0.019 C 
ENDBRANCH   1   7
TORSDOF 1
ENDMDL
