MODEL 1
REMARK minimizedAffinity -2.48275208
REMARK minimizedRMSD -1
REMARK  1 active torsions:
REMARK  status: ('A' for Active; 'I' for Inactive)
REMARK    1  A    between atoms: C1_2  and  C2_3 
ROOT
ATOM      1  C2  UNL d   1       0.039   1.203   1.042  0.00  0.00    -0.077 A 
ATOM      2  C3  UNL d   1      -1.109   0.422   1.238  0.00  0.00     0.002 A 
ATOM      3  C4  UNL d   1      -1.380  -0.657   0.395  0.00  0.00     0.002 A 
ATOM      4  C5  UNL d   1      -0.508  -0.968  -0.645  0.00  0.00    -0.004 A 
ATOM      5  C6  UNL d   1       0.635  -0.196  -0.849  0.00  0.00     0.002 A 
ATOM      6  C7  UNL d   1       0.908   0.885  -0.009  0.00  0.00     0.002 A 
ENDROOT
BRANCH   1   7
ATOM      7  C1  UNL d   1       0.359   2.338   1.980  0.00  0.00     0.055 C 
ATOM      8  C   UNL d   1       1.306   3.339   1.335  0.00  0.00     0.019 C 
ENDBRANCH   1   7
TORSDOF 1
ENDMDL
