MODEL 1
REMARK minimizedAffinity -5.73542261
REMARK minimizedRMSD -1
REMARK  1 active torsions:
REMARK  status: ('A' for Active; 'I' for Inactive)
REMARK    1  A    between atoms: C1_2  and  C2_3 
ROOT
ATOM      1  C2  UNL d   1       0.356   0.847   0.838  0.00  0.00    -0.077 A 
ATOM      2  C3  UNL d   1       1.384   0.532  -0.061  0.00  0.00     0.002 A 
ATOM      3  C4  UNL d   1       1.301  -0.612  -0.856  0.00  0.00     0.002 A 
ATOM      4  C5  UNL d   1       0.190  -1.448  -0.764  0.00  0.00    -0.004 A 
ATOM      5  C6  UNL d   1      -0.837  -1.144   0.129  0.00  0.00     0.002 A 
ATOM      6  C7  UNL d   1      -0.755  -0.002   0.926  0.00  0.00     0.002 A 
ENDROOT
BRANCH   1   7
ATOM      7  C1  UNL d   1       0.420   2.107   1.661  0.00  0.00     0.055 C 
ATOM      8  C   UNL d   1       1.584   2.989   1.233  0.00  0.00     0.019 C 
ENDBRANCH   1   7
TORSDOF 1
ENDMDL
