MODEL 1
REMARK minimizedAffinity -3.27836728
REMARK minimizedRMSD -1
REMARK  1 active torsions:
REMARK  status: ('A' for Active; 'I' for Inactive)
REMARK    1  A    between atoms: C1_2  and  C2_3 
ROOT
ATOM      1  C2  UNL d   1       0.605   0.881   0.426  0.00  0.00    -0.077 A 
ATOM      2  C3  UNL d   1      -0.294  -0.149   0.116  0.00  0.00     0.002 A 
ATOM      3  C4  UNL d   1       0.124  -1.248  -0.637  0.00  0.00     0.002 A 
ATOM      4  C5  UNL d   1       1.441  -1.330  -1.082  0.00  0.00    -0.004 A 
ATOM      5  C6  UNL d   1       2.343  -0.310  -0.781  0.00  0.00     0.002 A 
ATOM      6  C7  UNL d   1       1.927   0.791  -0.029  0.00  0.00     0.002 A 
ENDROOT
BRANCH   1   7
ATOM      7  C1  UNL d   1       0.169   2.043   1.279  0.00  0.00     0.055 C 
ATOM      8  C   UNL d   1       1.091   3.240   1.097  0.00  0.00     0.019 C 
ENDBRANCH   1   7
TORSDOF 1
ENDMDL
