MODEL 1
REMARK minimizedAffinity -5.38316584
REMARK minimizedRMSD -1
REMARK  1 active torsions:
REMARK  status: ('A' for Active; 'I' for Inactive)
REMARK    1  A    between atoms: C1_2  and  C2_3 
ROOT
ATOM      1  C2  UNL d   1      -0.107  -0.127  -0.178  0.00  0.00    -0.077 A 
ATOM      2  C3  UNL d   1      -1.183   0.097   0.691  0.00  0.00     0.002 A 
ATOM      3  C4  UNL d   1      -1.118   1.109   1.651  0.00  0.00     0.002 A 
ATOM      4  C5  UNL d   1       0.020   1.907   1.747  0.00  0.00    -0.004 A 
ATOM      5  C6  UNL d   1       1.097   1.691   0.889  0.00  0.00     0.002 A 
ATOM      6  C7  UNL d   1       1.034   0.680  -0.071  0.00  0.00     0.002 A 
ENDROOT
BRANCH   1   7
ATOM      7  C1  UNL d   1      -0.195  -1.185  -1.246  0.00  0.00     0.055 C 
ATOM      8  C   UNL d   1      -1.510  -1.095  -2.008  0.00  0.00     0.019 C 
ENDBRANCH   1   7
TORSDOF 1
ENDMDL
