MODEL 1
REMARK minimizedAffinity -4.29584122
REMARK minimizedRMSD -1
REMARK  1 active torsions:
REMARK  status: ('A' for Active; 'I' for Inactive)
REMARK    1  A    between atoms: C1_2  and  C2_3 
ROOT
ATOM      1  C2  UNL d   1      -0.565   0.058   0.464  0.00  0.00    -0.077 A 
ATOM      2  C3  UNL d   1      -0.610   0.256   1.851  0.00  0.00     0.002 A 
ATOM      3  C4  UNL d   1       0.259   1.161   2.463  0.00  0.00     0.002 A 
ATOM      4  C5  UNL d   1       1.175   1.877   1.696  0.00  0.00    -0.004 A 
ATOM      5  C6  UNL d   1       1.229   1.685   0.317  0.00  0.00     0.002 A 
ATOM      6  C7  UNL d   1       0.362   0.780  -0.297  0.00  0.00     0.002 A 
ENDROOT
BRANCH   1   7
ATOM      7  C1  UNL d   1      -1.535  -0.882  -0.205  0.00  0.00     0.055 C 
ATOM      8  C   UNL d   1      -0.930  -1.505  -1.454  0.00  0.00     0.019 C 
ENDBRANCH   1   7
TORSDOF 1
ENDMDL
