MODEL 1
REMARK minimizedAffinity -5.23601341
REMARK minimizedRMSD -1
REMARK  1 active torsions:
REMARK  status: ('A' for Active; 'I' for Inactive)
REMARK    1  A    between atoms: C1_2  and  C2_3 
ROOT
ATOM      1  C2  UNL d   1       0.079   0.133   0.045  0.00  0.00    -0.077 A 
ATOM      2  C3  UNL d   1      -0.655   0.312   1.225  0.00  0.00     0.002 A 
ATOM      3  C4  UNL d   1      -0.594   1.523   1.918  0.00  0.00     0.002 A 
ATOM      4  C5  UNL d   1       0.196   2.564   1.436  0.00  0.00    -0.004 A 
ATOM      5  C6  UNL d   1       0.932   2.395   0.264  0.00  0.00     0.002 A 
ATOM      6  C7  UNL d   1       0.873   1.185  -0.429  0.00  0.00     0.002 A 
ENDROOT
BRANCH   1   7
ATOM      7  C1  UNL d   1      -0.024  -1.155  -0.730  0.00  0.00     0.055 C 
ATOM      8  C   UNL d   1      -1.417  -1.340  -1.313  0.00  0.00     0.019 C 
ENDBRANCH   1   7
TORSDOF 1
ENDMDL
