MODEL 1
REMARK minimizedAffinity -4.90256882
REMARK minimizedRMSD -1
REMARK  1 active torsions:
REMARK  status: ('A' for Active; 'I' for Inactive)
REMARK    1  A    between atoms: C1_2  and  C2_3 
ROOT
ATOM      1  C2  UNL d   1       0.368   0.168  -0.091  0.00  0.00    -0.077 A 
ATOM      2  C3  UNL d   1      -0.575   0.506   0.889  0.00  0.00     0.002 A 
ATOM      3  C4  UNL d   1      -0.346   1.582   1.748  0.00  0.00     0.002 A 
ATOM      4  C5  UNL d   1       0.823   2.331   1.634  0.00  0.00    -0.004 A 
ATOM      5  C6  UNL d   1       1.768   2.002   0.663  0.00  0.00     0.002 A 
ATOM      6  C7  UNL d   1       1.542   0.925  -0.196  0.00  0.00     0.002 A 
ENDROOT
BRANCH   1   7
ATOM      7  C1  UNL d   1       0.101  -0.962  -1.051  0.00  0.00     0.055 C 
ATOM      8  C   UNL d   1      -1.369  -1.022  -1.439  0.00  0.00     0.019 C 
ENDBRANCH   1   7
TORSDOF 1
ENDMDL
