MODEL 1
REMARK minimizedAffinity -4.22632742
REMARK minimizedRMSD -1
REMARK  1 active torsions:
REMARK  status: ('A' for Active; 'I' for Inactive)
REMARK    1  A    between atoms: C1_2  and  C2_3 
ROOT
ATOM      1  C2  UNL d   1      -0.124   0.194   0.286  0.00  0.00    -0.077 A 
ATOM      2  C3  UNL d   1       1.255   0.093   0.053  0.00  0.00     0.002 A 
ATOM      3  C4  UNL d   1       2.100   1.166   0.342  0.00  0.00     0.002 A 
ATOM      4  C5  UNL d   1       1.577   2.345   0.868  0.00  0.00    -0.004 A 
ATOM      5  C6  UNL d   1       0.207   2.456   1.101  0.00  0.00     0.002 A 
ATOM      6  C7  UNL d   1      -0.640   1.385   0.812  0.00  0.00     0.002 A 
ENDROOT
BRANCH   1   7
ATOM      7  C1  UNL d   1      -1.031  -0.979   0.021  0.00  0.00     0.055 C 
ATOM      8  C   UNL d   1      -1.322  -1.130  -1.465  0.00  0.00     0.019 C 
ENDBRANCH   1   7
TORSDOF 1
ENDMDL
