MODEL 1
REMARK minimizedAffinity 2.25002575
REMARK minimizedRMSD -1
REMARK  2 active torsions:
REMARK  status: ('A' for Active; 'I' for Inactive)
REMARK    1  A    between atoms: C1_2  and  C2_3 
REMARK    2  A    between atoms: C2_3  and  C3_4 
ROOT
ATOM      1  C3  UNL d   1       1.543  -1.254   0.340  0.00  0.00    -0.075 A 
ATOM      2  C4  UNL d   1       0.974  -2.188  -0.538  0.00  0.00     0.002 A 
ATOM      3  C5  UNL d   1      -0.151  -1.856  -1.294  0.00  0.00     0.002 A 
ATOM      4  C6  UNL d   1      -0.727  -0.593  -1.173  0.00  0.00    -0.004 A 
ATOM      5  C7  UNL d   1      -0.181   0.336  -0.291  0.00  0.00     0.002 A 
ATOM      6  C8  UNL d   1       0.948   0.009   0.463  0.00  0.00     0.002 A 
ENDROOT
BRANCH   1   7
ATOM      7  C2  UNL d   1       2.778  -1.596   1.139  0.00  0.00     0.056 C 
BRANCH   7   8
ATOM      8  C1  UNL d   1       4.041  -0.860   0.680  0.00  0.00     0.007 C 
ATOM      9  C   UNL d   1       3.776   0.157  -0.421  0.00  0.00     0.009 C 
ENDBRANCH   7   8
ENDBRANCH   1   7
TORSDOF 2
ENDMDL
