MODEL 1
REMARK minimizedAffinity 1.74491549
REMARK minimizedRMSD -1
REMARK  2 active torsions:
REMARK  status: ('A' for Active; 'I' for Inactive)
REMARK    1  A    between atoms: C1_2  and  C2_3 
REMARK    2  A    between atoms: C2_3  and  C3_4 
ROOT
ATOM      1  C3  UNL d   1      -0.635  -0.054  -0.412  0.00  0.00    -0.075 A 
ATOM      2  C4  UNL d   1       0.420   0.815  -0.098  0.00  0.00     0.002 A 
ATOM      3  C5  UNL d   1       1.731   0.342  -0.036  0.00  0.00     0.002 A 
ATOM      4  C6  UNL d   1       2.002  -1.003  -0.277  0.00  0.00    -0.004 A 
ATOM      5  C7  UNL d   1       0.960  -1.878  -0.573  0.00  0.00     0.002 A 
ATOM      6  C8  UNL d   1      -0.353  -1.407  -0.640  0.00  0.00     0.002 A 
ENDROOT
BRANCH   1   7
ATOM      7  C2  UNL d   1      -2.053   0.457  -0.510  0.00  0.00     0.056 C 
BRANCH   7   8
ATOM      8  C1  UNL d   1      -2.914   0.148   0.720  0.00  0.00     0.007 C 
ATOM      9  C   UNL d   1      -4.404   0.098   0.412  0.00  0.00     0.009 C 
ENDBRANCH   7   8
ENDBRANCH   1   7
TORSDOF 2
ENDMDL
