MODEL 1
REMARK minimizedAffinity -6.23999357
REMARK minimizedRMSD -1
REMARK  2 active torsions:
REMARK  status: ('A' for Active; 'I' for Inactive)
REMARK    1  A    between atoms: C1_2  and  C2_3 
REMARK    2  A    between atoms: C2_3  and  C3_4 
ROOT
ATOM      1  C3  UNL d   1       3.171   0.031   0.291  0.00  0.00    -0.075 A 
ATOM      2  C4  UNL d   1       3.876  -0.075  -0.917  0.00  0.00     0.002 A 
ATOM      3  C5  UNL d   1       4.668   0.981  -1.369  0.00  0.00     0.002 A 
ATOM      4  C6  UNL d   1       4.758   2.156  -0.627  0.00  0.00    -0.004 A 
ATOM      5  C7  UNL d   1       4.049   2.279   0.566  0.00  0.00     0.002 A 
ATOM      6  C8  UNL d   1       3.259   1.222   1.024  0.00  0.00     0.002 A 
ENDROOT
BRANCH   1   7
ATOM      7  C2  UNL d   1       2.336  -1.119   0.802  0.00  0.00     0.056 C 
BRANCH   7   8
ATOM      8  C1  UNL d   1       0.874  -0.753   1.079  0.00  0.00     0.007 C 
ATOM      9  C   UNL d   1      -0.059  -1.089  -0.076  0.00  0.00     0.009 C 
ENDBRANCH   7   8
ENDBRANCH   1   7
TORSDOF 2
ENDMDL
