MODEL 1
REMARK minimizedAffinity -6.11277819
REMARK minimizedRMSD -1
REMARK  2 active torsions:
REMARK  status: ('A' for Active; 'I' for Inactive)
REMARK    1  A    between atoms: C1_2  and  C2_3 
REMARK    2  A    between atoms: C2_3  and  C3_4 
ROOT
ATOM      1  C3  UNL d   1       0.360   0.432  -0.040  0.00  0.00    -0.075 A 
ATOM      2  C4  UNL d   1       1.497   0.978   0.573  0.00  0.00     0.002 A 
ATOM      3  C5  UNL d   1       2.601   0.175   0.863  0.00  0.00     0.002 A 
ATOM      4  C6  UNL d   1       2.578  -1.183   0.554  0.00  0.00    -0.004 A 
ATOM      5  C7  UNL d   1       1.448  -1.740  -0.041  0.00  0.00     0.002 A 
ATOM      6  C8  UNL d   1       0.344  -0.938  -0.335  0.00  0.00     0.002 A 
ENDROOT
BRANCH   1   7
ATOM      7  C2  UNL d   1      -0.826   1.301  -0.383  0.00  0.00     0.056 C 
BRANCH   7   8
ATOM      8  C1  UNL d   1      -2.119   0.520  -0.637  0.00  0.00     0.007 C 
ATOM      9  C   UNL d   1      -3.034   0.461   0.580  0.00  0.00     0.009 C 
ENDBRANCH   7   8
ENDBRANCH   1   7
TORSDOF 2
ENDMDL
