MODEL 1
REMARK minimizedAffinity -3.14664483
REMARK minimizedRMSD -1
REMARK  0 active torsions:
REMARK  status: ('A' for Active; 'I' for Inactive)
ROOT
ATOM      1  C1  DEN d   1      -0.607  -1.603  -0.655  0.00  0.00     0.130 A 
ATOM      2  C2  DEN d   1      -1.391  -0.687   0.170  0.00  0.00    -0.031 A 
ATOM      3  C3  DEN d   1      -0.517   0.439   0.558  0.00  0.00     0.027 A 
ATOM      4  C4  DEN d   1       1.958   0.853  -0.038  0.00  0.00     0.027 A 
ATOM      5  C5  DEN d   1       3.052   0.347  -0.705  0.00  0.00    -0.003 A 
ATOM      6  C6  DEN d   1       3.013  -0.851  -1.368  0.00  0.00     0.001 A 
ATOM      7  C7  DEN d   1       1.843  -1.562  -1.416  0.00  0.00     0.017 A 
ATOM      8  C8  DEN d   1       0.738  -1.062  -0.740  0.00  0.00    -0.094 A 
ATOM      9  C9  DEN d   1       0.794   0.157  -0.086  0.00  0.00    -0.072 A 
ENDROOT
TORSDOF 0
ENDMDL
