MODEL 1
REMARK minimizedAffinity -4.59230089
REMARK minimizedRMSD -1
REMARK  0 active torsions:
REMARK  status: ('A' for Active; 'I' for Inactive)
ROOT
ATOM      1  C1  DEN d   1      -0.745  -1.544   0.274  0.00  0.00     0.130 A 
ATOM      2  C2  DEN d   1      -1.519  -0.498   0.937  0.00  0.00    -0.031 A 
ATOM      3  C3  DEN d   1      -0.779   0.773   0.801  0.00  0.00     0.027 A 
ATOM      4  C4  DEN d   1       1.475   1.221  -0.370  0.00  0.00     0.027 A 
ATOM      5  C5  DEN d   1       2.513   0.642  -1.066  0.00  0.00    -0.003 A 
ATOM      6  C6  DEN d   1       2.554  -0.701  -1.332  0.00  0.00     0.001 A 
ATOM      7  C7  DEN d   1       1.516  -1.503  -0.939  0.00  0.00     0.017 A 
ATOM      8  C8  DEN d   1       0.469  -0.928  -0.230  0.00  0.00    -0.094 A 
ATOM      9  C9  DEN d   1       0.440   0.434   0.018  0.00  0.00    -0.072 A 
ENDROOT
TORSDOF 0
ENDMDL
