MODEL 1
REMARK minimizedAffinity -4.06104565
REMARK minimizedRMSD -1
REMARK  0 active torsions:
REMARK  status: ('A' for Active; 'I' for Inactive)
ROOT
ATOM      1  C1  DEN d   1      -0.009   1.839  -0.713  0.00  0.00     0.130 A 
ATOM      2  C2  DEN d   1      -1.266   1.481  -0.061  0.00  0.00    -0.031 A 
ATOM      3  C3  DEN d   1      -1.167   0.075   0.380  0.00  0.00     0.027 A 
ATOM      4  C4  DEN d   1       0.800  -1.573   0.121  0.00  0.00     0.027 A 
ATOM      5  C5  DEN d   1       2.076  -1.729  -0.375  0.00  0.00    -0.003 A 
ATOM      6  C6  DEN d   1       2.728  -0.726  -1.043  0.00  0.00     0.001 A 
ATOM      7  C7  DEN d   1       2.123   0.494  -1.193  0.00  0.00     0.017 A 
ATOM      8  C8  DEN d   1       0.834   0.657  -0.702  0.00  0.00    -0.094 A 
ATOM      9  C9  DEN d   1       0.197  -0.365  -0.019  0.00  0.00    -0.072 A 
ENDROOT
TORSDOF 0
ENDMDL
