MODEL 1
REMARK minimizedAffinity -3.80765629
REMARK minimizedRMSD -1
REMARK  0 active torsions:
REMARK  status: ('A' for Active; 'I' for Inactive)
ROOT
ATOM      1  C1  DEN d   1       1.939   0.504  -1.289  0.00  0.00     0.130 A 
ATOM      2  C2  DEN d   1       2.647  -0.717  -1.666  0.00  0.00    -0.031 A 
ATOM      3  C3  DEN d   1       1.810  -1.869  -1.274  0.00  0.00     0.027 A 
ATOM      4  C4  DEN d   1      -0.502  -1.882  -0.132  0.00  0.00     0.027 A 
ATOM      5  C5  DEN d   1      -1.500  -1.090   0.392  0.00  0.00    -0.003 A 
ATOM      6  C6  DEN d   1      -1.407   0.277   0.423  0.00  0.00     0.001 A 
ATOM      7  C7  DEN d   1      -0.312   0.895  -0.121  0.00  0.00     0.017 A 
ATOM      8  C8  DEN d   1       0.701   0.103  -0.644  0.00  0.00    -0.094 A 
ATOM      9  C9  DEN d   1       0.583  -1.276  -0.677  0.00  0.00    -0.072 A 
ENDROOT
TORSDOF 0
ENDMDL
