MODEL 1
REMARK minimizedAffinity -5.53967047
REMARK minimizedRMSD -1
REMARK  0 active torsions:
REMARK  status: ('A' for Active; 'I' for Inactive)
ROOT
ATOM      1  C1  DEN d   1      -0.338  -1.209  -0.080  0.00  0.00     0.130 A 
ATOM      2  C2  DEN d   1      -1.333  -0.186   0.228  0.00  0.00    -0.031 A 
ATOM      3  C3  DEN d   1      -0.815   1.112  -0.248  0.00  0.00     0.027 A 
ATOM      4  C4  DEN d   1       1.417   1.634  -1.430  0.00  0.00     0.027 A 
ATOM      5  C5  DEN d   1       2.594   1.091  -1.898  0.00  0.00    -0.003 A 
ATOM      6  C6  DEN d   1       2.888  -0.240  -1.763  0.00  0.00     0.001 A 
ATOM      7  C7  DEN d   1       1.974  -1.082  -1.185  0.00  0.00     0.017 A 
ATOM      8  C8  DEN d   1       0.789  -0.541  -0.705  0.00  0.00    -0.094 A 
ATOM      9  C9  DEN d   1       0.505   0.805  -0.862  0.00  0.00    -0.072 A 
ENDROOT
TORSDOF 0
ENDMDL
