MODEL 1
REMARK minimizedAffinity -4.18402529
REMARK minimizedRMSD -1
REMARK  0 active torsions:
REMARK  status: ('A' for Active; 'I' for Inactive)
ROOT
ATOM      1  C1  DEN d   1       2.232   0.531  -1.334  0.00  0.00     0.130 A 
ATOM      2  C2  DEN d   1       2.795  -0.766  -1.700  0.00  0.00    -0.031 A 
ATOM      3  C3  DEN d   1       1.839  -1.812  -1.282  0.00  0.00     0.027 A 
ATOM      4  C4  DEN d   1      -0.446  -1.550  -0.115  0.00  0.00     0.027 A 
ATOM      5  C5  DEN d   1      -1.342  -0.643   0.408  0.00  0.00    -0.003 A 
ATOM      6  C6  DEN d   1      -1.096   0.704   0.417  0.00  0.00     0.001 A 
ATOM      7  C7  DEN d   1       0.054   1.188  -0.147  0.00  0.00     0.017 A 
ATOM      8  C8  DEN d   1       0.966   0.280  -0.669  0.00  0.00    -0.094 A 
ATOM      9  C9  DEN d   1       0.694  -1.077  -0.680  0.00  0.00    -0.072 A 
ENDROOT
TORSDOF 0
ENDMDL
