MODEL 1
REMARK minimizedAffinity -5.88997746
REMARK minimizedRMSD -1
REMARK  0 active torsions:
REMARK  status: ('A' for Active; 'I' for Inactive)
ROOT
ATOM      1  C1  DEN d   1       2.072   1.045  -0.895  0.00  0.00     0.130 A 
ATOM      2  C2  DEN d   1       2.558  -0.147  -1.585  0.00  0.00    -0.031 A 
ATOM      3  C3  DEN d   1       1.660  -1.269  -1.246  0.00  0.00     0.027 A 
ATOM      4  C4  DEN d   1      -0.427  -1.276   0.269  0.00  0.00     0.027 A 
ATOM      5  C5  DEN d   1      -1.226  -0.503   1.083  0.00  0.00    -0.003 A 
ATOM      6  C6  DEN d   1      -0.964   0.820   1.320  0.00  0.00     0.001 A 
ATOM      7  C7  DEN d   1       0.098   1.423   0.700  0.00  0.00     0.017 A 
ATOM      8  C8  DEN d   1       0.913   0.649  -0.116  0.00  0.00    -0.094 A 
ATOM      9  C9  DEN d   1       0.624  -0.684  -0.352  0.00  0.00    -0.072 A 
ENDROOT
TORSDOF 0
ENDMDL
