MODEL 1
REMARK minimizedAffinity -2.86638784
REMARK minimizedRMSD -1
REMARK  0 active torsions:
REMARK  status: ('A' for Active; 'I' for Inactive)
ROOT
ATOM      1  C1  DEN d   1       2.317   0.205  -0.363  0.00  0.00     0.130 A 
ATOM      2  C2  DEN d   1       2.713  -0.717  -1.424  0.00  0.00    -0.031 A 
ATOM      3  C3  DEN d   1       1.503  -1.423  -1.891  0.00  0.00     0.027 A 
ATOM      4  C4  DEN d   1      -0.934  -1.174  -1.082  0.00  0.00     0.027 A 
ATOM      5  C5  DEN d   1      -1.761  -0.523  -0.193  0.00  0.00    -0.003 A 
ATOM      6  C6  DEN d   1      -1.285   0.384   0.717  0.00  0.00     0.001 A 
ATOM      7  C7  DEN d   1       0.048   0.699   0.728  0.00  0.00     0.017 A 
ATOM      8  C8  DEN d   1       0.889   0.041  -0.160  0.00  0.00    -0.094 A 
ATOM      9  C9  DEN d   1       0.387  -0.863  -1.080  0.00  0.00    -0.072 A 
ENDROOT
TORSDOF 0
ENDMDL
