MODEL 1
REMARK minimizedAffinity -1.25960636
REMARK minimizedRMSD -1
REMARK  0 active torsions:
REMARK  status: ('A' for Active; 'I' for Inactive)
ROOT
ATOM      1  C1  DEN d   1       0.005   1.051   0.452  0.00  0.00     0.130 A 
ATOM      2  C2  DEN d   1      -0.208  -0.202  -0.266  0.00  0.00    -0.031 A 
ATOM      3  C3  DEN d   1      -1.388  -0.869   0.320  0.00  0.00     0.027 A 
ATOM      4  C4  DEN d   1      -2.900  -0.084   2.257  0.00  0.00     0.027 A 
ATOM      5  C5  DEN d   1      -3.108   0.911   3.186  0.00  0.00    -0.003 A 
ATOM      6  C6  DEN d   1      -2.279   1.996   3.291  0.00  0.00     0.001 A 
ATOM      7  C7  DEN d   1      -1.230   2.136   2.422  0.00  0.00     0.017 A 
ATOM      8  C8  DEN d   1      -1.009   1.133   1.487  0.00  0.00    -0.094 A 
ATOM      9  C9  DEN d   1      -1.865   0.049   1.389  0.00  0.00    -0.072 A 
ENDROOT
TORSDOF 0
ENDMDL
