MODEL 1
REMARK minimizedAffinity -4.55747223
REMARK minimizedRMSD -1
REMARK  0 active torsions:
REMARK  status: ('A' for Active; 'I' for Inactive)
ROOT
ATOM      1  C   UNL d   1       0.693   3.995  -0.780  0.00  0.00     0.077 C 
ATOM      2  C1  UNL d   1       0.281   2.618  -0.353  0.00  0.00    -0.074 A 
ATOM      3  C2  UNL d   1      -1.047   2.335  -0.019  0.00  0.00    -0.005 A 
ATOM      4  C3  UNL d   1      -1.417   1.047   0.368  0.00  0.00     0.006 A 
ATOM      5  C4  UNL d   1      -0.463   0.030   0.423  0.00  0.00    -0.005 A 
ATOM      6  C5  UNL d   1       0.870   0.293   0.092  0.00  0.00    -0.074 A 
ATOM      7  C6  UNL d   1       1.905  -0.792   0.137  0.00  0.00     0.077 C 
ATOM      8  C7  UNL d   1       1.232   1.588  -0.302  0.00  0.00    -0.001 A 
ENDROOT
TORSDOF 0
ENDMDL
