MODEL 1
REMARK minimizedAffinity -5.15919065
REMARK minimizedRMSD -1
REMARK  0 active torsions:
REMARK  status: ('A' for Active; 'I' for Inactive)
ROOT
ATOM      1  C   UNL d   1       2.697  -0.737   0.582  0.00  0.00     0.077 C 
ATOM      2  C1  UNL d   1       1.378  -0.049   0.396  0.00  0.00    -0.074 A 
ATOM      3  C2  UNL d   1       0.175  -0.745   0.553  0.00  0.00    -0.005 A 
ATOM      4  C3  UNL d   1      -1.044  -0.089   0.386  0.00  0.00     0.006 A 
ATOM      5  C4  UNL d   1      -1.074   1.268   0.062  0.00  0.00    -0.005 A 
ATOM      6  C5  UNL d   1       0.119   1.981  -0.098  0.00  0.00    -0.074 A 
ATOM      7  C6  UNL d   1       0.105   3.442  -0.436  0.00  0.00     0.077 C 
ATOM      8  C7  UNL d   1       1.340   1.316   0.078  0.00  0.00    -0.001 A 
ENDROOT
TORSDOF 0
ENDMDL
