MODEL 1
REMARK minimizedAffinity -5.88505316
REMARK minimizedRMSD -1
REMARK  0 active torsions:
REMARK  status: ('A' for Active; 'I' for Inactive)
ROOT
ATOM      1  C   UNL d   1       2.975   3.005   0.094  0.00  0.00     0.077 C 
ATOM      2  C1  UNL d   1       1.658   2.288   0.114  0.00  0.00    -0.074 A 
ATOM      3  C2  UNL d   1       0.474   2.949  -0.229  0.00  0.00    -0.005 A 
ATOM      4  C3  UNL d   1      -0.742   2.267  -0.215  0.00  0.00     0.006 A 
ATOM      5  C4  UNL d   1      -0.787   0.919   0.141  0.00  0.00    -0.005 A 
ATOM      6  C5  UNL d   1       0.387   0.241   0.487  0.00  0.00    -0.074 A 
ATOM      7  C6  UNL d   1       0.357  -1.211   0.863  0.00  0.00     0.077 C 
ATOM      8  C7  UNL d   1       1.606   0.932   0.463  0.00  0.00    -0.001 A 
ENDROOT
TORSDOF 0
ENDMDL
