MODEL 1
REMARK minimizedAffinity -5.31750298
REMARK minimizedRMSD -1
REMARK  0 active torsions:
REMARK  status: ('A' for Active; 'I' for Inactive)
ROOT
ATOM      1  C   UNL d   1       3.142   2.198   0.223  0.00  0.00     0.077 C 
ATOM      2  C1  UNL d   1       1.676   1.885   0.187  0.00  0.00    -0.074 A 
ATOM      3  C2  UNL d   1       0.722   2.885   0.404  0.00  0.00    -0.005 A 
ATOM      4  C3  UNL d   1      -0.638   2.581   0.358  0.00  0.00     0.006 A 
ATOM      5  C4  UNL d   1      -1.058   1.276   0.094  0.00  0.00    -0.005 A 
ATOM      6  C5  UNL d   1      -0.119   0.264  -0.127  0.00  0.00    -0.074 A 
ATOM      7  C6  UNL d   1      -0.553  -1.141  -0.421  0.00  0.00     0.077 C 
ATOM      8  C7  UNL d   1       1.246   0.579  -0.085  0.00  0.00    -0.001 A 
ENDROOT
TORSDOF 0
ENDMDL
