MODEL 1
REMARK minimizedAffinity -5.25340939
REMARK minimizedRMSD -1
REMARK  0 active torsions:
REMARK  status: ('A' for Active; 'I' for Inactive)
ROOT
ATOM      1  C   UNL d   1       1.102   3.391  -0.429  0.00  0.00     0.077 C 
ATOM      2  C1  UNL d   1       0.253   2.237   0.015  0.00  0.00    -0.074 A 
ATOM      3  C2  UNL d   1      -0.863   2.438   0.833  0.00  0.00    -0.005 A 
ATOM      4  C3  UNL d   1      -1.648   1.355   1.230  0.00  0.00     0.006 A 
ATOM      5  C4  UNL d   1      -1.325   0.063   0.815  0.00  0.00    -0.005 A 
ATOM      6  C5  UNL d   1      -0.213  -0.157  -0.004  0.00  0.00    -0.074 A 
ATOM      7  C6  UNL d   1       0.143  -1.538  -0.468  0.00  0.00     0.077 C 
ATOM      8  C7  UNL d   1       0.567   0.936  -0.405  0.00  0.00    -0.001 A 
ENDROOT
TORSDOF 0
ENDMDL
