MODEL 1
REMARK minimizedAffinity -2.29149747
REMARK minimizedRMSD -1
REMARK  0 active torsions:
REMARK  status: ('A' for Active; 'I' for Inactive)
ROOT
ATOM      1  C   UNL d   1       3.062   2.262   0.693  0.00  0.00     0.077 C 
ATOM      2  C1  UNL d   1       1.605   1.976   0.485  0.00  0.00    -0.074 A 
ATOM      3  C2  UNL d   1       0.665   3.012   0.463  0.00  0.00    -0.005 A 
ATOM      4  C3  UNL d   1      -0.686   2.731   0.259  0.00  0.00     0.006 A 
ATOM      5  C4  UNL d   1      -1.111   1.415   0.076  0.00  0.00    -0.005 A 
ATOM      6  C5  UNL d   1      -0.185   0.366   0.094  0.00  0.00    -0.074 A 
ATOM      7  C6  UNL d   1      -0.623  -1.053  -0.112  0.00  0.00     0.077 C 
ATOM      8  C7  UNL d   1       1.171   0.657   0.292  0.00  0.00    -0.001 A 
ENDROOT
TORSDOF 0
ENDMDL
