MODEL 1
REMARK minimizedAffinity -6.31019545
REMARK minimizedRMSD -1
REMARK  0 active torsions:
REMARK  status: ('A' for Active; 'I' for Inactive)
ROOT
ATOM      1  C   UNL d   1       3.500   1.707   0.241  0.00  0.00     0.077 C 
ATOM      2  C1  UNL d   1       2.002   1.625   0.248  0.00  0.00    -0.074 A 
ATOM      3  C2  UNL d   1       1.219   2.783   0.294  0.00  0.00    -0.005 A 
ATOM      4  C3  UNL d   1      -0.173   2.691   0.290  0.00  0.00     0.006 A 
ATOM      5  C4  UNL d   1      -0.794   1.442   0.240  0.00  0.00    -0.005 A 
ATOM      6  C5  UNL d   1      -0.027   0.274   0.192  0.00  0.00    -0.074 A 
ATOM      7  C6  UNL d   1      -0.679  -1.075   0.128  0.00  0.00     0.077 C 
ATOM      8  C7  UNL d   1       1.371   0.375   0.189  0.00  0.00    -0.001 A 
ENDROOT
TORSDOF 0
ENDMDL
