MODEL 1
REMARK minimizedAffinity -2.1779089
REMARK minimizedRMSD -1
REMARK  0 active torsions:
REMARK  status: ('A' for Active; 'I' for Inactive)
ROOT
ATOM      1  C   UNL d   1       0.528   3.691  -0.805  0.00  0.00     0.077 C 
ATOM      2  C1  UNL d   1       0.206   2.308  -0.323  0.00  0.00    -0.074 A 
ATOM      3  C2  UNL d   1       1.116   1.259  -0.489  0.00  0.00    -0.005 A 
ATOM      4  C3  UNL d   1       0.807  -0.020  -0.026  0.00  0.00     0.006 A 
ATOM      5  C4  UNL d   1      -0.413  -0.263   0.605  0.00  0.00    -0.005 A 
ATOM      6  C5  UNL d   1      -1.335   0.773   0.781  0.00  0.00    -0.074 A 
ATOM      7  C6  UNL d   1      -2.647   0.531   1.466  0.00  0.00     0.077 C 
ATOM      8  C7  UNL d   1      -1.014   2.057   0.320  0.00  0.00    -0.001 A 
ENDROOT
TORSDOF 0
ENDMDL
