MODEL 1
REMARK minimizedAffinity -1.34858954
REMARK minimizedRMSD -1
REMARK  0 active torsions:
REMARK  status: ('A' for Active; 'I' for Inactive)
ROOT
ATOM      1  C   UNL d   1       0.756   3.358   1.124  0.00  0.00     0.077 C 
ATOM      2  C1  UNL d   1       0.443   1.935   0.772  0.00  0.00    -0.074 A 
ATOM      3  C2  UNL d   1       1.433   0.948   0.819  0.00  0.00    -0.005 A 
ATOM      4  C3  UNL d   1       1.125  -0.374   0.498  0.00  0.00     0.006 A 
ATOM      5  C4  UNL d   1      -0.175  -0.722   0.127  0.00  0.00    -0.005 A 
ATOM      6  C5  UNL d   1      -1.178   0.251   0.075  0.00  0.00    -0.074 A 
ATOM      7  C6  UNL d   1      -2.582  -0.108  -0.312  0.00  0.00     0.077 C 
ATOM      8  C7  UNL d   1      -0.862   1.576   0.406  0.00  0.00    -0.001 A 
ENDROOT
TORSDOF 0
ENDMDL
