MODEL 1
REMARK minimizedAffinity -6.36287069
REMARK minimizedRMSD -1
REMARK  0 active torsions:
REMARK  status: ('A' for Active; 'I' for Inactive)
ROOT
ATOM      1  C   UNL d   1      -0.370  -1.504   0.115  0.00  0.00     0.077 C 
ATOM      2  C1  UNL d   1      -0.191  -0.030   0.328  0.00  0.00    -0.074 A 
ATOM      3  C2  UNL d   1      -1.297   0.816   0.466  0.00  0.00    -0.005 A 
ATOM      4  C3  UNL d   1      -1.116   2.183   0.674  0.00  0.00     0.006 A 
ATOM      5  C4  UNL d   1       0.171   2.718   0.744  0.00  0.00    -0.005 A 
ATOM      6  C5  UNL d   1       1.289   1.888   0.609  0.00  0.00    -0.074 A 
ATOM      7  C6  UNL d   1       2.679   2.446   0.692  0.00  0.00     0.077 C 
ATOM      8  C7  UNL d   1       1.098   0.514   0.408  0.00  0.00    -0.001 A 
ENDROOT
TORSDOF 0
ENDMDL
