MODEL 1
REMARK minimizedAffinity -1.13160169
REMARK minimizedRMSD -1
REMARK  0 active torsions:
REMARK  status: ('A' for Active; 'I' for Inactive)
ROOT
ATOM      1  C   UNL d   1      -0.756  -3.158  -1.542  0.00  0.00     0.077 C 
ATOM      2  C1  UNL d   1      -0.453  -1.949  -0.707  0.00  0.00    -0.074 A 
ATOM      3  C2  UNL d   1       0.624  -1.943   0.184  0.00  0.00    -0.005 A 
ATOM      4  C3  UNL d   1       0.899  -0.808   0.947  0.00  0.00     0.006 A 
ATOM      5  C4  UNL d   1       0.101   0.331   0.826  0.00  0.00    -0.005 A 
ATOM      6  C5  UNL d   1      -0.980   0.343  -0.061  0.00  0.00    -0.074 A 
ATOM      7  C6  UNL d   1      -1.842   1.561  -0.211  0.00  0.00     0.077 C 
ATOM      8  C7  UNL d   1      -1.246  -0.799  -0.829  0.00  0.00    -0.001 A 
ENDROOT
TORSDOF 0
ENDMDL
