MODEL 1
REMARK minimizedAffinity -5.52483749
REMARK minimizedRMSD -1
REMARK  0 active torsions:
REMARK  status: ('A' for Active; 'I' for Inactive)
ROOT
ATOM      1  C   UNL d   1       1.638  -0.778   0.747  0.00  0.00     0.077 C 
ATOM      2  C1  UNL d   1       0.688   0.370   0.580  0.00  0.00    -0.074 A 
ATOM      3  C2  UNL d   1      -0.695   0.174   0.651  0.00  0.00    -0.005 A 
ATOM      4  C3  UNL d   1      -1.567   1.253   0.504  0.00  0.00     0.006 A 
ATOM      5  C4  UNL d   1      -1.065   2.536   0.284  0.00  0.00    -0.005 A 
ATOM      6  C5  UNL d   1       0.315   2.751   0.210  0.00  0.00    -0.074 A 
ATOM      7  C6  UNL d   1       0.871   4.126  -0.016  0.00  0.00     0.077 C 
ATOM      8  C7  UNL d   1       1.184   1.663   0.367  0.00  0.00    -0.001 A 
ENDROOT
TORSDOF 0
ENDMDL
