MODEL 1
REMARK minimizedAffinity -1.80302691
REMARK minimizedRMSD -1
REMARK  0 active torsions:
REMARK  status: ('A' for Active; 'I' for Inactive)
ROOT
ATOM      1  C   UNL d   1      -2.056   0.735   1.460  0.00  0.00     0.077 C 
ATOM      2  C1  UNL d   1      -0.820   1.005   0.655  0.00  0.00    -0.074 A 
ATOM      3  C2  UNL d   1      -0.765   2.078  -0.240  0.00  0.00    -0.005 A 
ATOM      4  C3  UNL d   1       0.395   2.322  -0.975  0.00  0.00     0.006 A 
ATOM      5  C4  UNL d   1       1.509   1.496  -0.824  0.00  0.00    -0.005 A 
ATOM      6  C5  UNL d   1       1.473   0.418   0.067  0.00  0.00    -0.074 A 
ATOM      7  C6  UNL d   1       2.665  -0.473   0.249  0.00  0.00     0.077 C 
ATOM      8  C7  UNL d   1       0.306   0.184   0.807  0.00  0.00    -0.001 A 
ENDROOT
TORSDOF 0
ENDMDL
