MODEL 1
REMARK minimizedAffinity -2.93804836
REMARK minimizedRMSD -1
REMARK  0 active torsions:
REMARK  status: ('A' for Active; 'I' for Inactive)
ROOT
ATOM      1  C   UNL d   1      -0.161  -1.662  -0.338  0.00  0.00     0.077 C 
ATOM      2  C1  UNL d   1      -0.178  -0.238   0.132  0.00  0.00    -0.074 A 
ATOM      3  C2  UNL d   1      -1.383   0.454   0.287  0.00  0.00    -0.005 A 
ATOM      4  C3  UNL d   1      -1.383   1.775   0.733  0.00  0.00     0.006 A 
ATOM      5  C4  UNL d   1      -0.180   2.417   1.030  0.00  0.00    -0.005 A 
ATOM      6  C5  UNL d   1       1.035   1.741   0.882  0.00  0.00    -0.074 A 
ATOM      7  C6  UNL d   1       2.337   2.412   1.205  0.00  0.00     0.077 C 
ATOM      8  C7  UNL d   1       1.027   0.411   0.439  0.00  0.00    -0.001 A 
ENDROOT
TORSDOF 0
ENDMDL
