MODEL 1
REMARK minimizedAffinity -4.07830524
REMARK minimizedRMSD -1
REMARK  0 active torsions:
REMARK  status: ('A' for Active; 'I' for Inactive)
ROOT
ATOM      1  C   UNL d   1       2.725  -0.619   0.260  0.00  0.00     0.077 C 
ATOM      2  C1  UNL d   1       1.384   0.022   0.064  0.00  0.00    -0.074 A 
ATOM      3  C2  UNL d   1       0.226  -0.754  -0.050  0.00  0.00    -0.005 A 
ATOM      4  C3  UNL d   1      -1.016  -0.143  -0.222  0.00  0.00     0.006 A 
ATOM      5  C4  UNL d   1      -1.113   1.248  -0.281  0.00  0.00    -0.005 A 
ATOM      6  C5  UNL d   1       0.034   2.040  -0.167  0.00  0.00    -0.074 A 
ATOM      7  C6  UNL d   1      -0.054   3.537  -0.218  0.00  0.00     0.077 C 
ATOM      8  C7  UNL d   1       1.277   1.419   0.012  0.00  0.00    -0.001 A 
ENDROOT
TORSDOF 0
ENDMDL
