MODEL 1
REMARK minimizedAffinity -1.6183424
REMARK minimizedRMSD -1
REMARK  0 active torsions:
REMARK  status: ('A' for Active; 'I' for Inactive)
ROOT
ATOM      1  C   UNL d   1       2.605   0.705   0.216  0.00  0.00     0.077 C 
ATOM      2  C1  UNL d   1       1.155   0.324   0.213  0.00  0.00    -0.074 A 
ATOM      3  C2  UNL d   1       0.158   1.285   0.411  0.00  0.00    -0.005 A 
ATOM      4  C3  UNL d   1      -1.187   0.918   0.396  0.00  0.00     0.006 A 
ATOM      5  C4  UNL d   1      -1.549  -0.413   0.183  0.00  0.00    -0.005 A 
ATOM      6  C5  UNL d   1      -0.567  -1.388  -0.019  0.00  0.00    -0.074 A 
ATOM      7  C6  UNL d   1      -0.940  -2.821  -0.259  0.00  0.00     0.077 C 
ATOM      8  C7  UNL d   1       0.782  -1.009  -0.009  0.00  0.00    -0.001 A 
ENDROOT
TORSDOF 0
ENDMDL
