MODEL 1
REMARK minimizedAffinity -4.59494019
REMARK minimizedRMSD -1
REMARK  1 active torsions:
REMARK  status: ('A' for Active; 'I' for Inactive)
REMARK    1  A    between atoms: C1_2  and  C2_3 
ROOT
ATOM      1  C2  UNL d   1      -0.612  -0.995   0.510  0.00  0.00    -0.076 A 
ATOM      2  C3  UNL d   1       0.735  -1.233   0.186  0.00  0.00     0.004 A 
ATOM      3  C4  UNL d   1       1.586  -0.185  -0.159  0.00  0.00    -0.003 A 
ATOM      4  C5  UNL d   1       1.104   1.119  -0.184  0.00  0.00     0.000 A 
ATOM      5  C6  UNL d   1      -0.225   1.376   0.151  0.00  0.00     0.000 A 
ATOM      6  C7  UNL d   1      -1.092   0.332   0.517  0.00  0.00    -0.073 A 
ATOM      7  C8  UNL d   1      -2.517   0.666   0.863  0.00  0.00     0.078 C 
ENDROOT
BRANCH   1   8
ATOM      8  C1  UNL d   1      -1.495  -2.175   0.849  0.00  0.00     0.053 C 
ATOM      9  C   UNL d   1      -1.074  -2.867   2.136  0.00  0.00     0.018 C 
ENDBRANCH   1   8
TORSDOF 1
ENDMDL
