MODEL 1
REMARK minimizedAffinity -4.8161664
REMARK minimizedRMSD -1
REMARK  1 active torsions:
REMARK  status: ('A' for Active; 'I' for Inactive)
REMARK    1  A    between atoms: C1_2  and  C2_3 
ROOT
ATOM      1  C2  UNL d   1       0.068  -0.166   0.299  0.00  0.00    -0.076 A 
ATOM      2  C3  UNL d   1       0.543  -1.479   0.134  0.00  0.00     0.004 A 
ATOM      3  C4  UNL d   1      -0.301  -2.575   0.312  0.00  0.00    -0.003 A 
ATOM      4  C5  UNL d   1      -1.633  -2.375   0.657  0.00  0.00     0.000 A 
ATOM      5  C6  UNL d   1      -2.125  -1.079   0.808  0.00  0.00     0.000 A 
ATOM      6  C7  UNL d   1      -1.292   0.037   0.615  0.00  0.00    -0.073 A 
ATOM      7  C8  UNL d   1      -1.874   1.412   0.796  0.00  0.00     0.078 C 
ENDROOT
BRANCH   1   8
ATOM      8  C1  UNL d   1       1.036   0.981   0.119  0.00  0.00     0.053 C 
ATOM      9  C   UNL d   1       1.169   1.409  -1.335  0.00  0.00     0.018 C 
ENDBRANCH   1   8
TORSDOF 1
ENDMDL
