MODEL 1
REMARK minimizedAffinity -4.27741957
REMARK minimizedRMSD -1
REMARK  1 active torsions:
REMARK  status: ('A' for Active; 'I' for Inactive)
REMARK    1  A    between atoms: C1_2  and  C2_3 
ROOT
ATOM      1  C2  UNL d   1       0.088   0.005  -0.136  0.00  0.00    -0.076 A 
ATOM      2  C3  UNL d   1      -1.287  -0.143  -0.393  0.00  0.00     0.004 A 
ATOM      3  C4  UNL d   1      -1.946  -1.337  -0.106  0.00  0.00    -0.003 A 
ATOM      4  C5  UNL d   1      -1.241  -2.403   0.442  0.00  0.00     0.000 A 
ATOM      5  C6  UNL d   1       0.119  -2.268   0.720  0.00  0.00     0.000 A 
ATOM      6  C7  UNL d   1       0.795  -1.065   0.452  0.00  0.00    -0.073 A 
ATOM      7  C8  UNL d   1       2.263  -0.977   0.766  0.00  0.00     0.078 C 
ENDROOT
BRANCH   1   8
ATOM      8  C1  UNL d   1       0.754   1.315  -0.493  0.00  0.00     0.053 C 
ATOM      9  C   UNL d   1       0.412   1.778  -1.900  0.00  0.00     0.018 C 
ENDBRANCH   1   8
TORSDOF 1
ENDMDL
