MODEL 1
REMARK minimizedAffinity -3.05696654
REMARK minimizedRMSD -1
REMARK  1 active torsions:
REMARK  status: ('A' for Active; 'I' for Inactive)
REMARK    1  A    between atoms: C1_2  and  C2_3 
ROOT
ATOM      1  C2  UNL d   1      -0.421  -1.315   0.681  0.00  0.00    -0.076 A 
ATOM      2  C3  UNL d   1      -1.479  -0.397   0.798  0.00  0.00     0.004 A 
ATOM      3  C4  UNL d   1      -1.349   0.911   0.335  0.00  0.00    -0.003 A 
ATOM      4  C5  UNL d   1      -0.159   1.322  -0.254  0.00  0.00     0.000 A 
ATOM      5  C6  UNL d   1       0.895   0.420  -0.394  0.00  0.00     0.000 A 
ATOM      6  C7  UNL d   1       0.775  -0.907   0.053  0.00  0.00    -0.073 A 
ATOM      7  C8  UNL d   1       1.946  -1.836  -0.119  0.00  0.00     0.078 C 
ENDROOT
BRANCH   1   8
ATOM      8  C1  UNL d   1      -0.611  -2.713   1.226  0.00  0.00     0.053 C 
ATOM      9  C   UNL d   1      -2.069  -3.032   1.517  0.00  0.00     0.018 C 
ENDBRANCH   1   8
TORSDOF 1
ENDMDL
