MODEL 1
REMARK minimizedAffinity -4.40913868
REMARK minimizedRMSD -1
REMARK  1 active torsions:
REMARK  status: ('A' for Active; 'I' for Inactive)
REMARK    1  A    between atoms: C1_2  and  C2_3 
ROOT
ATOM      1  C2  UNL d   1      -0.508   0.176   0.203  0.00  0.00    -0.076 A 
ATOM      2  C3  UNL d   1      -1.859  -0.028  -0.129  0.00  0.00     0.004 A 
ATOM      3  C4  UNL d   1      -2.484  -1.247   0.129  0.00  0.00    -0.003 A 
ATOM      4  C5  UNL d   1      -1.770  -2.281   0.723  0.00  0.00     0.000 A 
ATOM      5  C6  UNL d   1      -0.434  -2.090   1.075  0.00  0.00     0.000 A 
ATOM      6  C7  UNL d   1       0.208  -0.863   0.837  0.00  0.00    -0.073 A 
ATOM      7  C8  UNL d   1       1.652  -0.714   1.230  0.00  0.00     0.078 C 
ENDROOT
BRANCH   1   8
ATOM      8  C1  UNL d   1       0.125   1.509  -0.126  0.00  0.00     0.053 C 
ATOM      9  C   UNL d   1       0.776   1.522  -1.500  0.00  0.00     0.018 C 
ENDBRANCH   1   8
TORSDOF 1
ENDMDL
