MODEL 1
REMARK minimizedAffinity -2.51490426
REMARK minimizedRMSD -1
REMARK  1 active torsions:
REMARK  status: ('A' for Active; 'I' for Inactive)
REMARK    1  A    between atoms: C1_2  and  C2_3 
ROOT
ATOM      1  C2  UNL d   1       0.192   0.077   0.071  0.00  0.00    -0.076 A 
ATOM      2  C3  UNL d   1      -1.200   0.276   0.090  0.00  0.00     0.004 A 
ATOM      3  C4  UNL d   1      -2.062  -0.723   0.537  0.00  0.00    -0.003 A 
ATOM      4  C5  UNL d   1      -1.547  -1.938   0.974  0.00  0.00     0.000 A 
ATOM      5  C6  UNL d   1      -0.168  -2.147   0.979  0.00  0.00     0.000 A 
ATOM      6  C7  UNL d   1       0.716  -1.144   0.547  0.00  0.00    -0.073 A 
ATOM      7  C8  UNL d   1       2.193  -1.426   0.568  0.00  0.00     0.078 C 
ENDROOT
BRANCH   1   8
ATOM      8  C1  UNL d   1       1.076   1.187  -0.450  0.00  0.00     0.053 C 
ATOM      9  C   UNL d   1       0.957   1.368  -1.955  0.00  0.00     0.018 C 
ENDBRANCH   1   8
TORSDOF 1
ENDMDL
