MODEL 1
REMARK minimizedAffinity -5.53101778
REMARK minimizedRMSD -1
REMARK  1 active torsions:
REMARK  status: ('A' for Active; 'I' for Inactive)
REMARK    1  A    between atoms: C1_2  and  C2_3 
ROOT
ATOM      1  C2  UNL d   1      -0.466   0.208   0.293  0.00  0.00    -0.076 A 
ATOM      2  C3  UNL d   1       0.454  -0.844   0.146  0.00  0.00     0.004 A 
ATOM      3  C4  UNL d   1       0.080  -2.164   0.390  0.00  0.00    -0.003 A 
ATOM      4  C5  UNL d   1      -1.221  -2.454   0.785  0.00  0.00     0.000 A 
ATOM      5  C6  UNL d   1      -2.152  -1.425   0.919  0.00  0.00     0.000 A 
ATOM      6  C7  UNL d   1      -1.796  -0.090   0.660  0.00  0.00    -0.073 A 
ATOM      7  C8  UNL d   1      -2.839   0.981   0.826  0.00  0.00     0.078 C 
ENDROOT
BRANCH   1   8
ATOM      8  C1  UNL d   1       0.004   1.623   0.040  0.00  0.00     0.053 C 
ATOM      9  C   UNL d   1       0.456   1.839  -1.396  0.00  0.00     0.018 C 
ENDBRANCH   1   8
TORSDOF 1
ENDMDL
