MODEL 1
REMARK minimizedAffinity -3.06252933
REMARK minimizedRMSD -1
REMARK  1 active torsions:
REMARK  status: ('A' for Active; 'I' for Inactive)
REMARK    1  A    between atoms: C1_2  and  C2_3 
ROOT
ATOM      1  C2  UNL d   1       0.111  -0.003   0.273  0.00  0.00    -0.076 A 
ATOM      2  C3  UNL d   1       1.119  -0.980   0.211  0.00  0.00     0.004 A 
ATOM      3  C4  UNL d   1       0.876  -2.289   0.624  0.00  0.00    -0.003 A 
ATOM      4  C5  UNL d   1      -0.380  -2.642   1.106  0.00  0.00     0.000 A 
ATOM      5  C6  UNL d   1      -1.397  -1.689   1.158  0.00  0.00     0.000 A 
ATOM      6  C7  UNL d   1      -1.173  -0.369   0.730  0.00  0.00    -0.073 A 
ATOM      7  C8  UNL d   1      -2.304   0.619   0.815  0.00  0.00     0.078 C 
ENDROOT
BRANCH   1   8
ATOM      8  C1  UNL d   1       0.441   1.407  -0.163  0.00  0.00     0.053 C 
ATOM      9  C   UNL d   1       1.464   1.444  -1.288  0.00  0.00     0.018 C 
ENDBRANCH   1   8
TORSDOF 1
ENDMDL
