MODEL 1
REMARK minimizedAffinity -5.37418985
REMARK minimizedRMSD -1
REMARK  1 active torsions:
REMARK  status: ('A' for Active; 'I' for Inactive)
REMARK    1  A    between atoms: C1_2  and  C2_3 
ROOT
ATOM      1  C2  UNL d   1       0.150  -2.001   1.515  0.00  0.00    -0.076 A 
ATOM      2  C3  UNL d   1       1.194  -1.305   0.881  0.00  0.00     0.004 A 
ATOM      3  C4  UNL d   1       0.935  -0.415  -0.160  0.00  0.00    -0.003 A 
ATOM      4  C5  UNL d   1      -0.373  -0.206  -0.583  0.00  0.00     0.000 A 
ATOM      5  C6  UNL d   1      -1.423  -0.874   0.047  0.00  0.00     0.000 A 
ATOM      6  C7  UNL d   1      -1.180  -1.763   1.108  0.00  0.00    -0.073 A 
ATOM      7  C8  UNL d   1      -2.349  -2.462   1.747  0.00  0.00     0.078 C 
ENDROOT
BRANCH   1   8
ATOM      8  C1  UNL d   1       0.495  -2.975   2.619  0.00  0.00     0.053 C 
ATOM      9  C   UNL d   1       0.670  -2.290   3.966  0.00  0.00     0.018 C 
ENDBRANCH   1   8
TORSDOF 1
ENDMDL
