MODEL 1
REMARK minimizedAffinity -3.96723151
REMARK minimizedRMSD -1
REMARK  1 active torsions:
REMARK  status: ('A' for Active; 'I' for Inactive)
REMARK    1  A    between atoms: C1_2  and  C2_3 
ROOT
ATOM      1  C2  UNL d   1      -0.125  -0.090   0.654  0.00  0.00    -0.076 A 
ATOM      2  C3  UNL d   1       0.404  -1.380   0.473  0.00  0.00     0.004 A 
ATOM      3  C4  UNL d   1      -0.414  -2.507   0.543  0.00  0.00    -0.003 A 
ATOM      4  C5  UNL d   1      -1.774  -2.362   0.794  0.00  0.00     0.000 A 
ATOM      5  C6  UNL d   1      -2.318  -1.089   0.958  0.00  0.00     0.000 A 
ATOM      6  C7  UNL d   1      -1.511   0.059   0.875  0.00  0.00    -0.073 A 
ATOM      7  C8  UNL d   1      -2.150   1.407   1.066  0.00  0.00     0.078 C 
ENDROOT
BRANCH   1   8
ATOM      8  C1  UNL d   1       0.815   1.093   0.595  0.00  0.00     0.053 C 
ATOM      9  C   UNL d   1       1.217   1.447  -0.829  0.00  0.00     0.018 C 
ENDBRANCH   1   8
TORSDOF 1
ENDMDL
