MODEL 1
REMARK minimizedAffinity -5.19115305
REMARK minimizedRMSD -1
REMARK  1 active torsions:
REMARK  status: ('A' for Active; 'I' for Inactive)
REMARK    1  A    between atoms: C1_2  and  C2_3 
ROOT
ATOM      1  C2  UNL d   1      -0.653  -0.558   0.654  0.00  0.00    -0.076 A 
ATOM      2  C3  UNL d   1      -1.038  -1.902   0.797  0.00  0.00     0.004 A 
ATOM      3  C4  UNL d   1      -2.198  -2.247   1.489  0.00  0.00    -0.003 A 
ATOM      4  C5  UNL d   1      -2.993  -1.253   2.048  0.00  0.00     0.000 A 
ATOM      5  C6  UNL d   1      -2.636   0.087   1.901  0.00  0.00     0.000 A 
ATOM      6  C7  UNL d   1      -1.478   0.453   1.193  0.00  0.00    -0.073 A 
ATOM      7  C8  UNL d   1      -1.138   1.913   1.070  0.00  0.00     0.078 C 
ENDROOT
BRANCH   1   8
ATOM      8  C1  UNL d   1       0.629  -0.246  -0.083  0.00  0.00     0.053 C 
ATOM      9  C   UNL d   1       1.844  -0.895   0.561  0.00  0.00     0.018 C 
ENDBRANCH   1   8
TORSDOF 1
ENDMDL
