MODEL 1
REMARK minimizedAffinity -4.2260251
REMARK minimizedRMSD -1
REMARK  0 active torsions:
REMARK  status: ('A' for Active; 'I' for Inactive)
ROOT
ATOM      1  N1  IND d   1       0.054  -2.959  -0.674  0.00  0.00    -0.196 N 
ATOM      2  C2  IND d   1      -0.482  -3.455   0.482  0.00  0.00     0.054 A 
ATOM      3  C3  IND d   1      -0.943  -2.448   1.257  0.00  0.00    -0.031 A 
ATOM      4  C4  IND d   1      -1.012   0.081   0.782  0.00  0.00     0.051 A 
ATOM      5  C5  IND d   1      -0.607   1.018  -0.127  0.00  0.00    -0.031 A 
ATOM      6  C6  IND d   1       0.050   0.670  -1.290  0.00  0.00     0.015 A 
ATOM      7  C7  IND d   1       0.317  -0.635  -1.593  0.00  0.00    -0.016 A 
ATOM      8  C8  IND d   1      -0.086  -1.589  -0.669  0.00  0.00    -0.047 A 
ATOM      9  C9  IND d   1      -0.716  -1.238   0.533  0.00  0.00    -0.096 A 
ATOM     10  HN1 IND d   1       0.418  -3.425  -1.298  0.00  0.00     0.298 HD
ENDROOT
TORSDOF 0
ENDMDL
