MODEL 1
REMARK minimizedAffinity -4.09209967
REMARK minimizedRMSD -1
REMARK  0 active torsions:
REMARK  status: ('A' for Active; 'I' for Inactive)
ROOT
ATOM      1  N1  IND d   1      -1.146  -2.146   1.058  0.00  0.00    -0.196 N 
ATOM      2  C2  IND d   1      -0.158  -3.050   0.781  0.00  0.00     0.054 A 
ATOM      3  C3  IND d   1       0.909  -2.427   0.233  0.00  0.00    -0.031 A 
ATOM      4  C4  IND d   1       1.292   0.080  -0.208  0.00  0.00     0.051 A 
ATOM      5  C5  IND d   1       0.661   1.291  -0.155  0.00  0.00    -0.031 A 
ATOM      6  C6  IND d   1      -0.629   1.422   0.318  0.00  0.00     0.015 A 
ATOM      7  C7  IND d   1      -1.335   0.343   0.767  0.00  0.00    -0.016 A 
ATOM      8  C8  IND d   1      -0.701  -0.890   0.708  0.00  0.00    -0.047 A 
ATOM      9  C9  IND d   1       0.592  -1.035   0.190  0.00  0.00    -0.096 A 
ATOM     10  HN1 IND d   1      -1.915  -2.331   1.394  0.00  0.00     0.298 HD
ENDROOT
TORSDOF 0
ENDMDL
