MODEL 1
REMARK minimizedAffinity 0.489015758
REMARK minimizedRMSD -1
REMARK  0 active torsions:
REMARK  status: ('A' for Active; 'I' for Inactive)
ROOT
ATOM      1  N1  IND d   1       1.847   2.842   1.690  0.00  0.00    -0.196 N 
ATOM      2  C2  IND d   1       2.280   4.077   1.295  0.00  0.00     0.054 A 
ATOM      3  C3  IND d   1       2.222   4.188  -0.051  0.00  0.00    -0.031 A 
ATOM      4  C4  IND d   1       1.354   2.506  -1.795  0.00  0.00     0.051 A 
ATOM      5  C5  IND d   1       0.890   1.226  -1.920  0.00  0.00    -0.031 A 
ATOM      6  C6  IND d   1       0.715   0.404  -0.825  0.00  0.00     0.015 A 
ATOM      7  C7  IND d   1       0.988   0.837   0.442  0.00  0.00    -0.016 A 
ATOM      8  C8  IND d   1       1.466   2.133   0.571  0.00  0.00    -0.047 A 
ATOM      9  C9  IND d   1       1.686   2.958  -0.540  0.00  0.00    -0.096 A 
ATOM     10  HN1 IND d   1       1.817   2.556   2.500  0.00  0.00     0.298 HD
ENDROOT
TORSDOF 0
ENDMDL
