MODEL 1
REMARK minimizedAffinity -3.78135371
REMARK minimizedRMSD -1
REMARK  0 active torsions:
REMARK  status: ('A' for Active; 'I' for Inactive)
ROOT
ATOM      1  N1  IND d   1       0.248  -2.445   0.917  0.00  0.00    -0.196 N 
ATOM      2  C2  IND d   1       1.195  -2.913   0.049  0.00  0.00     0.054 A 
ATOM      3  C3  IND d   1       1.493  -1.971  -0.874  0.00  0.00    -0.031 A 
ATOM      4  C4  IND d   1       0.623   0.442  -1.088  0.00  0.00     0.051 A 
ATOM      5  C5  IND d   1      -0.282   1.313  -0.550  0.00  0.00    -0.031 A 
ATOM      6  C6  IND d   1      -1.071   0.969   0.529  0.00  0.00     0.015 A 
ATOM      7  C7  IND d   1      -0.975  -0.260   1.119  0.00  0.00    -0.016 A 
ATOM      8  C8  IND d   1      -0.062  -1.149   0.570  0.00  0.00    -0.047 A 
ATOM      9  C9  IND d   1       0.711  -0.821  -0.551  0.00  0.00    -0.096 A 
ATOM     10  HN1 IND d   1      -0.097  -2.887   1.569  0.00  0.00     0.298 HD
ENDROOT
TORSDOF 0
ENDMDL
