MODEL 1
REMARK minimizedAffinity -5.80652809
REMARK minimizedRMSD -1
REMARK  0 active torsions:
REMARK  status: ('A' for Active; 'I' for Inactive)
ROOT
ATOM      1  N1  IND d   1       0.664  -0.735  -1.903  0.00  0.00    -0.196 N 
ATOM      2  C2  IND d   1       0.303   0.575  -2.049  0.00  0.00     0.054 A 
ATOM      3  C3  IND d   1      -0.366   1.004  -0.956  0.00  0.00    -0.031 A 
ATOM      4  C4  IND d   1      -0.893  -0.245   1.233  0.00  0.00     0.051 A 
ATOM      5  C5  IND d   1      -0.798  -1.475   1.821  0.00  0.00    -0.031 A 
ATOM      6  C6  IND d   1      -0.195  -2.542   1.187  0.00  0.00     0.015 A 
ATOM      7  C7  IND d   1       0.346  -2.415  -0.061  0.00  0.00    -0.016 A 
ATOM      8  C8  IND d   1       0.245  -1.170  -0.664  0.00  0.00    -0.047 A 
ATOM      9  C9  IND d   1      -0.403  -0.094  -0.043  0.00  0.00    -0.096 A 
ATOM     10  HN1 IND d   1       1.083  -1.209  -2.486  0.00  0.00     0.298 HD
ENDROOT
TORSDOF 0
ENDMDL
