MODEL 1
REMARK minimizedAffinity -4.46957254
REMARK minimizedRMSD -1
REMARK  0 active torsions:
REMARK  status: ('A' for Active; 'I' for Inactive)
ROOT
ATOM      1  N1  IND d   1      -0.407   0.582  -1.762  0.00  0.00    -0.196 N 
ATOM      2  C2  IND d   1       0.318  -0.175  -2.640  0.00  0.00     0.054 A 
ATOM      3  C3  IND d   1       0.539  -1.406  -2.128  0.00  0.00    -0.031 A 
ATOM      4  C4  IND d   1      -0.284  -2.428   0.088  0.00  0.00     0.051 A 
ATOM      5  C5  IND d   1      -0.948  -2.111   1.239  0.00  0.00    -0.031 A 
ATOM      6  C6  IND d   1      -1.480  -0.855   1.452  0.00  0.00     0.015 A 
ATOM      7  C7  IND d   1      -1.375   0.131   0.512  0.00  0.00    -0.016 A 
ATOM      8  C8  IND d   1      -0.695  -0.185  -0.655  0.00  0.00    -0.047 A 
ATOM      9  C9  IND d   1      -0.117  -1.445  -0.859  0.00  0.00    -0.096 A 
ATOM     10  HN1 IND d   1      -0.643   1.400  -1.882  0.00  0.00     0.298 HD
ENDROOT
TORSDOF 0
ENDMDL
