MODEL 1
REMARK minimizedAffinity -4.51050854
REMARK minimizedRMSD -1
REMARK  0 active torsions:
REMARK  status: ('A' for Active; 'I' for Inactive)
ROOT
ATOM      1  N1  IND d   1      -1.332   0.399   0.544  0.00  0.00    -0.196 N 
ATOM      2  C2  IND d   1      -0.768   1.255  -0.361  0.00  0.00     0.054 A 
ATOM      3  C3  IND d   1       0.284   0.666  -0.973  0.00  0.00    -0.031 A 
ATOM      4  C4  IND d   1       1.193  -1.729  -0.718  0.00  0.00     0.051 A 
ATOM      5  C5  IND d   1       1.030  -2.871   0.015  0.00  0.00    -0.031 A 
ATOM      6  C6  IND d   1       0.050  -2.984   0.980  0.00  0.00     0.015 A 
ATOM      7  C7  IND d   1      -0.815  -1.959   1.240  0.00  0.00    -0.016 A 
ATOM      8  C8  IND d   1      -0.648  -0.796   0.503  0.00  0.00    -0.047 A 
ATOM      9  C9  IND d   1       0.372  -0.660  -0.448  0.00  0.00    -0.096 A 
ATOM     10  HN1 IND d   1      -2.001   0.578   1.054  0.00  0.00     0.298 HD
ENDROOT
TORSDOF 0
ENDMDL
