MODEL 1
REMARK minimizedAffinity -2.63070536
REMARK minimizedRMSD -1
REMARK  0 active torsions:
REMARK  status: ('A' for Active; 'I' for Inactive)
ROOT
ATOM      1  N1  IND d   1       0.350   0.227  -1.297  0.00  0.00    -0.196 N 
ATOM      2  C2  IND d   1       0.006   1.412  -0.707  0.00  0.00     0.054 A 
ATOM      3  C3  IND d   1      -0.527   1.191   0.515  0.00  0.00    -0.031 A 
ATOM      4  C4  IND d   1      -0.837  -1.024   1.789  0.00  0.00     0.051 A 
ATOM      5  C5  IND d   1      -0.706  -2.377   1.646  0.00  0.00    -0.031 A 
ATOM      6  C6  IND d   1      -0.203  -2.942   0.491  0.00  0.00     0.015 A 
ATOM      7  C7  IND d   1       0.199  -2.171  -0.562  0.00  0.00    -0.016 A 
ATOM      8  C8  IND d   1       0.061  -0.798  -0.423  0.00  0.00    -0.047 A 
ATOM      9  C9  IND d   1      -0.488  -0.221   0.730  0.00  0.00    -0.096 A 
ATOM     10  HN1 IND d   1       0.690   0.137  -2.082  0.00  0.00     0.298 HD
ENDROOT
TORSDOF 0
ENDMDL
