MODEL 1
REMARK minimizedAffinity -1.80378306
REMARK minimizedRMSD -1
REMARK  0 active torsions:
REMARK  status: ('A' for Active; 'I' for Inactive)
ROOT
ATOM      1  N1  IND d   1       1.231  -0.077   0.738  0.00  0.00    -0.196 N 
ATOM      2  C2  IND d   1       0.105  -0.425   0.044  0.00  0.00     0.054 A 
ATOM      3  C3  IND d   1      -0.502   0.677  -0.451  0.00  0.00    -0.031 A 
ATOM      4  C4  IND d   1       0.233   3.142  -0.331  0.00  0.00     0.051 A 
ATOM      5  C5  IND d   1       1.176   3.959   0.227  0.00  0.00    -0.031 A 
ATOM      6  C6  IND d   1       2.208   3.462   0.997  0.00  0.00     0.015 A 
ATOM      7  C7  IND d   1       2.342   2.122   1.229  0.00  0.00    -0.016 A 
ATOM      8  C8  IND d   1       1.382   1.290   0.670  0.00  0.00    -0.047 A 
ATOM      9  C9  IND d   1       0.309   1.793  -0.077  0.00  0.00    -0.096 A 
ATOM     10  HN1 IND d   1       1.756  -0.621   1.147  0.00  0.00     0.298 HD
ENDROOT
TORSDOF 0
ENDMDL
