MODEL 1
REMARK minimizedAffinity -2.88362312
REMARK minimizedRMSD -1
REMARK  0 active torsions:
REMARK  status: ('A' for Active; 'I' for Inactive)
ROOT
ATOM      1  N1  IND d   1      -0.811  -1.903   1.062  0.00  0.00    -0.196 N 
ATOM      2  C2  IND d   1       0.199  -2.526   0.383  0.00  0.00     0.054 A 
ATOM      3  C3  IND d   1       0.860  -1.640  -0.395  0.00  0.00    -0.031 A 
ATOM      4  C4  IND d   1       0.519   0.901  -0.633  0.00  0.00     0.051 A 
ATOM      5  C5  IND d   1      -0.304   1.918  -0.240  0.00  0.00    -0.031 A 
ATOM      6  C6  IND d   1      -1.358   1.711   0.625  0.00  0.00     0.015 A 
ATOM      7  C7  IND d   1      -1.622   0.474   1.143  0.00  0.00    -0.016 A 
ATOM      8  C8  IND d   1      -0.793  -0.563   0.741  0.00  0.00    -0.047 A 
ATOM      9  C9  IND d   1       0.253  -0.367  -0.171  0.00  0.00    -0.096 A 
ATOM     10  HN1 IND d   1      -1.365  -2.283   1.598  0.00  0.00     0.298 HD
ENDROOT
TORSDOF 0
ENDMDL
