MODEL 1
REMARK minimizedAffinity -2.32080293
REMARK minimizedRMSD -1
REMARK  0 active torsions:
REMARK  status: ('A' for Active; 'I' for Inactive)
ROOT
ATOM      1  N1  IND d   1      -0.660   1.365   0.684  0.00  0.00    -0.196 N 
ATOM      2  C2  IND d   1       0.180   1.997  -0.190  0.00  0.00     0.054 A 
ATOM      3  C3  IND d   1       0.948   1.094  -0.841  0.00  0.00    -0.031 A 
ATOM      4  C4  IND d   1       0.921  -1.476  -0.703  0.00  0.00     0.051 A 
ATOM      5  C5  IND d   1       0.351  -2.512  -0.019  0.00  0.00    -0.031 A 
ATOM      6  C6  IND d   1      -0.607  -2.305   0.953  0.00  0.00     0.015 A 
ATOM      7  C7  IND d   1      -1.040  -1.049   1.269  0.00  0.00    -0.016 A 
ATOM      8  C8  IND d   1      -0.458   0.007   0.581  0.00  0.00    -0.047 A 
ATOM      9  C9  IND d   1       0.545  -0.195  -0.376  0.00  0.00    -0.096 A 
ATOM     10  HN1 IND d   1      -1.220   1.752   1.210  0.00  0.00     0.298 HD
ENDROOT
TORSDOF 0
ENDMDL
