MODEL 1
REMARK minimizedAffinity -3.37526059
REMARK minimizedRMSD -1
REMARK  0 active torsions:
REMARK  status: ('A' for Active; 'I' for Inactive)
ROOT
ATOM      1  N1  IND d   1       0.483   1.471   1.227  0.00  0.00    -0.196 N 
ATOM      2  C2  IND d   1       0.710   1.949  -0.034  0.00  0.00     0.054 A 
ATOM      3  C3  IND d   1       0.488   0.980  -0.951  0.00  0.00    -0.031 A 
ATOM      4  C4  IND d   1      -0.352  -1.430  -0.614  0.00  0.00     0.051 A 
ATOM      5  C5  IND d   1      -0.661  -2.336   0.361  0.00  0.00    -0.031 A 
ATOM      6  C6  IND d   1      -0.607  -2.013   1.701  0.00  0.00     0.015 A 
ATOM      7  C7  IND d   1      -0.250  -0.761   2.118  0.00  0.00    -0.016 A 
ATOM      8  C8  IND d   1       0.072   0.159   1.131  0.00  0.00    -0.047 A 
ATOM      9  C9  IND d   1       0.060  -0.176  -0.229  0.00  0.00    -0.096 A 
ATOM     10  HN1 IND d   1       0.582   1.914   1.957  0.00  0.00     0.298 HD
ENDROOT
TORSDOF 0
ENDMDL
