MODEL 1
REMARK minimizedAffinity -1.97366488
REMARK minimizedRMSD -1
REMARK  0 active torsions:
REMARK  status: ('A' for Active; 'I' for Inactive)
ROOT
ATOM      1  N1  IND d   1       1.165   0.340  -0.580  0.00  0.00    -0.196 N 
ATOM      2  C2  IND d   1       0.702   1.448   0.073  0.00  0.00     0.054 A 
ATOM      3  C3  IND d   1      -0.333   1.120   0.879  0.00  0.00    -0.031 A 
ATOM      4  C4  IND d   1      -1.367  -1.189   1.358  0.00  0.00     0.051 A 
ATOM      5  C5  IND d   1      -1.305  -2.498   0.971  0.00  0.00    -0.031 A 
ATOM      6  C6  IND d   1      -0.396  -2.937   0.029  0.00  0.00     0.015 A 
ATOM      7  C7  IND d   1       0.496  -2.082  -0.554  0.00  0.00    -0.016 A 
ATOM      8  C8  IND d   1       0.431  -0.751  -0.168  0.00  0.00    -0.047 A 
ATOM      9  C9  IND d   1      -0.517  -0.291   0.756  0.00  0.00    -0.096 A 
ATOM     10  HN1 IND d   1       1.807   0.326  -1.152  0.00  0.00     0.298 HD
ENDROOT
TORSDOF 0
ENDMDL
