MODEL 1
REMARK minimizedAffinity -1.46013784
REMARK minimizedRMSD -1
REMARK  0 active torsions:
REMARK  status: ('A' for Active; 'I' for Inactive)
ROOT
ATOM      1  N1  IND d   1       0.895   0.554  -0.842  0.00  0.00    -0.196 N 
ATOM      2  C2  IND d   1       0.480   1.771  -0.376  0.00  0.00     0.054 A 
ATOM      3  C3  IND d   1      -0.404   1.611   0.634  0.00  0.00    -0.031 A 
ATOM      4  C4  IND d   1      -1.234  -0.554   1.753  0.00  0.00     0.051 A 
ATOM      5  C5  IND d   1      -1.165  -1.915   1.649  0.00  0.00    -0.031 A 
ATOM      6  C6  IND d   1      -0.388  -2.535   0.692  0.00  0.00     0.015 A 
ATOM      7  C7  IND d   1       0.362  -1.814  -0.193  0.00  0.00    -0.016 A 
ATOM      8  C8  IND d   1       0.288  -0.431  -0.096  0.00  0.00    -0.047 A 
ATOM      9  C9  IND d   1      -0.532   0.203   0.846  0.00  0.00    -0.096 A 
ATOM     10  HN1 IND d   1       1.443   0.427  -1.493  0.00  0.00     0.298 HD
ENDROOT
TORSDOF 0
ENDMDL
