MODEL 1
REMARK minimizedAffinity -3.54855251
REMARK minimizedRMSD -1
REMARK  0 active torsions:
REMARK  status: ('A' for Active; 'I' for Inactive)
ROOT
ATOM      1  N1  IND d   1       0.752   0.544  -1.112  0.00  0.00    -0.196 N 
ATOM      2  C2  IND d   1       0.126   1.720  -0.803  0.00  0.00     0.054 A 
ATOM      3  C3  IND d   1      -0.805   1.518   0.156  0.00  0.00    -0.031 A 
ATOM      4  C4  IND d   1      -1.399  -0.638   1.432  0.00  0.00     0.051 A 
ATOM      5  C5  IND d   1      -1.123  -1.976   1.474  0.00  0.00    -0.031 A 
ATOM      6  C6  IND d   1      -0.186  -2.553   0.641  0.00  0.00     0.015 A 
ATOM      7  C7  IND d   1       0.520  -1.809  -0.261  0.00  0.00    -0.016 A 
ATOM      8  C8  IND d   1       0.237  -0.451  -0.311  0.00  0.00    -0.047 A 
ATOM      9  C9  IND d   1      -0.743   0.133   0.502  0.00  0.00    -0.096 A 
ATOM     10  HN1 IND d   1       1.365   0.444  -1.707  0.00  0.00     0.298 HD
ENDROOT
TORSDOF 0
ENDMDL
