MODEL 1
REMARK minimizedAffinity 0.566439629
REMARK minimizedRMSD -1
REMARK  0 active torsions:
REMARK  status: ('A' for Active; 'I' for Inactive)
ROOT
ATOM      1  N1  IND d   1       0.701   1.806  -0.925  0.00  0.00    -0.196 N 
ATOM      2  C2  IND d   1       0.901   2.792   0.000  0.00  0.00     0.054 A 
ATOM      3  C3  IND d   1       0.642   2.330   1.244  0.00  0.00    -0.031 A 
ATOM      4  C4  IND d   1      -0.026  -0.038   2.002  0.00  0.00     0.051 A 
ATOM      5  C5  IND d   1      -0.366  -1.269   1.516  0.00  0.00    -0.031 A 
ATOM      6  C6  IND d   1      -0.365  -1.545   0.163  0.00  0.00     0.015 A 
ATOM      7  C7  IND d   1      -0.011  -0.598  -0.756  0.00  0.00    -0.016 A 
ATOM      8  C8  IND d   1       0.327   0.656  -0.266  0.00  0.00    -0.047 A 
ATOM      9  C9  IND d   1       0.287   0.953   1.102  0.00  0.00    -0.096 A 
ATOM     10  HN1 IND d   1       0.792   1.890  -1.776  0.00  0.00     0.298 HD
ENDROOT
TORSDOF 0
ENDMDL
