MODEL 1
REMARK minimizedAffinity 13.3038301
REMARK minimizedRMSD -1
REMARK  1 active torsions:
REMARK  status: ('A' for Active; 'I' for Inactive)
REMARK    1  A    between atoms: C1_2  and  C2_3 
ROOT
ATOM      1  C2  UNL d   1       2.713  -1.085  -1.916  0.00  0.00    -0.081 A 
ATOM      2  C3  UNL d   1       2.137  -1.213  -0.646  0.00  0.00     0.006 A 
ATOM      3  C4  UNL d   1       2.224  -0.171   0.280  0.00  0.00     0.002 A 
ATOM      4  C5  UNL d   1       2.882   1.019  -0.051  0.00  0.00    -0.080 A 
ATOM      5  C6  UNL d   1       2.957   2.157   0.923  0.00  0.00     0.076 C 
ATOM      6  C7  UNL d   1       3.473   1.140  -1.313  0.00  0.00     0.002 A 
ATOM      7  C8  UNL d   1       3.386   0.098  -2.239  0.00  0.00     0.006 A 
ENDROOT
BRANCH   1   8
ATOM      8  C1  UNL d   1       2.565  -2.182  -2.939  0.00  0.00     0.054 C 
ATOM      9  C   UNL d   1       1.111  -2.358  -3.355  0.00  0.00     0.018 C 
ENDBRANCH   1   8
TORSDOF 1
ENDMDL
