MODEL 1
REMARK minimizedAffinity 15.132884
REMARK minimizedRMSD -1
REMARK  1 active torsions:
REMARK  status: ('A' for Active; 'I' for Inactive)
REMARK    1  A    between atoms: C1_2  and  C2_3 
ROOT
ATOM      1  C2  UNL d   1       3.944   0.978  -1.141  0.00  0.00    -0.081 A 
ATOM      2  C3  UNL d   1       4.714   0.707  -0.003  0.00  0.00     0.006 A 
ATOM      3  C4  UNL d   1       4.242  -0.167   0.979  0.00  0.00     0.002 A 
ATOM      4  C5  UNL d   1       2.998  -0.791   0.836  0.00  0.00    -0.080 A 
ATOM      5  C6  UNL d   1       2.494  -1.755   1.868  0.00  0.00     0.076 C 
ATOM      6  C7  UNL d   1       2.222  -0.507  -0.292  0.00  0.00     0.002 A 
ATOM      7  C8  UNL d   1       2.692   0.367  -1.274  0.00  0.00     0.006 A 
ENDROOT
BRANCH   1   8
ATOM      8  C1  UNL d   1       4.478   1.870  -2.232  0.00  0.00     0.054 C 
ATOM      9  C   UNL d   1       6.000   1.875  -2.248  0.00  0.00     0.018 C 
ENDBRANCH   1   8
TORSDOF 1
ENDMDL
