MODEL 1
REMARK minimizedAffinity 19.5242672
REMARK minimizedRMSD -1
REMARK  1 active torsions:
REMARK  status: ('A' for Active; 'I' for Inactive)
REMARK    1  A    between atoms: C1_2  and  C2_3 
ROOT
ATOM      1  C2  UNL d   1       4.012   3.682   3.428  0.00  0.00    -0.081 A 
ATOM      2  C3  UNL d   1       3.853   5.073   3.417  0.00  0.00     0.006 A 
ATOM      3  C4  UNL d   1       2.579   5.639   3.336  0.00  0.00     0.002 A 
ATOM      4  C5  UNL d   1       1.443   4.825   3.274  0.00  0.00    -0.080 A 
ATOM      5  C6  UNL d   1       0.067   5.420   3.218  0.00  0.00     0.076 C 
ATOM      6  C7  UNL d   1       1.603   3.435   3.268  0.00  0.00     0.002 A 
ATOM      7  C8  UNL d   1       2.877   2.869   3.348  0.00  0.00     0.006 A 
ENDROOT
BRANCH   1   8
ATOM      8  C1  UNL d   1       5.381   3.068   3.580  0.00  0.00     0.054 C 
ATOM      9  C   UNL d   1       5.520   2.351   4.916  0.00  0.00     0.018 C 
ENDBRANCH   1   8
TORSDOF 1
ENDMDL
