MODEL 1
REMARK minimizedAffinity 19.0223122
REMARK minimizedRMSD -1
REMARK  1 active torsions:
REMARK  status: ('A' for Active; 'I' for Inactive)
REMARK    1  A    between atoms: C1_2  and  C2_3 
ROOT
ATOM      1  C2  UNL d   1      -4.494   3.361  -0.702  0.00  0.00    -0.081 A 
ATOM      2  C3  UNL d   1      -4.396   1.973  -0.552  0.00  0.00     0.006 A 
ATOM      3  C4  UNL d   1      -4.891   1.117  -1.540  0.00  0.00     0.002 A 
ATOM      4  C5  UNL d   1      -5.483   1.635  -2.696  0.00  0.00    -0.080 A 
ATOM      5  C6  UNL d   1      -5.991   0.729  -3.778  0.00  0.00     0.076 C 
ATOM      6  C7  UNL d   1      -5.597   3.023  -2.838  0.00  0.00     0.002 A 
ATOM      7  C8  UNL d   1      -5.104   3.878  -1.851  0.00  0.00     0.006 A 
ENDROOT
BRANCH   1   8
ATOM      8  C1  UNL d   1      -3.905   4.287   0.331  0.00  0.00     0.054 C 
ATOM      9  C   UNL d   1      -3.445   5.596  -0.297  0.00  0.00     0.018 C 
ENDBRANCH   1   8
TORSDOF 1
ENDMDL
