MODEL 1
REMARK minimizedAffinity 19.2022877
REMARK minimizedRMSD -1
REMARK  1 active torsions:
REMARK  status: ('A' for Active; 'I' for Inactive)
REMARK    1  A    between atoms: C1_2  and  C2_3 
ROOT
ATOM      1  C2  UNL d   1       1.282  -3.745  -0.294  0.00  0.00    -0.081 A 
ATOM      2  C3  UNL d   1       1.759  -3.280   0.938  0.00  0.00     0.006 A 
ATOM      3  C4  UNL d   1       2.473  -2.082   1.014  0.00  0.00     0.002 A 
ATOM      4  C5  UNL d   1       2.715  -1.326  -0.137  0.00  0.00    -0.080 A 
ATOM      5  C6  UNL d   1       3.454  -0.023  -0.064  0.00  0.00     0.076 C 
ATOM      6  C7  UNL d   1       2.254  -1.799  -1.371  0.00  0.00     0.002 A 
ATOM      7  C8  UNL d   1       1.541  -2.997  -1.448  0.00  0.00     0.006 A 
ENDROOT
BRANCH   1   8
ATOM      8  C1  UNL d   1       0.456  -5.004  -0.371  0.00  0.00     0.054 C 
ATOM      9  C   UNL d   1      -0.844  -4.767  -1.126  0.00  0.00     0.018 C 
ENDBRANCH   1   8
TORSDOF 1
ENDMDL
