MODEL 1
REMARK minimizedAffinity 0.0197058059
REMARK minimizedRMSD -1
REMARK  0 active torsions:
REMARK  status: ('A' for Active; 'I' for Inactive)
ROOT
ATOM      1  C   UNL d   1      -1.884  -4.114  -1.127  0.00  0.00     0.124 A 
ATOM      2  C1  UNL d   1      -0.972  -3.735  -2.103  0.00  0.00     0.062 A 
ATOM      3  C2  UNL d   1      -0.050  -2.724  -1.844  0.00  0.00     0.162 A 
ATOM      4  C3  UNL d   1      -0.035  -2.086  -0.604  0.00  0.00    -0.034 A 
ATOM      5  C4  UNL d   1      -0.956  -2.472   0.372  0.00  0.00     0.162 A 
ATOM      6  C5  UNL d   1      -1.875  -3.482   0.109  0.00  0.00     0.062 A 
ATOM      7  F   UNL d   1      -2.755  -3.847   1.052  0.00  0.00    -0.097 F 
ATOM      8  F1  UNL d   1      -0.968  -1.879   1.575  0.00  0.00    -0.096 F 
ATOM      9  I   UNL d   1       1.342  -0.575  -0.214  0.00  0.00    -0.060 I 
ATOM     10  F2  UNL d   1       0.819  -2.378  -2.805  0.00  0.00    -0.096 F 
ATOM     11  F3  UNL d   1      -0.979  -4.343  -3.298  0.00  0.00    -0.097 F 
ATOM     12  F4  UNL d   1      -2.770  -5.086  -1.379  0.00  0.00    -0.092 F 
ENDROOT
TORSDOF 0
ENDMDL
