MODEL 1
REMARK minimizedAffinity -3.2811439
REMARK minimizedRMSD -1
REMARK  0 active torsions:
REMARK  status: ('A' for Active; 'I' for Inactive)
ROOT
ATOM      1  C   UNL d   1       1.244   2.270   1.298  0.00  0.00     0.124 A 
ATOM      2  C1  UNL d   1      -0.084   2.006   0.989  0.00  0.00     0.062 A 
ATOM      3  C2  UNL d   1      -0.454   0.755   0.504  0.00  0.00     0.162 A 
ATOM      4  C3  UNL d   1       0.504  -0.242   0.324  0.00  0.00    -0.034 A 
ATOM      5  C4  UNL d   1       1.837   0.031   0.636  0.00  0.00     0.162 A 
ATOM      6  C5  UNL d   1       2.203   1.282   1.121  0.00  0.00     0.062 A 
ATOM      7  F   UNL d   1       3.485   1.536   1.419  0.00  0.00    -0.097 F 
ATOM      8  F1  UNL d   1       2.785  -0.905   0.476  0.00  0.00    -0.096 F 
ATOM      9  I   UNL d   1      -0.045  -2.114  -0.402  0.00  0.00    -0.060 I 
ATOM     10  F2  UNL d   1      -1.744   0.528   0.214  0.00  0.00    -0.096 F 
ATOM     11  F3  UNL d   1      -1.012   2.959   1.158  0.00  0.00    -0.097 F 
ATOM     12  F4  UNL d   1       1.597   3.474   1.764  0.00  0.00    -0.092 F 
ENDROOT
TORSDOF 0
ENDMDL
