MODEL 1
REMARK minimizedAffinity -3.78062224
REMARK minimizedRMSD -1
REMARK  0 active torsions:
REMARK  status: ('A' for Active; 'I' for Inactive)
ROOT
ATOM      1  C   UNL d   1      -1.517  -2.293   3.591  0.00  0.00     0.124 A 
ATOM      2  C1  UNL d   1      -0.335  -2.570   2.917  0.00  0.00     0.062 A 
ATOM      3  C2  UNL d   1       0.021  -1.828   1.795  0.00  0.00     0.162 A 
ATOM      4  C3  UNL d   1      -0.805  -0.800   1.340  0.00  0.00    -0.034 A 
ATOM      5  C4  UNL d   1      -1.992  -0.528   2.022  0.00  0.00     0.162 A 
ATOM      6  C5  UNL d   1      -2.343  -1.272   3.143  0.00  0.00     0.062 A 
ATOM      7  F   UNL d   1      -3.485  -1.003   3.793  0.00  0.00    -0.097 F 
ATOM      8  F1  UNL d   1      -2.809   0.454   1.612  0.00  0.00    -0.096 F 
ATOM      9  I   UNL d   1      -0.276   0.312  -0.338  0.00  0.00    -0.060 I 
ATOM     10  F2  UNL d   1       1.168  -2.118   1.163  0.00  0.00    -0.096 F 
ATOM     11  F3  UNL d   1       0.465  -3.556   3.347  0.00  0.00    -0.097 F 
ATOM     12  F4  UNL d   1      -1.857  -3.010   4.670  0.00  0.00    -0.092 F 
ENDROOT
TORSDOF 0
ENDMDL
