MODEL 1
REMARK minimizedAffinity -0.906513274
REMARK minimizedRMSD -1
REMARK  0 active torsions:
REMARK  status: ('A' for Active; 'I' for Inactive)
ROOT
ATOM      1  C   UNL d   1       0.450   3.025   0.707  0.00  0.00     0.124 A 
ATOM      2  C1  UNL d   1       1.390   2.133   0.211  0.00  0.00     0.062 A 
ATOM      3  C2  UNL d   1       1.001   0.859  -0.193  0.00  0.00     0.162 A 
ATOM      4  C3  UNL d   1      -0.336   0.470  -0.103  0.00  0.00    -0.034 A 
ATOM      5  C4  UNL d   1      -1.275   1.372   0.399  0.00  0.00     0.162 A 
ATOM      6  C5  UNL d   1      -0.881   2.644   0.801  0.00  0.00     0.062 A 
ATOM      7  F   UNL d   1      -1.791   3.505   1.281  0.00  0.00    -0.097 F 
ATOM      8  F1  UNL d   1      -2.568   1.030   0.499  0.00  0.00    -0.096 F 
ATOM      9  I   UNL d   1      -0.921  -1.434  -0.706  0.00  0.00    -0.060 I 
ATOM     10  F2  UNL d   1       1.931   0.017  -0.670  0.00  0.00    -0.096 F 
ATOM     11  F3  UNL d   1       2.677   2.498   0.120  0.00  0.00    -0.097 F 
ATOM     12  F4  UNL d   1       0.827   4.250   1.096  0.00  0.00    -0.092 F 
ENDROOT
TORSDOF 0
ENDMDL
