MODEL 1
REMARK minimizedAffinity -5.96098661
REMARK minimizedRMSD -1
REMARK  0 active torsions:
REMARK  status: ('A' for Active; 'I' for Inactive)
ROOT
ATOM      1  C   UNL d   1       0.041   2.012  -0.232  0.00  0.00     0.124 A 
ATOM      2  C1  UNL d   1      -1.231   1.861   0.302  0.00  0.00     0.062 A 
ATOM      3  C2  UNL d   1      -1.575   0.693   0.975  0.00  0.00     0.162 A 
ATOM      4  C3  UNL d   1      -0.643  -0.336   1.120  0.00  0.00    -0.034 A 
ATOM      5  C4  UNL d   1       0.634  -0.178   0.580  0.00  0.00     0.162 A 
ATOM      6  C5  UNL d   1       0.972   0.992  -0.092  0.00  0.00     0.062 A 
ATOM      7  F   UNL d   1       2.202   1.136  -0.607  0.00  0.00    -0.097 F 
ATOM      8  F1  UNL d   1       1.554  -1.146   0.701  0.00  0.00    -0.096 F 
ATOM      9  I   UNL d   1      -1.153  -2.085   2.126  0.00  0.00    -0.060 I 
ATOM     10  F2  UNL d   1      -2.812   0.575   1.481  0.00  0.00    -0.096 F 
ATOM     11  F3  UNL d   1      -2.133   2.844   0.168  0.00  0.00    -0.097 F 
ATOM     12  F4  UNL d   1       0.368   3.137  -0.880  0.00  0.00    -0.092 F 
ENDROOT
TORSDOF 0
ENDMDL
