MODEL 1
REMARK minimizedAffinity -3.11730933
REMARK minimizedRMSD -1
REMARK  0 active torsions:
REMARK  status: ('A' for Active; 'I' for Inactive)
ROOT
ATOM      1  C   UNL d   1       0.226   2.020   0.186  0.00  0.00     0.124 A 
ATOM      2  C1  UNL d   1       1.036   0.899   0.075  0.00  0.00     0.062 A 
ATOM      3  C2  UNL d   1       0.550  -0.355   0.433  0.00  0.00     0.162 A 
ATOM      4  C3  UNL d   1      -0.756  -0.495   0.904  0.00  0.00    -0.034 A 
ATOM      5  C4  UNL d   1      -1.565   0.637   1.013  0.00  0.00     0.162 A 
ATOM      6  C5  UNL d   1      -1.074   1.888   0.655  0.00  0.00     0.062 A 
ATOM      7  F   UNL d   1      -1.859   2.970   0.762  0.00  0.00    -0.097 F 
ATOM      8  F1  UNL d   1      -2.825   0.538   1.462  0.00  0.00    -0.096 F 
ATOM      9  I   UNL d   1      -1.488  -2.368   1.439  0.00  0.00    -0.060 I 
ATOM     10  F2  UNL d   1       1.355  -1.421   0.316  0.00  0.00    -0.096 F 
ATOM     11  F3  UNL d   1       2.293   1.024  -0.376  0.00  0.00    -0.097 F 
ATOM     12  F4  UNL d   1       0.697   3.226  -0.157  0.00  0.00    -0.092 F 
ENDROOT
TORSDOF 0
ENDMDL
