MODEL 1
REMARK minimizedAffinity 0.244233772
REMARK minimizedRMSD -1
REMARK  0 active torsions:
REMARK  status: ('A' for Active; 'I' for Inactive)
ROOT
ATOM      1  C   UNL d   1       0.366   0.584   0.820  0.00  0.00     0.124 A 
ATOM      2  C1  UNL d   1       1.040  -0.613   0.618  0.00  0.00     0.062 A 
ATOM      3  C2  UNL d   1       0.478  -1.607  -0.177  0.00  0.00     0.162 A 
ATOM      4  C3  UNL d   1      -0.765  -1.410  -0.778  0.00  0.00    -0.034 A 
ATOM      5  C4  UNL d   1      -1.437  -0.204  -0.570  0.00  0.00     0.162 A 
ATOM      6  C5  UNL d   1      -0.871   0.787   0.226  0.00  0.00     0.062 A 
ATOM      7  F   UNL d   1      -1.524   1.943   0.419  0.00  0.00    -0.097 F 
ATOM      8  F1  UNL d   1      -2.634   0.019  -1.132  0.00  0.00    -0.096 F 
ATOM      9  I   UNL d   1      -1.608  -2.894  -1.967  0.00  0.00    -0.060 I 
ATOM     10  F2  UNL d   1       1.152  -2.754  -0.354  0.00  0.00    -0.096 F 
ATOM     11  F3  UNL d   1       2.236  -0.812   1.192  0.00  0.00    -0.097 F 
ATOM     12  F4  UNL d   1       0.909   1.539   1.586  0.00  0.00    -0.092 F 
ENDROOT
TORSDOF 0
ENDMDL
