MODEL 1
REMARK minimizedAffinity 0.458893895
REMARK minimizedRMSD -1
REMARK  0 active torsions:
REMARK  status: ('A' for Active; 'I' for Inactive)
ROOT
ATOM      1  C   UNL d   1       0.412   2.593  -1.001  0.00  0.00     0.124 A 
ATOM      2  C1  UNL d   1      -0.550   1.808  -0.380  0.00  0.00     0.062 A 
ATOM      3  C2  UNL d   1      -0.877   2.026   0.955  0.00  0.00     0.162 A 
ATOM      4  C3  UNL d   1      -0.242   3.036   1.679  0.00  0.00    -0.034 A 
ATOM      5  C4  UNL d   1       0.725   3.820   1.048  0.00  0.00     0.162 A 
ATOM      6  C5  UNL d   1       1.048   3.598  -0.287  0.00  0.00     0.062 A 
ATOM      7  F   UNL d   1       1.978   4.357  -0.884  0.00  0.00    -0.097 F 
ATOM      8  F1  UNL d   1       1.355   4.799   1.715  0.00  0.00    -0.096 F 
ATOM      9  I   UNL d   1      -0.728   3.366   3.675  0.00  0.00    -0.060 I 
ATOM     10  F2  UNL d   1      -1.810   1.253   1.529  0.00  0.00    -0.096 F 
ATOM     11  F3  UNL d   1      -1.166   0.835  -1.068  0.00  0.00    -0.097 F 
ATOM     12  F4  UNL d   1       0.725   2.380  -2.285  0.00  0.00    -0.092 F 
ENDROOT
TORSDOF 0
ENDMDL
