MODEL 1
REMARK minimizedAffinity 10.1325846
REMARK minimizedRMSD -1
REMARK  0 active torsions:
REMARK  status: ('A' for Active; 'I' for Inactive)
ROOT
ATOM      1  C   UNL d   1       3.031   1.573  -5.994  0.00  0.00     0.124 A 
ATOM      2  C1  UNL d   1       1.967   0.682  -5.996  0.00  0.00     0.062 A 
ATOM      3  C2  UNL d   1       0.658   1.156  -5.997  0.00  0.00     0.162 A 
ATOM      4  C3  UNL d   1       0.406   2.528  -5.997  0.00  0.00    -0.034 A 
ATOM      5  C4  UNL d   1       1.482   3.417  -5.994  0.00  0.00     0.162 A 
ATOM      6  C5  UNL d   1       2.788   2.939  -5.993  0.00  0.00     0.062 A 
ATOM      7  F   UNL d   1       3.815   3.801  -5.991  0.00  0.00    -0.097 F 
ATOM      8  F1  UNL d   1       1.276   4.743  -5.995  0.00  0.00    -0.096 F 
ATOM      9  I   UNL d   1      -1.550   3.240  -5.999  0.00  0.00    -0.060 I 
ATOM     10  F2  UNL d   1      -0.352   0.273  -5.999  0.00  0.00    -0.096 F 
ATOM     11  F3  UNL d   1       2.199  -0.638  -5.995  0.00  0.00    -0.097 F 
ATOM     12  F4  UNL d   1       4.290   1.114  -5.991  0.00  0.00    -0.092 F 
ENDROOT
TORSDOF 0
ENDMDL
