MODEL 1
REMARK minimizedAffinity 17.7277317
REMARK minimizedRMSD -1
REMARK  0 active torsions:
REMARK  status: ('A' for Active; 'I' for Inactive)
ROOT
ATOM      1  C   UNL d   1      -0.356  -4.221  -3.541  0.00  0.00     0.124 A 
ATOM      2  C1  UNL d   1      -1.416  -4.207  -2.645  0.00  0.00     0.062 A 
ATOM      3  C2  UNL d   1      -1.494  -3.219  -1.668  0.00  0.00     0.162 A 
ATOM      4  C3  UNL d   1      -0.509  -2.235  -1.582  0.00  0.00    -0.034 A 
ATOM      5  C4  UNL d   1       0.555  -2.256  -2.486  0.00  0.00     0.162 A 
ATOM      6  C5  UNL d   1       0.628  -3.246  -3.460  0.00  0.00     0.062 A 
ATOM      7  F   UNL d   1       1.653  -3.258  -4.325  0.00  0.00    -0.097 F 
ATOM      8  F1  UNL d   1       1.520  -1.326  -2.431  0.00  0.00    -0.096 F 
ATOM      9  I   UNL d   1      -0.621  -0.756  -0.122  0.00  0.00    -0.060 I 
ATOM     10  F2  UNL d   1      -2.530  -3.230  -0.816  0.00  0.00    -0.096 F 
ATOM     11  F3  UNL d   1      -2.368  -5.148  -2.720  0.00  0.00    -0.097 F 
ATOM     12  F4  UNL d   1      -0.283  -5.173  -4.480  0.00  0.00    -0.092 F 
ENDROOT
TORSDOF 0
ENDMDL
