MODEL 1
REMARK minimizedAffinity 3.51382637
REMARK minimizedRMSD -1
REMARK  0 active torsions:
REMARK  status: ('A' for Active; 'I' for Inactive)
ROOT
ATOM      1  C   UNL d   1      -2.825  -3.930  -1.606  0.00  0.00     0.124 A 
ATOM      2  C1  UNL d   1      -2.498  -4.693  -2.719  0.00  0.00     0.062 A 
ATOM      3  C2  UNL d   1      -1.224  -4.612  -3.273  0.00  0.00     0.162 A 
ATOM      4  C3  UNL d   1      -0.266  -3.766  -2.714  0.00  0.00    -0.034 A 
ATOM      5  C4  UNL d   1      -0.602  -3.002  -1.595  0.00  0.00     0.162 A 
ATOM      6  C5  UNL d   1      -1.877  -3.086  -1.045  0.00  0.00     0.062 A 
ATOM      7  F   UNL d   1      -2.191  -2.349   0.030  0.00  0.00    -0.097 F 
ATOM      8  F1  UNL d   1       0.295  -2.179  -1.032  0.00  0.00    -0.096 F 
ATOM      9  I   UNL d   1       1.641  -3.643  -3.538  0.00  0.00    -0.060 I 
ATOM     10  F2  UNL d   1      -0.935  -5.360  -4.348  0.00  0.00    -0.096 F 
ATOM     11  F3  UNL d   1      -3.413  -5.508  -3.263  0.00  0.00    -0.097 F 
ATOM     12  F4  UNL d   1      -4.053  -4.009  -1.076  0.00  0.00    -0.092 F 
ENDROOT
TORSDOF 0
ENDMDL
