MODEL 1
REMARK minimizedAffinity -3.28254318
REMARK minimizedRMSD -1
REMARK  1 active torsions:
REMARK  status: ('A' for Active; 'I' for Inactive)
REMARK    1  A    between atoms: N_2  and  C1_3 
ROOT
ATOM      1  C1  UNL d   1      -0.485   0.981  -0.698  0.00  0.00     0.143 A 
ATOM      2  C2  UNL d   1      -1.078   1.166   0.556  0.00  0.00    -0.057 A 
ATOM      3  C3  UNL d   1      -0.700   0.393   1.660  0.00  0.00     0.033 A 
ATOM      4  C4  UNL d   1       0.261  -0.604   1.522  0.00  0.00    -0.042 A 
ATOM      5  C5  UNL d   1       0.846  -0.823   0.280  0.00  0.00     0.033 A 
ATOM      6  C6  UNL d   1       0.469  -0.043  -0.817  0.00  0.00    -0.057 A 
ENDROOT
BRANCH   1   7
ATOM      7  N   UNL d   1      -0.888   1.651  -1.856  0.00  0.00    -0.732 N 
ATOM      8  C   UNL d   1      -0.508   3.029  -2.079  0.00  0.00     0.284 C 
ATOM      9  H3  UNL d   1      -0.829   1.063  -2.684  0.00  0.00     0.395 HD
ENDBRANCH   1   7
TORSDOF 1
ENDMDL
