MODEL 1
REMARK minimizedAffinity -4.18988466
REMARK minimizedRMSD -1
REMARK  1 active torsions:
REMARK  status: ('A' for Active; 'I' for Inactive)
REMARK    1  A    between atoms: N_2  and  C1_3 
ROOT
ATOM      1  C1  UNL d   1      -3.660   2.779  -3.200  0.00  0.00     0.143 A 
ATOM      2  C2  UNL d   1      -4.832   3.365  -3.689  0.00  0.00    -0.057 A 
ATOM      3  C3  UNL d   1      -5.989   2.606  -3.902  0.00  0.00     0.033 A 
ATOM      4  C4  UNL d   1      -5.985   1.237  -3.657  0.00  0.00    -0.042 A 
ATOM      5  C5  UNL d   1      -4.823   0.629  -3.194  0.00  0.00     0.033 A 
ATOM      6  C6  UNL d   1      -3.673   1.393  -2.977  0.00  0.00    -0.057 A 
ENDROOT
BRANCH   1   7
ATOM      7  N   UNL d   1      -2.448   3.461  -3.060  0.00  0.00    -0.732 N 
ATOM      8  C   UNL d   1      -1.203   2.840  -3.455  0.00  0.00     0.284 C 
ATOM      9  H3  UNL d   1      -2.524   4.443  -3.318  0.00  0.00     0.395 HD
ENDBRANCH   1   7
TORSDOF 1
ENDMDL
