MODEL 1
REMARK minimizedAffinity -4.22378492
REMARK minimizedRMSD -1
REMARK  1 active torsions:
REMARK  status: ('A' for Active; 'I' for Inactive)
REMARK    1  A    between atoms: N_2  and  C1_3 
ROOT
ATOM      1  C1  UNL d   1      -0.010  -0.087  -0.129  0.00  0.00     0.143 A 
ATOM      2  C2  UNL d   1       1.382  -0.230  -0.140  0.00  0.00    -0.057 A 
ATOM      3  C3  UNL d   1       2.094  -0.491   1.036  0.00  0.00     0.033 A 
ATOM      4  C4  UNL d   1       1.428  -0.585   2.254  0.00  0.00    -0.042 A 
ATOM      5  C5  UNL d   1       0.048  -0.421   2.293  0.00  0.00     0.033 A 
ATOM      6  C6  UNL d   1      -0.659  -0.168   1.113  0.00  0.00    -0.057 A 
ENDROOT
BRANCH   1   7
ATOM      7  N   UNL d   1      -0.764   0.271  -1.249  0.00  0.00    -0.732 N 
ATOM      8  C   UNL d   1      -0.692   1.611  -1.789  0.00  0.00     0.284 C 
ATOM      9  H3  UNL d   1      -0.782  -0.462  -1.955  0.00  0.00     0.395 HD
ENDBRANCH   1   7
TORSDOF 1
ENDMDL
