MODEL 1
REMARK minimizedAffinity 3.91455817
REMARK minimizedRMSD -1
REMARK  1 active torsions:
REMARK  status: ('A' for Active; 'I' for Inactive)
REMARK    1  A    between atoms: N_2  and  C1_3 
ROOT
ATOM      1  C1  UNL d   1       2.116  -1.021   1.028  0.00  0.00     0.143 A 
ATOM      2  C2  UNL d   1       2.907  -1.053  -0.126  0.00  0.00    -0.057 A 
ATOM      3  C3  UNL d   1       2.379  -0.718  -1.378  0.00  0.00     0.033 A 
ATOM      4  C4  UNL d   1       1.038  -0.372  -1.504  0.00  0.00    -0.042 A 
ATOM      5  C5  UNL d   1       0.226  -0.358  -0.375  0.00  0.00     0.033 A 
ATOM      6  C6  UNL d   1       0.761  -0.687   0.874  0.00  0.00    -0.057 A 
ENDROOT
BRANCH   1   7
ATOM      7  N   UNL d   1       2.557  -1.439   2.286  0.00  0.00    -0.732 N 
ATOM      8  C   UNL d   1       1.930  -2.559   2.953  0.00  0.00     0.284 C 
ATOM      9  H3  UNL d   1       3.571  -1.421   2.367  0.00  0.00     0.395 HD
ENDBRANCH   1   7
TORSDOF 1
ENDMDL
