MODEL 1
REMARK minimizedAffinity -2.81619501
REMARK minimizedRMSD -1
REMARK  1 active torsions:
REMARK  status: ('A' for Active; 'I' for Inactive)
REMARK    1  A    between atoms: N_2  and  C1_3 
ROOT
ATOM      1  C1  UNL d   1      -3.747   2.251   4.037  0.00  0.00     0.143 A 
ATOM      2  C2  UNL d   1      -3.993   2.342   5.411  0.00  0.00    -0.057 A 
ATOM      3  C3  UNL d   1      -5.086   1.694   5.998  0.00  0.00     0.033 A 
ATOM      4  C4  UNL d   1      -5.973   0.964   5.213  0.00  0.00    -0.042 A 
ATOM      5  C5  UNL d   1      -5.763   0.880   3.841  0.00  0.00     0.033 A 
ATOM      6  C6  UNL d   1      -4.665   1.524   3.262  0.00  0.00    -0.057 A 
ENDROOT
BRANCH   1   7
ATOM      7  N   UNL d   1      -2.734   2.953   3.380  0.00  0.00    -0.732 N 
ATOM      8  C   UNL d   1      -1.720   3.661   4.132  0.00  0.00     0.284 C 
ATOM      9  H3  UNL d   1      -2.376   2.451   2.570  0.00  0.00     0.395 HD
ENDBRANCH   1   7
TORSDOF 1
ENDMDL
