MODEL 1
REMARK minimizedAffinity -4.60920763
REMARK minimizedRMSD -1
REMARK  1 active torsions:
REMARK  status: ('A' for Active; 'I' for Inactive)
REMARK    1  A    between atoms: C3_4  and  O_7 
ROOT
ATOM      1  C   UNL d   1       1.362  -0.669  -0.291  0.00  0.00    -0.033 A 
ATOM      2  C1  UNL d   1       1.851  -1.498   0.721  0.00  0.00     0.039 A 
ATOM      3  C2  UNL d   1       1.122  -1.667   1.900  0.00  0.00    -0.080 A 
ATOM      4  C3  UNL d   1      -0.092  -1.003   2.054  0.00  0.00     0.150 A 
ATOM      5  C4  UNL d   1      -0.587  -0.179   1.049  0.00  0.00    -0.007 A 
ATOM      6  C5  UNL d   1       0.142  -0.011  -0.128  0.00  0.00     0.039 A 
ENDROOT
BRANCH   4   7
ATOM      7  O   UNL d   1      -0.836  -1.133   3.189  0.00  0.00    -0.526 OA
ATOM      8  H5  UNL d   1      -0.356  -1.710   3.807  0.00  0.00     0.418 HD
ENDBRANCH   4   7
TORSDOF 1
ENDMDL
