MODEL 1
REMARK minimizedAffinity -1.70407987
REMARK minimizedRMSD -1
REMARK  1 active torsions:
REMARK  status: ('A' for Active; 'I' for Inactive)
REMARK    1  A    between atoms: C3_4  and  O_7 
ROOT
ATOM      1  C   UNL d   1       2.064  -1.565   0.412  0.00  0.00    -0.033 A 
ATOM      2  C1  UNL d   1       2.027  -1.158  -0.923  0.00  0.00     0.039 A 
ATOM      3  C2  UNL d   1       0.989  -0.343  -1.378  0.00  0.00    -0.080 A 
ATOM      4  C3  UNL d   1      -0.005   0.057  -0.489  0.00  0.00     0.150 A 
ATOM      5  C4  UNL d   1       0.027  -0.341   0.843  0.00  0.00    -0.007 A 
ATOM      6  C5  UNL d   1       1.064  -1.156   1.295  0.00  0.00     0.039 A 
ENDROOT
BRANCH   4   7
ATOM      7  O   UNL d   1      -1.041   0.848  -0.889  0.00  0.00    -0.526 OA
ATOM      8  H5  UNL d   1      -0.948   1.021  -1.840  0.00  0.00     0.418 HD
ENDBRANCH   4   7
TORSDOF 1
ENDMDL
