MODEL 1
REMARK minimizedAffinity -0.809310794
REMARK minimizedRMSD -1
REMARK  1 active torsions:
REMARK  status: ('A' for Active; 'I' for Inactive)
REMARK    1  A    between atoms: C3_4  and  O_7 
ROOT
ATOM      1  C   UNL d   1       1.664  -1.061   0.331  0.00  0.00    -0.033 A 
ATOM      2  C1  UNL d   1       0.647  -0.581   1.159  0.00  0.00     0.039 A 
ATOM      3  C2  UNL d   1      -0.330   0.273   0.645  0.00  0.00    -0.080 A 
ATOM      4  C3  UNL d   1      -0.280   0.640  -0.697  0.00  0.00     0.150 A 
ATOM      5  C4  UNL d   1       0.728   0.163  -1.529  0.00  0.00    -0.007 A 
ATOM      6  C5  UNL d   1       1.703  -0.690  -1.014  0.00  0.00     0.039 A 
ENDROOT
BRANCH   4   7
ATOM      7  O   UNL d   1      -1.208   1.475  -1.243  0.00  0.00    -0.526 OA
ATOM      8  H5  UNL d   1      -1.826   1.748  -0.544  0.00  0.00     0.418 HD
ENDBRANCH   4   7
TORSDOF 1
ENDMDL
