MODEL 1
REMARK minimizedAffinity -3.04650855
REMARK minimizedRMSD -1
REMARK  1 active torsions:
REMARK  status: ('A' for Active; 'I' for Inactive)
REMARK    1  A    between atoms: C3_4  and  O_7 
ROOT
ATOM      1  C   UNL d   1      -0.647  -0.157   1.431  0.00  0.00    -0.033 A 
ATOM      2  C1  UNL d   1       0.052  -0.262   0.227  0.00  0.00     0.039 A 
ATOM      3  C2  UNL d   1      -0.158   0.673  -0.789  0.00  0.00    -0.080 A 
ATOM      4  C3  UNL d   1      -1.069   1.707  -0.588  0.00  0.00     0.150 A 
ATOM      5  C4  UNL d   1      -1.766   1.820   0.610  0.00  0.00    -0.007 A 
ATOM      6  C5  UNL d   1      -1.555   0.885   1.623  0.00  0.00     0.039 A 
ENDROOT
BRANCH   4   7
ATOM      7  O   UNL d   1      -1.312   2.640  -1.552  0.00  0.00    -0.526 OA
ATOM      8  H5  UNL d   1      -0.781   2.419  -2.335  0.00  0.00     0.418 HD
ENDBRANCH   4   7
TORSDOF 1
ENDMDL
