MODEL 1
REMARK minimizedAffinity -2.26873517
REMARK minimizedRMSD -1
REMARK  1 active torsions:
REMARK  status: ('A' for Active; 'I' for Inactive)
REMARK    1  A    between atoms: C3_4  and  O_7 
ROOT
ATOM      1  C   UNL d   1      -0.410   0.283   0.525  0.00  0.00    -0.033 A 
ATOM      2  C1  UNL d   1       0.063   0.029  -0.764  0.00  0.00     0.039 A 
ATOM      3  C2  UNL d   1      -0.453   0.736  -1.851  0.00  0.00    -0.080 A 
ATOM      4  C3  UNL d   1      -1.440   1.695  -1.637  0.00  0.00     0.150 A 
ATOM      5  C4  UNL d   1      -1.913   1.956  -0.355  0.00  0.00    -0.007 A 
ATOM      6  C5  UNL d   1      -1.397   1.248   0.729  0.00  0.00     0.039 A 
ENDROOT
BRANCH   4   7
ATOM      7  O   UNL d   1      -1.977   2.407  -2.667  0.00  0.00    -0.526 OA
ATOM      8  H5  UNL d   1      -1.575   2.100  -3.497  0.00  0.00     0.418 HD
ENDBRANCH   4   7
TORSDOF 1
ENDMDL
