MODEL 1
REMARK minimizedAffinity -0.969152212
REMARK minimizedRMSD -1
REMARK  1 active torsions:
REMARK  status: ('A' for Active; 'I' for Inactive)
REMARK    1  A    between atoms: C3_4  and  O_7 
ROOT
ATOM      1  C   UNL d   1      -0.361   1.077  -0.499  0.00  0.00    -0.033 A 
ATOM      2  C1  UNL d   1       0.978   1.174  -0.883  0.00  0.00     0.039 A 
ATOM      3  C2  UNL d   1       1.909   0.246  -0.415  0.00  0.00    -0.080 A 
ATOM      4  C3  UNL d   1       1.490  -0.774   0.435  0.00  0.00     0.150 A 
ATOM      5  C4  UNL d   1       0.157  -0.879   0.818  0.00  0.00    -0.007 A 
ATOM      6  C5  UNL d   1      -0.772   0.049   0.351  0.00  0.00     0.039 A 
ENDROOT
BRANCH   4   7
ATOM      7  O   UNL d   1       2.363  -1.701   0.921  0.00  0.00    -0.526 OA
ATOM      8  H5  UNL d   1       3.253  -1.486   0.595  0.00  0.00     0.418 HD
ENDBRANCH   4   7
TORSDOF 1
ENDMDL
