MODEL 1
REMARK minimizedAffinity -3.60906005
REMARK minimizedRMSD -1
REMARK  1 active torsions:
REMARK  status: ('A' for Active; 'I' for Inactive)
REMARK    1  A    between atoms: C3_4  and  O_7 
ROOT
ATOM      1  C   UNL d   1       1.508   0.121  -0.589  0.00  0.00    -0.033 A 
ATOM      2  C1  UNL d   1       1.788  -0.969   0.237  0.00  0.00     0.039 A 
ATOM      3  C2  UNL d   1       0.927  -1.289   1.289  0.00  0.00    -0.080 A 
ATOM      4  C3  UNL d   1      -0.208  -0.512   1.503  0.00  0.00     0.150 A 
ATOM      5  C4  UNL d   1      -0.495   0.573   0.682  0.00  0.00    -0.007 A 
ATOM      6  C5  UNL d   1       0.366   0.891  -0.368  0.00  0.00     0.039 A 
ENDROOT
BRANCH   4   7
ATOM      7  O   UNL d   1      -1.075  -0.783   2.520  0.00  0.00    -0.526 OA
ATOM      8  H5  UNL d   1      -0.734  -1.542   3.021  0.00  0.00     0.418 HD
ENDBRANCH   4   7
TORSDOF 1
ENDMDL
