MODEL 1
REMARK minimizedAffinity -2.90252948
REMARK minimizedRMSD -1
REMARK  1 active torsions:
REMARK  status: ('A' for Active; 'I' for Inactive)
REMARK    1  A    between atoms: C3_4  and  O_7 
ROOT
ATOM      1  C   UNL d   1      -1.046   0.675  -0.825  0.00  0.00    -0.033 A 
ATOM      2  C1  UNL d   1      -0.961   0.467   0.553  0.00  0.00     0.039 A 
ATOM      3  C2  UNL d   1       0.117  -0.240   1.089  0.00  0.00    -0.080 A 
ATOM      4  C3  UNL d   1       1.102  -0.734   0.237  0.00  0.00     0.150 A 
ATOM      5  C4  UNL d   1       1.025  -0.527  -1.136  0.00  0.00    -0.007 A 
ATOM      6  C5  UNL d   1      -0.053   0.179  -1.670  0.00  0.00     0.039 A 
ENDROOT
BRANCH   4   7
ATOM      7  O   UNL d   1       2.170  -1.434   0.713  0.00  0.00    -0.526 OA
ATOM      8  H5  UNL d   1       2.075  -1.524   1.676  0.00  0.00     0.418 HD
ENDBRANCH   4   7
TORSDOF 1
ENDMDL
