MODEL 1
REMARK minimizedAffinity -3.72805476
REMARK minimizedRMSD -1
REMARK  1 active torsions:
REMARK  status: ('A' for Active; 'I' for Inactive)
REMARK    1  A    between atoms: C3_4  and  O_7 
ROOT
ATOM      1  C   UNL d   1       0.902   0.159   0.149  0.00  0.00    -0.033 A 
ATOM      2  C1  UNL d   1       1.072  -0.794  -0.858  0.00  0.00     0.039 A 
ATOM      3  C2  UNL d   1       0.210  -0.814  -1.955  0.00  0.00    -0.080 A 
ATOM      4  C3  UNL d   1      -0.816   0.123  -2.036  0.00  0.00     0.150 A 
ATOM      5  C4  UNL d   1      -0.989   1.078  -1.039  0.00  0.00    -0.007 A 
ATOM      6  C5  UNL d   1      -0.128   1.095   0.057  0.00  0.00     0.039 A 
ENDROOT
BRANCH   4   7
ATOM      7  O   UNL d   1      -1.686   0.140  -3.086  0.00  0.00    -0.526 OA
ATOM      8  H5  UNL d   1      -1.462  -0.594  -3.682  0.00  0.00     0.418 HD
ENDBRANCH   4   7
TORSDOF 1
ENDMDL
