MODEL 1
REMARK minimizedAffinity -3.28713346
REMARK minimizedRMSD -1
REMARK  1 active torsions:
REMARK  status: ('A' for Active; 'I' for Inactive)
REMARK    1  A    between atoms: C3_4  and  O_7 
ROOT
ATOM      1  C   UNL d   1      -0.288   1.392  -1.101  0.00  0.00    -0.033 A 
ATOM      2  C1  UNL d   1      -0.399   0.874   0.190  0.00  0.00     0.039 A 
ATOM      3  C2  UNL d   1       0.449  -0.154   0.608  0.00  0.00    -0.080 A 
ATOM      4  C3  UNL d   1       1.404  -0.653  -0.275  0.00  0.00     0.150 A 
ATOM      5  C4  UNL d   1       1.522  -0.139  -1.562  0.00  0.00    -0.007 A 
ATOM      6  C5  UNL d   1       0.674   0.887  -1.977  0.00  0.00     0.039 A 
ENDROOT
BRANCH   4   7
ATOM      7  O   UNL d   1       2.250  -1.659   0.086  0.00  0.00    -0.526 OA
ATOM      8  H5  UNL d   1       2.033  -1.934   0.992  0.00  0.00     0.418 HD
ENDBRANCH   4   7
TORSDOF 1
ENDMDL
