MODEL 1
REMARK minimizedAffinity -3.42494822
REMARK minimizedRMSD -1
REMARK  1 active torsions:
REMARK  status: ('A' for Active; 'I' for Inactive)
REMARK    1  A    between atoms: C3_4  and  O_7 
ROOT
ATOM      1  C   UNL d   1       1.253  -0.254  -0.114  0.00  0.00    -0.033 A 
ATOM      2  C1  UNL d   1      -0.002   0.184   0.314  0.00  0.00     0.039 A 
ATOM      3  C2  UNL d   1      -0.508  -0.235   1.545  0.00  0.00    -0.080 A 
ATOM      4  C3  UNL d   1       0.250  -1.091   2.340  0.00  0.00     0.150 A 
ATOM      5  C4  UNL d   1       1.502  -1.529   1.922  0.00  0.00    -0.007 A 
ATOM      6  C5  UNL d   1       2.005  -1.110   0.691  0.00  0.00     0.039 A 
ENDROOT
BRANCH   4   7
ATOM      7  O   UNL d   1      -0.205  -1.532   3.547  0.00  0.00    -0.526 OA
ATOM      8  H5  UNL d   1      -1.095  -1.171   3.691  0.00  0.00     0.418 HD
ENDBRANCH   4   7
TORSDOF 1
ENDMDL
