MODEL 1
REMARK minimizedAffinity -2.94441009
REMARK minimizedRMSD -1
REMARK  1 active torsions:
REMARK  status: ('A' for Active; 'I' for Inactive)
REMARK    1  A    between atoms: C3_4  and  O_7 
ROOT
ATOM      1  C   UNL d   1       2.086  -1.379   0.062  0.00  0.00    -0.033 A 
ATOM      2  C1  UNL d   1       1.849  -1.002  -1.261  0.00  0.00     0.039 A 
ATOM      3  C2  UNL d   1       0.682  -0.310  -1.593  0.00  0.00    -0.080 A 
ATOM      4  C3  UNL d   1      -0.236  -0.000  -0.593  0.00  0.00     0.150 A 
ATOM      5  C4  UNL d   1      -0.004  -0.370   0.728  0.00  0.00    -0.007 A 
ATOM      6  C5  UNL d   1       1.161  -1.061   1.057  0.00  0.00     0.039 A 
ENDROOT
BRANCH   4   7
ATOM      7  O   UNL d   1      -1.391   0.669  -0.869  0.00  0.00    -0.526 OA
ATOM      8  H5  UNL d   1      -1.430   0.834  -1.826  0.00  0.00     0.418 HD
ENDBRANCH   4   7
TORSDOF 1
ENDMDL
