MODEL 1
REMARK minimizedAffinity -3.70945239
REMARK minimizedRMSD -1
REMARK  1 active torsions:
REMARK  status: ('A' for Active; 'I' for Inactive)
REMARK    1  A    between atoms: C3_4  and  O_7 
ROOT
ATOM      1  C   UNL d   1       1.743  -0.158  -0.157  0.00  0.00    -0.033 A 
ATOM      2  C1  UNL d   1       2.120  -1.142   0.758  0.00  0.00     0.039 A 
ATOM      3  C2  UNL d   1       1.268  -1.484   1.810  0.00  0.00    -0.080 A 
ATOM      4  C3  UNL d   1       0.042  -0.836   1.933  0.00  0.00     0.150 A 
ATOM      5  C4  UNL d   1      -0.342   0.142   1.023  0.00  0.00    -0.007 A 
ATOM      6  C5  UNL d   1       0.511   0.483  -0.026  0.00  0.00     0.039 A 
ENDROOT
BRANCH   4   7
ATOM      7  O   UNL d   1      -0.822  -1.132   2.946  0.00  0.00    -0.526 OA
ATOM      8  H5  UNL d   1      -0.411  -1.806   3.514  0.00  0.00     0.418 HD
ENDBRANCH   4   7
TORSDOF 1
ENDMDL
