MODEL 1
REMARK minimizedAffinity -2.18698525
REMARK minimizedRMSD -1
REMARK  1 active torsions:
REMARK  status: ('A' for Active; 'I' for Inactive)
REMARK    1  A    between atoms: C3_4  and  O_7 
ROOT
ATOM      1  C   UNL d   1      -0.757   0.809   0.378  0.00  0.00    -0.033 A 
ATOM      2  C1  UNL d   1      -0.717  -0.042   1.484  0.00  0.00     0.039 A 
ATOM      3  C2  UNL d   1       0.361  -0.911   1.660  0.00  0.00    -0.080 A 
ATOM      4  C3  UNL d   1       1.392  -0.919   0.725  0.00  0.00     0.150 A 
ATOM      5  C4  UNL d   1       1.361  -0.071  -0.377  0.00  0.00    -0.007 A 
ATOM      6  C5  UNL d   1       0.283   0.795  -0.552  0.00  0.00     0.039 A 
ENDROOT
BRANCH   4   7
ATOM      7  O   UNL d   1       2.463  -1.753   0.851  0.00  0.00    -0.526 OA
ATOM      8  H5  UNL d   1       2.334  -2.301   1.644  0.00  0.00     0.418 HD
ENDBRANCH   4   7
TORSDOF 1
ENDMDL
