MODEL 1
REMARK minimizedAffinity 9.76031303
REMARK minimizedRMSD -1
REMARK  1 active torsions:
REMARK  status: ('A' for Active; 'I' for Inactive)
REMARK    1  A    between atoms: C3_4  and  O_7 
ROOT
ATOM      1  C   UNL d   1      -2.875   0.681   0.148  0.00  0.00    -0.033 A 
ATOM      2  C1  UNL d   1      -3.493   0.870  -1.089  0.00  0.00     0.039 A 
ATOM      3  C2  UNL d   1      -2.893   1.681  -2.055  0.00  0.00    -0.080 A 
ATOM      4  C3  UNL d   1      -1.677   2.295  -1.772  0.00  0.00     0.150 A 
ATOM      5  C4  UNL d   1      -1.053   2.108  -0.543  0.00  0.00    -0.007 A 
ATOM      6  C5  UNL d   1      -1.654   1.299   0.421  0.00  0.00     0.039 A 
ENDROOT
BRANCH   4   7
ATOM      7  O   UNL d   1      -1.055   3.099  -2.681  0.00  0.00    -0.526 OA
ATOM      8  H5  UNL d   1      -1.616   3.158  -3.473  0.00  0.00     0.418 HD
ENDBRANCH   4   7
TORSDOF 1
ENDMDL
