MODEL 1
REMARK minimizedAffinity -0.382849604
REMARK minimizedRMSD -1
REMARK  0 active torsions:
REMARK  status: ('A' for Active; 'I' for Inactive)
ROOT
ATOM      1  C   UNL d   1      -4.016   0.045  -4.868  0.00  0.00     0.078 C 
ATOM      2  C1  UNL d   1      -3.046   1.095  -4.416  0.00  0.00    -0.077 A 
ATOM      3  C2  UNL d   1      -3.291   1.855  -3.265  0.00  0.00    -0.001 A 
ATOM      4  C3  UNL d   1      -2.385   2.836  -2.861  0.00  0.00     0.003 A 
ATOM      5  C4  UNL d   1      -1.227   3.067  -3.602  0.00  0.00    -0.005 A 
ATOM      6  C5  UNL d   1      -0.976   2.318  -4.749  0.00  0.00     0.003 A 
ATOM      7  C6  UNL d   1      -1.882   1.336  -5.155  0.00  0.00    -0.001 A 
ENDROOT
TORSDOF 0
ENDMDL
