MODEL 1
REMARK minimizedAffinity -3.5113802
REMARK minimizedRMSD -1
REMARK  0 active torsions:
REMARK  status: ('A' for Active; 'I' for Inactive)
ROOT
ATOM      1  C   UNL d   1       2.367   5.962   4.008  0.00  0.00     0.078 C 
ATOM      2  C1  UNL d   1       3.610   5.373   3.412  0.00  0.00    -0.077 A 
ATOM      3  C2  UNL d   1       4.853   6.000   3.569  0.00  0.00    -0.001 A 
ATOM      4  C3  UNL d   1       6.000   5.445   3.000  0.00  0.00     0.003 A 
ATOM      5  C4  UNL d   1       5.916   4.261   2.269  0.00  0.00    -0.005 A 
ATOM      6  C5  UNL d   1       4.684   3.631   2.106  0.00  0.00     0.003 A 
ATOM      7  C6  UNL d   1       3.536   4.185   2.674  0.00  0.00    -0.001 A 
ENDROOT
TORSDOF 0
ENDMDL
