MODEL 1
REMARK minimizedAffinity 0.679977477
REMARK minimizedRMSD -1
REMARK  0 active torsions:
REMARK  status: ('A' for Active; 'I' for Inactive)
ROOT
ATOM      1  C   UNL d   1      -1.736  -3.047   3.649  0.00  0.00     0.078 C 
ATOM      2  C1  UNL d   1      -0.771  -2.336   2.748  0.00  0.00    -0.077 A 
ATOM      3  C2  UNL d   1      -0.871  -0.957   2.528  0.00  0.00    -0.001 A 
ATOM      4  C3  UNL d   1       0.029  -0.311   1.679  0.00  0.00     0.003 A 
ATOM      5  C4  UNL d   1       1.034  -1.035   1.042  0.00  0.00    -0.005 A 
ATOM      6  C5  UNL d   1       1.141  -2.408   1.253  0.00  0.00     0.003 A 
ATOM      7  C6  UNL d   1       0.242  -3.057   2.102  0.00  0.00    -0.001 A 
ENDROOT
TORSDOF 0
ENDMDL
