MODEL 1
REMARK minimizedAffinity 1.41555226
REMARK minimizedRMSD -1
REMARK  0 active torsions:
REMARK  status: ('A' for Active; 'I' for Inactive)
ROOT
ATOM      1  C   UNL d   1      -0.568   0.286   1.480  0.00  0.00     0.078 C 
ATOM      2  C1  UNL d   1      -0.172  -1.129   1.782  0.00  0.00    -0.077 A 
ATOM      3  C2  UNL d   1       0.878  -1.747   1.092  0.00  0.00    -0.001 A 
ATOM      4  C3  UNL d   1       1.229  -3.067   1.378  0.00  0.00     0.003 A 
ATOM      5  C4  UNL d   1       0.535  -3.781   2.353  0.00  0.00    -0.005 A 
ATOM      6  C5  UNL d   1      -0.513  -3.175   3.043  0.00  0.00     0.003 A 
ATOM      7  C6  UNL d   1      -0.866  -1.854   2.759  0.00  0.00    -0.001 A 
ENDROOT
TORSDOF 0
ENDMDL
