MODEL 1
REMARK minimizedAffinity 4.16484118
REMARK minimizedRMSD -1
REMARK  0 active torsions:
REMARK  status: ('A' for Active; 'I' for Inactive)
ROOT
ATOM      1  C   UNL d   1       1.810  -3.768   2.280  0.00  0.00     0.078 C 
ATOM      2  C1  UNL d   1       2.710  -3.982   3.460  0.00  0.00    -0.077 A 
ATOM      3  C2  UNL d   1       3.310  -5.226   3.692  0.00  0.00    -0.001 A 
ATOM      4  C3  UNL d   1       4.138  -5.414   4.800  0.00  0.00     0.003 A 
ATOM      5  C4  UNL d   1       4.372  -4.364   5.685  0.00  0.00    -0.005 A 
ATOM      6  C5  UNL d   1       3.777  -3.123   5.464  0.00  0.00     0.003 A 
ATOM      7  C6  UNL d   1       2.949  -2.933   4.356  0.00  0.00    -0.001 A 
ENDROOT
TORSDOF 0
ENDMDL
