MODEL 1
REMARK minimizedAffinity -3.21722817
REMARK minimizedRMSD -1
REMARK  0 active torsions:
REMARK  status: ('A' for Active; 'I' for Inactive)
ROOT
ATOM      1  C   UNL d   1       2.099  -3.723   1.525  0.00  0.00     0.078 C 
ATOM      2  C1  UNL d   1       1.066  -2.661   1.762  0.00  0.00    -0.077 A 
ATOM      3  C2  UNL d   1       0.335  -2.621   2.956  0.00  0.00    -0.001 A 
ATOM      4  C3  UNL d   1      -0.630  -1.633   3.160  0.00  0.00     0.003 A 
ATOM      5  C4  UNL d   1      -0.873  -0.679   2.174  0.00  0.00    -0.005 A 
ATOM      6  C5  UNL d   1      -0.152  -0.712   0.982  0.00  0.00     0.003 A 
ATOM      7  C6  UNL d   1       0.813  -1.700   0.776  0.00  0.00    -0.001 A 
ENDROOT
TORSDOF 0
ENDMDL
