MODEL 1
REMARK minimizedAffinity -2.37122416
REMARK minimizedRMSD -1
REMARK  0 active torsions:
REMARK  status: ('A' for Active; 'I' for Inactive)
ROOT
ATOM      1  C   UNL d   1       5.981   5.683   1.966  0.00  0.00     0.078 C 
ATOM      2  C1  UNL d   1       4.722   5.143   2.576  0.00  0.00    -0.077 A 
ATOM      3  C2  UNL d   1       3.773   6.000   3.148  0.00  0.00    -0.001 A 
ATOM      4  C3  UNL d   1       2.611   5.483   3.721  0.00  0.00     0.003 A 
ATOM      5  C4  UNL d   1       2.386   4.107   3.729  0.00  0.00    -0.005 A 
ATOM      6  C5  UNL d   1       3.326   3.247   3.165  0.00  0.00     0.003 A 
ATOM      7  C6  UNL d   1       4.489   3.762   2.591  0.00  0.00    -0.001 A 
ENDROOT
TORSDOF 0
ENDMDL
