MODEL 1
REMARK minimizedAffinity -2.32849383
REMARK minimizedRMSD -1
REMARK  0 active torsions:
REMARK  status: ('A' for Active; 'I' for Inactive)
ROOT
ATOM      1  C   UNL d   1      -2.251  -0.172   0.756  0.00  0.00     0.078 C 
ATOM      2  C1  UNL d   1      -0.919  -0.788   1.065  0.00  0.00    -0.077 A 
ATOM      3  C2  UNL d   1       0.064  -0.914   0.075  0.00  0.00    -0.001 A 
ATOM      4  C3  UNL d   1       1.295  -1.498   0.374  0.00  0.00     0.003 A 
ATOM      5  C4  UNL d   1       1.556  -1.962   1.662  0.00  0.00    -0.005 A 
ATOM      6  C5  UNL d   1       0.583  -1.843   2.652  0.00  0.00     0.003 A 
ATOM      7  C6  UNL d   1      -0.649  -1.259   2.356  0.00  0.00    -0.001 A 
ENDROOT
TORSDOF 0
ENDMDL
