MODEL 1
REMARK minimizedAffinity -3.63868761
REMARK minimizedRMSD -1
REMARK  0 active torsions:
REMARK  status: ('A' for Active; 'I' for Inactive)
ROOT
ATOM      1  C   UNL d   1       5.995   5.616   1.490  0.00  0.00     0.078 C 
ATOM      2  C1  UNL d   1       5.130   5.628   2.715  0.00  0.00    -0.077 A 
ATOM      3  C2  UNL d   1       5.650   6.000   3.961  0.00  0.00    -0.001 A 
ATOM      4  C3  UNL d   1       4.836   5.998   5.095  0.00  0.00     0.003 A 
ATOM      5  C4  UNL d   1       3.497   5.623   4.994  0.00  0.00    -0.005 A 
ATOM      6  C5  UNL d   1       2.972   5.250   3.759  0.00  0.00     0.003 A 
ATOM      7  C6  UNL d   1       3.784   5.252   2.624  0.00  0.00    -0.001 A 
ENDROOT
TORSDOF 0
ENDMDL
