MODEL 1
REMARK minimizedAffinity 0.223453671
REMARK minimizedRMSD -1
REMARK  0 active torsions:
REMARK  status: ('A' for Active; 'I' for Inactive)
ROOT
ATOM      1  C   UNL d   1      -0.029  -1.735   3.585  0.00  0.00     0.078 C 
ATOM      2  C1  UNL d   1      -0.596  -1.239   2.289  0.00  0.00    -0.077 A 
ATOM      3  C2  UNL d   1      -1.828  -0.576   2.247  0.00  0.00    -0.001 A 
ATOM      4  C3  UNL d   1      -2.349  -0.128   1.032  0.00  0.00     0.003 A 
ATOM      5  C4  UNL d   1      -1.643  -0.339  -0.151  0.00  0.00    -0.005 A 
ATOM      6  C5  UNL d   1      -0.417  -1.000  -0.120  0.00  0.00     0.003 A 
ATOM      7  C6  UNL d   1       0.105  -1.448   1.094  0.00  0.00    -0.001 A 
ENDROOT
TORSDOF 0
ENDMDL
