MODEL 1
REMARK minimizedAffinity -2.99467921
REMARK minimizedRMSD -1
REMARK  0 active torsions:
REMARK  status: ('A' for Active; 'I' for Inactive)
ROOT
ATOM      1  C   UNL d   1      -0.068   0.437   0.370  0.00  0.00     0.078 C 
ATOM      2  C1  UNL d   1       0.258  -0.902   0.961  0.00  0.00    -0.077 A 
ATOM      3  C2  UNL d   1       1.051  -1.824   0.266  0.00  0.00    -0.001 A 
ATOM      4  C3  UNL d   1       1.338  -3.070   0.825  0.00  0.00     0.003 A 
ATOM      5  C4  UNL d   1       0.835  -3.407   2.080  0.00  0.00    -0.005 A 
ATOM      6  C5  UNL d   1       0.044  -2.497   2.778  0.00  0.00     0.003 A 
ATOM      7  C6  UNL d   1      -0.244  -1.250   2.221  0.00  0.00    -0.001 A 
ENDROOT
TORSDOF 0
ENDMDL
