MODEL 1
REMARK minimizedAffinity -2.89091754
REMARK minimizedRMSD -1
REMARK  0 active torsions:
REMARK  status: ('A' for Active; 'I' for Inactive)
ROOT
ATOM      1  C   UNL d   1       1.548  -4.273   1.649  0.00  0.00     0.078 C 
ATOM      2  C1  UNL d   1       0.620  -3.111   1.832  0.00  0.00    -0.077 A 
ATOM      3  C2  UNL d   1       0.466  -2.146   0.829  0.00  0.00    -0.001 A 
ATOM      4  C3  UNL d   1      -0.395  -1.063   1.016  0.00  0.00     0.003 A 
ATOM      5  C4  UNL d   1      -1.108  -0.934   2.206  0.00  0.00    -0.005 A 
ATOM      6  C5  UNL d   1      -0.960  -1.888   3.211  0.00  0.00     0.003 A 
ATOM      7  C6  UNL d   1      -0.100  -2.971   3.025  0.00  0.00    -0.001 A 
ENDROOT
TORSDOF 0
ENDMDL
