MODEL 1
REMARK minimizedAffinity 0.195089921
REMARK minimizedRMSD -1
REMARK  0 active torsions:
REMARK  status: ('A' for Active; 'I' for Inactive)
ROOT
ATOM      1  C   UNL d   1       2.000   0.447   0.682  0.00  0.00     0.078 C 
ATOM      2  C1  UNL d   1       0.585   0.068   1.004  0.00  0.00    -0.077 A 
ATOM      3  C2  UNL d   1       0.272  -0.608   2.190  0.00  0.00    -0.001 A 
ATOM      4  C3  UNL d   1      -1.048  -0.963   2.472  0.00  0.00     0.003 A 
ATOM      5  C4  UNL d   1      -2.065  -0.649   1.572  0.00  0.00    -0.005 A 
ATOM      6  C5  UNL d   1      -1.762   0.021   0.388  0.00  0.00     0.003 A 
ATOM      7  C6  UNL d   1      -0.443   0.377   0.105  0.00  0.00    -0.001 A 
ENDROOT
TORSDOF 0
ENDMDL
