MODEL 1
REMARK minimizedAffinity 1.23381996
REMARK minimizedRMSD -1
REMARK  1 active torsions:
REMARK  status: ('A' for Active; 'I' for Inactive)
REMARK    1  A    between atoms: N_2  and  C1_3 
ROOT
ATOM      1  C1  UNL d   1      -1.221   1.346   0.883  0.00  0.00     0.143 A 
ATOM      2  C2  UNL d   1      -1.989   0.291   1.387  0.00  0.00    -0.057 A 
ATOM      3  C3  UNL d   1      -3.355   0.185   1.097  0.00  0.00     0.033 A 
ATOM      4  C4  UNL d   1      -3.985   1.151   0.320  0.00  0.00    -0.042 A 
ATOM      5  C5  UNL d   1      -3.246   2.222  -0.171  0.00  0.00     0.033 A 
ATOM      6  C6  UNL d   1      -1.881   2.319   0.116  0.00  0.00    -0.057 A 
ENDROOT
BRANCH   1   7
ATOM      7  N   UNL d   1       0.119   1.561   1.216  0.00  0.00    -0.732 N 
ATOM      8  C   UNL d   1       1.061   2.021   0.219  0.00  0.00     0.284 C 
ATOM      9  H3  UNL d   1       0.227   2.004   2.126  0.00  0.00     0.395 HD
ENDBRANCH   1   7
TORSDOF 1
ENDMDL
