MODEL 1
REMARK minimizedAffinity 0.195478737
REMARK minimizedRMSD -1
REMARK  1 active torsions:
REMARK  status: ('A' for Active; 'I' for Inactive)
REMARK    1  A    between atoms: N_2  and  C1_3 
ROOT
ATOM      1  C1  UNL d   1      -2.131   1.619   0.010  0.00  0.00     0.143 A 
ATOM      2  C2  UNL d   1      -1.007   2.450  -0.044  0.00  0.00    -0.057 A 
ATOM      3  C3  UNL d   1       0.216   2.054   0.509  0.00  0.00     0.033 A 
ATOM      4  C4  UNL d   1       0.330   0.826   1.154  0.00  0.00    -0.042 A 
ATOM      5  C5  UNL d   1      -0.780  -0.006   1.241  0.00  0.00     0.033 A 
ATOM      6  C6  UNL d   1      -1.998   0.393   0.681  0.00  0.00    -0.057 A 
ENDROOT
BRANCH   1   7
ATOM      7  N   UNL d   1      -3.400   1.997  -0.434  0.00  0.00    -0.732 N 
ATOM      8  C   UNL d   1      -4.590   1.503   0.226  0.00  0.00     0.284 C 
ATOM      9  H3  UNL d   1      -3.445   2.981  -0.689  0.00  0.00     0.395 HD
ENDBRANCH   1   7
TORSDOF 1
ENDMDL
