MODEL 1
REMARK minimizedAffinity 0.323904365
REMARK minimizedRMSD -1
REMARK  1 active torsions:
REMARK  status: ('A' for Active; 'I' for Inactive)
REMARK    1  A    between atoms: N_2  and  C1_3 
ROOT
ATOM      1  C1  UNL d   1      -0.783   1.222   1.243  0.00  0.00     0.143 A 
ATOM      2  C2  UNL d   1      -1.672   0.154   1.399  0.00  0.00    -0.057 A 
ATOM      3  C3  UNL d   1      -2.966   0.203   0.865  0.00  0.00     0.033 A 
ATOM      4  C4  UNL d   1      -3.404   1.337   0.189  0.00  0.00    -0.042 A 
ATOM      5  C5  UNL d   1      -2.545   2.421   0.044  0.00  0.00     0.033 A 
ATOM      6  C6  UNL d   1      -1.252   2.363   0.573  0.00  0.00    -0.057 A 
ENDROOT
BRANCH   1   7
ATOM      7  N   UNL d   1       0.482   1.274   1.835  0.00  0.00    -0.732 N 
ATOM      8  C   UNL d   1       1.677   1.302   1.019  0.00  0.00     0.284 C 
ATOM      9  H3  UNL d   1       0.511   1.901   2.636  0.00  0.00     0.395 HD
ENDBRANCH   1   7
TORSDOF 1
ENDMDL
