MODEL 1
REMARK minimizedAffinity 5.70067835
REMARK minimizedRMSD -1
REMARK  1 active torsions:
REMARK  status: ('A' for Active; 'I' for Inactive)
REMARK    1  A    between atoms: N_2  and  C1_3 
ROOT
ATOM      1  C1  UNL d   1       1.036   1.477   1.170  0.00  0.00     0.143 A 
ATOM      2  C2  UNL d   1       1.584   2.763   1.196  0.00  0.00    -0.057 A 
ATOM      3  C3  UNL d   1       1.063   3.759   2.031  0.00  0.00     0.033 A 
ATOM      4  C4  UNL d   1      -0.040   3.492   2.836  0.00  0.00    -0.042 A 
ATOM      5  C5  UNL d   1      -0.617   2.227   2.808  0.00  0.00     0.033 A 
ATOM      6  C6  UNL d   1      -0.087   1.236   1.977  0.00  0.00    -0.057 A 
ENDROOT
BRANCH   1   7
ATOM      7  N   UNL d   1       1.447   0.473   0.289  0.00  0.00    -0.732 N 
ATOM      8  C   UNL d   1       1.838   0.796  -1.066  0.00  0.00     0.284 C 
ATOM      9  H3  UNL d   1       2.042  -0.218   0.739  0.00  0.00     0.395 HD
ENDBRANCH   1   7
TORSDOF 1
ENDMDL
