MODEL 1
REMARK minimizedAffinity 2.96660018
REMARK minimizedRMSD -1
REMARK  1 active torsions:
REMARK  status: ('A' for Active; 'I' for Inactive)
REMARK    1  A    between atoms: N_2  and  C1_3 
ROOT
ATOM      1  C1  UNL d   1      -0.277   2.451   2.006  0.00  0.00     0.143 A 
ATOM      2  C2  UNL d   1       0.834   2.987   2.665  0.00  0.00    -0.057 A 
ATOM      3  C3  UNL d   1       2.130   2.527   2.397  0.00  0.00     0.033 A 
ATOM      4  C4  UNL d   1       2.334   1.499   1.483  0.00  0.00    -0.042 A 
ATOM      5  C5  UNL d   1       1.242   0.933   0.835  0.00  0.00     0.033 A 
ATOM      6  C6  UNL d   1      -0.049   1.401   1.102  0.00  0.00    -0.057 A 
ENDROOT
BRANCH   1   7
ATOM      7  N   UNL d   1      -1.598   2.797   2.300  0.00  0.00    -0.732 N 
ATOM      8  C   UNL d   1      -1.895   3.730   3.366  0.00  0.00     0.284 C 
ATOM      9  H3  UNL d   1      -2.161   2.929   1.463  0.00  0.00     0.395 HD
ENDBRANCH   1   7
TORSDOF 1
ENDMDL
