MODEL 1
REMARK minimizedAffinity 1.32272315
REMARK minimizedRMSD -1
REMARK  1 active torsions:
REMARK  status: ('A' for Active; 'I' for Inactive)
REMARK    1  A    between atoms: N_2  and  C1_3 
ROOT
ATOM      1  C1  UNL d   1       1.792   4.931   1.847  0.00  0.00     0.143 A 
ATOM      2  C2  UNL d   1       1.901   4.644   3.212  0.00  0.00    -0.057 A 
ATOM      3  C3  UNL d   1       1.125   3.644   3.808  0.00  0.00     0.033 A 
ATOM      4  C4  UNL d   1       0.201   2.929   3.053  0.00  0.00    -0.042 A 
ATOM      5  C5  UNL d   1       0.057   3.214   1.700  0.00  0.00     0.033 A 
ATOM      6  C6  UNL d   1       0.841   4.210   1.108  0.00  0.00    -0.057 A 
ENDROOT
BRANCH   1   7
ATOM      7  N   UNL d   1       2.465   5.980   1.216  0.00  0.00    -0.732 N 
ATOM      8  C   UNL d   1       3.911   5.995   1.151  0.00  0.00     0.284 C 
ATOM      9  H3  UNL d   1       2.008   6.274   0.356  0.00  0.00     0.395 HD
ENDBRANCH   1   7
TORSDOF 1
ENDMDL
