MODEL 1
REMARK minimizedAffinity -3.03723502
REMARK minimizedRMSD -1
REMARK  1 active torsions:
REMARK  status: ('A' for Active; 'I' for Inactive)
REMARK    1  A    between atoms: N_2  and  C1_3 
ROOT
ATOM      1  C1  UNL d   1      -0.913   1.312   1.004  0.00  0.00     0.143 A 
ATOM      2  C2  UNL d   1      -0.544   2.079   2.114  0.00  0.00    -0.057 A 
ATOM      3  C3  UNL d   1       0.796   2.199   2.502  0.00  0.00     0.033 A 
ATOM      4  C4  UNL d   1       1.792   1.528   1.800  0.00  0.00    -0.042 A 
ATOM      5  C5  UNL d   1       1.446   0.739   0.708  0.00  0.00     0.033 A 
ATOM      6  C6  UNL d   1       0.107   0.629   0.323  0.00  0.00    -0.057 A 
ENDROOT
BRANCH   1   7
ATOM      7  N   UNL d   1      -2.237   1.074   0.628  0.00  0.00    -0.732 N 
ATOM      8  C   UNL d   1      -2.604  -0.158  -0.038  0.00  0.00     0.284 C 
ATOM      9  H3  UNL d   1      -2.902   1.378   1.335  0.00  0.00     0.395 HD
ENDBRANCH   1   7
TORSDOF 1
ENDMDL
