MODEL 1
REMARK minimizedAffinity 5.51826239
REMARK minimizedRMSD -1
REMARK  1 active torsions:
REMARK  status: ('A' for Active; 'I' for Inactive)
REMARK    1  A    between atoms: N_2  and  C1_3 
ROOT
ATOM      1  C1  UNL d   1       0.689   1.649  -0.538  0.00  0.00     0.143 A 
ATOM      2  C2  UNL d   1       1.959   1.065  -0.603  0.00  0.00    -0.057 A 
ATOM      3  C3  UNL d   1       2.666   0.995  -1.810  0.00  0.00     0.033 A 
ATOM      4  C4  UNL d   1       2.100   1.484  -2.983  0.00  0.00    -0.042 A 
ATOM      5  C5  UNL d   1       0.829   2.046  -2.947  0.00  0.00     0.033 A 
ATOM      6  C6  UNL d   1       0.131   2.119  -1.738  0.00  0.00    -0.057 A 
ENDROOT
BRANCH   1   7
ATOM      7  N   UNL d   1      -0.104   1.660   0.611  0.00  0.00    -0.732 N 
ATOM      8  C   UNL d   1      -1.129   0.657   0.809  0.00  0.00     0.284 C 
ATOM      9  H3  UNL d   1       0.429   1.880   1.449  0.00  0.00     0.395 HD
ENDBRANCH   1   7
TORSDOF 1
ENDMDL
