MODEL 1
REMARK minimizedAffinity 9.39963245
REMARK minimizedRMSD -1
REMARK  1 active torsions:
REMARK  status: ('A' for Active; 'I' for Inactive)
REMARK    1  A    between atoms: N_2  and  C1_3 
ROOT
ATOM      1  C1  UNL d   1       0.051   1.859   1.719  0.00  0.00     0.143 A 
ATOM      2  C2  UNL d   1       0.279   0.773   0.867  0.00  0.00    -0.057 A 
ATOM      3  C3  UNL d   1       1.565   0.251   0.683  0.00  0.00     0.033 A 
ATOM      4  C4  UNL d   1       2.654   0.826   1.328  0.00  0.00    -0.042 A 
ATOM      5  C5  UNL d   1       2.456   1.922   2.161  0.00  0.00     0.033 A 
ATOM      6  C6  UNL d   1       1.168   2.434   2.345  0.00  0.00    -0.057 A 
ENDROOT
BRANCH   1   7
ATOM      7  N   UNL d   1      -1.188   2.485   1.867  0.00  0.00    -0.732 N 
ATOM      8  C   UNL d   1      -1.497   3.235   3.066  0.00  0.00     0.284 C 
ATOM      9  H3  UNL d   1      -1.506   2.926   1.008  0.00  0.00     0.395 HD
ENDBRANCH   1   7
TORSDOF 1
ENDMDL
