MODEL 1
REMARK minimizedAffinity 1.78815866
REMARK minimizedRMSD -1
REMARK  1 active torsions:
REMARK  status: ('A' for Active; 'I' for Inactive)
REMARK    1  A    between atoms: N_2  and  C1_3 
ROOT
ATOM      1  C1  UNL d   1      -0.808   1.063   1.020  0.00  0.00     0.143 A 
ATOM      2  C2  UNL d   1       0.550   0.902   0.724  0.00  0.00    -0.057 A 
ATOM      3  C3  UNL d   1       1.534   1.622   1.412  0.00  0.00     0.033 A 
ATOM      4  C4  UNL d   1       1.173   2.541   2.392  0.00  0.00    -0.042 A 
ATOM      5  C5  UNL d   1      -0.172   2.736   2.685  0.00  0.00     0.033 A 
ATOM      6  C6  UNL d   1      -1.149   2.009   1.999  0.00  0.00    -0.057 A 
ENDROOT
BRANCH   1   7
ATOM      7  N   UNL d   1      -1.838   0.449   0.303  0.00  0.00    -0.732 N 
ATOM      8  C   UNL d   1      -2.645  -0.586   0.914  0.00  0.00     0.284 C 
ATOM      9  H3  UNL d   1      -2.367   1.110  -0.261  0.00  0.00     0.395 HD
ENDBRANCH   1   7
TORSDOF 1
ENDMDL
