MODEL 1
REMARK minimizedAffinity 15.3074589
REMARK minimizedRMSD -1
REMARK  1 active torsions:
REMARK  status: ('A' for Active; 'I' for Inactive)
REMARK    1  A    between atoms: C1_2  and  C2_3 
ROOT
ATOM      1  C2  UNL d   1       2.621   0.793  -0.186  0.00  0.00    -0.073 A 
ATOM      2  C3  UNL d   1       2.409  -0.583  -0.324  0.00  0.00    -0.002 A 
ATOM      3  C4  UNL d   1       1.748  -1.086  -1.446  0.00  0.00     0.004 A 
ATOM      4  C5  UNL d   1       1.300  -0.220  -2.443  0.00  0.00    -0.004 A 
ATOM      5  C6  UNL d   1       1.512   1.158  -2.329  0.00  0.00    -0.075 A 
ATOM      6  C7  UNL d   1       1.034   2.102  -3.392  0.00  0.00     0.076 C 
ATOM      7  C8  UNL d   1       2.174   1.655  -1.198  0.00  0.00     0.001 A 
ENDROOT
BRANCH   1   8
ATOM      8  C1  UNL d   1       3.339   1.340   1.020  0.00  0.00     0.053 C 
ATOM      9  C   UNL d   1       2.502   2.368   1.765  0.00  0.00     0.018 C 
ENDBRANCH   1   8
TORSDOF 1
ENDMDL
