MODEL 1
REMARK minimizedAffinity 14.3428259
REMARK minimizedRMSD -1
REMARK  1 active torsions:
REMARK  status: ('A' for Active; 'I' for Inactive)
REMARK    1  A    between atoms: C1_2  and  C2_3 
ROOT
ATOM      1  C2  UNL d   1       2.924  -0.499  -0.698  0.00  0.00    -0.073 A 
ATOM      2  C3  UNL d   1       1.828  -0.150  -1.496  0.00  0.00    -0.002 A 
ATOM      3  C4  UNL d   1       1.021  -1.141  -2.056  0.00  0.00     0.004 A 
ATOM      4  C5  UNL d   1       1.296  -2.488  -1.820  0.00  0.00    -0.004 A 
ATOM      5  C6  UNL d   1       2.379  -2.856  -1.016  0.00  0.00    -0.075 A 
ATOM      6  C7  UNL d   1       2.690  -4.300  -0.753  0.00  0.00     0.076 C 
ATOM      7  C8  UNL d   1       3.187  -1.855  -0.458  0.00  0.00     0.001 A 
ENDROOT
BRANCH   1   8
ATOM      8  C1  UNL d   1       3.794   0.567  -0.085  0.00  0.00     0.053 C 
ATOM      9  C   UNL d   1       3.813   1.838  -0.920  0.00  0.00     0.018 C 
ENDBRANCH   1   8
TORSDOF 1
ENDMDL
