MODEL 1
REMARK minimizedAffinity 10.1218042
REMARK minimizedRMSD -1
REMARK  1 active torsions:
REMARK  status: ('A' for Active; 'I' for Inactive)
REMARK    1  A    between atoms: C1_2  and  C2_3 
ROOT
ATOM      1  C2  UNL d   1       2.675   1.939   3.223  0.00  0.00    -0.073 A 
ATOM      2  C3  UNL d   1       2.381   0.805   3.988  0.00  0.00    -0.002 A 
ATOM      3  C4  UNL d   1       2.579   0.816   5.370  0.00  0.00     0.004 A 
ATOM      4  C5  UNL d   1       3.066   1.962   6.000  0.00  0.00    -0.004 A 
ATOM      5  C6  UNL d   1       3.354   3.109   5.253  0.00  0.00    -0.075 A 
ATOM      6  C7  UNL d   1       3.881   4.348   5.916  0.00  0.00     0.076 C 
ATOM      7  C8  UNL d   1       3.155   3.089   3.866  0.00  0.00     0.001 A 
ENDROOT
BRANCH   1   8
ATOM      8  C1  UNL d   1       2.456   1.934   1.732  0.00  0.00     0.053 C 
ATOM      9  C   UNL d   1       3.767   1.878   0.964  0.00  0.00     0.018 C 
ENDBRANCH   1   8
TORSDOF 1
ENDMDL
