MODEL 1
REMARK minimizedAffinity 11.6297741
REMARK minimizedRMSD -1
REMARK  1 active torsions:
REMARK  status: ('A' for Active; 'I' for Inactive)
REMARK    1  A    between atoms: C1_2  and  C2_3 
ROOT
ATOM      1  C2  UNL d   1       4.518  -4.788  -1.814  0.00  0.00    -0.073 A 
ATOM      2  C3  UNL d   1       3.784  -5.979  -1.806  0.00  0.00    -0.002 A 
ATOM      3  C4  UNL d   1       2.478  -5.999  -1.315  0.00  0.00     0.004 A 
ATOM      4  C5  UNL d   1       1.891  -4.829  -0.835  0.00  0.00    -0.004 A 
ATOM      5  C6  UNL d   1       2.604  -3.626  -0.846  0.00  0.00    -0.075 A 
ATOM      6  C7  UNL d   1       1.987  -2.359  -0.331  0.00  0.00     0.076 C 
ATOM      7  C8  UNL d   1       3.916  -3.615  -1.338  0.00  0.00     0.001 A 
ENDROOT
BRANCH   1   8
ATOM      8  C1  UNL d   1       5.926  -4.760  -2.349  0.00  0.00     0.053 C 
ATOM      9  C   UNL d   1       5.992  -5.195  -3.805  0.00  0.00     0.018 C 
ENDBRANCH   1   8
TORSDOF 1
ENDMDL
