MODEL 1
REMARK minimizedAffinity 8.42695141
REMARK minimizedRMSD -1
REMARK  1 active torsions:
REMARK  status: ('A' for Active; 'I' for Inactive)
REMARK    1  A    between atoms: C1_2  and  C2_3 
ROOT
ATOM      1  C2  UNL d   1       1.053   1.940   1.694  0.00  0.00    -0.073 A 
ATOM      2  C3  UNL d   1       0.528   0.643   1.650  0.00  0.00    -0.002 A 
ATOM      3  C4  UNL d   1      -0.775   0.395   2.085  0.00  0.00     0.004 A 
ATOM      4  C5  UNL d   1      -1.567   1.440   2.562  0.00  0.00    -0.004 A 
ATOM      5  C6  UNL d   1      -1.064   2.745   2.602  0.00  0.00    -0.075 A 
ATOM      6  C7  UNL d   1      -1.902   3.879   3.113  0.00  0.00     0.076 C 
ATOM      7  C8  UNL d   1       0.246   2.985   2.166  0.00  0.00     0.001 A 
ENDROOT
BRANCH   1   8
ATOM      8  C1  UNL d   1       2.457   2.213   1.219  0.00  0.00     0.053 C 
ATOM      9  C   UNL d   1       2.916   1.199   0.183  0.00  0.00     0.018 C 
ENDBRANCH   1   8
TORSDOF 1
ENDMDL
