MODEL 1
REMARK minimizedAffinity 2.27328801
REMARK minimizedRMSD -1
REMARK  1 active torsions:
REMARK  status: ('A' for Active; 'I' for Inactive)
REMARK    1  A    between atoms: C1_2  and  C2_3 
ROOT
ATOM      1  C2  UNL d   1       1.416  -1.568  -1.050  0.00  0.00    -0.073 A 
ATOM      2  C3  UNL d   1       2.618  -1.361  -0.364  0.00  0.00    -0.002 A 
ATOM      3  C4  UNL d   1       3.346  -0.186  -0.556  0.00  0.00     0.004 A 
ATOM      4  C5  UNL d   1       2.877   0.795  -1.429  0.00  0.00    -0.004 A 
ATOM      5  C6  UNL d   1       1.672   0.612  -2.115  0.00  0.00    -0.075 A 
ATOM      6  C7  UNL d   1       1.155   1.658  -3.059  0.00  0.00     0.076 C 
ATOM      7  C8  UNL d   1       0.948  -0.571  -1.918  0.00  0.00     0.001 A 
ENDROOT
BRANCH   1   8
ATOM      8  C1  UNL d   1       0.623  -2.832  -0.841  0.00  0.00     0.053 C 
ATOM      9  C   UNL d   1      -0.485  -2.987  -1.870  0.00  0.00     0.018 C 
ENDBRANCH   1   8
TORSDOF 1
ENDMDL
