MODEL 1
REMARK minimizedAffinity 1.82556307
REMARK minimizedRMSD -1
REMARK  1 active torsions:
REMARK  status: ('A' for Active; 'I' for Inactive)
REMARK    1  A    between atoms: C1_2  and  C2_3 
ROOT
ATOM      1  C2  UNL d   1       2.520   1.850   2.371  0.00  0.00    -0.073 A 
ATOM      2  C3  UNL d   1       1.778   0.675   2.535  0.00  0.00    -0.002 A 
ATOM      3  C4  UNL d   1       1.378   0.264   3.807  0.00  0.00     0.004 A 
ATOM      4  C5  UNL d   1       1.710   1.027   4.927  0.00  0.00    -0.004 A 
ATOM      5  C6  UNL d   1       2.441   2.210   4.783  0.00  0.00    -0.075 A 
ATOM      6  C7  UNL d   1       2.807   3.041   5.978  0.00  0.00     0.076 C 
ATOM      7  C8  UNL d   1       2.840   2.615   3.502  0.00  0.00     0.001 A 
ENDROOT
BRANCH   1   8
ATOM      8  C1  UNL d   1       2.947   2.301   0.999  0.00  0.00     0.053 C 
ATOM      9  C   UNL d   1       3.756   1.236   0.275  0.00  0.00     0.018 C 
ENDBRANCH   1   8
TORSDOF 1
ENDMDL
