MODEL 1
REMARK minimizedAffinity 9.18041134
REMARK minimizedRMSD -1
REMARK  1 active torsions:
REMARK  status: ('A' for Active; 'I' for Inactive)
REMARK    1  A    between atoms: C1_2  and  C2_3 
ROOT
ATOM      1  C2  UNL d   1       1.260  -0.617  -2.796  0.00  0.00    -0.073 A 
ATOM      2  C3  UNL d   1       2.145  -0.644  -1.713  0.00  0.00    -0.002 A 
ATOM      3  C4  UNL d   1       2.213  -1.766  -0.886  0.00  0.00     0.004 A 
ATOM      4  C5  UNL d   1       1.403  -2.874  -1.138  0.00  0.00    -0.004 A 
ATOM      5  C6  UNL d   1       0.521  -2.870  -2.223  0.00  0.00    -0.075 A 
ATOM      6  C7  UNL d   1      -0.359  -4.052  -2.507  0.00  0.00     0.076 C 
ATOM      7  C8  UNL d   1       0.456  -1.738  -3.047  0.00  0.00     0.001 A 
ENDROOT
BRANCH   1   8
ATOM      8  C1  UNL d   1       1.188   0.591  -3.695  0.00  0.00     0.053 C 
ATOM      9  C   UNL d   1       1.211   1.890  -2.907  0.00  0.00     0.018 C 
ENDBRANCH   1   8
TORSDOF 1
ENDMDL
