MODEL 1
REMARK minimizedAffinity 15.9542923
REMARK minimizedRMSD -1
REMARK  1 active torsions:
REMARK  status: ('A' for Active; 'I' for Inactive)
REMARK    1  A    between atoms: C1_2  and  C2_3 
ROOT
ATOM      1  C2  UNL d   1      -2.083  -3.447  -2.265  0.00  0.00    -0.073 A 
ATOM      2  C3  UNL d   1      -1.042  -4.275  -2.698  0.00  0.00    -0.002 A 
ATOM      3  C4  UNL d   1      -0.872  -5.544  -2.142  0.00  0.00     0.004 A 
ATOM      4  C5  UNL d   1      -1.744  -6.000  -1.154  0.00  0.00    -0.004 A 
ATOM      5  C6  UNL d   1      -2.798  -5.192  -0.716  0.00  0.00    -0.075 A 
ATOM      6  C7  UNL d   1      -3.743  -5.667   0.348  0.00  0.00     0.076 C 
ATOM      7  C8  UNL d   1      -2.960  -3.918  -1.277  0.00  0.00     0.001 A 
ENDROOT
BRANCH   1   8
ATOM      8  C1  UNL d   1      -2.275  -2.079  -2.867  0.00  0.00     0.053 C 
ATOM      9  C   UNL d   1      -1.770  -0.977  -1.949  0.00  0.00     0.018 C 
ENDBRANCH   1   8
TORSDOF 1
ENDMDL
