MODEL 1
REMARK minimizedAffinity 11.9626856
REMARK minimizedRMSD -1
REMARK  1 active torsions:
REMARK  status: ('A' for Active; 'I' for Inactive)
REMARK    1  A    between atoms: C1_2  and  C2_3 
ROOT
ATOM      1  C2  UNL d   1       1.197  -0.479  -2.603  0.00  0.00    -0.073 A 
ATOM      2  C3  UNL d   1       0.632   0.707  -3.087  0.00  0.00    -0.002 A 
ATOM      3  C4  UNL d   1       1.217   1.938  -2.790  0.00  0.00     0.004 A 
ATOM      4  C5  UNL d   1       2.376   1.997  -2.016  0.00  0.00    -0.004 A 
ATOM      5  C6  UNL d   1       2.962   0.822  -1.533  0.00  0.00    -0.075 A 
ATOM      6  C7  UNL d   1       4.207   0.868  -0.697  0.00  0.00     0.076 C 
ATOM      7  C8  UNL d   1       2.367  -0.411  -1.833  0.00  0.00     0.001 A 
ENDROOT
BRANCH   1   8
ATOM      8  C1  UNL d   1       0.572  -1.812  -2.926  0.00  0.00     0.053 C 
ATOM      9  C   UNL d   1      -0.737  -2.023  -2.181  0.00  0.00     0.018 C 
ENDBRANCH   1   8
TORSDOF 1
ENDMDL
