MODEL 1
REMARK minimizedAffinity 4.48920584
REMARK minimizedRMSD -1
REMARK  1 active torsions:
REMARK  status: ('A' for Active; 'I' for Inactive)
REMARK    1  A    between atoms: C1_2  and  C2_3 
ROOT
ATOM      1  C2  UNL d   1       1.762  -0.838  -2.535  0.00  0.00    -0.073 A 
ATOM      2  C3  UNL d   1       1.243   0.365  -3.026  0.00  0.00    -0.002 A 
ATOM      3  C4  UNL d   1       1.828   1.582  -2.673  0.00  0.00     0.004 A 
ATOM      4  C5  UNL d   1       2.941   1.608  -1.832  0.00  0.00    -0.004 A 
ATOM      5  C6  UNL d   1       3.482   0.415  -1.341  0.00  0.00    -0.075 A 
ATOM      6  C7  UNL d   1       4.677   0.426  -0.434  0.00  0.00     0.076 C 
ATOM      7  C8  UNL d   1       2.887  -0.802  -1.698  0.00  0.00     0.001 A 
ENDROOT
BRANCH   1   8
ATOM      8  C1  UNL d   1       1.138  -2.155  -2.918  0.00  0.00     0.053 C 
ATOM      9  C   UNL d   1       0.059  -2.582  -1.936  0.00  0.00     0.018 C 
ENDBRANCH   1   8
TORSDOF 1
ENDMDL
