MODEL 1
REMARK minimizedAffinity 8.79463387
REMARK minimizedRMSD -1
REMARK  1 active torsions:
REMARK  status: ('A' for Active; 'I' for Inactive)
REMARK    1  A    between atoms: C1_2  and  C2_3 
ROOT
ATOM      1  C2  UNL d   1       3.275   3.497   1.753  0.00  0.00    -0.073 A 
ATOM      2  C3  UNL d   1       2.001   3.375   2.320  0.00  0.00    -0.002 A 
ATOM      3  C4  UNL d   1       1.323   2.156   2.274  0.00  0.00     0.004 A 
ATOM      4  C5  UNL d   1       1.913   1.047   1.669  0.00  0.00    -0.004 A 
ATOM      5  C6  UNL d   1       3.190   1.145   1.107  0.00  0.00    -0.075 A 
ATOM      6  C7  UNL d   1       3.838  -0.038   0.450  0.00  0.00     0.076 C 
ATOM      7  C8  UNL d   1       3.864   2.373   1.155  0.00  0.00     0.001 A 
ENDROOT
BRANCH   1   8
ATOM      8  C1  UNL d   1       4.014   4.809   1.806  0.00  0.00     0.053 C 
ATOM      9  C   UNL d   1       3.070   5.998   1.721  0.00  0.00     0.018 C 
ENDBRANCH   1   8
TORSDOF 1
ENDMDL
