MODEL 1
REMARK minimizedAffinity 3.97014499
REMARK minimizedRMSD -1
REMARK  0 active torsions:
REMARK  status: ('A' for Active; 'I' for Inactive)
ROOT
ATOM      1  C2' OXE d   1      -1.711  -0.702   0.890  0.00  0.00     0.078 C 
ATOM      2  C1' OXE d   1       0.733  -1.634   1.907  0.00  0.00     0.078 C 
ATOM      3  C1  OXE d   1       0.264  -2.190   0.586  0.00  0.00    -0.078 A 
ATOM      4  C2  OXE d   1      -0.956  -1.763   0.118  0.00  0.00    -0.078 A 
ATOM      5  C3  OXE d   1      -1.411  -2.202  -1.122  0.00  0.00     0.003 A 
ATOM      6  C4  OXE d   1      -0.711  -3.191  -1.824  0.00  0.00    -0.002 A 
ATOM      7  C5  OXE d   1       0.514  -3.669  -1.346  0.00  0.00    -0.002 A 
ATOM      8  C6  OXE d   1       1.035  -3.148  -0.167  0.00  0.00     0.003 A 
ENDROOT
TORSDOF 0
ENDMDL
