MODEL 1
REMARK minimizedAffinity 5.10264158
REMARK minimizedRMSD -1
REMARK  0 active torsions:
REMARK  status: ('A' for Active; 'I' for Inactive)
ROOT
ATOM      1  C2' OXE d   1       0.574  -1.824   1.705  0.00  0.00     0.078 C 
ATOM      2  C1' OXE d   1       2.871  -0.296   2.229  0.00  0.00     0.078 C 
ATOM      3  C1  OXE d   1       2.729  -1.619   2.938  0.00  0.00    -0.078 A 
ATOM      4  C2  OXE d   1       1.580  -2.339   2.712  0.00  0.00    -0.078 A 
ATOM      5  C3  OXE d   1       1.424  -3.591   3.299  0.00  0.00     0.003 A 
ATOM      6  C4  OXE d   1       2.354  -4.055   4.236  0.00  0.00    -0.002 A 
ATOM      7  C5  OXE d   1       3.512  -3.320   4.512  0.00  0.00    -0.002 A 
ATOM      8  C6  OXE d   1       3.735  -2.123   3.841  0.00  0.00     0.003 A 
ENDROOT
TORSDOF 0
ENDMDL
