MODEL 1
REMARK minimizedAffinity 2.13488364
REMARK minimizedRMSD -1
REMARK  0 active torsions:
REMARK  status: ('A' for Active; 'I' for Inactive)
ROOT
ATOM      1  C2' OXE d   1       0.055   1.647  -0.748  0.00  0.00     0.078 C 
ATOM      2  C1' OXE d   1      -0.565  -0.902   0.251  0.00  0.00     0.078 C 
ATOM      3  C1  OXE d   1       0.595  -0.165   0.874  0.00  0.00    -0.078 A 
ATOM      4  C2  OXE d   1       0.920   1.062   0.347  0.00  0.00    -0.078 A 
ATOM      5  C3  OXE d   1       1.946   1.808   0.920  0.00  0.00     0.003 A 
ATOM      6  C4  OXE d   1       2.748   1.255   1.926  0.00  0.00    -0.002 A 
ATOM      7  C5  OXE d   1       2.459  -0.009   2.450  0.00  0.00    -0.002 A 
ATOM      8  C6  OXE d   1       1.362  -0.713   1.965  0.00  0.00     0.003 A 
ENDROOT
TORSDOF 0
ENDMDL
