MODEL 1
REMARK minimizedAffinity 1.01264358
REMARK minimizedRMSD -1
REMARK  0 active torsions:
REMARK  status: ('A' for Active; 'I' for Inactive)
ROOT
ATOM      1  C2' OXE d   1       1.441  -1.741   3.172  0.00  0.00     0.078 C 
ATOM      2  C1' OXE d   1      -0.084  -1.871   0.819  0.00  0.00     0.078 C 
ATOM      3  C1  OXE d   1       0.890  -0.729   0.964  0.00  0.00    -0.078 A 
ATOM      4  C2  OXE d   1       1.598  -0.647   2.139  0.00  0.00    -0.078 A 
ATOM      5  C3  OXE d   1       2.549   0.356   2.302  0.00  0.00     0.003 A 
ATOM      6  C4  OXE d   1       2.681   1.371   1.346  0.00  0.00    -0.002 A 
ATOM      7  C5  OXE d   1       1.940   1.328   0.159  0.00  0.00    -0.002 A 
ATOM      8  C6  OXE d   1       1.074   0.264  -0.065  0.00  0.00     0.003 A 
ENDROOT
TORSDOF 0
ENDMDL
