MODEL 1
REMARK minimizedAffinity 6.53307009
REMARK minimizedRMSD -1
REMARK  0 active torsions:
REMARK  status: ('A' for Active; 'I' for Inactive)
ROOT
ATOM      1  C2' OXE d   1      -0.862   0.156   0.782  0.00  0.00     0.078 C 
ATOM      2  C1' OXE d   1       0.285  -1.919   2.286  0.00  0.00     0.078 C 
ATOM      3  C1  OXE d   1      -0.202  -2.244   0.896  0.00  0.00    -0.078 A 
ATOM      4  C2  OXE d   1      -0.804  -1.234   0.185  0.00  0.00    -0.078 A 
ATOM      5  C3  OXE d   1      -1.222  -1.465  -1.122  0.00  0.00     0.003 A 
ATOM      6  C4  OXE d   1      -1.174  -2.756  -1.664  0.00  0.00    -0.002 A 
ATOM      7  C5  OXE d   1      -0.601  -3.808  -0.942  0.00  0.00    -0.002 A 
ATOM      8  C6  OXE d   1      -0.073  -3.560   0.320  0.00  0.00     0.003 A 
ENDROOT
TORSDOF 0
ENDMDL
