MODEL 1
REMARK minimizedAffinity 2.43161559
REMARK minimizedRMSD -1
REMARK  0 active torsions:
REMARK  status: ('A' for Active; 'I' for Inactive)
ROOT
ATOM      1  C2' OXE d   1       0.066  -1.126   1.283  0.00  0.00     0.078 C 
ATOM      2  C1' OXE d   1       0.871  -2.907   3.299  0.00  0.00     0.078 C 
ATOM      3  C1  OXE d   1       0.830  -3.420   1.881  0.00  0.00    -0.078 A 
ATOM      4  C2  OXE d   1       0.390  -2.556   0.908  0.00  0.00    -0.078 A 
ATOM      5  C3  OXE d   1       0.386  -2.962  -0.424  0.00  0.00     0.003 A 
ATOM      6  C4  OXE d   1       0.678  -4.289  -0.761  0.00  0.00    -0.002 A 
ATOM      7  C5  OXE d   1       1.090  -5.197   0.220  0.00  0.00    -0.002 A 
ATOM      8  C6  OXE d   1       1.212  -4.768   1.537  0.00  0.00     0.003 A 
ENDROOT
TORSDOF 0
ENDMDL
