MODEL 1
REMARK minimizedAffinity -1.49108851
REMARK minimizedRMSD -1
REMARK  0 active torsions:
REMARK  status: ('A' for Active; 'I' for Inactive)
ROOT
ATOM      1  C2' OXE d   1       0.831   1.169  -0.247  0.00  0.00     0.078 C 
ATOM      2  C1' OXE d   1      -0.228  -1.299   0.567  0.00  0.00     0.078 C 
ATOM      3  C1  OXE d   1       0.825  -0.663   1.440  0.00  0.00    -0.078 A 
ATOM      4  C2  OXE d   1       1.371   0.522   1.010  0.00  0.00    -0.078 A 
ATOM      5  C3  OXE d   1       2.306   1.179   1.804  0.00  0.00     0.003 A 
ATOM      6  C4  OXE d   1       2.807   0.568   2.960  0.00  0.00    -0.002 A 
ATOM      7  C5  OXE d   1       2.293  -0.658   3.396  0.00  0.00    -0.002 A 
ATOM      8  C6  OXE d   1       1.273  -1.265   2.671  0.00  0.00     0.003 A 
ENDROOT
TORSDOF 0
ENDMDL
