MODEL 1
REMARK minimizedAffinity 2.45769048
REMARK minimizedRMSD -1
REMARK  0 active torsions:
REMARK  status: ('A' for Active; 'I' for Inactive)
ROOT
ATOM      1  C2' OXE d   1       0.384  -1.146   0.499  0.00  0.00     0.078 C 
ATOM      2  C1' OXE d   1       2.206   0.585   1.751  0.00  0.00     0.078 C 
ATOM      3  C1  OXE d   1       1.765  -0.642   2.510  0.00  0.00    -0.078 A 
ATOM      4  C2  OXE d   1       0.838  -1.459   1.909  0.00  0.00    -0.078 A 
ATOM      5  C3  OXE d   1       0.439  -2.633   2.542  0.00  0.00     0.003 A 
ATOM      6  C4  OXE d   1       0.857  -2.910   3.849  0.00  0.00    -0.002 A 
ATOM      7  C5  OXE d   1       1.770  -2.071   4.496  0.00  0.00    -0.002 A 
ATOM      8  C6  OXE d   1       2.266  -0.958   3.825  0.00  0.00     0.003 A 
ENDROOT
TORSDOF 0
ENDMDL
