MODEL 1
REMARK minimizedAffinity 1.27523696
REMARK minimizedRMSD -1
REMARK  0 active torsions:
REMARK  status: ('A' for Active; 'I' for Inactive)
ROOT
ATOM      1  C2' OXE d   1      -0.534  -4.471  -1.864  0.00  0.00     0.078 C 
ATOM      2  C1' OXE d   1       1.875  -4.070  -0.480  0.00  0.00     0.078 C 
ATOM      3  C1  OXE d   1       0.735  -3.123  -0.197  0.00  0.00    -0.078 A 
ATOM      4  C2  OXE d   1      -0.424  -3.299  -0.913  0.00  0.00    -0.078 A 
ATOM      5  C3  OXE d   1      -1.525  -2.488  -0.652  0.00  0.00     0.003 A 
ATOM      6  C4  OXE d   1      -1.413  -1.399   0.221  0.00  0.00    -0.002 A 
ATOM      7  C5  OXE d   1      -0.228  -1.179   0.932  0.00  0.00    -0.002 A 
ATOM      8  C6  OXE d   1       0.839  -2.055   0.766  0.00  0.00     0.003 A 
ENDROOT
TORSDOF 0
ENDMDL
