MODEL 1
REMARK minimizedAffinity 4.41771173
REMARK minimizedRMSD -1
REMARK  0 active torsions:
REMARK  status: ('A' for Active; 'I' for Inactive)
ROOT
ATOM      1  C2' OXE d   1       2.770   0.646   0.279  0.00  0.00     0.078 C 
ATOM      2  C1' OXE d   1       0.521  -0.402   1.591  0.00  0.00     0.078 C 
ATOM      3  C1  OXE d   1       0.412   0.984   1.007  0.00  0.00    -0.078 A 
ATOM      4  C2  OXE d   1       1.533   1.507   0.408  0.00  0.00    -0.078 A 
ATOM      5  C3  OXE d   1       1.470   2.761  -0.195  0.00  0.00     0.003 A 
ATOM      6  C4  OXE d   1       0.324   3.554  -0.063  0.00  0.00    -0.002 A 
ATOM      7  C5  OXE d   1      -0.815   3.056   0.578  0.00  0.00    -0.002 A 
ATOM      8  C6  OXE d   1      -0.802   1.759   1.080  0.00  0.00     0.003 A 
ENDROOT
TORSDOF 0
ENDMDL
