MODEL 1
REMARK minimizedAffinity -2.32482362
REMARK minimizedRMSD -1
REMARK  0 active torsions:
REMARK  status: ('A' for Active; 'I' for Inactive)
ROOT
ATOM      1  C1  BNZ d   1       2.909  -1.985   2.362  0.00  0.00     0.000 A 
ATOM      2  C2  BNZ d   1       1.927  -1.308   3.035  0.00  0.00     0.000 A 
ATOM      3  C3  BNZ d   1       1.053  -1.970   3.851  0.00  0.00     0.000 A 
ATOM      4  C4  BNZ d   1       1.136  -3.312   3.961  0.00  0.00     0.000 A 
ATOM      5  C5  BNZ d   1       2.114  -4.010   3.281  0.00  0.00     0.000 A 
ATOM      6  C6  BNZ d   1       3.016  -3.336   2.491  0.00  0.00     0.000 A 
ENDROOT
TORSDOF 0
ENDMDL
