MODEL 1
REMARK minimizedAffinity 3.68114042
REMARK minimizedRMSD -1
REMARK  0 active torsions:
REMARK  status: ('A' for Active; 'I' for Inactive)
ROOT
ATOM      1  C1  BNZ d   1      -1.889  -0.317  -1.274  0.00  0.00     0.000 A 
ATOM      2  C2  BNZ d   1      -1.594   0.404  -0.147  0.00  0.00     0.000 A 
ATOM      3  C3  BNZ d   1      -2.062   1.678   0.010  0.00  0.00     0.000 A 
ATOM      4  C4  BNZ d   1      -2.789   2.244  -0.975  0.00  0.00     0.000 A 
ATOM      5  C5  BNZ d   1      -3.087   1.533  -2.121  0.00  0.00     0.000 A 
ATOM      6  C6  BNZ d   1      -2.647   0.237  -2.259  0.00  0.00     0.000 A 
ENDROOT
TORSDOF 0
ENDMDL
