MODEL 1
REMARK minimizedAffinity -2.5147531
REMARK minimizedRMSD -1
REMARK  0 active torsions:
REMARK  status: ('A' for Active; 'I' for Inactive)
ROOT
ATOM      1  C1  BNZ d   1       1.007  -3.012   3.618  0.00  0.00     0.000 A 
ATOM      2  C2  BNZ d   1       1.315  -1.680   3.534  0.00  0.00     0.000 A 
ATOM      3  C3  BNZ d   1       2.332  -1.246   2.731  0.00  0.00     0.000 A 
ATOM      4  C4  BNZ d   1       3.065  -2.146   2.044  0.00  0.00     0.000 A 
ATOM      5  C5  BNZ d   1       2.773  -3.493   2.125  0.00  0.00     0.000 A 
ATOM      6  C6  BNZ d   1       1.723  -3.923   2.905  0.00  0.00     0.000 A 
ENDROOT
TORSDOF 0
ENDMDL
