MODEL 1
REMARK minimizedAffinity -2.18994403
REMARK minimizedRMSD -1
REMARK  0 active torsions:
REMARK  status: ('A' for Active; 'I' for Inactive)
ROOT
ATOM      1  C1  BNZ d   1       5.091  -5.992  -3.159  0.00  0.00     0.000 A 
ATOM      2  C2  BNZ d   1       6.000  -5.956  -4.183  0.00  0.00     0.000 A 
ATOM      3  C3  BNZ d   1       5.585  -5.917  -5.485  0.00  0.00     0.000 A 
ATOM      4  C4  BNZ d   1       4.266  -5.954  -5.762  0.00  0.00     0.000 A 
ATOM      5  C5  BNZ d   1       3.338  -6.000  -4.741  0.00  0.00     0.000 A 
ATOM      6  C6  BNZ d   1       3.758  -6.000  -3.430  0.00  0.00     0.000 A 
ENDROOT
TORSDOF 0
ENDMDL
