MODEL 1
REMARK minimizedAffinity 2.57892418
REMARK minimizedRMSD -1
REMARK  0 active torsions:
REMARK  status: ('A' for Active; 'I' for Inactive)
ROOT
ATOM      1  C1  BNZ d   1       0.908  -3.274   3.452  0.00  0.00     0.000 A 
ATOM      2  C2  BNZ d   1       1.075  -1.928   3.262  0.00  0.00     0.000 A 
ATOM      3  C3  BNZ d   1       1.998  -1.456   2.371  0.00  0.00     0.000 A 
ATOM      4  C4  BNZ d   1       2.780  -2.327   1.702  0.00  0.00     0.000 A 
ATOM      5  C5  BNZ d   1       2.631  -3.687   1.890  0.00  0.00     0.000 A 
ATOM      6  C6  BNZ d   1       1.674  -4.160   2.758  0.00  0.00     0.000 A 
ENDROOT
TORSDOF 0
ENDMDL
