MODEL 1
REMARK minimizedAffinity 6.56354666
REMARK minimizedRMSD -1
REMARK  0 active torsions:
REMARK  status: ('A' for Active; 'I' for Inactive)
ROOT
ATOM      1  C1  BNZ d   1       0.673  -2.524   3.385  0.00  0.00     0.000 A 
ATOM      2  C2  BNZ d   1       0.894  -1.212   3.062  0.00  0.00     0.000 A 
ATOM      3  C3  BNZ d   1       2.057  -0.826   2.457  0.00  0.00     0.000 A 
ATOM      4  C4  BNZ d   1       3.014  -1.744   2.213  0.00  0.00     0.000 A 
ATOM      5  C5  BNZ d   1       2.811  -3.070   2.542  0.00  0.00     0.000 A 
ATOM      6  C6  BNZ d   1       1.622  -3.461   3.115  0.00  0.00     0.000 A 
ENDROOT
TORSDOF 0
ENDMDL
