MODEL 1
REMARK minimizedAffinity 0.407084852
REMARK minimizedRMSD -1
REMARK  0 active torsions:
REMARK  status: ('A' for Active; 'I' for Inactive)
ROOT
ATOM      1  C1  BNZ d   1       1.949  -5.966  -4.455  0.00  0.00     0.000 A 
ATOM      2  C2  BNZ d   1       2.522  -5.969  -5.699  0.00  0.00     0.000 A 
ATOM      3  C3  BNZ d   1       3.881  -6.000  -5.844  0.00  0.00     0.000 A 
ATOM      4  C4  BNZ d   1       4.665  -5.987  -4.747  0.00  0.00     0.000 A 
ATOM      5  C5  BNZ d   1       4.103  -5.975  -3.486  0.00  0.00     0.000 A 
ATOM      6  C6  BNZ d   1       2.734  -5.984  -3.343  0.00  0.00     0.000 A 
ENDROOT
TORSDOF 0
ENDMDL
