MODEL 1
REMARK minimizedAffinity 2.29331231
REMARK minimizedRMSD -1
REMARK  1 active torsions:
REMARK  status: ('A' for Active; 'I' for Inactive)
REMARK    1  A    between atoms: C1_2  and  C2_3 
ROOT
ATOM      1  C2  UNL d   1      -0.252   3.698  -5.966  0.00  0.00    -0.076 A 
ATOM      2  C3  UNL d   1      -0.500   5.081  -5.984  0.00  0.00     0.004 A 
ATOM      3  C4  UNL d   1       0.549   5.998  -5.999  0.00  0.00    -0.003 A 
ATOM      4  C5  UNL d   1       1.864   5.547  -5.996  0.00  0.00     0.000 A 
ATOM      5  C6  UNL d   1       2.129   4.177  -5.996  0.00  0.00     0.000 A 
ATOM      6  C7  UNL d   1       1.082   3.239  -5.997  0.00  0.00    -0.073 A 
ATOM      7  C8  UNL d   1       1.425   1.775  -5.991  0.00  0.00     0.078 C 
ENDROOT
BRANCH   1   8
ATOM      8  C1  UNL d   1      -1.430   2.751  -5.923  0.00  0.00     0.053 C 
ATOM      9  C   UNL d   1      -2.765   3.479  -5.970  0.00  0.00     0.018 C 
ENDBRANCH   1   8
TORSDOF 1
ENDMDL
