MODEL 1
REMARK minimizedAffinity 4.44268799
REMARK minimizedRMSD -1
REMARK  1 active torsions:
REMARK  status: ('A' for Active; 'I' for Inactive)
REMARK    1  A    between atoms: C1_2  and  C2_3 
ROOT
ATOM      1  C2  UNL d   1      -0.419  -2.321  -1.331  0.00  0.00    -0.076 A 
ATOM      2  C3  UNL d   1       0.374  -3.403  -1.751  0.00  0.00     0.004 A 
ATOM      3  C4  UNL d   1       1.762  -3.364  -1.629  0.00  0.00    -0.003 A 
ATOM      4  C5  UNL d   1       2.379  -2.244  -1.083  0.00  0.00     0.000 A 
ATOM      5  C6  UNL d   1       1.606  -1.169  -0.645  0.00  0.00     0.000 A 
ATOM      6  C7  UNL d   1       0.205  -1.199  -0.746  0.00  0.00    -0.073 A 
ATOM      7  C8  UNL d   1      -0.579  -0.009  -0.263  0.00  0.00     0.078 C 
ENDROOT
BRANCH   1   8
ATOM      8  C1  UNL d   1      -1.918  -2.408  -1.514  0.00  0.00     0.053 C 
ATOM      9  C   UNL d   1      -2.469  -3.782  -1.166  0.00  0.00     0.018 C 
ENDBRANCH   1   8
TORSDOF 1
ENDMDL
