MODEL 1
REMARK minimizedAffinity -1.54028928
REMARK minimizedRMSD -1
REMARK  1 active torsions:
REMARK  status: ('A' for Active; 'I' for Inactive)
REMARK    1  A    between atoms: C1_2  and  C2_3 
ROOT
ATOM      1  C2  UNL d   1      -0.472   4.889  -5.956  0.00  0.00    -0.076 A 
ATOM      2  C3  UNL d   1       0.870   5.305  -5.976  0.00  0.00     0.004 A 
ATOM      3  C4  UNL d   1       1.909   4.376  -5.998  0.00  0.00    -0.003 A 
ATOM      4  C5  UNL d   1       1.622   3.016  -6.000  0.00  0.00     0.000 A 
ATOM      5  C6  UNL d   1       0.296   2.585  -5.998  0.00  0.00     0.000 A 
ATOM      6  C7  UNL d   1      -0.763   3.508  -5.992  0.00  0.00    -0.073 A 
ATOM      7  C8  UNL d   1      -2.175   2.988  -5.984  0.00  0.00     0.078 C 
ENDROOT
BRANCH   1   8
ATOM      8  C1  UNL d   1      -1.556   5.942  -5.905  0.00  0.00     0.053 C 
ATOM      9  C   UNL d   1      -2.269   5.980  -4.562  0.00  0.00     0.018 C 
ENDBRANCH   1   8
TORSDOF 1
ENDMDL
