MODEL 1
REMARK minimizedAffinity -1.60265577
REMARK minimizedRMSD -1
REMARK  1 active torsions:
REMARK  status: ('A' for Active; 'I' for Inactive)
REMARK    1  A    between atoms: C1_2  and  C2_3 
ROOT
ATOM      1  C2  UNL d   1      -0.940   4.868  -5.930  0.00  0.00    -0.076 A 
ATOM      2  C3  UNL d   1       0.391   5.321  -5.950  0.00  0.00     0.004 A 
ATOM      3  C4  UNL d   1       1.454   4.420  -5.984  0.00  0.00    -0.003 A 
ATOM      4  C5  UNL d   1       1.204   3.053  -6.000  0.00  0.00     0.000 A 
ATOM      5  C6  UNL d   1      -0.110   2.586  -5.998  0.00  0.00     0.000 A 
ATOM      6  C7  UNL d   1      -1.194   3.481  -5.981  0.00  0.00    -0.073 A 
ATOM      7  C8  UNL d   1      -2.591   2.923  -5.974  0.00  0.00     0.078 C 
ENDROOT
BRANCH   1   8
ATOM      8  C1  UNL d   1      -2.051   5.891  -5.866  0.00  0.00     0.053 C 
ATOM      9  C   UNL d   1      -2.664   5.999  -4.478  0.00  0.00     0.018 C 
ENDBRANCH   1   8
TORSDOF 1
ENDMDL
