MODEL 1
REMARK minimizedAffinity -0.264062792
REMARK minimizedRMSD -1
REMARK  1 active torsions:
REMARK  status: ('A' for Active; 'I' for Inactive)
REMARK    1  A    between atoms: C1_2  and  C2_3 
ROOT
ATOM      1  C2  UNL d   1      -0.154   3.311  -5.975  0.00  0.00    -0.076 A 
ATOM      2  C3  UNL d   1      -1.484   2.859  -5.992  0.00  0.00     0.004 A 
ATOM      3  C4  UNL d   1      -2.548   3.759  -5.998  0.00  0.00    -0.003 A 
ATOM      4  C5  UNL d   1      -2.298   5.127  -5.989  0.00  0.00     0.000 A 
ATOM      5  C6  UNL d   1      -0.984   5.593  -5.990  0.00  0.00     0.000 A 
ATOM      6  C7  UNL d   1       0.100   4.699  -6.000  0.00  0.00    -0.073 A 
ATOM      7  C8  UNL d   1       1.497   5.257  -5.995  0.00  0.00     0.078 C 
ENDROOT
BRANCH   1   8
ATOM      8  C1  UNL d   1       0.959   2.287  -5.942  0.00  0.00     0.053 C 
ATOM      9  C   UNL d   1       1.469   2.027  -4.533  0.00  0.00     0.018 C 
ENDBRANCH   1   8
TORSDOF 1
ENDMDL
