MODEL 1
REMARK minimizedAffinity -1.57161665
REMARK minimizedRMSD -1
REMARK  1 active torsions:
REMARK  status: ('A' for Active; 'I' for Inactive)
REMARK    1  A    between atoms: C1_2  and  C2_3 
ROOT
ATOM      1  C2  UNL d   1       0.386   4.242  -5.732  0.00  0.00    -0.076 A 
ATOM      2  C3  UNL d   1       0.780   2.893  -5.766  0.00  0.00     0.004 A 
ATOM      3  C4  UNL d   1      -0.162   1.874  -5.897  0.00  0.00    -0.003 A 
ATOM      4  C5  UNL d   1      -1.513   2.188  -5.997  0.00  0.00     0.000 A 
ATOM      5  C6  UNL d   1      -1.920   3.522  -5.983  0.00  0.00     0.000 A 
ATOM      6  C7  UNL d   1      -0.981   4.562  -5.868  0.00  0.00    -0.073 A 
ATOM      7  C8  UNL d   1      -1.476   5.982  -5.852  0.00  0.00     0.078 C 
ENDROOT
BRANCH   1   8
ATOM      8  C1  UNL d   1       1.450   5.303  -5.561  0.00  0.00     0.053 C 
ATOM      9  C   UNL d   1       2.829   4.818  -5.980  0.00  0.00     0.018 C 
ENDBRANCH   1   8
TORSDOF 1
ENDMDL
