MODEL 1
REMARK minimizedAffinity 2.02703643
REMARK minimizedRMSD -1
REMARK  1 active torsions:
REMARK  status: ('A' for Active; 'I' for Inactive)
REMARK    1  A    between atoms: C1_2  and  C2_3 
ROOT
ATOM      1  C2  UNL d   1      -0.207   3.825  -5.988  0.00  0.00    -0.076 A 
ATOM      2  C3  UNL d   1      -1.456   3.179  -5.989  0.00  0.00     0.004 A 
ATOM      3  C4  UNL d   1      -2.642   3.910  -5.958  0.00  0.00    -0.003 A 
ATOM      4  C5  UNL d   1      -2.600   5.299  -5.925  0.00  0.00     0.000 A 
ATOM      5  C6  UNL d   1      -1.370   5.957  -5.941  0.00  0.00     0.000 A 
ATOM      6  C7  UNL d   1      -0.165   5.236  -5.989  0.00  0.00    -0.073 A 
ATOM      7  C8  UNL d   1       1.132   5.997  -5.998  0.00  0.00     0.078 C 
ENDROOT
BRANCH   1   8
ATOM      8  C1  UNL d   1       1.046   2.980  -5.995  0.00  0.00     0.053 C 
ATOM      9  C   UNL d   1       2.315   3.818  -5.991  0.00  0.00     0.018 C 
ENDBRANCH   1   8
TORSDOF 1
ENDMDL
