MODEL 1
REMARK minimizedAffinity 0.245818362
REMARK minimizedRMSD -1
REMARK  1 active torsions:
REMARK  status: ('A' for Active; 'I' for Inactive)
REMARK    1  A    between atoms: C1_2  and  C2_3 
ROOT
ATOM      1  C2  UNL d   1      -1.250   3.664  -5.971  0.00  0.00    -0.076 A 
ATOM      2  C3  UNL d   1      -0.043   2.943  -5.955  0.00  0.00     0.004 A 
ATOM      3  C4  UNL d   1       1.186   3.600  -5.970  0.00  0.00    -0.003 A 
ATOM      4  C5  UNL d   1       1.228   4.990  -6.000  0.00  0.00     0.000 A 
ATOM      5  C6  UNL d   1       0.041   5.721  -5.998  0.00  0.00     0.000 A 
ATOM      6  C7  UNL d   1      -1.206   5.074  -5.967  0.00  0.00    -0.073 A 
ATOM      7  C8  UNL d   1      -2.455   5.913  -5.972  0.00  0.00     0.078 C 
ENDROOT
BRANCH   1   8
ATOM      8  C1  UNL d   1      -2.552   2.896  -5.981  0.00  0.00     0.053 C 
ATOM      9  C   UNL d   1      -3.768   3.810  -6.000  0.00  0.00     0.018 C 
ENDBRANCH   1   8
TORSDOF 1
ENDMDL
