MODEL 1
REMARK minimizedAffinity -2.88566589
REMARK minimizedRMSD -1
REMARK  1 active torsions:
REMARK  status: ('A' for Active; 'I' for Inactive)
REMARK    1  A    between atoms: C1_2  and  C2_3 
ROOT
ATOM      1  C2  UNL d   1      -0.214   4.341  -5.967  0.00  0.00    -0.076 A 
ATOM      2  C3  UNL d   1      -0.642   5.680  -5.926  0.00  0.00     0.004 A 
ATOM      3  C4  UNL d   1      -1.998   6.000  -5.919  0.00  0.00    -0.003 A 
ATOM      4  C5  UNL d   1      -2.950   4.986  -5.954  0.00  0.00     0.000 A 
ATOM      5  C6  UNL d   1      -2.544   3.653  -5.977  0.00  0.00     0.000 A 
ATOM      6  C7  UNL d   1      -1.180   3.312  -5.967  0.00  0.00    -0.073 A 
ATOM      7  C8  UNL d   1      -0.799   1.857  -6.000  0.00  0.00     0.078 C 
ENDROOT
BRANCH   1   8
ATOM      8  C1  UNL d   1       1.270   4.055  -6.000  0.00  0.00     0.053 C 
ATOM      9  C   UNL d   1       2.108   5.325  -6.000  0.00  0.00     0.018 C 
ENDBRANCH   1   8
TORSDOF 1
ENDMDL
