MODEL 1
REMARK minimizedAffinity -5.8992362
REMARK minimizedRMSD -1
REMARK  1 active torsions:
REMARK  status: ('A' for Active; 'I' for Inactive)
REMARK    1  A    between atoms: C1_2  and  C2_3 
ROOT
ATOM      1  C2  UNL d   1      -0.490   0.683   0.458  0.00  0.00    -0.077 A 
ATOM      2  C3  UNL d   1      -0.202   1.353  -0.740  0.00  0.00     0.002 A 
ATOM      3  C4  UNL d   1      -0.448   2.722  -0.860  0.00  0.00     0.002 A 
ATOM      4  C5  UNL d   1      -0.979   3.433   0.214  0.00  0.00    -0.004 A 
ATOM      5  C6  UNL d   1      -1.270   2.776   1.408  0.00  0.00     0.002 A 
ATOM      6  C7  UNL d   1      -1.026   1.407   1.530  0.00  0.00     0.002 A 
ENDROOT
BRANCH   1   7
ATOM      7  C1  UNL d   1      -0.179  -0.783   0.606  0.00  0.00     0.055 C 
ATOM      8  C   UNL d   1       0.469  -1.342  -0.652  0.00  0.00     0.019 C 
ENDBRANCH   1   7
TORSDOF 1
ENDMDL
