MODEL 1
REMARK minimizedAffinity -5.44626856
REMARK minimizedRMSD -1
REMARK  1 active torsions:
REMARK  status: ('A' for Active; 'I' for Inactive)
REMARK    1  A    between atoms: C1_2  and  C2_3 
ROOT
ATOM      1  C2  UNL d   1      -0.223   0.352   0.252  0.00  0.00    -0.077 A 
ATOM      2  C3  UNL d   1      -0.846   1.292  -0.581  0.00  0.00     0.002 A 
ATOM      3  C4  UNL d   1      -1.575   2.349  -0.033  0.00  0.00     0.002 A 
ATOM      4  C5  UNL d   1      -1.684   2.478   1.350  0.00  0.00    -0.004 A 
ATOM      5  C6  UNL d   1      -1.070   1.547   2.187  0.00  0.00     0.002 A 
ATOM      6  C7  UNL d   1      -0.343   0.489   1.641  0.00  0.00     0.002 A 
ENDROOT
BRANCH   1   7
ATOM      7  C1  UNL d   1       0.604  -0.760  -0.337  0.00  0.00     0.055 C 
ATOM      8  C   UNL d   1       1.750  -0.213  -1.176  0.00  0.00     0.019 C 
ENDBRANCH   1   7
TORSDOF 1
ENDMDL
