MODEL 1
REMARK minimizedAffinity -6.31073093
REMARK minimizedRMSD -1
REMARK  1 active torsions:
REMARK  status: ('A' for Active; 'I' for Inactive)
REMARK    1  A    between atoms: C1_2  and  C2_3 
ROOT
ATOM      1  C2  UNL d   1      -0.595   1.084   0.384  0.00  0.00    -0.077 A 
ATOM      2  C3  UNL d   1       0.005   1.995  -0.496  0.00  0.00     0.002 A 
ATOM      3  C4  UNL d   1      -0.388   3.335  -0.502  0.00  0.00     0.002 A 
ATOM      4  C5  UNL d   1      -1.379   3.775   0.373  0.00  0.00    -0.004 A 
ATOM      5  C6  UNL d   1      -1.983   2.876   1.251  0.00  0.00     0.002 A 
ATOM      6  C7  UNL d   1      -1.592   1.536   1.257  0.00  0.00     0.002 A 
ENDROOT
BRANCH   1   7
ATOM      7  C1  UNL d   1      -0.137  -0.351   0.425  0.00  0.00     0.055 C 
ATOM      8  C   UNL d   1       0.750  -0.684  -0.766  0.00  0.00     0.019 C 
ENDBRANCH   1   7
TORSDOF 1
ENDMDL
