MODEL 1
REMARK minimizedAffinity -5.54350424
REMARK minimizedRMSD -1
REMARK  1 active torsions:
REMARK  status: ('A' for Active; 'I' for Inactive)
REMARK    1  A    between atoms: C1_2  and  C2_3 
ROOT
ATOM      1  C2  UNL d   1       0.237   0.041   0.111  0.00  0.00    -0.077 A 
ATOM      2  C3  UNL d   1      -0.020  -0.193   1.469  0.00  0.00     0.002 A 
ATOM      3  C4  UNL d   1      -0.872   0.652   2.183  0.00  0.00     0.002 A 
ATOM      4  C5  UNL d   1      -1.477   1.734   1.546  0.00  0.00    -0.004 A 
ATOM      5  C6  UNL d   1      -1.226   1.976   0.196  0.00  0.00     0.002 A 
ATOM      6  C7  UNL d   1      -0.374   1.133  -0.519  0.00  0.00     0.002 A 
ENDROOT
BRANCH   1   7
ATOM      7  C1  UNL d   1       1.116  -0.898  -0.673  0.00  0.00     0.055 C 
ATOM      8  C   UNL d   1       0.289  -1.844  -1.532  0.00  0.00     0.019 C 
ENDBRANCH   1   7
TORSDOF 1
ENDMDL
