MODEL 1
REMARK minimizedAffinity -2.1563375
REMARK minimizedRMSD -1
REMARK  1 active torsions:
REMARK  status: ('A' for Active; 'I' for Inactive)
REMARK    1  A    between atoms: C1_2  and  C2_3 
ROOT
ATOM      1  C2  UNL d   1      -0.339   0.511   0.704  0.00  0.00    -0.077 A 
ATOM      2  C3  UNL d   1      -0.470   1.159   1.940  0.00  0.00     0.002 A 
ATOM      3  C4  UNL d   1      -1.207   2.341   2.043  0.00  0.00     0.002 A 
ATOM      4  C5  UNL d   1      -1.822   2.881   0.915  0.00  0.00    -0.004 A 
ATOM      5  C6  UNL d   1      -1.695   2.244  -0.319  0.00  0.00     0.002 A 
ATOM      6  C7  UNL d   1      -0.958   1.064  -0.424  0.00  0.00     0.002 A 
ENDROOT
BRANCH   1   7
ATOM      7  C1  UNL d   1       0.415  -0.790   0.601  0.00  0.00     0.055 C 
ATOM      8  C   UNL d   1       0.556  -1.234  -0.848  0.00  0.00     0.019 C 
ENDBRANCH   1   7
TORSDOF 1
ENDMDL
