MODEL 1
REMARK minimizedAffinity -6.1003108
REMARK minimizedRMSD -1
REMARK  1 active torsions:
REMARK  status: ('A' for Active; 'I' for Inactive)
REMARK    1  A    between atoms: C1_2  and  C2_3 
ROOT
ATOM      1  C2  UNL d   1      -0.418   1.824  -0.235  0.00  0.00    -0.077 A 
ATOM      2  C3  UNL d   1       0.484   1.972  -1.299  0.00  0.00     0.002 A 
ATOM      3  C4  UNL d   1       1.411   0.967  -1.583  0.00  0.00     0.002 A 
ATOM      4  C5  UNL d   1       1.442  -0.193  -0.812  0.00  0.00    -0.004 A 
ATOM      5  C6  UNL d   1       0.551  -0.349   0.248  0.00  0.00     0.002 A 
ATOM      6  C7  UNL d   1      -0.376   0.655   0.535  0.00  0.00     0.002 A 
ENDROOT
BRANCH   1   7
ATOM      7  C1  UNL d   1      -1.451   2.884   0.042  0.00  0.00     0.055 C 
ATOM      8  C   UNL d   1      -2.404   2.453   1.147  0.00  0.00     0.019 C 
ENDBRANCH   1   7
TORSDOF 1
ENDMDL
