MODEL 1
REMARK minimizedAffinity -5.50057554
REMARK minimizedRMSD -1
REMARK  1 active torsions:
REMARK  status: ('A' for Active; 'I' for Inactive)
REMARK    1  A    between atoms: C1_2  and  C2_3 
ROOT
ATOM      1  C2  UNL d   1      -0.858   2.198   0.707  0.00  0.00    -0.077 A 
ATOM      2  C3  UNL d   1      -1.470   1.921   1.937  0.00  0.00     0.002 A 
ATOM      3  C4  UNL d   1      -1.441   0.629   2.466  0.00  0.00     0.002 A 
ATOM      4  C5  UNL d   1      -0.798  -0.394   1.773  0.00  0.00    -0.004 A 
ATOM      5  C6  UNL d   1      -0.187  -0.130   0.548  0.00  0.00     0.002 A 
ATOM      6  C7  UNL d   1      -0.216   1.161   0.017  0.00  0.00     0.002 A 
ENDROOT
BRANCH   1   7
ATOM      7  C1  UNL d   1      -0.845   3.601   0.158  0.00  0.00     0.055 C 
ATOM      8  C   UNL d   1       0.051   3.709  -1.066  0.00  0.00     0.019 C 
ENDBRANCH   1   7
TORSDOF 1
ENDMDL
