MODEL 1
REMARK minimizedAffinity -5.26473141
REMARK minimizedRMSD -1
REMARK  1 active torsions:
REMARK  status: ('A' for Active; 'I' for Inactive)
REMARK    1  A    between atoms: C1_2  and  C2_3 
ROOT
ATOM      1  C2  UNL d   1      -0.515   0.667   0.595  0.00  0.00    -0.077 A 
ATOM      2  C3  UNL d   1       0.002   1.519  -0.391  0.00  0.00     0.002 A 
ATOM      3  C4  UNL d   1      -0.369   2.865  -0.427  0.00  0.00     0.002 A 
ATOM      4  C5  UNL d   1      -1.254   3.371   0.522  0.00  0.00    -0.004 A 
ATOM      5  C6  UNL d   1      -1.775   2.532   1.506  0.00  0.00     0.002 A 
ATOM      6  C7  UNL d   1      -1.407   1.186   1.543  0.00  0.00     0.002 A 
ENDROOT
BRANCH   1   7
ATOM      7  C1  UNL d   1      -0.078  -0.773   0.666  0.00  0.00     0.055 C 
ATOM      8  C   UNL d   1       0.135  -1.217   2.106  0.00  0.00     0.019 C 
ENDBRANCH   1   7
TORSDOF 1
ENDMDL
