MODEL 1
REMARK minimizedAffinity -4.0498209
REMARK minimizedRMSD -1
REMARK  1 active torsions:
REMARK  status: ('A' for Active; 'I' for Inactive)
REMARK    1  A    between atoms: C1_2  and  C2_3 
ROOT
ATOM      1  C2  UNL d   1      -0.187   0.370   0.543  0.00  0.00    -0.077 A 
ATOM      2  C3  UNL d   1      -1.135   1.040  -0.244  0.00  0.00     0.002 A 
ATOM      3  C4  UNL d   1      -2.040   1.927   0.343  0.00  0.00     0.002 A 
ATOM      4  C5  UNL d   1      -2.003   2.155   1.717  0.00  0.00    -0.004 A 
ATOM      5  C6  UNL d   1      -1.065   1.492   2.508  0.00  0.00     0.002 A 
ATOM      6  C7  UNL d   1      -0.161   0.605   1.923  0.00  0.00     0.002 A 
ENDROOT
BRANCH   1   7
ATOM      7  C1  UNL d   1       0.822  -0.549  -0.095  0.00  0.00     0.055 C 
ATOM      8  C   UNL d   1       0.154  -1.523  -1.055  0.00  0.00     0.019 C 
ENDBRANCH   1   7
TORSDOF 1
ENDMDL
