MODEL 1
REMARK minimizedAffinity -5.16043711
REMARK minimizedRMSD -1
REMARK  1 active torsions:
REMARK  status: ('A' for Active; 'I' for Inactive)
REMARK    1  A    between atoms: C1_2  and  C2_3 
ROOT
ATOM      1  C2  UNL d   1      -0.346   0.637   0.162  0.00  0.00    -0.077 A 
ATOM      2  C3  UNL d   1      -0.018   1.915  -0.313  0.00  0.00     0.002 A 
ATOM      3  C4  UNL d   1      -0.616   3.048   0.241  0.00  0.00     0.002 A 
ATOM      4  C5  UNL d   1      -1.542   2.916   1.273  0.00  0.00    -0.004 A 
ATOM      5  C6  UNL d   1      -1.876   1.649   1.750  0.00  0.00     0.002 A 
ATOM      6  C7  UNL d   1      -1.281   0.515   1.198  0.00  0.00     0.002 A 
ENDROOT
BRANCH   1   7
ATOM      7  C1  UNL d   1       0.335  -0.584  -0.400  0.00  0.00     0.055 C 
ATOM      8  C   UNL d   1       1.819  -0.336  -0.624  0.00  0.00     0.019 C 
ENDBRANCH   1   7
TORSDOF 1
ENDMDL
