MODEL 1
REMARK minimizedAffinity -5.66894627
REMARK minimizedRMSD -1
REMARK  1 active torsions:
REMARK  status: ('A' for Active; 'I' for Inactive)
REMARK    1  A    between atoms: C1_2  and  C2_3 
ROOT
ATOM      1  C2  UNL d   1      -0.195   0.409   0.282  0.00  0.00    -0.077 A 
ATOM      2  C3  UNL d   1      -0.788   1.574  -0.226  0.00  0.00     0.002 A 
ATOM      3  C4  UNL d   1      -1.530   2.411   0.608  0.00  0.00     0.002 A 
ATOM      4  C5  UNL d   1      -1.684   2.095   1.957  0.00  0.00    -0.004 A 
ATOM      5  C6  UNL d   1      -1.100   0.938   2.472  0.00  0.00     0.002 A 
ATOM      6  C7  UNL d   1      -0.359   0.100   1.638  0.00  0.00     0.002 A 
ENDROOT
BRANCH   1   7
ATOM      7  C1  UNL d   1       0.647  -0.469  -0.606  0.00  0.00     0.055 C 
ATOM      8  C   UNL d   1       2.018  -0.720   0.004  0.00  0.00     0.019 C 
ENDBRANCH   1   7
TORSDOF 1
ENDMDL
