MODEL 1
REMARK minimizedAffinity -5.37540197
REMARK minimizedRMSD -1
REMARK  1 active torsions:
REMARK  status: ('A' for Active; 'I' for Inactive)
REMARK    1  A    between atoms: C1_2  and  C2_3 
ROOT
ATOM      1  C2  UNL d   1      -0.841   1.230   0.638  0.00  0.00    -0.077 A 
ATOM      2  C3  UNL d   1      -0.215  -0.009   0.834  0.00  0.00     0.002 A 
ATOM      3  C4  UNL d   1       0.897  -0.367   0.070  0.00  0.00     0.002 A 
ATOM      4  C5  UNL d   1       1.395   0.509  -0.893  0.00  0.00    -0.004 A 
ATOM      5  C6  UNL d   1       0.778   1.743  -1.097  0.00  0.00     0.002 A 
ATOM      6  C7  UNL d   1      -0.335   2.102  -0.334  0.00  0.00     0.002 A 
ENDROOT
BRANCH   1   7
ATOM      7  C1  UNL d   1      -2.010   1.638   1.495  0.00  0.00     0.055 C 
ATOM      8  C   UNL d   1      -2.201   3.148   1.488  0.00  0.00     0.019 C 
ENDBRANCH   1   7
TORSDOF 1
ENDMDL
