MODEL 1
REMARK minimizedAffinity -2.73490858
REMARK minimizedRMSD -1
REMARK  1 active torsions:
REMARK  status: ('A' for Active; 'I' for Inactive)
REMARK    1  A    between atoms: C1_2  and  C2_3 
ROOT
ATOM      1  C2  UNL d   1       0.384   0.955  -0.343  0.00  0.00    -0.077 A 
ATOM      2  C3  UNL d   1      -0.371   1.598   0.648  0.00  0.00     0.002 A 
ATOM      3  C4  UNL d   1      -0.833   0.886   1.757  0.00  0.00     0.002 A 
ATOM      4  C5  UNL d   1      -0.542  -0.470   1.887  0.00  0.00    -0.004 A 
ATOM      5  C6  UNL d   1       0.206  -1.119   0.905  0.00  0.00     0.002 A 
ATOM      6  C7  UNL d   1       0.668  -0.409  -0.205  0.00  0.00     0.002 A 
ENDROOT
BRANCH   1   7
ATOM      7  C1  UNL d   1       0.924   1.732  -1.515  0.00  0.00     0.055 C 
ATOM      8  C   UNL d   1       0.185   3.051  -1.693  0.00  0.00     0.019 C 
ENDBRANCH   1   7
TORSDOF 1
ENDMDL
