MODEL 1
REMARK minimizedAffinity -4.28726435
REMARK minimizedRMSD -1
REMARK  1 active torsions:
REMARK  status: ('A' for Active; 'I' for Inactive)
REMARK    1  A    between atoms: C1_2  and  C2_3 
ROOT
ATOM      1  C2  UNL d   1       0.045   0.382   0.233  0.00  0.00    -0.077 A 
ATOM      2  C3  UNL d   1      -0.490  -0.130   1.423  0.00  0.00     0.002 A 
ATOM      3  C4  UNL d   1      -1.558   0.512   2.051  0.00  0.00     0.002 A 
ATOM      4  C5  UNL d   1      -2.103   1.667   1.495  0.00  0.00    -0.004 A 
ATOM      5  C6  UNL d   1      -1.577   2.186   0.312  0.00  0.00     0.002 A 
ATOM      6  C7  UNL d   1      -0.508   1.545  -0.317  0.00  0.00     0.002 A 
ENDROOT
BRANCH   1   7
ATOM      7  C1  UNL d   1       1.165  -0.337  -0.473  0.00  0.00     0.055 C 
ATOM      8  C   UNL d   1       0.630  -1.385  -1.437  0.00  0.00     0.019 C 
ENDBRANCH   1   7
TORSDOF 1
ENDMDL
