MODEL 1
REMARK minimizedAffinity -4.35742712
REMARK minimizedRMSD -1
REMARK  0 active torsions:
REMARK  status: ('A' for Active; 'I' for Inactive)
ROOT
ATOM      1  C1  BNZ d   1       1.279  -0.738   2.115  0.00  0.00     0.000 A 
ATOM      2  C2  BNZ d   1       0.168  -0.022   1.756  0.00  0.00     0.000 A 
ATOM      3  C3  BNZ d   1      -1.001  -0.149   2.453  0.00  0.00     0.000 A 
ATOM      4  C4  BNZ d   1      -1.070  -1.020   3.481  0.00  0.00     0.000 A 
ATOM      5  C5  BNZ d   1       0.039  -1.756   3.848  0.00  0.00     0.000 A 
ATOM      6  C6  BNZ d   1       1.225  -1.597   3.169  0.00  0.00     0.000 A 
ENDROOT
TORSDOF 0
ENDMDL
