MODEL 1
REMARK minimizedAffinity -0.560040057
REMARK minimizedRMSD -1
REMARK  0 active torsions:
REMARK  status: ('A' for Active; 'I' for Inactive)
ROOT
ATOM      1  C1  BNZ d   1      -0.742  -0.249   2.447  0.00  0.00     0.000 A 
ATOM      2  C2  BNZ d   1       0.583  -0.077   2.747  0.00  0.00     0.000 A 
ATOM      3  C3  BNZ d   1       1.270  -1.027   3.450  0.00  0.00     0.000 A 
ATOM      4  C4  BNZ d   1       0.623  -2.128   3.884  0.00  0.00     0.000 A 
ATOM      5  C5  BNZ d   1      -0.715  -2.311   3.598  0.00  0.00     0.000 A 
ATOM      6  C6  BNZ d   1      -1.394  -1.370   2.857  0.00  0.00     0.000 A 
ENDROOT
TORSDOF 0
ENDMDL
