MODEL 1
REMARK minimizedAffinity 2.05417228
REMARK minimizedRMSD -1
REMARK  0 active torsions:
REMARK  status: ('A' for Active; 'I' for Inactive)
ROOT
ATOM      1  C1  BNZ d   1       2.666  -0.857   4.515  0.00  0.00     0.000 A 
ATOM      2  C2  BNZ d   1       2.408  -0.370   3.261  0.00  0.00     0.000 A 
ATOM      3  C3  BNZ d   1       1.270  -0.728   2.592  0.00  0.00     0.000 A 
ATOM      4  C4  BNZ d   1       0.414  -1.601   3.160  0.00  0.00     0.000 A 
ATOM      5  C5  BNZ d   1       0.666  -2.108   4.420  0.00  0.00     0.000 A 
ATOM      6  C6  BNZ d   1       1.792  -1.716   5.106  0.00  0.00     0.000 A 
ENDROOT
TORSDOF 0
ENDMDL
