MODEL 1
REMARK minimizedAffinity -1.43190742
REMARK minimizedRMSD -1
REMARK  0 active torsions:
REMARK  status: ('A' for Active; 'I' for Inactive)
ROOT
ATOM      1  C1  BNZ d   1      -0.752  -0.812   3.356  0.00  0.00     0.000 A 
ATOM      2  C2  BNZ d   1       0.466  -1.352   3.674  0.00  0.00     0.000 A 
ATOM      3  C3  BNZ d   1       1.554  -1.147   2.872  0.00  0.00     0.000 A 
ATOM      4  C4  BNZ d   1       1.414  -0.436   1.735  0.00  0.00     0.000 A 
ATOM      5  C5  BNZ d   1       0.191   0.108   1.396  0.00  0.00     0.000 A 
ATOM      6  C6  BNZ d   1      -0.893  -0.068   2.225  0.00  0.00     0.000 A 
ENDROOT
TORSDOF 0
ENDMDL
