MODEL 1
REMARK minimizedAffinity 0.692388415
REMARK minimizedRMSD -1
REMARK  0 active torsions:
REMARK  status: ('A' for Active; 'I' for Inactive)
ROOT
ATOM      1  C1  BNZ d   1      -3.100  -3.111  -1.105  0.00  0.00     0.000 A 
ATOM      2  C2  BNZ d   1      -3.869  -2.080  -1.576  0.00  0.00     0.000 A 
ATOM      3  C3  BNZ d   1      -4.962  -2.324  -2.360  0.00  0.00     0.000 A 
ATOM      4  C4  BNZ d   1      -5.261  -3.593  -2.705  0.00  0.00     0.000 A 
ATOM      5  C5  BNZ d   1      -4.489  -4.642  -2.247  0.00  0.00     0.000 A 
ATOM      6  C6  BNZ d   1      -3.413  -4.396  -1.426  0.00  0.00     0.000 A 
ENDROOT
TORSDOF 0
ENDMDL
