MODEL 1
REMARK minimizedAffinity -0.513442159
REMARK minimizedRMSD -1
REMARK  0 active torsions:
REMARK  status: ('A' for Active; 'I' for Inactive)
ROOT
ATOM      1  C1  BNZ d   1      -0.364  -5.995  -5.254  0.00  0.00     0.000 A 
ATOM      2  C2  BNZ d   1      -0.705  -5.647  -3.974  0.00  0.00     0.000 A 
ATOM      3  C3  BNZ d   1       0.250  -5.254  -3.078  0.00  0.00     0.000 A 
ATOM      4  C4  BNZ d   1       1.546  -5.248  -3.450  0.00  0.00     0.000 A 
ATOM      5  C5  BNZ d   1       1.906  -5.604  -4.735  0.00  0.00     0.000 A 
ATOM      6  C6  BNZ d   1       0.939  -5.962  -5.645  0.00  0.00     0.000 A 
ENDROOT
TORSDOF 0
ENDMDL
