MODEL 1
REMARK minimizedAffinity 2.87004685
REMARK minimizedRMSD -1
REMARK  0 active torsions:
REMARK  status: ('A' for Active; 'I' for Inactive)
ROOT
ATOM      1  C1  BNZ d   1       0.043  -5.990  -5.877  0.00  0.00     0.000 A 
ATOM      2  C2  BNZ d   1       1.400  -5.985  -5.696  0.00  0.00     0.000 A 
ATOM      3  C3  BNZ d   1       1.938  -5.999  -4.439  0.00  0.00     0.000 A 
ATOM      4  C4  BNZ d   1       1.120  -5.978  -3.367  0.00  0.00     0.000 A 
ATOM      5  C5  BNZ d   1      -0.251  -5.974  -3.534  0.00  0.00     0.000 A 
ATOM      6  C6  BNZ d   1      -0.789  -5.999  -4.800  0.00  0.00     0.000 A 
ENDROOT
TORSDOF 0
ENDMDL
