MODEL 1
REMARK minimizedAffinity -2.14014697
REMARK minimizedRMSD -1
REMARK  0 active torsions:
REMARK  status: ('A' for Active; 'I' for Inactive)
ROOT
ATOM      1  C   UNL d   1      -1.375  -0.793   1.620  0.00  0.00     0.023 A 
ATOM      2  C1  UNL d   1      -0.685  -1.376   0.557  0.00  0.00     0.003 A 
ATOM      3  C2  UNL d   1       0.057  -0.579  -0.317  0.00  0.00     0.048 A 
ATOM      4  C3  UNL d   1       0.106   0.800  -0.122  0.00  0.00     0.023 A 
ATOM      5  C4  UNL d   1      -0.582   1.389   0.941  0.00  0.00     0.048 A 
ATOM      6  C5  UNL d   1      -1.323   0.588   1.812  0.00  0.00     0.003 A 
ATOM      7  I   UNL d   1       1.210   1.989  -1.422  0.00  0.00    -0.146 I 
ENDROOT
TORSDOF 0
ENDMDL
