MODEL 1
REMARK minimizedAffinity -3.25163245
REMARK minimizedRMSD -1
REMARK  0 active torsions:
REMARK  status: ('A' for Active; 'I' for Inactive)
ROOT
ATOM      1  C   UNL d   1       0.003   2.744   0.262  0.00  0.00     0.023 A 
ATOM      2  C1  UNL d   1      -1.010   2.041   0.915  0.00  0.00     0.003 A 
ATOM      3  C2  UNL d   1      -1.169   0.672   0.690  0.00  0.00     0.048 A 
ATOM      4  C3  UNL d   1      -0.311   0.012  -0.189  0.00  0.00     0.023 A 
ATOM      5  C4  UNL d   1       0.704   0.711  -0.844  0.00  0.00     0.048 A 
ATOM      6  C5  UNL d   1       0.859   2.080  -0.616  0.00  0.00     0.003 A 
ATOM      7  I   UNL d   1      -0.545  -2.026  -0.527  0.00  0.00    -0.146 I 
ENDROOT
TORSDOF 0
ENDMDL
