MODEL 1
REMARK minimizedAffinity -4.26205826
REMARK minimizedRMSD -1
REMARK  0 active torsions:
REMARK  status: ('A' for Active; 'I' for Inactive)
ROOT
ATOM      1  C   UNL d   1      -0.077   3.111   0.208  0.00  0.00     0.023 A 
ATOM      2  C1  UNL d   1       0.846   2.573  -0.689  0.00  0.00     0.003 A 
ATOM      3  C2  UNL d   1       1.002   1.188  -0.786  0.00  0.00     0.048 A 
ATOM      4  C3  UNL d   1       0.230   0.348   0.016  0.00  0.00     0.023 A 
ATOM      5  C4  UNL d   1      -0.696   0.882   0.914  0.00  0.00     0.048 A 
ATOM      6  C5  UNL d   1      -0.847   2.267   1.008  0.00  0.00     0.003 A 
ATOM      7  I   UNL d   1       0.459  -1.713  -0.127  0.00  0.00    -0.146 I 
ENDROOT
TORSDOF 0
ENDMDL
