MODEL 1
REMARK minimizedAffinity -2.76509762
REMARK minimizedRMSD -1
REMARK  0 active torsions:
REMARK  status: ('A' for Active; 'I' for Inactive)
ROOT
ATOM      1  C   UNL d   1      -0.076   3.140   0.291  0.00  0.00     0.023 A 
ATOM      2  C1  UNL d   1      -0.858   2.365   1.148  0.00  0.00     0.003 A 
ATOM      3  C2  UNL d   1      -0.978   0.991   0.933  0.00  0.00     0.048 A 
ATOM      4  C3  UNL d   1      -0.313   0.397  -0.139  0.00  0.00     0.023 A 
ATOM      5  C4  UNL d   1       0.471   1.168  -0.998  0.00  0.00     0.048 A 
ATOM      6  C5  UNL d   1       0.588   2.542  -0.780  0.00  0.00     0.003 A 
ATOM      7  I   UNL d   1      -0.491  -1.649  -0.461  0.00  0.00    -0.146 I 
ENDROOT
TORSDOF 0
ENDMDL
