MODEL 1
REMARK minimizedAffinity -2.81384277
REMARK minimizedRMSD -1
REMARK  0 active torsions:
REMARK  status: ('A' for Active; 'I' for Inactive)
ROOT
ATOM      1  C   UNL d   1       0.273   2.718   0.568  0.00  0.00     0.023 A 
ATOM      2  C1  UNL d   1      -0.947   2.057   0.715  0.00  0.00     0.003 A 
ATOM      3  C2  UNL d   1      -1.080   0.733   0.293  0.00  0.00     0.048 A 
ATOM      4  C3  UNL d   1       0.010   0.075  -0.275  0.00  0.00     0.023 A 
ATOM      5  C4  UNL d   1       1.233   0.732  -0.424  0.00  0.00     0.048 A 
ATOM      6  C5  UNL d   1       1.361   2.056  -0.001  0.00  0.00     0.003 A 
ATOM      7  I   UNL d   1      -0.186  -1.896  -0.905  0.00  0.00    -0.146 I 
ENDROOT
TORSDOF 0
ENDMDL
