MODEL 1
REMARK minimizedAffinity -2.03870368
REMARK minimizedRMSD -1
REMARK  0 active torsions:
REMARK  status: ('A' for Active; 'I' for Inactive)
ROOT
ATOM      1  C   UNL d   1       0.050  -0.905  -0.638  0.00  0.00     0.023 A 
ATOM      2  C1  UNL d   1       0.912   0.186  -0.761  0.00  0.00     0.003 A 
ATOM      3  C2  UNL d   1       0.732   1.313   0.043  0.00  0.00     0.048 A 
ATOM      4  C3  UNL d   1      -0.311   1.344   0.968  0.00  0.00     0.023 A 
ATOM      5  C4  UNL d   1      -1.175   0.255   1.096  0.00  0.00     0.048 A 
ATOM      6  C5  UNL d   1      -0.991  -0.870   0.289  0.00  0.00     0.003 A 
ATOM      7  I   UNL d   1      -0.581   3.021   2.165  0.00  0.00    -0.146 I 
ENDROOT
TORSDOF 0
ENDMDL
