MODEL 1
REMARK minimizedAffinity -3.27097368
REMARK minimizedRMSD -1
REMARK  0 active torsions:
REMARK  status: ('A' for Active; 'I' for Inactive)
ROOT
ATOM      1  C   UNL d   1       0.330   3.227   0.228  0.00  0.00     0.023 A 
ATOM      2  C1  UNL d   1       1.145   2.516  -0.653  0.00  0.00     0.003 A 
ATOM      3  C2  UNL d   1       1.016   1.129  -0.760  0.00  0.00     0.048 A 
ATOM      4  C3  UNL d   1       0.070   0.461   0.015  0.00  0.00     0.023 A 
ATOM      5  C4  UNL d   1      -0.749   1.169   0.897  0.00  0.00     0.048 A 
ATOM      6  C5  UNL d   1      -0.616   2.554   1.002  0.00  0.00     0.003 A 
ATOM      7  I   UNL d   1      -0.124  -1.602  -0.143  0.00  0.00    -0.146 I 
ENDROOT
TORSDOF 0
ENDMDL
