MODEL 1
REMARK minimizedAffinity 1.73812008
REMARK minimizedRMSD -1
REMARK  0 active torsions:
REMARK  status: ('A' for Active; 'I' for Inactive)
ROOT
ATOM      1  C   UNL d   1       0.638   2.160   1.181  0.00  0.00     0.023 A 
ATOM      2  C1  UNL d   1      -0.672   2.040   0.715  0.00  0.00     0.003 A 
ATOM      3  C2  UNL d   1      -1.048   0.922  -0.033  0.00  0.00     0.048 A 
ATOM      4  C3  UNL d   1      -0.111  -0.072  -0.311  0.00  0.00     0.023 A 
ATOM      5  C4  UNL d   1       1.200   0.043   0.154  0.00  0.00     0.048 A 
ATOM      6  C5  UNL d   1       1.572   1.163   0.901  0.00  0.00     0.003 A 
ATOM      7  I   UNL d   1      -0.669  -1.736  -1.423  0.00  0.00    -0.146 I 
ENDROOT
TORSDOF 0
ENDMDL
