MODEL 1
REMARK minimizedAffinity -2.2297585
REMARK minimizedRMSD -1
REMARK  0 active torsions:
REMARK  status: ('A' for Active; 'I' for Inactive)
ROOT
ATOM      1  C   UNL d   1       0.502  -1.530   0.472  0.00  0.00     0.023 A 
ATOM      2  C1  UNL d   1      -0.760  -0.938   0.453  0.00  0.00     0.003 A 
ATOM      3  C2  UNL d   1      -0.881   0.450   0.368  0.00  0.00     0.048 A 
ATOM      4  C3  UNL d   1       0.266   1.241   0.300  0.00  0.00     0.023 A 
ATOM      5  C4  UNL d   1       1.532   0.653   0.317  0.00  0.00     0.048 A 
ATOM      6  C5  UNL d   1       1.647  -0.736   0.404  0.00  0.00     0.003 A 
ATOM      7  I   UNL d   1       0.090   3.308   0.172  0.00  0.00    -0.146 I 
ENDROOT
TORSDOF 0
ENDMDL
