MODEL 1
REMARK minimizedAffinity -2.49598575
REMARK minimizedRMSD -1
REMARK  0 active torsions:
REMARK  status: ('A' for Active; 'I' for Inactive)
ROOT
ATOM      1  C   UNL d   1      -0.682   2.287   1.050  0.00  0.00     0.023 A 
ATOM      2  C1  UNL d   1      -0.094   2.764  -0.122  0.00  0.00     0.003 A 
ATOM      3  C2  UNL d   1       0.451   1.868  -1.045  0.00  0.00     0.048 A 
ATOM      4  C3  UNL d   1       0.402   0.498  -0.791  0.00  0.00     0.023 A 
ATOM      5  C4  UNL d   1      -0.186   0.017   0.380  0.00  0.00     0.048 A 
ATOM      6  C5  UNL d   1      -0.728   0.916   1.301  0.00  0.00     0.003 A 
ATOM      7  I   UNL d   1       1.212  -0.836  -2.163  0.00  0.00    -0.146 I 
ENDROOT
TORSDOF 0
ENDMDL
