MODEL 1
REMARK minimizedAffinity -3.18390179
REMARK minimizedRMSD -1
REMARK  0 active torsions:
REMARK  status: ('A' for Active; 'I' for Inactive)
ROOT
ATOM      1  C   UNL d   1       0.729   1.135   0.388  0.00  0.00     0.023 A 
ATOM      2  C1  UNL d   1      -0.439   0.825  -0.308  0.00  0.00     0.003 A 
ATOM      3  C2  UNL d   1      -0.668  -0.481  -0.745  0.00  0.00     0.048 A 
ATOM      4  C3  UNL d   1       0.276  -1.473  -0.481  0.00  0.00     0.023 A 
ATOM      5  C4  UNL d   1       1.446  -1.168   0.216  0.00  0.00     0.048 A 
ATOM      6  C5  UNL d   1       1.670   0.140   0.650  0.00  0.00     0.003 A 
ATOM      7  I   UNL d   1      -0.062  -3.419  -1.129  0.00  0.00    -0.146 I 
ENDROOT
TORSDOF 0
ENDMDL
