MODEL 1
REMARK minimizedAffinity 3.42719722
REMARK minimizedRMSD -1
REMARK  0 active torsions:
REMARK  status: ('A' for Active; 'I' for Inactive)
ROOT
ATOM      1  C   UNL d   1       2.968   1.157  -0.729  0.00  0.00     0.023 A 
ATOM      2  C1  UNL d   1       1.792   1.655  -1.291  0.00  0.00     0.003 A 
ATOM      3  C2  UNL d   1       0.585   0.978  -1.101  0.00  0.00     0.048 A 
ATOM      4  C3  UNL d   1       0.562  -0.195  -0.347  0.00  0.00     0.023 A 
ATOM      5  C4  UNL d   1       1.736  -0.696   0.218  0.00  0.00     0.048 A 
ATOM      6  C5  UNL d   1       2.940  -0.016   0.024  0.00  0.00     0.003 A 
ATOM      7  I   UNL d   1      -1.233  -1.204  -0.063  0.00  0.00    -0.146 I 
ENDROOT
TORSDOF 0
ENDMDL
