MODEL 1
REMARK minimizedAffinity -3.18491077
REMARK minimizedRMSD -1
REMARK  0 active torsions:
REMARK  status: ('A' for Active; 'I' for Inactive)
ROOT
ATOM      1  C   UNL d   1       0.136   3.169  -0.030  0.00  0.00     0.023 A 
ATOM      2  C1  UNL d   1       0.940   2.336  -0.810  0.00  0.00     0.003 A 
ATOM      3  C2  UNL d   1       0.764   0.951  -0.763  0.00  0.00     0.048 A 
ATOM      4  C3  UNL d   1      -0.217   0.406   0.065  0.00  0.00     0.023 A 
ATOM      5  C4  UNL d   1      -1.024   1.236   0.845  0.00  0.00     0.048 A 
ATOM      6  C5  UNL d   1      -0.844   2.620   0.796  0.00  0.00     0.003 A 
ATOM      7  I   UNL d   1      -0.480  -1.654   0.136  0.00  0.00    -0.146 I 
ENDROOT
TORSDOF 0
ENDMDL
