MODEL 1
REMARK minimizedAffinity -2.048069
REMARK minimizedRMSD -1
REMARK  0 active torsions:
REMARK  status: ('A' for Active; 'I' for Inactive)
ROOT
ATOM      1  C   UNL d   1      -0.464  -4.049  -2.261  0.00  0.00     0.023 A 
ATOM      2  C1  UNL d   1      -1.128  -3.971  -1.036  0.00  0.00     0.003 A 
ATOM      3  C2  UNL d   1      -1.013  -2.823  -0.250  0.00  0.00     0.048 A 
ATOM      4  C3  UNL d   1      -0.234  -1.755  -0.695  0.00  0.00     0.023 A 
ATOM      5  C4  UNL d   1       0.431  -1.828  -1.919  0.00  0.00     0.048 A 
ATOM      6  C5  UNL d   1       0.315  -2.979  -2.702  0.00  0.00     0.003 A 
ATOM      7  I   UNL d   1      -0.063  -0.045   0.474  0.00  0.00    -0.146 I 
ENDROOT
TORSDOF 0
ENDMDL
