MODEL 1
REMARK minimizedAffinity 8.41389942
REMARK minimizedRMSD -1
REMARK  1 active torsions:
REMARK  status: ('A' for Active; 'I' for Inactive)
REMARK    1  A    between atoms: C3_4  and  O_7 
ROOT
ATOM      1  C   UNL d   1      -0.573  -6.000   1.036  0.00  0.00    -0.033 A 
ATOM      2  C1  UNL d   1      -0.915  -5.894  -0.313  0.00  0.00     0.039 A 
ATOM      3  C2  UNL d   1      -1.127  -4.638  -0.885  0.00  0.00    -0.080 A 
ATOM      4  C3  UNL d   1      -0.993  -3.497  -0.098  0.00  0.00     0.150 A 
ATOM      5  C4  UNL d   1      -0.649  -3.595   1.246  0.00  0.00    -0.007 A 
ATOM      6  C5  UNL d   1      -0.438  -4.850   1.816  0.00  0.00     0.039 A 
ENDROOT
BRANCH   4   7
ATOM      7  O   UNL d   1      -1.195  -2.250  -0.610  0.00  0.00    -0.526 OA
ATOM      8  H5  UNL d   1      -1.455  -2.339  -1.542  0.00  0.00     0.418 HD
ENDBRANCH   4   7
TORSDOF 1
ENDMDL
