MODEL 1
REMARK minimizedAffinity 6.98942518
REMARK minimizedRMSD -1
REMARK  1 active torsions:
REMARK  status: ('A' for Active; 'I' for Inactive)
REMARK    1  A    between atoms: C3_4  and  O_7 
ROOT
ATOM      1  C   UNL d   1       2.907  -0.255  -2.553  0.00  0.00    -0.033 A 
ATOM      2  C1  UNL d   1       2.814  -0.843  -1.289  0.00  0.00     0.039 A 
ATOM      3  C2  UNL d   1       2.651  -0.044  -0.156  0.00  0.00    -0.080 A 
ATOM      4  C3  UNL d   1       2.583   1.339  -0.299  0.00  0.00     0.150 A 
ATOM      5  C4  UNL d   1       2.671   1.931  -1.555  0.00  0.00    -0.007 A 
ATOM      6  C5  UNL d   1       2.834   1.132  -2.685  0.00  0.00     0.039 A 
ENDROOT
BRANCH   4   7
ATOM      7  O   UNL d   1       2.430   2.160   0.778  0.00  0.00    -0.526 OA
ATOM      8  H5  UNL d   1       2.413   1.614   1.582  0.00  0.00     0.418 HD
ENDBRANCH   4   7
TORSDOF 1
ENDMDL
