MODEL 1
REMARK minimizedAffinity 2.13743544
REMARK minimizedRMSD -1
REMARK  1 active torsions:
REMARK  status: ('A' for Active; 'I' for Inactive)
REMARK    1  A    between atoms: C3_4  and  O_7 
ROOT
ATOM      1  C   UNL d   1      -1.878  -2.024   1.525  0.00  0.00    -0.033 A 
ATOM      2  C1  UNL d   1      -0.972  -3.061   1.755  0.00  0.00     0.039 A 
ATOM      3  C2  UNL d   1      -0.574  -3.889   0.703  0.00  0.00    -0.080 A 
ATOM      4  C3  UNL d   1      -1.088  -3.669  -0.571  0.00  0.00     0.150 A 
ATOM      5  C4  UNL d   1      -1.988  -2.635  -0.808  0.00  0.00    -0.007 A 
ATOM      6  C5  UNL d   1      -2.385  -1.810   0.243  0.00  0.00     0.039 A 
ENDROOT
BRANCH   4   7
ATOM      7  O   UNL d   1      -0.733  -4.453  -1.628  0.00  0.00    -0.526 OA
ATOM      8  H5  UNL d   1      -0.128  -5.144  -1.309  0.00  0.00     0.418 HD
ENDBRANCH   4   7
TORSDOF 1
ENDMDL
