MODEL 1
REMARK minimizedAffinity 5.84766102
REMARK minimizedRMSD -1
REMARK  1 active torsions:
REMARK  status: ('A' for Active; 'I' for Inactive)
REMARK    1  A    between atoms: C3_4  and  O_7 
ROOT
ATOM      1  C   UNL d   1      -3.460  -1.714   5.242  0.00  0.00    -0.033 A 
ATOM      2  C1  UNL d   1      -2.291  -0.983   5.022  0.00  0.00     0.039 A 
ATOM      3  C2  UNL d   1      -2.266   0.391   5.273  0.00  0.00    -0.080 A 
ATOM      4  C3  UNL d   1      -3.415   1.020   5.744  0.00  0.00     0.150 A 
ATOM      5  C4  UNL d   1      -4.582   0.297   5.969  0.00  0.00    -0.007 A 
ATOM      6  C5  UNL d   1      -4.605  -1.074   5.717  0.00  0.00     0.039 A 
ENDROOT
BRANCH   4   7
ATOM      7  O   UNL d   1      -3.441   2.358   5.999  0.00  0.00    -0.526 OA
ATOM      8  H5  UNL d   1      -2.574   2.732   5.770  0.00  0.00     0.418 HD
ENDBRANCH   4   7
TORSDOF 1
ENDMDL
