MODEL 1
REMARK minimizedAffinity 14.7880354
REMARK minimizedRMSD -1
REMARK  1 active torsions:
REMARK  status: ('A' for Active; 'I' for Inactive)
REMARK    1  A    between atoms: C3_4  and  O_7 
ROOT
ATOM      1  C   UNL d   1       4.583   2.737   4.491  0.00  0.00    -0.033 A 
ATOM      2  C1  UNL d   1       5.223   3.976   4.567  0.00  0.00     0.039 A 
ATOM      3  C2  UNL d   1       4.543   5.085   5.074  0.00  0.00    -0.080 A 
ATOM      4  C3  UNL d   1       3.226   4.942   5.502  0.00  0.00     0.150 A 
ATOM      5  C4  UNL d   1       2.584   3.710   5.433  0.00  0.00    -0.007 A 
ATOM      6  C5  UNL d   1       3.264   2.604   4.926  0.00  0.00     0.039 A 
ENDROOT
BRANCH   4   7
ATOM      7  O   UNL d   1       2.521   5.997   6.000  0.00  0.00    -0.526 OA
ATOM      8  H5  UNL d   1       3.082   6.789   5.960  0.00  0.00     0.418 HD
ENDBRANCH   4   7
TORSDOF 1
ENDMDL
