MODEL 1
REMARK minimizedAffinity 8.99650764
REMARK minimizedRMSD -1
REMARK  1 active torsions:
REMARK  status: ('A' for Active; 'I' for Inactive)
REMARK    1  A    between atoms: C3_4  and  O_7 
ROOT
ATOM      1  C   UNL d   1      -2.187  -1.799   0.509  0.00  0.00    -0.033 A 
ATOM      2  C1  UNL d   1      -1.288  -2.136  -0.505  0.00  0.00     0.039 A 
ATOM      3  C2  UNL d   1      -0.579  -3.337  -0.440  0.00  0.00    -0.080 A 
ATOM      4  C3  UNL d   1      -0.779  -4.191   0.641  0.00  0.00     0.150 A 
ATOM      5  C4  UNL d   1      -1.675  -3.864   1.652  0.00  0.00    -0.007 A 
ATOM      6  C5  UNL d   1      -2.382  -2.663   1.587  0.00  0.00     0.039 A 
ENDROOT
BRANCH   4   7
ATOM      7  O   UNL d   1      -0.106  -5.372   0.749  0.00  0.00    -0.526 OA
ATOM      8  H5  UNL d   1       0.500  -5.452  -0.006  0.00  0.00     0.418 HD
ENDBRANCH   4   7
TORSDOF 1
ENDMDL
