MODEL 1
REMARK minimizedAffinity 14.272706
REMARK minimizedRMSD -1
REMARK  1 active torsions:
REMARK  status: ('A' for Active; 'I' for Inactive)
REMARK    1  A    between atoms: C3_4  and  O_7 
ROOT
ATOM      1  C   UNL d   1       5.014   4.868   4.992  0.00  0.00    -0.033 A 
ATOM      2  C1  UNL d   1       5.169   3.579   4.477  0.00  0.00     0.039 A 
ATOM      3  C2  UNL d   1       4.200   2.605   4.725  0.00  0.00    -0.080 A 
ATOM      4  C3  UNL d   1       3.082   2.932   5.486  0.00  0.00     0.150 A 
ATOM      5  C4  UNL d   1       2.918   4.215   5.998  0.00  0.00    -0.007 A 
ATOM      6  C5  UNL d   1       3.888   5.186   5.751  0.00  0.00     0.039 A 
ENDROOT
BRANCH   4   7
ATOM      7  O   UNL d   1       2.112   2.014   5.758  0.00  0.00    -0.526 OA
ATOM      8  H5  UNL d   1       2.373   1.164   5.365  0.00  0.00     0.418 HD
ENDBRANCH   4   7
TORSDOF 1
ENDMDL
