MODEL 1
REMARK minimizedAffinity 9.38523865
REMARK minimizedRMSD -1
REMARK  1 active torsions:
REMARK  status: ('A' for Active; 'I' for Inactive)
REMARK    1  A    between atoms: C3_4  and  O_7 
ROOT
ATOM      1  C   UNL d   1      -4.211   4.104  -5.047  0.00  0.00    -0.033 A 
ATOM      2  C1  UNL d   1      -3.680   3.232  -5.999  0.00  0.00     0.039 A 
ATOM      3  C2  UNL d   1      -2.314   2.944  -6.000  0.00  0.00    -0.080 A 
ATOM      4  C3  UNL d   1      -1.491   3.532  -5.043  0.00  0.00     0.150 A 
ATOM      5  C4  UNL d   1      -2.014   4.398  -4.089  0.00  0.00    -0.007 A 
ATOM      6  C5  UNL d   1      -3.378   4.686  -4.091  0.00  0.00     0.039 A 
ENDROOT
BRANCH   4   7
ATOM      7  O   UNL d   1      -0.151   3.285  -5.007  0.00  0.00    -0.526 OA
ATOM      8  H5  UNL d   1       0.073   2.692  -5.743  0.00  0.00     0.418 HD
ENDBRANCH   4   7
TORSDOF 1
ENDMDL
