MODEL 1
REMARK minimizedAffinity 6.82982922
REMARK minimizedRMSD -1
REMARK  1 active torsions:
REMARK  status: ('A' for Active; 'I' for Inactive)
REMARK    1  A    between atoms: C3_4  and  O_7 
ROOT
ATOM      1  C   UNL d   1      -5.804   4.456   0.737  0.00  0.00    -0.033 A 
ATOM      2  C1  UNL d   1      -4.867   3.421   0.732  0.00  0.00     0.039 A 
ATOM      3  C2  UNL d   1      -3.543   3.674   1.095  0.00  0.00    -0.080 A 
ATOM      4  C3  UNL d   1      -3.169   4.965   1.460  0.00  0.00     0.150 A 
ATOM      5  C4  UNL d   1      -4.098   6.000   1.470  0.00  0.00    -0.007 A 
ATOM      6  C5  UNL d   1      -5.420   5.745   1.107  0.00  0.00     0.039 A 
ENDROOT
BRANCH   4   7
ATOM      7  O   UNL d   1      -1.887   5.261   1.817  0.00  0.00    -0.526 OA
ATOM      8  H5  UNL d   1      -1.351   4.455   1.735  0.00  0.00     0.418 HD
ENDBRANCH   4   7
TORSDOF 1
ENDMDL
