MODEL 1
REMARK minimizedAffinity 12.6501017
REMARK minimizedRMSD -1
REMARK  1 active torsions:
REMARK  status: ('A' for Active; 'I' for Inactive)
REMARK    1  A    between atoms: C3_4  and  O_7 
ROOT
ATOM      1  C   UNL d   1       5.972   4.555  -0.833  0.00  0.00    -0.033 A 
ATOM      2  C1  UNL d   1       5.110   5.111   0.115  0.00  0.00     0.039 A 
ATOM      3  C2  UNL d   1       4.266   4.286   0.862  0.00  0.00    -0.080 A 
ATOM      4  C3  UNL d   1       4.294   2.910   0.652  0.00  0.00     0.150 A 
ATOM      5  C4  UNL d   1       5.153   2.350  -0.288  0.00  0.00    -0.007 A 
ATOM      6  C5  UNL d   1       5.994   3.175  -1.034  0.00  0.00     0.039 A 
ENDROOT
BRANCH   4   7
ATOM      7  O   UNL d   1       3.485   2.066   1.353  0.00  0.00    -0.526 OA
ATOM      8  H5  UNL d   1       2.927   2.596   1.945  0.00  0.00     0.418 HD
ENDBRANCH   4   7
TORSDOF 1
ENDMDL
