MODEL 1
REMARK minimizedAffinity 2.59042716
REMARK minimizedRMSD -1
REMARK  1 active torsions:
REMARK  status: ('A' for Active; 'I' for Inactive)
REMARK    1  A    between atoms: C3_4  and  O_7 
ROOT
ATOM      1  C   UNL d   1      -6.000   4.442   1.716  0.00  0.00    -0.033 A 
ATOM      2  C1  UNL d   1      -5.230   3.433   1.134  0.00  0.00     0.039 A 
ATOM      3  C2  UNL d   1      -4.460   3.705   0.002  0.00  0.00    -0.080 A 
ATOM      4  C3  UNL d   1      -4.466   4.988  -0.537  0.00  0.00     0.150 A 
ATOM      5  C4  UNL d   1      -5.227   6.000   0.040  0.00  0.00    -0.007 A 
ATOM      6  C5  UNL d   1      -5.997   5.726   1.170  0.00  0.00     0.039 A 
ENDROOT
BRANCH   4   7
ATOM      7  O   UNL d   1      -3.734   5.300  -1.643  0.00  0.00    -0.526 OA
ATOM      8  H5  UNL d   1      -3.282   4.497  -1.950  0.00  0.00     0.418 HD
ENDBRANCH   4   7
TORSDOF 1
ENDMDL
