MODEL 1
REMARK minimizedAffinity 6.09263754
REMARK minimizedRMSD -1
REMARK  1 active torsions:
REMARK  status: ('A' for Active; 'I' for Inactive)
REMARK    1  A    between atoms: C3_4  and  O_7 
ROOT
ATOM      1  C   UNL d   1      -0.778  -5.972   2.826  0.00  0.00    -0.033 A 
ATOM      2  C1  UNL d   1      -1.540  -4.915   3.326  0.00  0.00     0.039 A 
ATOM      3  C2  UNL d   1      -1.940  -3.879   2.480  0.00  0.00    -0.080 A 
ATOM      4  C3  UNL d   1      -1.573  -3.914   1.137  0.00  0.00     0.150 A 
ATOM      5  C4  UNL d   1      -0.817  -4.966   0.632  0.00  0.00    -0.007 A 
ATOM      6  C5  UNL d   1      -0.418  -5.999   1.479  0.00  0.00     0.039 A 
ENDROOT
BRANCH   4   7
ATOM      7  O   UNL d   1      -1.936  -2.923   0.274  0.00  0.00    -0.526 OA
ATOM      8  H5  UNL d   1      -2.430  -2.249   0.769  0.00  0.00     0.418 HD
ENDBRANCH   4   7
TORSDOF 1
ENDMDL
