MODEL 1
REMARK minimizedAffinity 6.76704073
REMARK minimizedRMSD -1
REMARK  1 active torsions:
REMARK  status: ('A' for Active; 'I' for Inactive)
REMARK    1  A    between atoms: C3_4  and  O_7 
ROOT
ATOM      1  C   UNL d   1       2.504   1.215   1.239  0.00  0.00    -0.033 A 
ATOM      2  C1  UNL d   1       3.299   1.917   2.147  0.00  0.00     0.039 A 
ATOM      3  C2  UNL d   1       4.170   2.909   1.694  0.00  0.00    -0.080 A 
ATOM      4  C3  UNL d   1       4.236   3.190   0.332  0.00  0.00     0.150 A 
ATOM      5  C4  UNL d   1       3.444   2.498  -0.578  0.00  0.00    -0.007 A 
ATOM      6  C5  UNL d   1       2.575   1.507  -0.123  0.00  0.00     0.039 A 
ENDROOT
BRANCH   4   7
ATOM      7  O   UNL d   1       5.075   4.146  -0.158  0.00  0.00    -0.526 OA
ATOM      8  H5  UNL d   1       5.581   4.521   0.582  0.00  0.00     0.418 HD
ENDBRANCH   4   7
TORSDOF 1
ENDMDL
