MODEL 1
REMARK minimizedAffinity 5.37108564
REMARK minimizedRMSD -1
REMARK  1 active torsions:
REMARK  status: ('A' for Active; 'I' for Inactive)
REMARK    1  A    between atoms: C3_4  and  O_7 
ROOT
ATOM      1  C   UNL d   1       3.078   2.504  -0.681  0.00  0.00    -0.033 A 
ATOM      2  C1  UNL d   1       4.129   3.195  -0.073  0.00  0.00     0.039 A 
ATOM      3  C2  UNL d   1       4.229   3.233   1.319  0.00  0.00    -0.080 A 
ATOM      4  C3  UNL d   1       3.273   2.578   2.091  0.00  0.00     0.150 A 
ATOM      5  C4  UNL d   1       2.226   1.885   1.492  0.00  0.00    -0.007 A 
ATOM      6  C5  UNL d   1       2.128   1.848   0.102  0.00  0.00     0.039 A 
ENDROOT
BRANCH   4   7
ATOM      7  O   UNL d   1       3.326   2.591   3.453  0.00  0.00    -0.526 OA
ATOM      8  H5  UNL d   1       4.086   3.132   3.726  0.00  0.00     0.418 HD
ENDBRANCH   4   7
TORSDOF 1
ENDMDL
