MODEL 1
REMARK minimizedAffinity 1.79730308
REMARK minimizedRMSD -1
REMARK  0 active torsions:
REMARK  status: ('A' for Active; 'I' for Inactive)
ROOT
ATOM      1  C1  DEN d   1       0.847  -2.429   2.481  0.00  0.00     0.130 A 
ATOM      2  C2  DEN d   1       1.733  -1.289   2.256  0.00  0.00    -0.031 A 
ATOM      3  C3  DEN d   1       2.717  -1.252   3.357  0.00  0.00     0.027 A 
ATOM      4  C4  DEN d   1       2.957  -2.842   5.374  0.00  0.00     0.027 A 
ATOM      5  C5  DEN d   1       2.429  -3.949   5.999  0.00  0.00    -0.003 A 
ATOM      6  C6  DEN d   1       1.325  -4.602   5.518  0.00  0.00     0.001 A 
ATOM      7  C7  DEN d   1       0.740  -4.180   4.354  0.00  0.00     0.017 A 
ATOM      8  C8  DEN d   1       1.262  -3.059   3.722  0.00  0.00    -0.094 A 
ATOM      9  C9  DEN d   1       2.386  -2.420   4.217  0.00  0.00    -0.072 A 
ENDROOT
TORSDOF 0
ENDMDL
