MODEL 1
REMARK minimizedAffinity 8.59147739
REMARK minimizedRMSD -1
REMARK  0 active torsions:
REMARK  status: ('A' for Active; 'I' for Inactive)
ROOT
ATOM      1  C1  DEN d   1       4.604  -5.756  -2.359  0.00  0.00     0.130 A 
ATOM      2  C2  DEN d   1       3.910  -5.665  -1.078  0.00  0.00    -0.031 A 
ATOM      3  C3  DEN d   1       2.457  -5.706  -1.342  0.00  0.00     0.027 A 
ATOM      4  C4  DEN d   1       1.223  -5.904  -3.598  0.00  0.00     0.027 A 
ATOM      5  C5  DEN d   1       1.386  -5.998  -4.962  0.00  0.00    -0.003 A 
ATOM      6  C6  DEN d   1       2.622  -5.983  -5.552  0.00  0.00     0.001 A 
ATOM      7  C7  DEN d   1       3.746  -5.918  -4.772  0.00  0.00     0.017 A 
ATOM      8  C8  DEN d   1       3.589  -5.816  -3.396  0.00  0.00    -0.094 A 
ATOM      9  C9  DEN d   1       2.332  -5.845  -2.817  0.00  0.00    -0.072 A 
ENDROOT
TORSDOF 0
ENDMDL
