MODEL 1
REMARK minimizedAffinity 9.96839809
REMARK minimizedRMSD -1
REMARK  0 active torsions:
REMARK  status: ('A' for Active; 'I' for Inactive)
ROOT
ATOM      1  C1  DEN d   1      -2.612  -0.705  -2.689  0.00  0.00     0.130 A 
ATOM      2  C2  DEN d   1      -3.270   0.574  -2.944  0.00  0.00    -0.031 A 
ATOM      3  C3  DEN d   1      -4.718   0.395  -2.717  0.00  0.00     0.027 A 
ATOM      4  C4  DEN d   1      -5.998  -1.725  -1.995  0.00  0.00     0.027 A 
ATOM      5  C5  DEN d   1      -5.870  -3.058  -1.671  0.00  0.00    -0.003 A 
ATOM      6  C6  DEN d   1      -4.662  -3.703  -1.697  0.00  0.00     0.001 A 
ATOM      7  C7  DEN d   1      -3.526  -3.004  -2.010  0.00  0.00     0.017 A 
ATOM      8  C8  DEN d   1      -3.648  -1.662  -2.345  0.00  0.00    -0.094 A 
ATOM      9  C9  DEN d   1      -4.876  -1.025  -2.301  0.00  0.00    -0.072 A 
ENDROOT
TORSDOF 0
ENDMDL
