MODEL 1
REMARK minimizedAffinity 11.1658754
REMARK minimizedRMSD -1
REMARK  0 active torsions:
REMARK  status: ('A' for Active; 'I' for Inactive)
ROOT
ATOM      1  C1  DEN d   1       2.783  -0.630   3.191  0.00  0.00     0.130 A 
ATOM      2  C2  DEN d   1       1.661  -0.645   2.257  0.00  0.00    -0.031 A 
ATOM      3  C3  DEN d   1       1.200  -2.042   2.121  0.00  0.00     0.027 A 
ATOM      4  C4  DEN d   1       2.108  -4.169   3.262  0.00  0.00     0.027 A 
ATOM      5  C5  DEN d   1       3.060  -4.659   4.129  0.00  0.00    -0.003 A 
ATOM      6  C6  DEN d   1       4.000  -3.851   4.712  0.00  0.00     0.001 A 
ATOM      7  C7  DEN d   1       3.981  -2.503   4.471  0.00  0.00     0.017 A 
ATOM      8  C8  DEN d   1       3.029  -2.003   3.593  0.00  0.00    -0.094 A 
ATOM      9  C9  DEN d   1       2.079  -2.833   3.023  0.00  0.00    -0.072 A 
ENDROOT
TORSDOF 0
ENDMDL
