MODEL 1
REMARK minimizedAffinity 13.7009888
REMARK minimizedRMSD -1
REMARK  0 active torsions:
REMARK  status: ('A' for Active; 'I' for Inactive)
ROOT
ATOM      1  C1  DEN d   1       3.463   1.961   0.360  0.00  0.00     0.130 A 
ATOM      2  C2  DEN d   1       2.600   1.201   1.260  0.00  0.00    -0.031 A 
ATOM      3  C3  DEN d   1       1.259   1.818   1.236  0.00  0.00     0.027 A 
ATOM      4  C4  DEN d   1       0.437   3.862  -0.105  0.00  0.00     0.027 A 
ATOM      5  C5  DEN d   1       0.810   4.843  -0.997  0.00  0.00    -0.003 A 
ATOM      6  C6  DEN d   1       2.091   4.952  -1.469  0.00  0.00     0.001 A 
ATOM      7  C7  DEN d   1       3.036   4.037  -1.086  0.00  0.00     0.017 A 
ATOM      8  C8  DEN d   1       2.669   3.049  -0.182  0.00  0.00    -0.094 A 
ATOM      9  C9  DEN d   1       1.366   2.948   0.275  0.00  0.00    -0.072 A 
ENDROOT
TORSDOF 0
ENDMDL
