MODEL 1
REMARK minimizedAffinity 6.24111223
REMARK minimizedRMSD -1
REMARK  0 active torsions:
REMARK  status: ('A' for Active; 'I' for Inactive)
ROOT
ATOM      1  C1  DEN d   1       2.133  -0.808   4.102  0.00  0.00     0.130 A 
ATOM      2  C2  DEN d   1       2.556  -0.356   2.780  0.00  0.00    -0.031 A 
ATOM      3  C3  DEN d   1       2.644  -1.539   1.900  0.00  0.00     0.027 A 
ATOM      4  C4  DEN d   1       2.164  -4.012   2.453  0.00  0.00     0.027 A 
ATOM      5  C5  DEN d   1       1.787  -4.887   3.447  0.00  0.00    -0.003 A 
ATOM      6  C6  DEN d   1       1.534  -4.472   4.728  0.00  0.00     0.001 A 
ATOM      7  C7  DEN d   1       1.611  -3.140   5.037  0.00  0.00     0.017 A 
ATOM      8  C8  DEN d   1       1.997  -2.252   4.041  0.00  0.00    -0.094 A 
ATOM      9  C9  DEN d   1       2.237  -2.690   2.750  0.00  0.00    -0.072 A 
ENDROOT
TORSDOF 0
ENDMDL
