MODEL 1
REMARK minimizedAffinity 9.4478054
REMARK minimizedRMSD -1
REMARK  0 active torsions:
REMARK  status: ('A' for Active; 'I' for Inactive)
ROOT
ATOM      1  C1  DEN d   1      -0.559  -5.265   4.502  0.00  0.00     0.130 A 
ATOM      2  C2  DEN d   1      -0.213  -6.000   5.715  0.00  0.00    -0.031 A 
ATOM      3  C3  DEN d   1       1.254  -5.943   5.880  0.00  0.00     0.027 A 
ATOM      4  C4  DEN d   1       3.011  -4.791   4.384  0.00  0.00     0.027 A 
ATOM      5  C5  DEN d   1       3.198  -4.053   3.236  0.00  0.00    -0.003 A 
ATOM      6  C6  DEN d   1       2.158  -3.698   2.419  0.00  0.00     0.001 A 
ATOM      7  C7  DEN d   1       0.877  -4.044   2.761  0.00  0.00     0.017 A 
ATOM      8  C8  DEN d   1       0.682  -4.795   3.913  0.00  0.00    -0.094 A 
ATOM      9  C9  DEN d   1       1.745  -5.133   4.733  0.00  0.00    -0.072 A 
ENDROOT
TORSDOF 0
ENDMDL
