MODEL 1
REMARK minimizedAffinity 11.1658497
REMARK minimizedRMSD -1
REMARK  0 active torsions:
REMARK  status: ('A' for Active; 'I' for Inactive)
ROOT
ATOM      1  C1  DEN d   1       3.664  -4.364   4.471  0.00  0.00     0.130 A 
ATOM      2  C2  DEN d   1       3.101  -5.646   4.057  0.00  0.00    -0.031 A 
ATOM      3  C3  DEN d   1       2.079  -5.383   3.024  0.00  0.00     0.027 A 
ATOM      4  C4  DEN d   1       1.321  -3.128   2.028  0.00  0.00     0.027 A 
ATOM      5  C5  DEN d   1       1.502  -1.764   2.073  0.00  0.00    -0.003 A 
ATOM      6  C6  DEN d   1       2.385  -1.172   2.937  0.00  0.00     0.001 A 
ATOM      7  C7  DEN d   1       3.153  -1.952   3.761  0.00  0.00     0.017 A 
ATOM      8  C8  DEN d   1       2.971  -3.328   3.726  0.00  0.00    -0.094 A 
ATOM      9  C9  DEN d   1       2.082  -3.907   2.837  0.00  0.00    -0.072 A 
ENDROOT
TORSDOF 0
ENDMDL
