MODEL 1
REMARK minimizedAffinity 3.50209498
REMARK minimizedRMSD -1
REMARK  0 active torsions:
REMARK  status: ('A' for Active; 'I' for Inactive)
ROOT
ATOM      1  C1  DEN d   1       3.084  -5.832  -5.837  0.00  0.00     0.130 A 
ATOM      2  C2  DEN d   1       1.635  -5.917  -5.997  0.00  0.00    -0.031 A 
ATOM      3  C3  DEN d   1       1.031  -6.000  -4.653  0.00  0.00     0.027 A 
ATOM      4  C4  DEN d   1       2.192  -5.999  -2.349  0.00  0.00     0.027 A 
ATOM      5  C5  DEN d   1       3.409  -5.955  -1.705  0.00  0.00    -0.003 A 
ATOM      6  C6  DEN d   1       4.595  -5.902  -2.389  0.00  0.00     0.001 A 
ATOM      7  C7  DEN d   1       4.587  -5.846  -3.757  0.00  0.00     0.017 A 
ATOM      8  C8  DEN d   1       3.365  -5.897  -4.414  0.00  0.00    -0.094 A 
ATOM      9  C9  DEN d   1       2.176  -5.938  -3.705  0.00  0.00    -0.072 A 
ENDROOT
TORSDOF 0
ENDMDL
