MODEL 1
REMARK minimizedAffinity 4.08839321
REMARK minimizedRMSD -1
REMARK  0 active torsions:
REMARK  status: ('A' for Active; 'I' for Inactive)
ROOT
ATOM      1  C4' PXY d   1       3.750   0.231   2.261  0.00  0.00     0.077 C 
ATOM      2  C1' PXY d   1      -0.097  -3.224  -0.323  0.00  0.00     0.077 C 
ATOM      3  C1  PXY d   1       0.922  -2.326   0.350  0.00  0.00    -0.082 A 
ATOM      4  C2  PXY d   1       0.552  -1.567   1.369  0.00  0.00     0.003 A 
ATOM      5  C3  PXY d   1       1.452  -0.725   1.969  0.00  0.00     0.003 A 
ATOM      6  C4  PXY d   1       2.758  -0.698   1.557  0.00  0.00    -0.082 A 
ATOM      7  C5  PXY d   1       3.145  -1.477   0.524  0.00  0.00     0.003 A 
ATOM      8  C6  PXY d   1       2.206  -2.295  -0.098  0.00  0.00     0.003 A 
ENDROOT
TORSDOF 0
ENDMDL
