MODEL 1
REMARK minimizedAffinity 9.56991959
REMARK minimizedRMSD -1
REMARK  0 active torsions:
REMARK  status: ('A' for Active; 'I' for Inactive)
ROOT
ATOM      1  C4' PXY d   1      -4.124  -5.996   4.963  0.00  0.00     0.077 C 
ATOM      2  C1' PXY d   1      -5.434  -3.089   0.141  0.00  0.00     0.077 C 
ATOM      3  C1  PXY d   1      -5.099  -3.844   1.412  0.00  0.00    -0.082 A 
ATOM      4  C2  PXY d   1      -3.932  -4.459   1.519  0.00  0.00     0.003 A 
ATOM      5  C3  PXY d   1      -3.626  -5.173   2.649  0.00  0.00     0.003 A 
ATOM      6  C4  PXY d   1      -4.501  -5.214   3.701  0.00  0.00    -0.082 A 
ATOM      7  C5  PXY d   1      -5.689  -4.579   3.604  0.00  0.00     0.003 A 
ATOM      8  C6  PXY d   1      -5.998  -3.894   2.432  0.00  0.00     0.003 A 
ENDROOT
TORSDOF 0
ENDMDL
