MODEL 1
REMARK minimizedAffinity 7.49082994
REMARK minimizedRMSD -1
REMARK  0 active torsions:
REMARK  status: ('A' for Active; 'I' for Inactive)
ROOT
ATOM      1  C4' PXY d   1       0.205  -1.898  -2.237  0.00  0.00     0.077 C 
ATOM      2  C1' PXY d   1       1.419  -0.165   3.142  0.00  0.00     0.077 C 
ATOM      3  C1  PXY d   1       1.091  -0.627   1.736  0.00  0.00    -0.082 A 
ATOM      4  C2  PXY d   1       2.025  -0.587   0.800  0.00  0.00     0.003 A 
ATOM      5  C3  PXY d   1       1.736  -0.970  -0.485  0.00  0.00     0.003 A 
ATOM      6  C4  PXY d   1       0.494  -1.450  -0.802  0.00  0.00    -0.082 A 
ATOM      7  C5  PXY d   1      -0.461  -1.504   0.150  0.00  0.00     0.003 A 
ATOM      8  C6  PXY d   1      -0.160  -1.071   1.438  0.00  0.00     0.003 A 
ENDROOT
TORSDOF 0
ENDMDL
