MODEL 1
REMARK minimizedAffinity 4.4441576
REMARK minimizedRMSD -1
REMARK  0 active torsions:
REMARK  status: ('A' for Active; 'I' for Inactive)
ROOT
ATOM      1  C4' PXY d   1       4.517  -0.666   1.753  0.00  0.00     0.077 C 
ATOM      2  C1' PXY d   1      -1.138  -1.223   0.692  0.00  0.00     0.077 C 
ATOM      3  C1  PXY d   1       0.343  -1.064   0.974  0.00  0.00    -0.082 A 
ATOM      4  C2  PXY d   1       1.216  -1.823   0.332  0.00  0.00     0.003 A 
ATOM      5  C3  PXY d   1       2.556  -1.716   0.598  0.00  0.00     0.003 A 
ATOM      6  C4  PXY d   1       3.013  -0.785   1.493  0.00  0.00    -0.082 A 
ATOM      7  C5  PXY d   1       2.129   0.000   2.144  0.00  0.00     0.003 A 
ATOM      8  C6  PXY d   1       0.769  -0.153   1.890  0.00  0.00     0.003 A 
ENDROOT
TORSDOF 0
ENDMDL
