MODEL 1
REMARK minimizedAffinity -1.65904999
REMARK minimizedRMSD -1
REMARK  0 active torsions:
REMARK  status: ('A' for Active; 'I' for Inactive)
ROOT
ATOM      1  C4' PXY d   1       3.139   0.050   1.100  0.00  0.00     0.077 C 
ATOM      2  C1' PXY d   1      -1.064  -3.579  -0.507  0.00  0.00     0.077 C 
ATOM      3  C1  PXY d   1       0.047  -2.637  -0.087  0.00  0.00    -0.082 A 
ATOM      4  C2  PXY d   1      -0.234  -1.593   0.676  0.00  0.00     0.003 A 
ATOM      5  C3  PXY d   1       0.753  -0.713   1.038  0.00  0.00     0.003 A 
ATOM      6  C4  PXY d   1       2.051  -0.933   0.660  0.00  0.00    -0.082 A 
ATOM      7  C5  PXY d   1       2.347  -2.002  -0.110  0.00  0.00     0.003 A 
ATOM      8  C6  PXY d   1       1.324  -2.860  -0.501  0.00  0.00     0.003 A 
ENDROOT
TORSDOF 0
ENDMDL
