MODEL 1
REMARK minimizedAffinity 2.16033769
REMARK minimizedRMSD -1
REMARK  0 active torsions:
REMARK  status: ('A' for Active; 'I' for Inactive)
ROOT
ATOM      1  C4' PXY d   1       3.229  -3.875  -0.756  0.00  0.00     0.077 C 
ATOM      2  C1' PXY d   1      -1.678  -1.302   0.892  0.00  0.00     0.077 C 
ATOM      3  C1  PXY d   1      -0.397  -1.987   0.458  0.00  0.00    -0.082 A 
ATOM      4  C2  PXY d   1       0.767  -1.536   0.895  0.00  0.00     0.003 A 
ATOM      5  C3  PXY d   1       1.936  -2.125   0.486  0.00  0.00     0.003 A 
ATOM      6  C4  PXY d   1       1.911  -3.219  -0.336  0.00  0.00    -0.082 A 
ATOM      7  C5  PXY d   1       0.726  -3.692  -0.777  0.00  0.00     0.003 A 
ATOM      8  C6  PXY d   1      -0.447  -3.055  -0.384  0.00  0.00     0.003 A 
ENDROOT
TORSDOF 0
ENDMDL
