MODEL 1
REMARK minimizedAffinity -3.59877062
REMARK minimizedRMSD -1
REMARK  0 active torsions:
REMARK  status: ('A' for Active; 'I' for Inactive)
ROOT
ATOM      1  C4' PXY d   1       2.478  -3.288   0.016  0.00  0.00     0.077 C 
ATOM      2  C1' PXY d   1      -1.766   0.476   1.130  0.00  0.00     0.077 C 
ATOM      3  C1  PXY d   1      -0.662  -0.521   0.837  0.00  0.00    -0.082 A 
ATOM      4  C2  PXY d   1       0.579  -0.252   1.212  0.00  0.00     0.003 A 
ATOM      5  C3  PXY d   1       1.595  -1.127   0.927  0.00  0.00     0.003 A 
ATOM      6  C4  PXY d   1       1.330  -2.315   0.299  0.00  0.00    -0.082 A 
ATOM      7  C5  PXY d   1       0.065  -2.601  -0.077  0.00  0.00     0.003 A 
ATOM      8  C6  PXY d   1      -0.945  -1.681   0.185  0.00  0.00     0.003 A 
ENDROOT
TORSDOF 0
ENDMDL
