MODEL 1
REMARK minimizedAffinity 3.53687906
REMARK minimizedRMSD -1
REMARK  0 active torsions:
REMARK  status: ('A' for Active; 'I' for Inactive)
ROOT
ATOM      1  C4' PXY d   1      -1.784  -1.894   0.644  0.00  0.00     0.077 C 
ATOM      2  C1' PXY d   1       3.426  -4.124  -0.494  0.00  0.00     0.077 C 
ATOM      3  C1  PXY d   1       2.065  -3.531  -0.187  0.00  0.00    -0.082 A 
ATOM      4  C2  PXY d   1       0.975  -4.255  -0.388  0.00  0.00     0.003 A 
ATOM      5  C3  PXY d   1      -0.265  -3.722  -0.146  0.00  0.00     0.003 A 
ATOM      6  C4  PXY d   1      -0.389  -2.455   0.357  0.00  0.00    -0.082 A 
ATOM      7  C5  PXY d   1       0.718  -1.714   0.574  0.00  0.00     0.003 A 
ATOM      8  C6  PXY d   1       1.966  -2.258   0.283  0.00  0.00     0.003 A 
ENDROOT
TORSDOF 0
ENDMDL
