MODEL 1
REMARK minimizedAffinity -0.30256927
REMARK minimizedRMSD -1
REMARK  0 active torsions:
REMARK  status: ('A' for Active; 'I' for Inactive)
ROOT
ATOM      1  C4' PXY d   1      -0.759   0.349   1.155  0.00  0.00     0.077 C 
ATOM      2  C1' PXY d   1       2.570  -4.072  -0.515  0.00  0.00     0.077 C 
ATOM      3  C1  PXY d   1       1.707  -2.907  -0.072  0.00  0.00    -0.082 A 
ATOM      4  C2  PXY d   1       0.409  -3.086   0.112  0.00  0.00     0.003 A 
ATOM      5  C3  PXY d   1      -0.391  -2.036   0.482  0.00  0.00     0.003 A 
ATOM      6  C4  PXY d   1       0.152  -0.801   0.717  0.00  0.00    -0.082 A 
ATOM      7  C5  PXY d   1       1.477  -0.612   0.542  0.00  0.00     0.003 A 
ATOM      8  C6  PXY d   1       2.265  -1.682   0.126  0.00  0.00     0.003 A 
ENDROOT
TORSDOF 0
ENDMDL
