MODEL 1
REMARK minimizedAffinity -0.239478916
REMARK minimizedRMSD -1
REMARK  0 active torsions:
REMARK  status: ('A' for Active; 'I' for Inactive)
ROOT
ATOM      1  C4' PXY d   1      -0.608   0.269   1.550  0.00  0.00     0.077 C 
ATOM      2  C1' PXY d   1       1.912  -4.161  -1.176  0.00  0.00     0.077 C 
ATOM      3  C1  PXY d   1       1.240  -3.005  -0.463  0.00  0.00    -0.082 A 
ATOM      4  C2  PXY d   1       1.815  -1.814  -0.460  0.00  0.00     0.003 A 
ATOM      5  C3  PXY d   1       1.237  -0.765   0.207  0.00  0.00     0.003 A 
ATOM      6  C4  PXY d   1       0.030  -0.925   0.834  0.00  0.00    -0.082 A 
ATOM      7  C5  PXY d   1      -0.569  -2.134   0.827  0.00  0.00     0.003 A 
ATOM      8  C6  PXY d   1       0.055  -3.196   0.179  0.00  0.00     0.003 A 
ENDROOT
TORSDOF 0
ENDMDL
