MODEL 1
REMARK minimizedAffinity -1.97547114
REMARK minimizedRMSD -1
REMARK  0 active torsions:
REMARK  status: ('A' for Active; 'I' for Inactive)
ROOT
ATOM      1  C4' PXY d   1      -5.334  -5.991   5.998  0.00  0.00     0.077 C 
ATOM      2  C1' PXY d   1      -5.397  -3.330   0.868  0.00  0.00     0.077 C 
ATOM      3  C1  PXY d   1      -5.380  -4.016   2.219  0.00  0.00    -0.082 A 
ATOM      4  C2  PXY d   1      -4.957  -5.266   2.312  0.00  0.00     0.003 A 
ATOM      5  C3  PXY d   1      -4.965  -5.913   3.522  0.00  0.00     0.003 A 
ATOM      6  C4  PXY d   1      -5.360  -5.255   4.656  0.00  0.00    -0.082 A 
ATOM      7  C5  PXY d   1      -5.783  -3.976   4.571  0.00  0.00     0.003 A 
ATOM      8  C6  PXY d   1      -5.806  -3.351   3.327  0.00  0.00     0.003 A 
ENDROOT
TORSDOF 0
ENDMDL
