MODEL 1
REMARK minimizedAffinity -0.42140919
REMARK minimizedRMSD -1
REMARK  0 active torsions:
REMARK  status: ('A' for Active; 'I' for Inactive)
ROOT
ATOM      1  C4' PXY d   1      -5.277  -5.987   5.813  0.00  0.00     0.077 C 
ATOM      2  C1' PXY d   1      -5.625  -2.931   0.918  0.00  0.00     0.077 C 
ATOM      3  C1  PXY d   1      -5.524  -3.725   2.206  0.00  0.00    -0.082 A 
ATOM      4  C2  PXY d   1      -5.992  -4.961   2.250  0.00  0.00     0.003 A 
ATOM      5  C3  PXY d   1      -5.937  -5.682   3.415  0.00  0.00     0.003 A 
ATOM      6  C4  PXY d   1      -5.349  -5.151   4.532  0.00  0.00    -0.082 A 
ATOM      7  C5  PXY d   1      -4.859  -3.894   4.491  0.00  0.00     0.003 A 
ATOM      8  C6  PXY d   1      -4.962  -3.164   3.311  0.00  0.00     0.003 A 
ENDROOT
TORSDOF 0
ENDMDL
