MODEL 1
REMARK minimizedAffinity 4.44930553
REMARK minimizedRMSD -1
REMARK  0 active torsions:
REMARK  status: ('A' for Active; 'I' for Inactive)
ROOT
ATOM      1  C4' PXY d   1       3.281  -3.880  -0.107  0.00  0.00     0.077 C 
ATOM      2  C1' PXY d   1      -1.888  -1.302   0.129  0.00  0.00     0.077 C 
ATOM      3  C1  PXY d   1      -0.527  -1.967   0.072  0.00  0.00    -0.082 A 
ATOM      4  C2  PXY d   1      -0.306  -2.931  -0.807  0.00  0.00     0.003 A 
ATOM      5  C3  PXY d   1       0.909  -3.565  -0.850  0.00  0.00     0.003 A 
ATOM      6  C4  PXY d   1       1.925  -3.173  -0.021  0.00  0.00    -0.082 A 
ATOM      7  C5  PXY d   1       1.711  -2.183   0.872  0.00  0.00     0.003 A 
ATOM      8  C6  PXY d   1       0.458  -1.580   0.928  0.00  0.00     0.003 A 
ENDROOT
TORSDOF 0
ENDMDL
