MODEL 1
REMARK minimizedAffinity -4.79395628
REMARK minimizedRMSD -1
REMARK  0 active torsions:
REMARK  status: ('A' for Active; 'I' for Inactive)
ROOT
ATOM      1  C4' PXY d   1       2.943  -1.489  -0.168  0.00  0.00     0.077 C 
ATOM      2  C1' PXY d   1      -2.647  -2.532   0.871  0.00  0.00     0.077 C 
ATOM      3  C1  PXY d   1      -1.184  -2.247   0.594  0.00  0.00    -0.082 A 
ATOM      4  C2  PXY d   1      -0.348  -3.252   0.390  0.00  0.00     0.003 A 
ATOM      5  C3  PXY d   1       0.984  -3.013   0.171  0.00  0.00     0.003 A 
ATOM      6  C4  PXY d   1       1.456  -1.730   0.106  0.00  0.00    -0.082 A 
ATOM      7  C5  PXY d   1       0.607  -0.698   0.302  0.00  0.00     0.003 A 
ATOM      8  C6  PXY d   1      -0.733  -0.963   0.565  0.00  0.00     0.003 A 
ENDROOT
TORSDOF 0
ENDMDL
