MODEL 1
REMARK minimizedAffinity 0.786930561
REMARK minimizedRMSD -1
REMARK  0 active torsions:
REMARK  status: ('A' for Active; 'I' for Inactive)
ROOT
ATOM      1  C4' PXY d   1      -2.278   1.562   3.920  0.00  0.00     0.077 C 
ATOM      2  C1' PXY d   1      -0.256  -2.794   0.703  0.00  0.00     0.077 C 
ATOM      3  C1  PXY d   1      -0.781  -1.657   1.557  0.00  0.00    -0.082 A 
ATOM      4  C2  PXY d   1      -1.823  -0.955   1.143  0.00  0.00     0.003 A 
ATOM      5  C3  PXY d   1      -2.291   0.097   1.888  0.00  0.00     0.003 A 
ATOM      6  C4  PXY d   1      -1.720   0.400   3.094  0.00  0.00    -0.082 A 
ATOM      7  C5  PXY d   1      -0.662  -0.318   3.529  0.00  0.00     0.003 A 
ATOM      8  C6  PXY d   1      -0.177  -1.356   2.739  0.00  0.00     0.003 A 
ENDROOT
TORSDOF 0
ENDMDL
