MODEL 1
REMARK minimizedAffinity 3.00702739
REMARK minimizedRMSD -1
REMARK  0 active torsions:
REMARK  status: ('A' for Active; 'I' for Inactive)
ROOT
ATOM      1  C4' PXY d   1       3.983  -0.985   0.577  0.00  0.00     0.077 C 
ATOM      2  C1' PXY d   1      -1.796  -1.121   0.514  0.00  0.00     0.077 C 
ATOM      3  C1  PXY d   1      -0.281  -1.074   0.537  0.00  0.00    -0.082 A 
ATOM      4  C2  PXY d   1       0.408  -1.702  -0.402  0.00  0.00     0.003 A 
ATOM      5  C3  PXY d   1       1.779  -1.696  -0.378  0.00  0.00     0.003 A 
ATOM      6  C4  PXY d   1       2.452  -0.997   0.588  0.00  0.00    -0.082 A 
ATOM      7  C5  PXY d   1       1.756  -0.345   1.544  0.00  0.00     0.003 A 
ATOM      8  C6  PXY d   1       0.366  -0.397   1.525  0.00  0.00     0.003 A 
ENDROOT
TORSDOF 0
ENDMDL
