MODEL 1
REMARK minimizedAffinity 2.3634553
REMARK minimizedRMSD -1
REMARK  0 active torsions:
REMARK  status: ('A' for Active; 'I' for Inactive)
ROOT
ATOM      1  C4' PXY d   1      -0.976   0.877   1.594  0.00  0.00     0.077 C 
ATOM      2  C1' PXY d   1       1.869  -3.747  -0.390  0.00  0.00     0.077 C 
ATOM      3  C1  PXY d   1       1.113  -2.538   0.124  0.00  0.00    -0.082 A 
ATOM      4  C2  PXY d   1       1.780  -1.459   0.500  0.00  0.00     0.003 A 
ATOM      5  C3  PXY d   1       1.114  -0.369   0.997  0.00  0.00     0.003 A 
ATOM      6  C4  PXY d   1      -0.254  -0.363   1.060  0.00  0.00    -0.082 A 
ATOM      7  C5  PXY d   1      -0.943  -1.456   0.668  0.00  0.00     0.003 A 
ATOM      8  C6  PXY d   1      -0.245  -2.567   0.205  0.00  0.00     0.003 A 
ENDROOT
TORSDOF 0
ENDMDL
