MODEL 1
REMARK minimizedAffinity 8.80091286
REMARK minimizedRMSD -1
REMARK  0 active torsions:
REMARK  status: ('A' for Active; 'I' for Inactive)
ROOT
ATOM      1  C4' PXY d   1      -1.295  -1.834   0.436  0.00  0.00     0.077 C 
ATOM      2  C1' PXY d   1       3.373  -4.956  -0.934  0.00  0.00     0.077 C 
ATOM      3  C1  PXY d   1       2.155  -4.133  -0.565  0.00  0.00    -0.082 A 
ATOM      4  C2  PXY d   1       0.959  -4.508  -0.988  0.00  0.00     0.003 A 
ATOM      5  C3  PXY d   1      -0.149  -3.757  -0.690  0.00  0.00     0.003 A 
ATOM      6  C4  PXY d   1      -0.039  -2.640   0.095  0.00  0.00    -0.082 A 
ATOM      7  C5  PXY d   1       1.177  -2.258   0.540  0.00  0.00     0.003 A 
ATOM      8  C6  PXY d   1       2.294  -3.010   0.192  0.00  0.00     0.003 A 
ENDROOT
TORSDOF 0
ENDMDL
