MODEL 1
REMARK minimizedAffinity -4.11535835
REMARK minimizedRMSD -1
REMARK  0 active torsions:
REMARK  status: ('A' for Active; 'I' for Inactive)
ROOT
ATOM      1  C4' PXY d   1       1.826  -3.578   0.111  0.00  0.00     0.077 C 
ATOM      2  C1' PXY d   1      -2.808  -0.364   1.381  0.00  0.00     0.077 C 
ATOM      3  C1  PXY d   1      -1.601  -1.216   1.043  0.00  0.00    -0.082 A 
ATOM      4  C2  PXY d   1      -0.476  -1.054   1.720  0.00  0.00     0.003 A 
ATOM      5  C3  PXY d   1       0.635  -1.794   1.406  0.00  0.00     0.003 A 
ATOM      6  C4  PXY d   1       0.579  -2.746   0.424  0.00  0.00    -0.082 A 
ATOM      7  C5  PXY d   1      -0.569  -2.925  -0.264  0.00  0.00     0.003 A 
ATOM      8  C6  PXY d   1      -1.673  -2.135   0.042  0.00  0.00     0.003 A 
ENDROOT
TORSDOF 0
ENDMDL
