MODEL 1
REMARK minimizedAffinity 4.74316788
REMARK minimizedRMSD -1
REMARK  0 active torsions:
REMARK  status: ('A' for Active; 'I' for Inactive)
ROOT
ATOM      1  C4' PXY d   1      -0.405  -3.893  -0.930  0.00  0.00     0.077 C 
ATOM      2  C1' PXY d   1       2.190  -0.015   2.482  0.00  0.00     0.077 C 
ATOM      3  C1  PXY d   1       1.499  -1.032   1.595  0.00  0.00    -0.082 A 
ATOM      4  C2  PXY d   1       2.225  -1.850   0.850  0.00  0.00     0.003 A 
ATOM      5  C3  PXY d   1       1.615  -2.753   0.018  0.00  0.00     0.003 A 
ATOM      6  C4  PXY d   1       0.250  -2.857  -0.012  0.00  0.00    -0.082 A 
ATOM      7  C5  PXY d   1      -0.496  -2.033   0.753  0.00  0.00     0.003 A 
ATOM      8  C6  PXY d   1       0.141  -1.095   1.560  0.00  0.00     0.003 A 
ENDROOT
TORSDOF 0
ENDMDL
