MODEL 1
REMARK minimizedAffinity -4.96005106
REMARK minimizedRMSD -1
REMARK  1 active torsions:
REMARK  status: ('A' for Active; 'I' for Inactive)
REMARK    1  A    between atoms: C1_2  and  C2_3 
ROOT
ATOM      1  C2  UNL d   1       1.337  -1.554   0.744  0.00  0.00    -0.077 A 
ATOM      2  C3  UNL d   1       1.165  -1.641   2.132  0.00  0.00     0.002 A 
ATOM      3  C4  UNL d   1       0.137  -0.936   2.762  0.00  0.00     0.002 A 
ATOM      4  C5  UNL d   1      -0.728  -0.143   2.011  0.00  0.00    -0.004 A 
ATOM      5  C6  UNL d   1      -0.564  -0.049   0.629  0.00  0.00     0.002 A 
ATOM      6  C7  UNL d   1       0.463  -0.752  -0.002  0.00  0.00     0.002 A 
ENDROOT
BRANCH   1   7
ATOM      7  C1  UNL d   1       2.414  -2.353   0.057  0.00  0.00     0.055 C 
ATOM      8  C   UNL d   1       3.800  -1.839   0.419  0.00  0.00     0.019 C 
ENDBRANCH   1   7
TORSDOF 1
ENDMDL
