MODEL 1
REMARK minimizedAffinity -2.64739251
REMARK minimizedRMSD -1
REMARK  1 active torsions:
REMARK  status: ('A' for Active; 'I' for Inactive)
REMARK    1  A    between atoms: C1_2  and  C2_3 
ROOT
ATOM      1  C2  UNL d   1       0.985  -2.446   2.282  0.00  0.00    -0.077 A 
ATOM      2  C3  UNL d   1       1.506  -3.740   2.142  0.00  0.00     0.002 A 
ATOM      3  C4  UNL d   1       0.918  -4.815   2.812  0.00  0.00     0.002 A 
ATOM      4  C5  UNL d   1      -0.195  -4.607   3.623  0.00  0.00    -0.004 A 
ATOM      5  C6  UNL d   1      -0.720  -3.324   3.771  0.00  0.00     0.002 A 
ATOM      6  C7  UNL d   1      -0.133  -2.248   3.102  0.00  0.00     0.002 A 
ENDROOT
BRANCH   1   7
ATOM      7  C1  UNL d   1       1.587  -1.294   1.521  0.00  0.00     0.055 C 
ATOM      8  C   UNL d   1       0.515  -0.474   0.818  0.00  0.00     0.019 C 
ENDBRANCH   1   7
TORSDOF 1
ENDMDL
