MODEL 1
REMARK minimizedAffinity -3.89890647
REMARK minimizedRMSD -1
REMARK  1 active torsions:
REMARK  status: ('A' for Active; 'I' for Inactive)
REMARK    1  A    between atoms: C1_2  and  C2_3 
ROOT
ATOM      1  C2  UNL d   1      -0.269  -0.476   0.563  0.00  0.00    -0.077 A 
ATOM      2  C3  UNL d   1       0.476  -0.712  -0.600  0.00  0.00     0.002 A 
ATOM      3  C4  UNL d   1       1.843  -0.985  -0.521  0.00  0.00     0.002 A 
ATOM      4  C5  UNL d   1       2.476  -1.029   0.720  0.00  0.00    -0.004 A 
ATOM      5  C6  UNL d   1       1.744  -0.793   1.883  0.00  0.00     0.002 A 
ATOM      6  C7  UNL d   1       0.378  -0.518   1.805  0.00  0.00     0.002 A 
ENDROOT
BRANCH   1   7
ATOM      7  C1  UNL d   1      -1.753  -0.230   0.483  0.00  0.00     0.055 C 
ATOM      8  C   UNL d   1      -2.433  -1.244  -0.425  0.00  0.00     0.019 C 
ENDBRANCH   1   7
TORSDOF 1
ENDMDL
