MODEL 1
REMARK minimizedAffinity -1.70049798
REMARK minimizedRMSD -1
REMARK  1 active torsions:
REMARK  status: ('A' for Active; 'I' for Inactive)
REMARK    1  A    between atoms: C1_2  and  C2_3 
ROOT
ATOM      1  C2  UNL d   1       0.686  -1.154   1.550  0.00  0.00    -0.077 A 
ATOM      2  C3  UNL d   1      -0.338  -0.294   1.128  0.00  0.00     0.002 A 
ATOM      3  C4  UNL d   1      -0.484   0.020  -0.224  0.00  0.00     0.002 A 
ATOM      4  C5  UNL d   1       0.387  -0.525  -1.166  0.00  0.00    -0.004 A 
ATOM      5  C6  UNL d   1       1.409  -1.380  -0.756  0.00  0.00     0.002 A 
ATOM      6  C7  UNL d   1       1.558  -1.693   0.596  0.00  0.00     0.002 A 
ENDROOT
BRANCH   1   7
ATOM      7  C1  UNL d   1       0.815  -1.532   3.003  0.00  0.00     0.055 C 
ATOM      8  C   UNL d   1       0.225  -2.909   3.270  0.00  0.00     0.019 C 
ENDBRANCH   1   7
TORSDOF 1
ENDMDL
