MODEL 1
REMARK minimizedAffinity -2.44617414
REMARK minimizedRMSD -1
REMARK  1 active torsions:
REMARK  status: ('A' for Active; 'I' for Inactive)
REMARK    1  A    between atoms: C1_2  and  C2_3 
ROOT
ATOM      1  C2  UNL d   1       0.411  -0.625   1.756  0.00  0.00    -0.077 A 
ATOM      2  C3  UNL d   1      -0.870  -0.185   1.396  0.00  0.00     0.002 A 
ATOM      3  C4  UNL d   1      -1.153   0.158   0.072  0.00  0.00     0.002 A 
ATOM      4  C5  UNL d   1      -0.161   0.061  -0.902  0.00  0.00    -0.004 A 
ATOM      5  C6  UNL d   1       1.117  -0.373  -0.553  0.00  0.00     0.002 A 
ATOM      6  C7  UNL d   1       1.402  -0.715   0.770  0.00  0.00     0.002 A 
ENDROOT
BRANCH   1   7
ATOM      7  C1  UNL d   1       0.705  -1.042   3.173  0.00  0.00     0.055 C 
ATOM      8  C   UNL d   1       2.173  -0.837   3.518  0.00  0.00     0.019 C 
ENDBRANCH   1   7
TORSDOF 1
ENDMDL
