MODEL 1
REMARK minimizedAffinity -3.53602409
REMARK minimizedRMSD -1
REMARK  1 active torsions:
REMARK  status: ('A' for Active; 'I' for Inactive)
REMARK    1  A    between atoms: C1_2  and  C2_3 
ROOT
ATOM      1  C2  UNL d   1      -0.818  -0.599   1.358  0.00  0.00    -0.077 A 
ATOM      2  C3  UNL d   1       0.101  -0.360   0.327  0.00  0.00     0.002 A 
ATOM      3  C4  UNL d   1       1.472  -0.342   0.594  0.00  0.00     0.002 A 
ATOM      4  C5  UNL d   1       1.934  -0.566   1.889  0.00  0.00    -0.004 A 
ATOM      5  C6  UNL d   1       1.027  -0.802   2.921  0.00  0.00     0.002 A 
ATOM      6  C7  UNL d   1      -0.343  -0.819   2.657  0.00  0.00     0.002 A 
ENDROOT
BRANCH   1   7
ATOM      7  C1  UNL d   1      -2.294  -0.668   1.063  0.00  0.00     0.055 C 
ATOM      8  C   UNL d   1      -2.560  -1.330  -0.281  0.00  0.00     0.019 C 
ENDBRANCH   1   7
TORSDOF 1
ENDMDL
