MODEL 1
REMARK minimizedAffinity -5.03660822
REMARK minimizedRMSD -1
REMARK  1 active torsions:
REMARK  status: ('A' for Active; 'I' for Inactive)
REMARK    1  A    between atoms: C1_2  and  C2_3 
ROOT
ATOM      1  C2  UNL d   1      -0.473  -0.565   1.261  0.00  0.00    -0.077 A 
ATOM      2  C3  UNL d   1       0.027  -0.818   2.547  0.00  0.00     0.002 A 
ATOM      3  C4  UNL d   1       1.402  -0.918   2.763  0.00  0.00     0.002 A 
ATOM      4  C5  UNL d   1       2.290  -0.764   1.700  0.00  0.00    -0.004 A 
ATOM      5  C6  UNL d   1       1.803  -0.515   0.417  0.00  0.00     0.002 A 
ATOM      6  C7  UNL d   1       0.428  -0.415   0.199  0.00  0.00     0.002 A 
ENDROOT
BRANCH   1   7
ATOM      7  C1  UNL d   1      -1.954  -0.408   1.035  0.00  0.00     0.055 C 
ATOM      8  C   UNL d   1      -2.390  -1.077  -0.260  0.00  0.00     0.019 C 
ENDBRANCH   1   7
TORSDOF 1
ENDMDL
