MODEL 1
REMARK minimizedAffinity -4.68755865
REMARK minimizedRMSD -1
REMARK  1 active torsions:
REMARK  status: ('A' for Active; 'I' for Inactive)
REMARK    1  A    between atoms: C1_2  and  C2_3 
ROOT
ATOM      1  C2  UNL d   1      -1.281  -0.942  -0.230  0.00  0.00    -0.077 A 
ATOM      2  C3  UNL d   1      -0.001  -0.752  -0.770  0.00  0.00     0.002 A 
ATOM      3  C4  UNL d   1       1.103  -0.593   0.070  0.00  0.00     0.002 A 
ATOM      4  C5  UNL d   1       0.939  -0.627   1.453  0.00  0.00    -0.004 A 
ATOM      5  C6  UNL d   1      -0.330  -0.813   1.999  0.00  0.00     0.002 A 
ATOM      6  C7  UNL d   1      -1.435  -0.971   1.162  0.00  0.00     0.002 A 
ENDROOT
BRANCH   1   7
ATOM      7  C1  UNL d   1      -2.465  -1.162  -1.134  0.00  0.00     0.055 C 
ATOM      8  C   UNL d   1      -3.589  -1.887  -0.408  0.00  0.00     0.019 C 
ENDBRANCH   1   7
TORSDOF 1
ENDMDL
