MODEL 1
REMARK minimizedAffinity -3.25130916
REMARK minimizedRMSD -1
REMARK  0 active torsions:
REMARK  status: ('A' for Active; 'I' for Inactive)
ROOT
ATOM      1  C4' PXY d   1       0.924   1.928  -2.250  0.00  0.00     0.077 C 
ATOM      2  C1' PXY d   1       0.076  -2.679   1.137  0.00  0.00     0.077 C 
ATOM      3  C1  PXY d   1       0.289  -1.465   0.255  0.00  0.00    -0.082 A 
ATOM      4  C2  PXY d   1       0.859  -1.609  -0.931  0.00  0.00     0.003 A 
ATOM      5  C3  PXY d   1       1.088  -0.516  -1.727  0.00  0.00     0.003 A 
ATOM      6  C4  PXY d   1       0.681   0.729  -1.330  0.00  0.00    -0.082 A 
ATOM      7  C5  PXY d   1       0.088   0.882  -0.126  0.00  0.00     0.003 A 
ATOM      8  C6  PXY d   1      -0.097  -0.233   0.685  0.00  0.00     0.003 A 
ENDROOT
TORSDOF 0
ENDMDL
