MODEL 1
REMARK minimizedAffinity -3.70624971
REMARK minimizedRMSD -1
REMARK  0 active torsions:
REMARK  status: ('A' for Active; 'I' for Inactive)
ROOT
ATOM      1  C4' PXY d   1       1.413   2.019  -1.537  0.00  0.00     0.077 C 
ATOM      2  C1' PXY d   1      -0.492  -2.521   1.492  0.00  0.00     0.077 C 
ATOM      3  C1  PXY d   1      -0.004  -1.326   0.696  0.00  0.00    -0.082 A 
ATOM      4  C2  PXY d   1       1.173  -1.378   0.094  0.00  0.00     0.003 A 
ATOM      5  C3  PXY d   1       1.643  -0.295  -0.604  0.00  0.00     0.003 A 
ATOM      6  C4  PXY d   1       0.877   0.833  -0.730  0.00  0.00    -0.082 A 
ATOM      7  C5  PXY d   1      -0.330   0.889  -0.128  0.00  0.00     0.003 A 
ATOM      8  C6  PXY d   1      -0.771  -0.205   0.610  0.00  0.00     0.003 A 
ENDROOT
TORSDOF 0
ENDMDL
