MODEL 1
REMARK minimizedAffinity -4.88685846
REMARK minimizedRMSD -1
REMARK  0 active torsions:
REMARK  status: ('A' for Active; 'I' for Inactive)
ROOT
ATOM      1  C4' PXY d   1       0.900   1.447  -1.381  0.00  0.00     0.077 C 
ATOM      2  C1' PXY d   1      -2.098  -2.531   1.554  0.00  0.00     0.077 C 
ATOM      3  C1  PXY d   1      -1.321  -1.479   0.786  0.00  0.00    -0.082 A 
ATOM      4  C2  PXY d   1      -0.443  -1.853  -0.130  0.00  0.00     0.003 A 
ATOM      5  C3  PXY d   1       0.292  -0.916  -0.810  0.00  0.00     0.003 A 
ATOM      6  C4  PXY d   1       0.086   0.420  -0.588  0.00  0.00    -0.082 A 
ATOM      7  C5  PXY d   1      -0.816   0.810   0.337  0.00  0.00     0.003 A 
ATOM      8  C6  PXY d   1      -1.521  -0.158   1.046  0.00  0.00     0.003 A 
ENDROOT
TORSDOF 0
ENDMDL
