MODEL 1
REMARK minimizedAffinity -2.13438892
REMARK minimizedRMSD -1
REMARK  0 active torsions:
REMARK  status: ('A' for Active; 'I' for Inactive)
ROOT
ATOM      1  C4' PXY d   1      -0.706  -2.886   1.332  0.00  0.00     0.077 C 
ATOM      2  C1' PXY d   1       0.960   2.242  -0.751  0.00  0.00     0.077 C 
ATOM      3  C1  PXY d   1       0.534   0.892  -0.210  0.00  0.00    -0.082 A 
ATOM      4  C2  PXY d   1      -0.745   0.660   0.036  0.00  0.00     0.003 A 
ATOM      5  C3  PXY d   1      -1.144  -0.544   0.556  0.00  0.00     0.003 A 
ATOM      6  C4  PXY d   1      -0.231  -1.541   0.776  0.00  0.00    -0.082 A 
ATOM      7  C5  PXY d   1       1.075  -1.315   0.517  0.00  0.00     0.003 A 
ATOM      8  C6  PXY d   1       1.465  -0.072   0.029  0.00  0.00     0.003 A 
ENDROOT
TORSDOF 0
ENDMDL
