MODEL 1
REMARK minimizedAffinity -1.95037782
REMARK minimizedRMSD -1
REMARK  0 active torsions:
REMARK  status: ('A' for Active; 'I' for Inactive)
ROOT
ATOM      1  C4' PXY d   1       1.177   1.694  -1.136  0.00  0.00     0.077 C 
ATOM      2  C1' PXY d   1      -1.246  -2.469   2.059  0.00  0.00     0.077 C 
ATOM      3  C1  PXY d   1      -0.622  -1.372   1.219  0.00  0.00    -0.082 A 
ATOM      4  C2  PXY d   1       0.546  -1.580   0.635  0.00  0.00     0.003 A 
ATOM      5  C3  PXY d   1       1.140  -0.588  -0.102  0.00  0.00     0.003 A 
ATOM      6  C4  PXY d   1       0.506   0.612  -0.286  0.00  0.00    -0.082 A 
ATOM      7  C5  PXY d   1      -0.691   0.828   0.299  0.00  0.00     0.003 A 
ATOM      8  C6  PXY d   1      -1.258  -0.178   1.076  0.00  0.00     0.003 A 
ENDROOT
TORSDOF 0
ENDMDL
