MODEL 1
REMARK minimizedAffinity -1.73193216
REMARK minimizedRMSD -1
REMARK  0 active torsions:
REMARK  status: ('A' for Active; 'I' for Inactive)
ROOT
ATOM      1  C4' PXY d   1      -2.440  -0.034   2.746  0.00  0.00     0.077 C 
ATOM      2  C1' PXY d   1       0.892  -2.636  -1.197  0.00  0.00     0.077 C 
ATOM      3  C1  PXY d   1       0.012  -1.965  -0.161  0.00  0.00    -0.082 A 
ATOM      4  C2  PXY d   1      -0.133  -0.650  -0.179  0.00  0.00     0.003 A 
ATOM      5  C3  PXY d   1      -0.900  -0.023   0.770  0.00  0.00     0.003 A 
ATOM      6  C4  PXY d   1      -1.568  -0.756   1.714  0.00  0.00    -0.082 A 
ATOM      7  C5  PXY d   1      -1.435  -2.099   1.732  0.00  0.00     0.003 A 
ATOM      8  C6  PXY d   1      -0.619  -2.712   0.785  0.00  0.00     0.003 A 
ENDROOT
TORSDOF 0
ENDMDL
