MODEL 1
REMARK minimizedAffinity -2.13347793
REMARK minimizedRMSD -1
REMARK  0 active torsions:
REMARK  status: ('A' for Active; 'I' for Inactive)
ROOT
ATOM      1  C4' PXY d   1       0.895   2.520  -2.579  0.00  0.00     0.077 C 
ATOM      2  C1' PXY d   1       0.176  -1.886   1.093  0.00  0.00     0.077 C 
ATOM      3  C1  PXY d   1       0.361  -0.722   0.139  0.00  0.00    -0.082 A 
ATOM      4  C2  PXY d   1       0.275  -0.925  -1.165  0.00  0.00     0.003 A 
ATOM      5  C3  PXY d   1       0.472   0.110  -2.043  0.00  0.00     0.003 A 
ATOM      6  C4  PXY d   1       0.706   1.376  -1.579  0.00  0.00    -0.082 A 
ATOM      7  C5  PXY d   1       0.784   1.594  -0.249  0.00  0.00     0.003 A 
ATOM      8  C6  PXY d   1       0.623   0.522   0.624  0.00  0.00     0.003 A 
ENDROOT
TORSDOF 0
ENDMDL
