MODEL 1
REMARK minimizedAffinity -4.42538738
REMARK minimizedRMSD -1
REMARK  0 active torsions:
REMARK  status: ('A' for Active; 'I' for Inactive)
ROOT
ATOM      1  C4' PXY d   1      -0.270  -2.440   0.828  0.00  0.00     0.077 C 
ATOM      2  C1' PXY d   1       0.640   2.307  -2.343  0.00  0.00     0.077 C 
ATOM      3  C1  PXY d   1       0.407   1.068  -1.502  0.00  0.00    -0.082 A 
ATOM      4  C2  PXY d   1       0.255  -0.106  -2.093  0.00  0.00     0.003 A 
ATOM      5  C3  PXY d   1       0.011  -1.232  -1.349  0.00  0.00     0.003 A 
ATOM      6  C4  PXY d   1      -0.024  -1.164   0.018  0.00  0.00    -0.082 A 
ATOM      7  C5  PXY d   1       0.141   0.028   0.630  0.00  0.00     0.003 A 
ATOM      8  C6  PXY d   1       0.346   1.165  -0.146  0.00  0.00     0.003 A 
ENDROOT
TORSDOF 0
ENDMDL
