MODEL 1
REMARK minimizedAffinity -4.8528266
REMARK minimizedRMSD -1
REMARK  0 active torsions:
REMARK  status: ('A' for Active; 'I' for Inactive)
ROOT
ATOM      1  C4' PXY d   1      -1.920  -1.929   1.746  0.00  0.00     0.077 C 
ATOM      2  C1' PXY d   1       1.040   1.832  -1.495  0.00  0.00     0.077 C 
ATOM      3  C1  PXY d   1       0.260   0.855  -0.637  0.00  0.00    -0.082 A 
ATOM      4  C2  PXY d   1       0.590  -0.426  -0.641  0.00  0.00     0.003 A 
ATOM      5  C3  PXY d   1      -0.125  -1.328   0.104  0.00  0.00     0.003 A 
ATOM      6  C4  PXY d   1      -1.154  -0.906   0.903  0.00  0.00    -0.082 A 
ATOM      7  C5  PXY d   1      -1.490   0.402   0.920  0.00  0.00     0.003 A 
ATOM      8  C6  PXY d   1      -0.778   1.295   0.125  0.00  0.00     0.003 A 
ENDROOT
TORSDOF 0
ENDMDL
