MODEL 1
REMARK minimizedAffinity -5.23984718
REMARK minimizedRMSD -1
REMARK  0 active torsions:
REMARK  status: ('A' for Active; 'I' for Inactive)
ROOT
ATOM      1  C4' PXY d   1       0.807   2.377  -2.715  0.00  0.00     0.077 C 
ATOM      2  C1' PXY d   1      -0.038  -2.004   0.960  0.00  0.00     0.077 C 
ATOM      3  C1  PXY d   1       0.176  -0.848   0.004  0.00  0.00    -0.082 A 
ATOM      4  C2  PXY d   1       0.485  -1.092  -1.259  0.00  0.00     0.003 A 
ATOM      5  C3  PXY d   1       0.713  -0.058  -2.130  0.00  0.00     0.003 A 
ATOM      6  C4  PXY d   1       0.572   1.240  -1.716  0.00  0.00    -0.082 A 
ATOM      7  C5  PXY d   1       0.247   1.497  -0.432  0.00  0.00     0.003 A 
ATOM      8  C6  PXY d   1       0.060   0.434   0.446  0.00  0.00     0.003 A 
ENDROOT
TORSDOF 0
ENDMDL
