MODEL 1
REMARK minimizedAffinity -0.687941849
REMARK minimizedRMSD -1
REMARK  0 active torsions:
REMARK  status: ('A' for Active; 'I' for Inactive)
ROOT
ATOM      1  C4' PXY d   1       2.343  -1.623   1.124  0.00  0.00     0.077 C 
ATOM      2  C1' PXY d   1      -3.174  -0.090   0.327  0.00  0.00     0.077 C 
ATOM      3  C1  PXY d   1      -1.730  -0.500   0.546  0.00  0.00    -0.082 A 
ATOM      4  C2  PXY d   1      -0.756   0.280   0.108  0.00  0.00     0.003 A 
ATOM      5  C3  PXY d   1       0.555  -0.090   0.269  0.00  0.00     0.003 A 
ATOM      6  C4  PXY d   1       0.871  -1.245   0.933  0.00  0.00    -0.082 A 
ATOM      7  C5  PXY d   1      -0.117  -2.041   1.393  0.00  0.00     0.003 A 
ATOM      8  C6  PXY d   1      -1.441  -1.667   1.182  0.00  0.00     0.003 A 
ENDROOT
TORSDOF 0
ENDMDL
