MODEL 1
REMARK minimizedAffinity -4.59536552
REMARK minimizedRMSD -1
REMARK  0 active torsions:
REMARK  status: ('A' for Active; 'I' for Inactive)
ROOT
ATOM      1  C4' PXY d   1       0.197   1.780  -0.780  0.00  0.00     0.077 C 
ATOM      2  C1' PXY d   1      -1.652  -2.689   2.386  0.00  0.00     0.077 C 
ATOM      3  C1  PXY d   1      -1.180  -1.512   1.556  0.00  0.00    -0.082 A 
ATOM      4  C2  PXY d   1      -0.080  -1.625   0.828  0.00  0.00     0.003 A 
ATOM      5  C3  PXY d   1       0.379  -0.560   0.096  0.00  0.00     0.003 A 
ATOM      6  C4  PXY d   1      -0.323   0.615   0.067  0.00  0.00    -0.082 A 
ATOM      7  C5  PXY d   1      -1.452   0.734   0.798  0.00  0.00     0.003 A 
ATOM      8  C6  PXY d   1      -1.879  -0.345   1.566  0.00  0.00     0.003 A 
ENDROOT
TORSDOF 0
ENDMDL
