MODEL 1
REMARK minimizedAffinity -2.1821878
REMARK minimizedRMSD -1
REMARK  0 active torsions:
REMARK  status: ('A' for Active; 'I' for Inactive)
ROOT
ATOM      1  C4' PXY d   1       0.628   2.106  -2.009  0.00  0.00     0.077 C 
ATOM      2  C1' PXY d   1       0.252  -2.644   1.264  0.00  0.00     0.077 C 
ATOM      3  C1  PXY d   1       0.355  -1.391   0.416  0.00  0.00    -0.082 A 
ATOM      4  C2  PXY d   1      -0.357  -1.293  -0.695  0.00  0.00     0.003 A 
ATOM      5  C3  PXY d   1      -0.252  -0.181  -1.490  0.00  0.00     0.003 A 
ATOM      6  C4  PXY d   1       0.549   0.864  -1.117  0.00  0.00    -0.082 A 
ATOM      7  C5  PXY d   1       1.270   0.777   0.021  0.00  0.00     0.003 A 
ATOM      8  C6  PXY d   1       1.181  -0.378   0.793  0.00  0.00     0.003 A 
ENDROOT
TORSDOF 0
ENDMDL
