MODEL 1
REMARK minimizedAffinity -4.30315065
REMARK minimizedRMSD -1
REMARK  0 active torsions:
REMARK  status: ('A' for Active; 'I' for Inactive)
ROOT
ATOM      1  C4' PXY d   1       0.670  -1.236   0.441  0.00  0.00     0.077 C 
ATOM      2  C1' PXY d   1       0.583   2.725  -3.768  0.00  0.00     0.077 C 
ATOM      3  C1  PXY d   1       0.616   1.692  -2.659  0.00  0.00    -0.082 A 
ATOM      4  C2  PXY d   1       0.066   0.505  -2.854  0.00  0.00     0.003 A 
ATOM      5  C3  PXY d   1       0.059  -0.430  -1.851  0.00  0.00     0.003 A 
ATOM      6  C4  PXY d   1       0.668  -0.166  -0.654  0.00  0.00    -0.082 A 
ATOM      7  C5  PXY d   1       1.241   1.039  -0.450  0.00  0.00     0.003 A 
ATOM      8  C6  PXY d   1       1.202   1.989  -1.467  0.00  0.00     0.003 A 
ENDROOT
TORSDOF 0
ENDMDL
