MODEL 1
REMARK minimizedAffinity -3.93823862
REMARK minimizedRMSD -1
REMARK  0 active torsions:
REMARK  status: ('A' for Active; 'I' for Inactive)
ROOT
ATOM      1  C4' PXY d   1      -0.614  -0.942   0.266  0.00  0.00     0.077 C 
ATOM      2  C1' PXY d   1       1.213   2.628  -3.897  0.00  0.00     0.077 C 
ATOM      3  C1  PXY d   1       0.725   1.687  -2.813  0.00  0.00    -0.082 A 
ATOM      4  C2  PXY d   1       0.960   1.974  -1.543  0.00  0.00     0.003 A 
ATOM      5  C3  PXY d   1       0.554   1.118  -0.552  0.00  0.00     0.003 A 
ATOM      6  C4  PXY d   1      -0.148  -0.016  -0.861  0.00  0.00    -0.082 A 
ATOM      7  C5  PXY d   1      -0.401  -0.311  -2.154  0.00  0.00     0.003 A 
ATOM      8  C6  PXY d   1       0.056   0.550  -3.147  0.00  0.00     0.003 A 
ENDROOT
TORSDOF 0
ENDMDL
