MODEL 1
REMARK minimizedAffinity -5.08639622
REMARK minimizedRMSD -1
REMARK  0 active torsions:
REMARK  status: ('A' for Active; 'I' for Inactive)
ROOT
ATOM      1  C4' PXY d   1      -0.282  -1.764   1.172  0.00  0.00     0.077 C 
ATOM      2  C1' PXY d   1       1.295   1.402  -3.400  0.00  0.00     0.077 C 
ATOM      3  C1  PXY d   1       0.887   0.580  -2.193  0.00  0.00    -0.082 A 
ATOM      4  C2  PXY d   1       0.624  -0.708  -2.338  0.00  0.00     0.003 A 
ATOM      5  C3  PXY d   1       0.223  -1.459  -1.263  0.00  0.00     0.003 A 
ATOM      6  C4  PXY d   1       0.142  -0.897  -0.017  0.00  0.00    -0.082 A 
ATOM      7  C5  PXY d   1       0.419   0.414   0.141  0.00  0.00     0.003 A 
ATOM      8  C6  PXY d   1       0.785   1.168  -0.970  0.00  0.00     0.003 A 
ENDROOT
TORSDOF 0
ENDMDL
