MODEL 1
REMARK minimizedAffinity -5.37875605
REMARK minimizedRMSD -1
REMARK  0 active torsions:
REMARK  status: ('A' for Active; 'I' for Inactive)
ROOT
ATOM      1  C4' PXY d   1       1.836  -1.853  -0.009  0.00  0.00     0.077 C 
ATOM      2  C1' PXY d   1      -2.991   0.229   2.396  0.00  0.00     0.077 C 
ATOM      3  C1  PXY d   1      -1.726  -0.307   1.756  0.00  0.00    -0.082 A 
ATOM      4  C2  PXY d   1      -1.392  -1.576   1.930  0.00  0.00     0.003 A 
ATOM      5  C3  PXY d   1      -0.234  -2.069   1.385  0.00  0.00     0.003 A 
ATOM      6  C4  PXY d   1       0.562  -1.270   0.610  0.00  0.00    -0.082 A 
ATOM      7  C5  PXY d   1       0.223   0.022   0.419  0.00  0.00     0.003 A 
ATOM      8  C6  PXY d   1      -0.935   0.515   1.014  0.00  0.00     0.003 A 
ENDROOT
TORSDOF 0
ENDMDL
