MODEL 1
REMARK minimizedAffinity -3.2012372
REMARK minimizedRMSD -1
REMARK  0 active torsions:
REMARK  status: ('A' for Active; 'I' for Inactive)
ROOT
ATOM      1  C4' PXY d   1       1.377   1.820  -2.509  0.00  0.00     0.077 C 
ATOM      2  C1' PXY d   1      -0.267  -2.193   1.313  0.00  0.00     0.077 C 
ATOM      3  C1  PXY d   1       0.154  -1.133   0.315  0.00  0.00    -0.082 A 
ATOM      4  C2  PXY d   1       0.874  -1.478  -0.741  0.00  0.00     0.003 A 
ATOM      5  C3  PXY d   1       1.290  -0.528  -1.637  0.00  0.00     0.003 A 
ATOM      6  C4  PXY d   1       0.922   0.782  -1.480  0.00  0.00    -0.082 A 
ATOM      7  C5  PXY d   1       0.179   1.140  -0.411  0.00  0.00     0.003 A 
ATOM      8  C6  PXY d   1      -0.199   0.166   0.509  0.00  0.00     0.003 A 
ENDROOT
TORSDOF 0
ENDMDL
