MODEL 1
REMARK minimizedAffinity -3.10178494
REMARK minimizedRMSD -1
REMARK  0 active torsions:
REMARK  status: ('A' for Active; 'I' for Inactive)
ROOT
ATOM      1  C4' PXY d   1       1.126   2.172  -1.862  0.00  0.00     0.077 C 
ATOM      2  C1' PXY d   1      -0.569  -2.334   1.338  0.00  0.00     0.077 C 
ATOM      3  C1  PXY d   1      -0.133  -1.145   0.505  0.00  0.00    -0.082 A 
ATOM      4  C2  PXY d   1       0.432  -1.344  -0.675  0.00  0.00     0.003 A 
ATOM      5  C3  PXY d   1       0.861  -0.281  -1.427  0.00  0.00     0.003 A 
ATOM      6  C4  PXY d   1       0.662   1.001  -0.991  0.00  0.00    -0.082 A 
ATOM      7  C5  PXY d   1       0.077   1.213   0.207  0.00  0.00     0.003 A 
ATOM      8  C6  PXY d   1      -0.314   0.120   0.974  0.00  0.00     0.003 A 
ENDROOT
TORSDOF 0
ENDMDL
