MODEL 1
REMARK minimizedAffinity -3.20572376
REMARK minimizedRMSD -1
REMARK  0 active torsions:
REMARK  status: ('A' for Active; 'I' for Inactive)
ROOT
ATOM      1  C4' PXY d   1       0.860   0.965  -1.112  0.00  0.00     0.077 C 
ATOM      2  C1' PXY d   1      -2.242  -1.099   3.307  0.00  0.00     0.077 C 
ATOM      3  C1  PXY d   1      -1.418  -0.566   2.151  0.00  0.00    -0.082 A 
ATOM      4  C2  PXY d   1      -1.676   0.638   1.665  0.00  0.00     0.003 A 
ATOM      5  C3  PXY d   1      -0.963   1.123   0.599  0.00  0.00     0.003 A 
ATOM      6  C4  PXY d   1       0.061   0.390   0.060  0.00  0.00    -0.082 A 
ATOM      7  C5  PXY d   1       0.337  -0.834   0.558  0.00  0.00     0.003 A 
ATOM      8  C6  PXY d   1      -0.426  -1.325   1.613  0.00  0.00     0.003 A 
ENDROOT
TORSDOF 0
ENDMDL
