MODEL 1
REMARK minimizedAffinity -0.706083417
REMARK minimizedRMSD -1
REMARK  0 active torsions:
REMARK  status: ('A' for Active; 'I' for Inactive)
ROOT
ATOM      1  C1  BNZ d   1       4.188  -0.282  -0.006  0.00  0.00     0.000 A 
ATOM      2  C2  BNZ d   1       3.327  -0.047   1.032  0.00  0.00     0.000 A 
ATOM      3  C3  BNZ d   1       2.538   1.070   1.049  0.00  0.00     0.000 A 
ATOM      4  C4  BNZ d   1       2.641   1.968   0.049  0.00  0.00     0.000 A 
ATOM      5  C5  BNZ d   1       3.511   1.750  -1.001  0.00  0.00     0.000 A 
ATOM      6  C6  BNZ d   1       4.275   0.606  -1.034  0.00  0.00     0.000 A 
ENDROOT
TORSDOF 0
ENDMDL
