MODEL 1
REMARK minimizedAffinity 4.77223873
REMARK minimizedRMSD -1
REMARK  0 active torsions:
REMARK  status: ('A' for Active; 'I' for Inactive)
ROOT
ATOM      1  C1  BNZ d   1       2.299   1.573   1.161  0.00  0.00     0.000 A 
ATOM      2  C2  BNZ d   1       2.395   0.595   2.115  0.00  0.00     0.000 A 
ATOM      3  C3  BNZ d   1       3.408  -0.321   2.078  0.00  0.00     0.000 A 
ATOM      4  C4  BNZ d   1       4.300  -0.284   1.067  0.00  0.00     0.000 A 
ATOM      5  C5  BNZ d   1       4.211   0.690   0.092  0.00  0.00     0.000 A 
ATOM      6  C6  BNZ d   1       3.212   1.634   0.154  0.00  0.00     0.000 A 
ENDROOT
TORSDOF 0
ENDMDL
