MODEL 1
REMARK minimizedAffinity 10.9266443
REMARK minimizedRMSD -1
REMARK  0 active torsions:
REMARK  status: ('A' for Active; 'I' for Inactive)
ROOT
ATOM      1  C1  BNZ d   1      -2.953  -2.759  -4.426  0.00  0.00     0.000 A 
ATOM      2  C2  BNZ d   1      -4.048  -2.914  -5.235  0.00  0.00     0.000 A 
ATOM      3  C3  BNZ d   1      -5.305  -2.984  -4.705  0.00  0.00     0.000 A 
ATOM      4  C4  BNZ d   1      -5.464  -2.941  -3.366  0.00  0.00     0.000 A 
ATOM      5  C5  BNZ d   1      -4.370  -2.795  -2.537  0.00  0.00     0.000 A 
ATOM      6  C6  BNZ d   1      -3.109  -2.685  -3.077  0.00  0.00     0.000 A 
ENDROOT
TORSDOF 0
ENDMDL
