MODEL 1
REMARK minimizedAffinity 11.5375996
REMARK minimizedRMSD -1
REMARK  0 active torsions:
REMARK  status: ('A' for Active; 'I' for Inactive)
ROOT
ATOM      1  C1  BNZ d   1       5.999  -1.109   1.905  0.00  0.00     0.000 A 
ATOM      2  C2  BNZ d   1       5.510  -0.758   0.675  0.00  0.00     0.000 A 
ATOM      3  C3  BNZ d   1       4.214  -0.348   0.529  0.00  0.00     0.000 A 
ATOM      4  C4  BNZ d   1       3.400  -0.327   1.603  0.00  0.00     0.000 A 
ATOM      5  C5  BNZ d   1       3.876  -0.687   2.848  0.00  0.00     0.000 A 
ATOM      6  C6  BNZ d   1       5.191  -1.062   2.999  0.00  0.00     0.000 A 
ENDROOT
TORSDOF 0
ENDMDL
