MODEL 1
REMARK minimizedAffinity 6.48701525
REMARK minimizedRMSD -1
REMARK  0 active torsions:
REMARK  status: ('A' for Active; 'I' for Inactive)
ROOT
ATOM      1  C1  BNZ d   1      -4.102   1.797   3.471  0.00  0.00     0.000 A 
ATOM      2  C2  BNZ d   1      -4.506   0.489   3.477  0.00  0.00     0.000 A 
ATOM      3  C3  BNZ d   1      -5.315   0.010   4.469  0.00  0.00     0.000 A 
ATOM      4  C4  BNZ d   1      -5.686   0.829   5.474  0.00  0.00     0.000 A 
ATOM      5  C5  BNZ d   1      -5.280   2.148   5.488  0.00  0.00     0.000 A 
ATOM      6  C6  BNZ d   1      -4.497   2.637   4.467  0.00  0.00     0.000 A 
ENDROOT
TORSDOF 0
ENDMDL
