MODEL 1
REMARK minimizedAffinity 4.84010506
REMARK minimizedRMSD -1
REMARK  0 active torsions:
REMARK  status: ('A' for Active; 'I' for Inactive)
ROOT
ATOM      1  C1  BNZ d   1       3.127  -0.228   1.087  0.00  0.00     0.000 A 
ATOM      2  C2  BNZ d   1       3.566  -0.801   2.251  0.00  0.00     0.000 A 
ATOM      3  C3  BNZ d   1       4.870  -1.185   2.394  0.00  0.00     0.000 A 
ATOM      4  C4  BNZ d   1       5.723  -1.033   1.360  0.00  0.00     0.000 A 
ATOM      5  C5  BNZ d   1       5.293  -0.466   0.177  0.00  0.00     0.000 A 
ATOM      6  C6  BNZ d   1       3.989  -0.045   0.050  0.00  0.00     0.000 A 
ENDROOT
TORSDOF 0
ENDMDL
