MODEL 1
REMARK minimizedAffinity 10.7426424
REMARK minimizedRMSD -1
REMARK  0 active torsions:
REMARK  status: ('A' for Active; 'I' for Inactive)
ROOT
ATOM      1  C1  BNZ d   1      -1.857  -1.589  -1.144  0.00  0.00     0.000 A 
ATOM      2  C2  BNZ d   1      -0.946  -1.510  -2.164  0.00  0.00     0.000 A 
ATOM      3  C3  BNZ d   1      -1.142  -2.194  -3.331  0.00  0.00     0.000 A 
ATOM      4  C4  BNZ d   1      -2.225  -2.986  -3.461  0.00  0.00     0.000 A 
ATOM      5  C5  BNZ d   1      -3.148  -3.083  -2.438  0.00  0.00     0.000 A 
ATOM      6  C6  BNZ d   1      -2.967  -2.363  -1.280  0.00  0.00     0.000 A 
ENDROOT
TORSDOF 0
ENDMDL
