MODEL 1
REMARK minimizedAffinity -0.218651935
REMARK minimizedRMSD -1
REMARK  0 active torsions:
REMARK  status: ('A' for Active; 'I' for Inactive)
ROOT
ATOM      1  C1  BNZ d   1      -4.883   0.755   3.751  0.00  0.00     0.000 A 
ATOM      2  C2  BNZ d   1      -5.677   0.325   4.780  0.00  0.00     0.000 A 
ATOM      3  C3  BNZ d   1      -5.852   1.094   5.897  0.00  0.00     0.000 A 
ATOM      4  C4  BNZ d   1      -5.203   2.271   6.000  0.00  0.00     0.000 A 
ATOM      5  C5  BNZ d   1      -4.392   2.714   4.974  0.00  0.00     0.000 A 
ATOM      6  C6  BNZ d   1      -4.248   1.956   3.835  0.00  0.00     0.000 A 
ENDROOT
TORSDOF 0
ENDMDL
