MODEL 1
REMARK minimizedAffinity -1.59331059
REMARK minimizedRMSD -1
REMARK  0 active torsions:
REMARK  status: ('A' for Active; 'I' for Inactive)
ROOT
ATOM      1  C1  BNZ d   1      -5.259   2.623   5.878  0.00  0.00     0.000 A 
ATOM      2  C2  BNZ d   1      -4.491   2.824   4.762  0.00  0.00     0.000 A 
ATOM      3  C3  BNZ d   1      -4.464   1.900   3.755  0.00  0.00     0.000 A 
ATOM      4  C4  BNZ d   1      -5.172   0.760   3.882  0.00  0.00     0.000 A 
ATOM      5  C5  BNZ d   1      -5.944   0.538   5.005  0.00  0.00     0.000 A 
ATOM      6  C6  BNZ d   1      -6.000   1.488   5.999  0.00  0.00     0.000 A 
ENDROOT
TORSDOF 0
ENDMDL
