MODEL 1
REMARK minimizedAffinity 7.13569689
REMARK minimizedRMSD -1
REMARK  0 active torsions:
REMARK  status: ('A' for Active; 'I' for Inactive)
ROOT
ATOM      1  C1  BNZ d   1       2.843   0.094   2.228  0.00  0.00     0.000 A 
ATOM      2  C2  BNZ d   1       2.257   1.089   1.492  0.00  0.00     0.000 A 
ATOM      3  C3  BNZ d   1       1.036   1.593   1.843  0.00  0.00     0.000 A 
ATOM      4  C4  BNZ d   1       0.384   1.074   2.904  0.00  0.00     0.000 A 
ATOM      5  C5  BNZ d   1       0.957   0.063   3.650  0.00  0.00     0.000 A 
ATOM      6  C6  BNZ d   1       2.204  -0.414   3.317  0.00  0.00     0.000 A 
ENDROOT
TORSDOF 0
ENDMDL
