MODEL 1
REMARK minimizedAffinity 4.475492
REMARK minimizedRMSD -1
REMARK  0 active torsions:
REMARK  status: ('A' for Active; 'I' for Inactive)
ROOT
ATOM      1  C1  BNZ d   1      -5.707  -3.405  -3.042  0.00  0.00     0.000 A 
ATOM      2  C2  BNZ d   1      -4.728  -2.448  -3.064  0.00  0.00     0.000 A 
ATOM      3  C3  BNZ d   1      -3.515  -2.673  -2.477  0.00  0.00     0.000 A 
ATOM      4  C4  BNZ d   1      -3.295  -3.839  -1.835  0.00  0.00     0.000 A 
ATOM      5  C5  BNZ d   1      -4.275  -4.811  -1.795  0.00  0.00     0.000 A 
ATOM      6  C6  BNZ d   1      -5.482  -4.595  -2.421  0.00  0.00     0.000 A 
ENDROOT
TORSDOF 0
ENDMDL
