MODEL 1
REMARK minimizedAffinity -0.960990787
REMARK minimizedRMSD -1
REMARK  0 active torsions:
REMARK  status: ('A' for Active; 'I' for Inactive)
ROOT
ATOM      1  C1  BNZ d   1      -5.613  -0.367   4.333  0.00  0.00     0.000 A 
ATOM      2  C2  BNZ d   1      -4.707   0.006   3.375  0.00  0.00     0.000 A 
ATOM      3  C3  BNZ d   1      -4.172   1.263   3.369  0.00  0.00     0.000 A 
ATOM      4  C4  BNZ d   1      -4.573   2.158   4.295  0.00  0.00     0.000 A 
ATOM      5  C5  BNZ d   1      -5.492   1.801   5.262  0.00  0.00     0.000 A 
ATOM      6  C6  BNZ d   1      -5.999   0.522   5.288  0.00  0.00     0.000 A 
ENDROOT
TORSDOF 0
ENDMDL
