MODEL 1
REMARK minimizedAffinity -0.486694634
REMARK minimizedRMSD -1
REMARK  0 active torsions:
REMARK  status: ('A' for Active; 'I' for Inactive)
ROOT
ATOM      1  C1  BNZ d   1      -5.914   5.600   0.003  0.00  0.00     0.000 A 
ATOM      2  C2  BNZ d   1      -5.720   6.000  -1.292  0.00  0.00     0.000 A 
ATOM      3  C3  BNZ d   1      -4.470   5.999  -1.846  0.00  0.00     0.000 A 
ATOM      4  C4  BNZ d   1      -3.412   5.636  -1.092  0.00  0.00     0.000 A 
ATOM      5  C5  BNZ d   1      -3.590   5.239   0.218  0.00  0.00     0.000 A 
ATOM      6  C6  BNZ d   1      -4.854   5.204   0.760  0.00  0.00     0.000 A 
ENDROOT
TORSDOF 0
ENDMDL
