MODEL 1
REMARK minimizedAffinity 4.7984519
REMARK minimizedRMSD -1
REMARK  0 active torsions:
REMARK  status: ('A' for Active; 'I' for Inactive)
ROOT
ATOM      1  C1  BNZ d   1      -4.844   2.596   6.000  0.00  0.00     0.000 A 
ATOM      2  C2  BNZ d   1      -4.092   3.018   4.936  0.00  0.00     0.000 A 
ATOM      3  C3  BNZ d   1      -3.882   2.203   3.860  0.00  0.00     0.000 A 
ATOM      4  C4  BNZ d   1      -4.390   0.953   3.865  0.00  0.00     0.000 A 
ATOM      5  C5  BNZ d   1      -5.143   0.509   4.934  0.00  0.00     0.000 A 
ATOM      6  C6  BNZ d   1      -5.385   1.347   5.999  0.00  0.00     0.000 A 
ENDROOT
TORSDOF 0
ENDMDL
