MODEL 1
REMARK minimizedAffinity 12.2788248
REMARK minimizedRMSD -1
REMARK  0 active torsions:
REMARK  status: ('A' for Active; 'I' for Inactive)
ROOT
ATOM      1  C1  BNZ d   1       0.816  -0.208   2.969  0.00  0.00     0.000 A 
ATOM      2  C2  BNZ d   1       1.702  -0.106   1.930  0.00  0.00     0.000 A 
ATOM      3  C3  BNZ d   1       1.996   1.109   1.378  0.00  0.00     0.000 A 
ATOM      4  C4  BNZ d   1       1.375   2.214   1.838  0.00  0.00     0.000 A 
ATOM      5  C5  BNZ d   1       0.472   2.126   2.879  0.00  0.00     0.000 A 
ATOM      6  C6  BNZ d   1       0.208   0.906   3.458  0.00  0.00     0.000 A 
ENDROOT
TORSDOF 0
ENDMDL
