MODEL 1
REMARK minimizedAffinity 2.80102372
REMARK minimizedRMSD -1
REMARK  0 active torsions:
REMARK  status: ('A' for Active; 'I' for Inactive)
ROOT
ATOM      1  C1  BNZ d   1       2.963   3.286  -4.837  0.00  0.00     0.000 A 
ATOM      2  C2  BNZ d   1       3.103   4.002  -5.995  0.00  0.00     0.000 A 
ATOM      3  C3  BNZ d   1       2.960   5.361  -6.000  0.00  0.00     0.000 A 
ATOM      4  C4  BNZ d   1       2.638   5.998  -4.856  0.00  0.00     0.000 A 
ATOM      5  C5  BNZ d   1       2.484   5.289  -3.681  0.00  0.00     0.000 A 
ATOM      6  C6  BNZ d   1       2.667   3.925  -3.672  0.00  0.00     0.000 A 
ENDROOT
TORSDOF 0
ENDMDL
