MODEL 1
REMARK minimizedAffinity -4.0032115
REMARK minimizedRMSD -1
REMARK  0 active torsions:
REMARK  status: ('A' for Active; 'I' for Inactive)
ROOT
ATOM      1  C2' OXE d   1       0.051   2.326   0.470  0.00  0.00     0.078 C 
ATOM      2  C1' OXE d   1      -1.267  -0.066  -0.180  0.00  0.00     0.078 C 
ATOM      3  C1  OXE d   1       0.192  -0.146   0.193  0.00  0.00    -0.078 A 
ATOM      4  C2  OXE d   1       0.841   1.035   0.464  0.00  0.00    -0.078 A 
ATOM      5  C3  OXE d   1       2.173   1.013   0.867  0.00  0.00     0.003 A 
ATOM      6  C4  OXE d   1       2.899  -0.185   0.850  0.00  0.00    -0.002 A 
ATOM      7  C5  OXE d   1       2.267  -1.393   0.538  0.00  0.00    -0.002 A 
ATOM      8  C6  OXE d   1       0.907  -1.397   0.249  0.00  0.00     0.003 A 
ENDROOT
TORSDOF 0
ENDMDL
