MODEL 1
REMARK minimizedAffinity -4.43692493
REMARK minimizedRMSD -1
REMARK  0 active torsions:
REMARK  status: ('A' for Active; 'I' for Inactive)
ROOT
ATOM      1  C2' OXE d   1      -1.022  -0.219   0.273  0.00  0.00     0.078 C 
ATOM      2  C1' OXE d   1       0.419  -2.302   1.483  0.00  0.00     0.078 C 
ATOM      3  C1  OXE d   1       1.163  -1.033   1.151  0.00  0.00    -0.078 A 
ATOM      4  C2  OXE d   1       0.461  -0.036   0.516  0.00  0.00    -0.078 A 
ATOM      5  C3  OXE d   1       1.085   1.176   0.237  0.00  0.00     0.003 A 
ATOM      6  C4  OXE d   1       2.459   1.333   0.456  0.00  0.00    -0.002 A 
ATOM      7  C5  OXE d   1       3.202   0.316   1.065  0.00  0.00    -0.002 A 
ATOM      8  C6  OXE d   1       2.561  -0.854   1.456  0.00  0.00     0.003 A 
ENDROOT
TORSDOF 0
ENDMDL
