MODEL 1
REMARK minimizedAffinity -3.73079205
REMARK minimizedRMSD -1
REMARK  0 active torsions:
REMARK  status: ('A' for Active; 'I' for Inactive)
ROOT
ATOM      1  C2' OXE d   1       2.907  -0.373   0.636  0.00  0.00     0.078 C 
ATOM      2  C1' OXE d   1       0.770  -2.168   0.938  0.00  0.00     0.078 C 
ATOM      3  C1  OXE d   1       0.478  -0.824   0.320  0.00  0.00    -0.078 A 
ATOM      4  C2  OXE d   1       1.520   0.066   0.219  0.00  0.00    -0.078 A 
ATOM      5  C3  OXE d   1       1.317   1.300  -0.393  0.00  0.00     0.003 A 
ATOM      6  C4  OXE d   1       0.029   1.702  -0.766  0.00  0.00    -0.002 A 
ATOM      7  C5  OXE d   1      -1.054   0.826  -0.636  0.00  0.00    -0.002 A 
ATOM      8  C6  OXE d   1      -0.840  -0.453  -0.135  0.00  0.00     0.003 A 
ENDROOT
TORSDOF 0
ENDMDL
