MODEL 1
REMARK minimizedAffinity -5.30684662
REMARK minimizedRMSD -1
REMARK  0 active torsions:
REMARK  status: ('A' for Active; 'I' for Inactive)
ROOT
ATOM      1  C2' OXE d   1       1.745   1.700   0.355  0.00  0.00     0.078 C 
ATOM      2  C1' OXE d   1       3.067  -0.538   1.416  0.00  0.00     0.078 C 
ATOM      3  C1  OXE d   1       1.574  -0.631   1.219  0.00  0.00    -0.078 A 
ATOM      4  C2  OXE d   1       0.929   0.485   0.742  0.00  0.00    -0.078 A 
ATOM      5  C3  OXE d   1      -0.439   0.435   0.490  0.00  0.00     0.003 A 
ATOM      6  C4  OXE d   1      -1.188  -0.688   0.861  0.00  0.00    -0.002 A 
ATOM      7  C5  OXE d   1      -0.556  -1.821   1.385  0.00  0.00    -0.002 A 
ATOM      8  C6  OXE d   1       0.827  -1.824   1.530  0.00  0.00     0.003 A 
ENDROOT
TORSDOF 0
ENDMDL
