MODEL 1
REMARK minimizedAffinity -2.91368294
REMARK minimizedRMSD -1
REMARK  0 active torsions:
REMARK  status: ('A' for Active; 'I' for Inactive)
ROOT
ATOM      1  C2' OXE d   1       3.072  -0.489   0.967  0.00  0.00     0.078 C 
ATOM      2  C1' OXE d   1       1.081  -2.466   1.043  0.00  0.00     0.078 C 
ATOM      3  C1  OXE d   1       0.698  -1.101   0.528  0.00  0.00    -0.078 A 
ATOM      4  C2  OXE d   1       1.667  -0.127   0.538  0.00  0.00    -0.078 A 
ATOM      5  C3  OXE d   1       1.382   1.135   0.023  0.00  0.00     0.003 A 
ATOM      6  C4  OXE d   1       0.077   1.464  -0.363  0.00  0.00    -0.002 A 
ATOM      7  C5  OXE d   1      -0.934   0.498  -0.344  0.00  0.00    -0.002 A 
ATOM      8  C6  OXE d   1      -0.631  -0.798   0.057  0.00  0.00     0.003 A 
ENDROOT
TORSDOF 0
ENDMDL
