MODEL 1
REMARK minimizedAffinity -4.96794558
REMARK minimizedRMSD -1
REMARK  0 active torsions:
REMARK  status: ('A' for Active; 'I' for Inactive)
ROOT
ATOM      1  C2' OXE d   1       1.668  -2.549   2.105  0.00  0.00     0.078 C 
ATOM      2  C1' OXE d   1       3.244  -0.373   1.293  0.00  0.00     0.078 C 
ATOM      3  C1  OXE d   1       1.783  -0.361   0.921  0.00  0.00    -0.078 A 
ATOM      4  C2  OXE d   1       1.029  -1.451   1.282  0.00  0.00    -0.078 A 
ATOM      5  C3  OXE d   1      -0.337  -1.466   1.012  0.00  0.00     0.003 A 
ATOM      6  C4  OXE d   1      -0.918  -0.451   0.242  0.00  0.00    -0.002 A 
ATOM      7  C5  OXE d   1      -0.159   0.650  -0.170  0.00  0.00    -0.002 A 
ATOM      8  C6  OXE d   1       1.180   0.731   0.197  0.00  0.00     0.003 A 
ENDROOT
TORSDOF 0
ENDMDL
