MODEL 1
REMARK minimizedAffinity -1.96532214
REMARK minimizedRMSD -1
REMARK  0 active torsions:
REMARK  status: ('A' for Active; 'I' for Inactive)
ROOT
ATOM      1  C1  DEN d   1      -1.232   1.901  -0.681  0.00  0.00     0.130 A 
ATOM      2  C2  DEN d   1      -1.929   2.296   0.540  0.00  0.00    -0.031 A 
ATOM      3  C3  DEN d   1      -1.430   1.453   1.644  0.00  0.00     0.027 A 
ATOM      4  C4  DEN d   1       0.348  -0.414   1.584  0.00  0.00     0.027 A 
ATOM      5  C5  DEN d   1       1.211  -1.117   0.772  0.00  0.00    -0.003 A 
ATOM      6  C6  DEN d   1       1.294  -0.888  -0.576  0.00  0.00     0.001 A 
ATOM      7  C7  DEN d   1       0.533   0.098  -1.146  0.00  0.00     0.017 A 
ATOM      8  C8  DEN d   1      -0.344   0.806  -0.335  0.00  0.00    -0.094 A 
ATOM      9  C9  DEN d   1      -0.404   0.569   1.028  0.00  0.00    -0.072 A 
ENDROOT
TORSDOF 0
ENDMDL
