MODEL 1
REMARK minimizedAffinity -1.67118084
REMARK minimizedRMSD -1
REMARK  0 active torsions:
REMARK  status: ('A' for Active; 'I' for Inactive)
ROOT
ATOM      1  C1  DEN d   1      -1.580   2.117  -0.020  0.00  0.00     0.130 A 
ATOM      2  C2  DEN d   1      -2.364   2.250   1.205  0.00  0.00    -0.031 A 
ATOM      3  C3  DEN d   1      -1.934   1.191   2.140  0.00  0.00     0.027 A 
ATOM      4  C4  DEN d   1      -0.135  -0.629   1.813  0.00  0.00     0.027 A 
ATOM      5  C5  DEN d   1       0.788  -1.149   0.933  0.00  0.00    -0.003 A 
ATOM      6  C6  DEN d   1       0.962  -0.643  -0.327  0.00  0.00     0.001 A 
ATOM      7  C7  DEN d   1       0.232   0.445  -0.728  0.00  0.00     0.017 A 
ATOM      8  C8  DEN d   1      -0.706   0.970   0.150  0.00  0.00    -0.094 A 
ATOM      9  C9  DEN d   1      -0.858   0.452   1.425  0.00  0.00    -0.072 A 
ENDROOT
TORSDOF 0
ENDMDL
