MODEL 1
REMARK minimizedAffinity -4.88926649
REMARK minimizedRMSD -1
REMARK  0 active torsions:
REMARK  status: ('A' for Active; 'I' for Inactive)
ROOT
ATOM      1  C1  DEN d   1      -0.952   2.000   0.040  0.00  0.00     0.130 A 
ATOM      2  C2  DEN d   1      -1.734   2.002   1.273  0.00  0.00    -0.031 A 
ATOM      3  C3  DEN d   1      -1.401   0.775   2.026  0.00  0.00     0.027 A 
ATOM      4  C4  DEN d   1       0.243  -1.112   1.407  0.00  0.00     0.027 A 
ATOM      5  C5  DEN d   1       1.130  -1.561   0.453  0.00  0.00    -0.003 A 
ATOM      6  C6  DEN d   1       1.357  -0.877  -0.712  0.00  0.00     0.001 A 
ATOM      7  C7  DEN d   1       0.723   0.317  -0.932  0.00  0.00     0.017 A 
ATOM      8  C8  DEN d   1      -0.177   0.773   0.022  0.00  0.00    -0.094 A 
ATOM      9  C9  DEN d   1      -0.384   0.073   1.199  0.00  0.00    -0.072 A 
ENDROOT
TORSDOF 0
ENDMDL
