MODEL 1
REMARK minimizedAffinity -5.9808197
REMARK minimizedRMSD -1
REMARK  0 active torsions:
REMARK  status: ('A' for Active; 'I' for Inactive)
ROOT
ATOM      1  C1  DEN d   1       0.409   2.056  -0.994  0.00  0.00     0.130 A 
ATOM      2  C2  DEN d   1       1.299   0.989  -1.447  0.00  0.00    -0.031 A 
ATOM      3  C3  DEN d   1       1.126  -0.165  -0.542  0.00  0.00     0.027 A 
ATOM      4  C4  DEN d   1      -0.429  -0.404   1.502  0.00  0.00     0.027 A 
ATOM      5  C5  DEN d   1      -1.364   0.239   2.283  0.00  0.00    -0.003 A 
ATOM      6  C6  DEN d   1      -1.745   1.533   2.049  0.00  0.00     0.001 A 
ATOM      7  C7  DEN d   1      -1.222   2.212   0.980  0.00  0.00     0.017 A 
ATOM      8  C8  DEN d   1      -0.273   1.573   0.193  0.00  0.00    -0.094 A 
ATOM      9  C9  DEN d   1       0.090   0.259   0.439  0.00  0.00    -0.072 A 
ENDROOT
TORSDOF 0
ENDMDL
