MODEL 1
REMARK minimizedAffinity -3.40850544
REMARK minimizedRMSD -1
REMARK  0 active torsions:
REMARK  status: ('A' for Active; 'I' for Inactive)
ROOT
ATOM      1  C1  DEN d   1       0.568  -0.335   1.796  0.00  0.00     0.130 A 
ATOM      2  C2  DEN d   1       0.774  -1.105   0.573  0.00  0.00    -0.031 A 
ATOM      3  C3  DEN d   1      -0.095  -0.537  -0.477  0.00  0.00     0.027 A 
ATOM      4  C4  DEN d   1      -1.728   1.454  -0.329  0.00  0.00     0.027 A 
ATOM      5  C5  DEN d   1      -2.254   2.414   0.507  0.00  0.00    -0.003 A 
ATOM      6  C6  DEN d   1      -1.905   2.504   1.828  0.00  0.00     0.001 A 
ATOM      7  C7  DEN d   1      -0.970   1.645   2.343  0.00  0.00     0.017 A 
ATOM      8  C8  DEN d   1      -0.440   0.669   1.508  0.00  0.00    -0.094 A 
ATOM      9  C9  DEN d   1      -0.797   0.603   0.172  0.00  0.00    -0.072 A 
ENDROOT
TORSDOF 0
ENDMDL
