MODEL 1
REMARK minimizedAffinity -2.89514112
REMARK minimizedRMSD -1
REMARK  0 active torsions:
REMARK  status: ('A' for Active; 'I' for Inactive)
ROOT
ATOM      1  C1  DEN d   1       0.594  -1.006   0.886  0.00  0.00     0.130 A 
ATOM      2  C2  DEN d   1       1.380  -0.940  -0.343  0.00  0.00    -0.031 A 
ATOM      3  C3  DEN d   1       0.966   0.267  -1.086  0.00  0.00     0.027 A 
ATOM      4  C4  DEN d   1      -0.804   2.034  -0.453  0.00  0.00     0.027 A 
ATOM      5  C5  DEN d   1      -1.739   2.398   0.490  0.00  0.00    -0.003 A 
ATOM      6  C6  DEN d   1      -1.984   1.641   1.605  0.00  0.00     0.001 A 
ATOM      7  C7  DEN d   1      -1.254   0.504   1.828  0.00  0.00     0.017 A 
ATOM      8  C8  DEN d   1      -0.314   0.127   0.878  0.00  0.00    -0.094 A 
ATOM      9  C9  DEN d   1      -0.072   0.911  -0.237  0.00  0.00    -0.072 A 
ENDROOT
TORSDOF 0
ENDMDL
