MODEL 1
REMARK minimizedAffinity -5.15702534
REMARK minimizedRMSD -1
REMARK  0 active torsions:
REMARK  status: ('A' for Active; 'I' for Inactive)
ROOT
ATOM      1  C1  DEN d   1      -1.938   1.676   0.051  0.00  0.00     0.130 A 
ATOM      2  C2  DEN d   1      -2.190   1.987   1.455  0.00  0.00    -0.031 A 
ATOM      3  C3  DEN d   1      -1.212   1.240   2.271  0.00  0.00     0.027 A 
ATOM      4  C4  DEN d   1       0.661  -0.357   1.500  0.00  0.00     0.027 A 
ATOM      5  C5  DEN d   1       1.257  -0.942   0.404  0.00  0.00    -0.003 A 
ATOM      6  C6  DEN d   1       0.811  -0.725  -0.872  0.00  0.00     0.001 A 
ATOM      7  C7  DEN d   1      -0.233   0.136  -1.090  0.00  0.00     0.017 A 
ATOM      8  C8  DEN d   1      -0.843   0.724   0.010  0.00  0.00    -0.094 A 
ATOM      9  C9  DEN d   1      -0.370   0.501   1.292  0.00  0.00    -0.072 A 
ENDROOT
TORSDOF 0
ENDMDL
