MODEL 1
REMARK minimizedAffinity -3.39882588
REMARK minimizedRMSD -1
REMARK  0 active torsions:
REMARK  status: ('A' for Active; 'I' for Inactive)
ROOT
ATOM      1  C1  DEN d   1       1.789  -1.646  -0.660  0.00  0.00     0.130 A 
ATOM      2  C2  DEN d   1       1.032  -0.895  -1.658  0.00  0.00    -0.031 A 
ATOM      3  C3  DEN d   1       0.363  -1.865  -2.548  0.00  0.00     0.027 A 
ATOM      4  C4  DEN d   1       0.421  -4.443  -2.475  0.00  0.00     0.027 A 
ATOM      5  C5  DEN d   1       0.937  -5.536  -1.815  0.00  0.00    -0.003 A 
ATOM      6  C6  DEN d   1       1.794  -5.410  -0.754  0.00  0.00     0.001 A 
ATOM      7  C7  DEN d   1       2.124  -4.163  -0.292  0.00  0.00     0.017 A 
ATOM      8  C8  DEN d   1       1.613  -3.056  -0.957  0.00  0.00    -0.094 A 
ATOM      9  C9  DEN d   1       0.739  -3.204  -2.021  0.00  0.00    -0.072 A 
ENDROOT
TORSDOF 0
ENDMDL
