MODEL 1
REMARK minimizedAffinity -3.73701119
REMARK minimizedRMSD -1
REMARK  0 active torsions:
REMARK  status: ('A' for Active; 'I' for Inactive)
ROOT
ATOM      1  C1  DEN d   1       1.850  -3.226  -3.174  0.00  0.00     0.130 A 
ATOM      2  C2  DEN d   1       1.031  -4.355  -2.741  0.00  0.00    -0.031 A 
ATOM      3  C3  DEN d   1       0.258  -3.929  -1.556  0.00  0.00     0.027 A 
ATOM      4  C4  DEN d   1       0.248  -1.644  -0.361  0.00  0.00     0.027 A 
ATOM      5  C5  DEN d   1       0.788  -0.377  -0.356  0.00  0.00    -0.003 A 
ATOM      6  C6  DEN d   1       1.737   0.015  -1.263  0.00  0.00     0.001 A 
ATOM      7  C7  DEN d   1       2.143  -0.855  -2.240  0.00  0.00     0.017 A 
ATOM      8  C8  DEN d   1       1.608  -2.136  -2.246  0.00  0.00    -0.094 A 
ATOM      9  C9  DEN d   1       0.640  -2.510  -1.329  0.00  0.00    -0.072 A 
ENDROOT
TORSDOF 0
ENDMDL
