MODEL 1
REMARK minimizedAffinity -5.65933084
REMARK minimizedRMSD -1
REMARK  0 active torsions:
REMARK  status: ('A' for Active; 'I' for Inactive)
ROOT
ATOM      1  C1  DEN d   1       0.492   0.025  -0.640  0.00  0.00     0.130 A 
ATOM      2  C2  DEN d   1       0.493  -1.094   0.298  0.00  0.00    -0.031 A 
ATOM      3  C3  DEN d   1      -0.372  -0.734   1.439  0.00  0.00     0.027 A 
ATOM      4  C4  DEN d   1      -1.710   1.434   1.840  0.00  0.00     0.027 A 
ATOM      5  C5  DEN d   1      -2.015   2.676   1.328  0.00  0.00    -0.003 A 
ATOM      6  C6  DEN d   1      -1.483   3.131   0.151  0.00  0.00     0.001 A 
ATOM      7  C7  DEN d   1      -0.653   2.320  -0.577  0.00  0.00     0.017 A 
ATOM      8  C8  DEN d   1      -0.335   1.070  -0.064  0.00  0.00    -0.094 A 
ATOM      9  C9  DEN d   1      -0.893   0.623   1.122  0.00  0.00    -0.072 A 
ENDROOT
TORSDOF 0
ENDMDL
