MODEL 1
REMARK minimizedAffinity -3.68890786
REMARK minimizedRMSD -1
REMARK  0 active torsions:
REMARK  status: ('A' for Active; 'I' for Inactive)
ROOT
ATOM      1  C1  DEN d   1      -1.185   3.529   1.035  0.00  0.00     0.130 A 
ATOM      2  C2  DEN d   1      -0.506   3.925  -0.195  0.00  0.00    -0.031 A 
ATOM      3  C3  DEN d   1       0.088   2.715  -0.799  0.00  0.00     0.027 A 
ATOM      4  C4  DEN d   1       0.018   0.279   0.047  0.00  0.00     0.027 A 
ATOM      5  C5  DEN d   1      -0.432  -0.547   1.053  0.00  0.00    -0.003 A 
ATOM      6  C6  DEN d   1      -1.128  -0.072   2.132  0.00  0.00     0.001 A 
ATOM      7  C7  DEN d   1      -1.435   1.261   2.208  0.00  0.00     0.017 A 
ATOM      8  C8  DEN d   1      -0.980   2.102   1.201  0.00  0.00    -0.094 A 
ATOM      9  C9  DEN d   1      -0.287   1.600   0.112  0.00  0.00    -0.072 A 
ENDROOT
TORSDOF 0
ENDMDL
