MODEL 1
REMARK minimizedAffinity -1.29023409
REMARK minimizedRMSD -1
REMARK  0 active torsions:
REMARK  status: ('A' for Active; 'I' for Inactive)
ROOT
ATOM      1  C1  DEN d   1      -1.523   1.906   2.189  0.00  0.00     0.130 A 
ATOM      2  C2  DEN d   1      -1.390   0.474   2.439  0.00  0.00    -0.031 A 
ATOM      3  C3  DEN d   1      -0.631  -0.117   1.319  0.00  0.00     0.027 A 
ATOM      4  C4  DEN d   1       0.350   1.042  -0.766  0.00  0.00     0.027 A 
ATOM      5  C5  DEN d   1       0.483   2.245  -1.424  0.00  0.00    -0.003 A 
ATOM      6  C6  DEN d   1      -0.068   3.404  -0.945  0.00  0.00     0.001 A 
ATOM      7  C7  DEN d   1      -0.740   3.393   0.249  0.00  0.00     0.017 A 
ATOM      8  C8  DEN d   1      -0.884   2.182   0.914  0.00  0.00    -0.094 A 
ATOM      9  C9  DEN d   1      -0.309   1.024   0.420  0.00  0.00    -0.072 A 
ENDROOT
TORSDOF 0
ENDMDL
