MODEL 1
REMARK minimizedAffinity -1.94871509
REMARK minimizedRMSD -1
REMARK  0 active torsions:
REMARK  status: ('A' for Active; 'I' for Inactive)
ROOT
ATOM      1  C1  DEN d   1       0.943  -2.470  -2.544  0.00  0.00     0.130 A 
ATOM      2  C2  DEN d   1       1.512  -3.516  -1.698  0.00  0.00    -0.031 A 
ATOM      3  C3  DEN d   1       1.538  -3.016  -0.309  0.00  0.00     0.027 A 
ATOM      4  C4  DEN d   1       0.751  -0.739   0.611  0.00  0.00     0.027 A 
ATOM      5  C5  DEN d   1       0.207   0.481   0.274  0.00  0.00    -0.003 A 
ATOM      6  C6  DEN d   1      -0.096   0.812  -1.020  0.00  0.00     0.001 A 
ATOM      7  C7  DEN d   1       0.101  -0.104  -2.020  0.00  0.00     0.017 A 
ATOM      8  C8  DEN d   1       0.657  -1.333  -1.688  0.00  0.00    -0.094 A 
ATOM      9  C9  DEN d   1       0.945  -1.653  -0.373  0.00  0.00    -0.072 A 
ENDROOT
TORSDOF 0
ENDMDL
