MODEL 1
REMARK minimizedAffinity -2.40229964
REMARK minimizedRMSD -1
REMARK  0 active torsions:
REMARK  status: ('A' for Active; 'I' for Inactive)
ROOT
ATOM      1  C1  DEN d   1       0.259   0.205  -1.237  0.00  0.00     0.130 A 
ATOM      2  C2  DEN d   1       0.828  -1.086  -0.859  0.00  0.00    -0.031 A 
ATOM      3  C3  DEN d   1       0.471  -1.347   0.550  0.00  0.00     0.027 A 
ATOM      4  C4  DEN d   1      -0.905   0.112   2.172  0.00  0.00     0.027 A 
ATOM      5  C5  DEN d   1      -1.588   1.301   2.309  0.00  0.00    -0.003 A 
ATOM      6  C6  DEN d   1      -1.673   2.215   1.292  0.00  0.00     0.001 A 
ATOM      7  C7  DEN d   1      -1.104   1.935   0.078  0.00  0.00     0.017 A 
ATOM      8  C8  DEN d   1      -0.408   0.742  -0.065  0.00  0.00    -0.094 A 
ATOM      9  C9  DEN d   1      -0.343  -0.174   0.971  0.00  0.00    -0.072 A 
ENDROOT
TORSDOF 0
ENDMDL
