MODEL 1
REMARK minimizedAffinity -3.18430448
REMARK minimizedRMSD -1
REMARK  0 active torsions:
REMARK  status: ('A' for Active; 'I' for Inactive)
ROOT
ATOM      1  C1  DEN d   1      -0.015   0.281   1.078  0.00  0.00     0.130 A 
ATOM      2  C2  DEN d   1      -0.306  -1.067   1.557  0.00  0.00    -0.031 A 
ATOM      3  C3  DEN d   1       0.488  -2.018   0.754  0.00  0.00     0.027 A 
ATOM      4  C4  DEN d   1       2.135  -1.537  -1.171  0.00  0.00     0.027 A 
ATOM      5  C5  DEN d   1       2.701  -0.546  -1.943  0.00  0.00    -0.003 A 
ATOM      6  C6  DEN d   1       2.379   0.776  -1.786  0.00  0.00     0.001 A 
ATOM      7  C7  DEN d   1       1.499   1.148  -0.804  0.00  0.00     0.017 A 
ATOM      8  C8  DEN d   1       0.918   0.154  -0.027  0.00  0.00    -0.094 A 
ATOM      9  C9  DEN d   1       1.266  -1.176  -0.193  0.00  0.00    -0.072 A 
ENDROOT
TORSDOF 0
ENDMDL
