MODEL 1
REMARK minimizedAffinity 2.54732966
REMARK minimizedRMSD -1
REMARK  0 active torsions:
REMARK  status: ('A' for Active; 'I' for Inactive)
ROOT
ATOM      1  C1  DEN d   1      -0.444   0.720   1.646  0.00  0.00     0.130 A 
ATOM      2  C2  DEN d   1      -0.106  -0.514   0.942  0.00  0.00    -0.031 A 
ATOM      3  C3  DEN d   1      -1.360  -1.249   0.682  0.00  0.00     0.027 A 
ATOM      4  C4  DEN d   1      -3.780  -0.597   1.293  0.00  0.00     0.027 A 
ATOM      5  C5  DEN d   1      -4.565   0.354   1.906  0.00  0.00    -0.003 A 
ATOM      6  C6  DEN d   1      -4.033   1.468   2.500  0.00  0.00     0.001 A 
ATOM      7  C7  DEN d   1      -2.681   1.681   2.455  0.00  0.00     0.017 A 
ATOM      8  C8  DEN d   1      -1.882   0.723   1.845  0.00  0.00    -0.094 A 
ATOM      9  C9  DEN d   1      -2.440  -0.390   1.240  0.00  0.00    -0.072 A 
ENDROOT
TORSDOF 0
ENDMDL
