MODEL 1
REMARK minimizedAffinity -1.52547169
REMARK minimizedRMSD -1
REMARK  0 active torsions:
REMARK  status: ('A' for Active; 'I' for Inactive)
ROOT
ATOM      1  C1  DEN d   1      -0.978   1.157   0.582  0.00  0.00     0.130 A 
ATOM      2  C2  DEN d   1      -1.825   0.007   0.886  0.00  0.00    -0.031 A 
ATOM      3  C3  DEN d   1      -1.217  -1.185   0.261  0.00  0.00     0.027 A 
ATOM      4  C4  DEN d   1       0.943  -1.361  -1.136  0.00  0.00     0.027 A 
ATOM      5  C5  DEN d   1       1.995  -0.651  -1.672  0.00  0.00    -0.003 A 
ATOM      6  C6  DEN d   1       2.110   0.706  -1.524  0.00  0.00     0.001 A 
ATOM      7  C7  DEN d   1       1.181   1.390  -0.785  0.00  0.00     0.017 A 
ATOM      8  C8  DEN d   1       0.114   0.681  -0.248  0.00  0.00    -0.094 A 
ATOM      9  C9  DEN d   1       0.022  -0.692  -0.398  0.00  0.00    -0.072 A 
ENDROOT
TORSDOF 0
ENDMDL
