MODEL 1
REMARK minimizedAffinity -1.96805549
REMARK minimizedRMSD -1
REMARK  0 active torsions:
REMARK  status: ('A' for Active; 'I' for Inactive)
ROOT
ATOM      1  C1  DEN d   1      -0.776   0.394  -0.924  0.00  0.00     0.130 A 
ATOM      2  C2  DEN d   1       0.595   0.719  -0.541  0.00  0.00    -0.031 A 
ATOM      3  C3  DEN d   1       0.622   0.932   0.920  0.00  0.00     0.027 A 
ATOM      4  C4  DEN d   1      -1.315   0.787   2.618  0.00  0.00     0.027 A 
ATOM      5  C5  DEN d   1      -2.664   0.553   2.764  0.00  0.00    -0.003 A 
ATOM      6  C6  DEN d   1      -3.479   0.285   1.695  0.00  0.00     0.001 A 
ATOM      7  C7  DEN d   1      -2.942   0.200   0.438  0.00  0.00     0.017 A 
ATOM      8  C8  DEN d   1      -1.584   0.442   0.281  0.00  0.00    -0.094 A 
ATOM      9  C9  DEN d   1      -0.775   0.699   1.375  0.00  0.00    -0.072 A 
ENDROOT
TORSDOF 0
ENDMDL
