MODEL 1
REMARK minimizedAffinity -6.2209568
REMARK minimizedRMSD -1
REMARK  0 active torsions:
REMARK  status: ('A' for Active; 'I' for Inactive)
ROOT
ATOM      1  C1  DEN d   1       0.884   1.241   0.226  0.00  0.00     0.130 A 
ATOM      2  C2  DEN d   1       0.185   0.368   1.165  0.00  0.00    -0.031 A 
ATOM      3  C3  DEN d   1       0.168  -0.995   0.596  0.00  0.00     0.027 A 
ATOM      4  C4  DEN d   1       1.156  -1.835  -1.633  0.00  0.00     0.027 A 
ATOM      5  C5  DEN d   1       1.832  -1.461  -2.773  0.00  0.00    -0.003 A 
ATOM      6  C6  DEN d   1       2.207  -0.164  -3.007  0.00  0.00     0.001 A 
ATOM      7  C7  DEN d   1       1.948   0.798  -2.067  0.00  0.00     0.017 A 
ATOM      8  C8  DEN d   1       1.259   0.430  -0.918  0.00  0.00    -0.094 A 
ATOM      9  C9  DEN d   1       0.900  -0.889  -0.695  0.00  0.00    -0.072 A 
ENDROOT
TORSDOF 0
ENDMDL
