MODEL 1
REMARK minimizedAffinity -2.69156289
REMARK minimizedRMSD -1
REMARK  0 active torsions:
REMARK  status: ('A' for Active; 'I' for Inactive)
ROOT
ATOM      1  C1  DEN d   1      -1.313   1.457   1.448  0.00  0.00     0.130 A 
ATOM      2  C2  DEN d   1      -1.630   0.129   1.967  0.00  0.00    -0.031 A 
ATOM      3  C3  DEN d   1      -0.791  -0.853   1.251  0.00  0.00     0.027 A 
ATOM      4  C4  DEN d   1       0.963  -0.449  -0.596  0.00  0.00     0.027 A 
ATOM      5  C5  DEN d   1       1.572   0.510  -1.375  0.00  0.00    -0.003 A 
ATOM      6  C6  DEN d   1       1.241   1.836  -1.292  0.00  0.00     0.001 A 
ATOM      7  C7  DEN d   1       0.306   2.247  -0.379  0.00  0.00     0.017 A 
ATOM      8  C8  DEN d   1      -0.318   1.285   0.405  0.00  0.00    -0.094 A 
ATOM      9  C9  DEN d   1       0.039  -0.049   0.315  0.00  0.00    -0.072 A 
ENDROOT
TORSDOF 0
ENDMDL
