MODEL 1
REMARK minimizedAffinity -2.78686333
REMARK minimizedRMSD -1
REMARK  0 active torsions:
REMARK  status: ('A' for Active; 'I' for Inactive)
ROOT
ATOM      1  C1  DEN d   1       0.123   0.148   0.050  0.00  0.00     0.130 A 
ATOM      2  C2  DEN d   1       0.596   1.465  -0.368  0.00  0.00    -0.031 A 
ATOM      3  C3  DEN d   1       1.775   1.272  -1.236  0.00  0.00     0.027 A 
ATOM      4  C4  DEN d   1       2.906  -0.926  -1.973  0.00  0.00     0.027 A 
ATOM      5  C5  DEN d   1       2.869  -2.298  -1.864  0.00  0.00    -0.003 A 
ATOM      6  C6  DEN d   1       1.944  -2.945  -1.088  0.00  0.00     0.001 A 
ATOM      7  C7  DEN d   1       0.988  -2.220  -0.427  0.00  0.00     0.017 A 
ATOM      8  C8  DEN d   1       1.022  -0.836  -0.526  0.00  0.00    -0.094 A 
ATOM      9  C9  DEN d   1       1.958  -0.202  -1.325  0.00  0.00    -0.072 A 
ENDROOT
TORSDOF 0
ENDMDL
