MODEL 1
REMARK minimizedAffinity -1.82276046
REMARK minimizedRMSD -1
REMARK  0 active torsions:
REMARK  status: ('A' for Active; 'I' for Inactive)
ROOT
ATOM      1  C1  DEN d   1      -2.634   0.376   0.264  0.00  0.00     0.130 A 
ATOM      2  C2  DEN d   1      -2.786   0.389   1.717  0.00  0.00    -0.031 A 
ATOM      3  C3  DEN d   1      -1.439   0.465   2.316  0.00  0.00     0.027 A 
ATOM      4  C4  DEN d   1       0.856   0.570   1.143  0.00  0.00     0.027 A 
ATOM      5  C5  DEN d   1       1.493   0.574  -0.078  0.00  0.00    -0.003 A 
ATOM      6  C6  DEN d   1       0.807   0.479  -1.260  0.00  0.00     0.001 A 
ATOM      7  C7  DEN d   1      -0.561   0.421  -1.248  0.00  0.00     0.017 A 
ATOM      8  C8  DEN d   1      -1.210   0.409  -0.020  0.00  0.00    -0.094 A 
ATOM      9  C9  DEN d   1      -0.500   0.518   1.163  0.00  0.00    -0.072 A 
ENDROOT
TORSDOF 0
ENDMDL
