MODEL 1
REMARK minimizedAffinity -0.357720286
REMARK minimizedRMSD -1
REMARK  0 active torsions:
REMARK  status: ('A' for Active; 'I' for Inactive)
ROOT
ATOM      1  C1  DEN d   1      -0.119  -1.964   0.670  0.00  0.00     0.130 A 
ATOM      2  C2  DEN d   1       0.350  -2.971  -0.278  0.00  0.00    -0.031 A 
ATOM      3  C3  DEN d   1       1.314  -2.325  -1.191  0.00  0.00     0.027 A 
ATOM      4  C4  DEN d   1       2.125   0.124  -1.225  0.00  0.00     0.027 A 
ATOM      5  C5  DEN d   1       2.001   1.356  -0.623  0.00  0.00    -0.003 A 
ATOM      6  C6  DEN d   1       1.142   1.575   0.422  0.00  0.00     0.001 A 
ATOM      7  C7  DEN d   1       0.408   0.534   0.927  0.00  0.00     0.017 A 
ATOM      8  C8  DEN d   1       0.523  -0.710   0.320  0.00  0.00    -0.094 A 
ATOM      9  C9  DEN d   1       1.405  -0.914  -0.727  0.00  0.00    -0.072 A 
ENDROOT
TORSDOF 0
ENDMDL
