MODEL 1
REMARK minimizedAffinity -4.00026226
REMARK minimizedRMSD -1
REMARK  0 active torsions:
REMARK  status: ('A' for Active; 'I' for Inactive)
ROOT
ATOM      1  C1  DEN d   1      -3.354   4.909  -5.920  0.00  0.00     0.130 A 
ATOM      2  C2  DEN d   1      -4.487   5.829  -5.979  0.00  0.00    -0.031 A 
ATOM      3  C3  DEN d   1      -5.726   5.026  -5.999  0.00  0.00     0.027 A 
ATOM      4  C4  DEN d   1      -6.000   2.462  -5.939  0.00  0.00     0.027 A 
ATOM      5  C5  DEN d   1      -5.325   1.262  -5.898  0.00  0.00    -0.003 A 
ATOM      6  C6  DEN d   1      -3.957   1.193  -5.896  0.00  0.00     0.001 A 
ATOM      7  C7  DEN d   1      -3.219   2.347  -5.890  0.00  0.00     0.017 A 
ATOM      8  C8  DEN d   1      -3.892   3.561  -5.938  0.00  0.00    -0.094 A 
ATOM      9  C9  DEN d   1      -5.276   3.610  -5.928  0.00  0.00    -0.072 A 
ENDROOT
TORSDOF 0
ENDMDL
