MODEL 1
REMARK minimizedAffinity -4.39856529
REMARK minimizedRMSD -1
REMARK  0 active torsions:
REMARK  status: ('A' for Active; 'I' for Inactive)
ROOT
ATOM      1  C1  DEN d   1      -0.270   0.326   1.399  0.00  0.00     0.130 A 
ATOM      2  C2  DEN d   1      -1.335  -0.618   1.074  0.00  0.00    -0.031 A 
ATOM      3  C3  DEN d   1      -1.205  -0.979  -0.353  0.00  0.00     0.027 A 
ATOM      4  C4  DEN d   1       0.536  -0.175  -2.077  0.00  0.00     0.027 A 
ATOM      5  C5  DEN d   1       1.631   0.638  -2.272  0.00  0.00    -0.003 A 
ATOM      6  C6  DEN d   1       2.144   1.423  -1.274  0.00  0.00     0.001 A 
ATOM      7  C7  DEN d   1       1.589   1.378  -0.022  0.00  0.00     0.017 A 
ATOM      8  C8  DEN d   1       0.480   0.566   0.180  0.00  0.00    -0.094 A 
ATOM      9  C9  DEN d   1      -0.016  -0.229  -0.839  0.00  0.00    -0.072 A 
ENDROOT
TORSDOF 0
ENDMDL
