MODEL 1
REMARK minimizedAffinity 1.06315434
REMARK minimizedRMSD -1
REMARK  0 active torsions:
REMARK  status: ('A' for Active; 'I' for Inactive)
ROOT
ATOM      1  C1  DEN d   1      -2.386   1.507   2.159  0.00  0.00     0.130 A 
ATOM      2  C2  DEN d   1      -3.573   0.663   2.048  0.00  0.00    -0.031 A 
ATOM      3  C3  DEN d   1      -3.248  -0.465   1.152  0.00  0.00     0.027 A 
ATOM      4  C4  DEN d   1      -1.034  -0.986  -0.064  0.00  0.00     0.027 A 
ATOM      5  C5  DEN d   1       0.254  -0.552  -0.285  0.00  0.00    -0.003 A 
ATOM      6  C6  DEN d   1       0.738   0.608   0.260  0.00  0.00     0.001 A 
ATOM      7  C7  DEN d   1      -0.058   1.350   1.092  0.00  0.00     0.017 A 
ATOM      8  C8  DEN d   1      -1.361   0.922   1.315  0.00  0.00    -0.094 A 
ATOM      9  C9  DEN d   1      -1.827  -0.259   0.764  0.00  0.00    -0.072 A 
ENDROOT
TORSDOF 0
ENDMDL
