MODEL 1
REMARK minimizedAffinity -2.97726297
REMARK minimizedRMSD -1
REMARK  0 active torsions:
REMARK  status: ('A' for Active; 'I' for Inactive)
ROOT
ATOM      1  C1  DEN d   1       0.552   0.308   1.107  0.00  0.00     0.130 A 
ATOM      2  C2  DEN d   1       0.549  -0.199  -0.262  0.00  0.00    -0.031 A 
ATOM      3  C3  DEN d   1      -0.853  -0.449  -0.654  0.00  0.00     0.027 A 
ATOM      4  C4  DEN d   1      -3.008  -0.097   0.719  0.00  0.00     0.027 A 
ATOM      5  C5  DEN d   1      -3.510   0.305   1.937  0.00  0.00    -0.003 A 
ATOM      6  C6  DEN d   1      -2.699   0.700   2.967  0.00  0.00     0.001 A 
ATOM      7  C7  DEN d   1      -1.342   0.745   2.782  0.00  0.00     0.017 A 
ATOM      8  C8  DEN d   1      -0.828   0.335   1.560  0.00  0.00    -0.094 A 
ATOM      9  C9  DEN d   1      -1.666  -0.050   0.527  0.00  0.00    -0.072 A 
ENDROOT
TORSDOF 0
ENDMDL
