MODEL 1
REMARK minimizedAffinity -2.97368002
REMARK minimizedRMSD -1
REMARK  0 active torsions:
REMARK  status: ('A' for Active; 'I' for Inactive)
ROOT
ATOM      1  C1  DEN d   1       0.345  -0.146   0.896  0.00  0.00     0.130 A 
ATOM      2  C2  DEN d   1       0.597   0.548  -0.364  0.00  0.00    -0.031 A 
ATOM      3  C3  DEN d   1      -0.679   1.126  -0.830  0.00  0.00     0.027 A 
ATOM      4  C4  DEN d   1      -3.008   1.019   0.273  0.00  0.00     0.027 A 
ATOM      5  C5  DEN d   1      -3.720   0.532   1.347  0.00  0.00    -0.003 A 
ATOM      6  C6  DEN d   1      -3.139  -0.238   2.320  0.00  0.00     0.001 A 
ATOM      7  C7  DEN d   1      -1.797  -0.505   2.263  0.00  0.00     0.017 A 
ATOM      8  C8  DEN d   1      -1.074  -0.023   1.179  0.00  0.00    -0.094 A 
ATOM      9  C9  DEN d   1      -1.677   0.763   0.212  0.00  0.00    -0.072 A 
ENDROOT
TORSDOF 0
ENDMDL
