MODEL 1
REMARK minimizedAffinity -2.34550595
REMARK minimizedRMSD -1
REMARK  0 active torsions:
REMARK  status: ('A' for Active; 'I' for Inactive)
ROOT
ATOM      1  C1  DEN d   1       1.525  -2.106  -1.111  0.00  0.00     0.130 A 
ATOM      2  C2  DEN d   1       0.698  -2.810  -0.135  0.00  0.00    -0.031 A 
ATOM      3  C3  DEN d   1       0.169  -1.814   0.818  0.00  0.00     0.027 A 
ATOM      4  C4  DEN d   1       0.545   0.737   0.875  0.00  0.00     0.027 A 
ATOM      5  C5  DEN d   1       1.182   1.792   0.259  0.00  0.00    -0.003 A 
ATOM      6  C6  DEN d   1       1.999   1.618  -0.826  0.00  0.00     0.001 A 
ATOM      7  C7  DEN d   1       2.164   0.367  -1.358  0.00  0.00     0.017 A 
ATOM      8  C8  DEN d   1       1.531  -0.703  -0.738  0.00  0.00    -0.094 A 
ATOM      9  C9  DEN d   1       0.700  -0.505   0.351  0.00  0.00    -0.072 A 
ENDROOT
TORSDOF 0
ENDMDL
