MODEL 1
REMARK minimizedAffinity 1.79341245
REMARK minimizedRMSD -1
REMARK  0 active torsions:
REMARK  status: ('A' for Active; 'I' for Inactive)
ROOT
ATOM      1  C4' PXY d   1       5.302  -0.718   2.803  0.00  0.00     0.077 C 
ATOM      2  C1' PXY d   1      -0.132  -0.909   0.842  0.00  0.00     0.077 C 
ATOM      3  C1  PXY d   1       1.289  -0.860   1.368  0.00  0.00    -0.082 A 
ATOM      4  C2  PXY d   1       2.233  -0.276   0.649  0.00  0.00     0.003 A 
ATOM      5  C3  PXY d   1       3.529  -0.251   1.095  0.00  0.00     0.003 A 
ATOM      6  C4  PXY d   1       3.853  -0.782   2.315  0.00  0.00    -0.082 A 
ATOM      7  C5  PXY d   1       2.893  -1.371   3.060  0.00  0.00     0.003 A 
ATOM      8  C6  PXY d   1       1.591  -1.422   2.570  0.00  0.00     0.003 A 
ENDROOT
TORSDOF 0
ENDMDL
