MODEL 1
REMARK minimizedAffinity 1.36019671
REMARK minimizedRMSD -1
REMARK  0 active torsions:
REMARK  status: ('A' for Active; 'I' for Inactive)
ROOT
ATOM      1  C4' PXY d   1      -4.126   0.187  -2.853  0.00  0.00     0.077 C 
ATOM      2  C1' PXY d   1       0.145   3.731  -4.469  0.00  0.00     0.077 C 
ATOM      3  C1  PXY d   1      -0.967   2.792  -4.043  0.00  0.00    -0.082 A 
ATOM      4  C2  PXY d   1      -2.186   2.959  -4.527  0.00  0.00     0.003 A 
ATOM      5  C3  PXY d   1      -3.210   2.140  -4.128  0.00  0.00     0.003 A 
ATOM      6  C4  PXY d   1      -2.972   1.105  -3.263  0.00  0.00    -0.082 A 
ATOM      7  C5  PXY d   1      -1.728   0.921  -2.772  0.00  0.00     0.003 A 
ATOM      8  C6  PXY d   1      -0.711   1.790  -3.159  0.00  0.00     0.003 A 
ENDROOT
TORSDOF 0
ENDMDL
