MODEL 1
REMARK minimizedAffinity -2.46939111
REMARK minimizedRMSD -1
REMARK  0 active torsions:
REMARK  status: ('A' for Active; 'I' for Inactive)
ROOT
ATOM      1  C4' PXY d   1       1.639  -0.071  -0.884  0.00  0.00     0.077 C 
ATOM      2  C1' PXY d   1       2.846  -1.378   4.616  0.00  0.00     0.077 C 
ATOM      3  C1  PXY d   1       2.542  -1.034   3.171  0.00  0.00    -0.082 A 
ATOM      4  C2  PXY d   1       1.367  -0.515   2.855  0.00  0.00     0.003 A 
ATOM      5  C3  PXY d   1       1.063  -0.228   1.549  0.00  0.00     0.003 A 
ATOM      6  C4  PXY d   1       1.993  -0.425   0.563  0.00  0.00    -0.082 A 
ATOM      7  C5  PXY d   1       3.198  -0.944   0.879  0.00  0.00     0.003 A 
ATOM      8  C6  PXY d   1       3.471  -1.267   2.205  0.00  0.00     0.003 A 
ENDROOT
TORSDOF 0
ENDMDL
