MODEL 1
REMARK minimizedAffinity -0.269609332
REMARK minimizedRMSD -1
REMARK  0 active torsions:
REMARK  status: ('A' for Active; 'I' for Inactive)
ROOT
ATOM      1  C4' PXY d   1       3.262   0.896  -0.914  0.00  0.00     0.077 C 
ATOM      2  C1' PXY d   1      -1.934  -0.385   1.272  0.00  0.00     0.077 C 
ATOM      3  C1  PXY d   1      -0.566  -0.058   0.706  0.00  0.00    -0.082 A 
ATOM      4  C2  PXY d   1      -0.326   1.153   0.232  0.00  0.00     0.003 A 
ATOM      5  C3  PXY d   1       0.895   1.456  -0.313  0.00  0.00     0.003 A 
ATOM      6  C4  PXY d   1       1.899   0.524  -0.324  0.00  0.00    -0.082 A 
ATOM      7  C5  PXY d   1       1.665  -0.711   0.167  0.00  0.00     0.003 A 
ATOM      8  C6  PXY d   1       0.406  -1.011   0.678  0.00  0.00     0.003 A 
ENDROOT
TORSDOF 0
ENDMDL
