MODEL 1
REMARK minimizedAffinity -3.66465211
REMARK minimizedRMSD -1
REMARK  0 active torsions:
REMARK  status: ('A' for Active; 'I' for Inactive)
ROOT
ATOM      1  C4' PXY d   1       1.322  -1.778   4.269  0.00  0.00     0.077 C 
ATOM      2  C1' PXY d   1       2.097  -0.274  -1.258  0.00  0.00     0.077 C 
ATOM      3  C1  PXY d   1       1.901  -0.679   0.190  0.00  0.00    -0.082 A 
ATOM      4  C2  PXY d   1       0.835  -0.255   0.849  0.00  0.00     0.003 A 
ATOM      5  C3  PXY d   1       0.659  -0.585   2.168  0.00  0.00     0.003 A 
ATOM      6  C4  PXY d   1       1.555  -1.402   2.804  0.00  0.00    -0.082 A 
ATOM      7  C5  PXY d   1       2.640  -1.847   2.135  0.00  0.00     0.003 A 
ATOM      8  C6  PXY d   1       2.822  -1.467   0.808  0.00  0.00     0.003 A 
ENDROOT
TORSDOF 0
ENDMDL
