MODEL 1
REMARK minimizedAffinity -3.33858109
REMARK minimizedRMSD -1
REMARK  0 active torsions:
REMARK  status: ('A' for Active; 'I' for Inactive)
ROOT
ATOM      1  C4' PXY d   1       1.745  -5.570  -5.999  0.00  0.00     0.077 C 
ATOM      2  C1' PXY d   1      -2.624  -6.000  -2.239  0.00  0.00     0.077 C 
ATOM      3  C1  PXY d   1      -1.485  -5.894  -3.234  0.00  0.00    -0.082 A 
ATOM      4  C2  PXY d   1      -0.252  -5.693  -2.798  0.00  0.00     0.003 A 
ATOM      5  C3  PXY d   1       0.785  -5.562  -3.685  0.00  0.00     0.003 A 
ATOM      6  C4  PXY d   1       0.566  -5.693  -5.031  0.00  0.00    -0.082 A 
ATOM      7  C5  PXY d   1      -0.687  -5.910  -5.483  0.00  0.00     0.003 A 
ATOM      8  C6  PXY d   1      -1.733  -5.997  -4.568  0.00  0.00     0.003 A 
ENDROOT
TORSDOF 0
ENDMDL
