MODEL 1
REMARK minimizedAffinity 5.54870462
REMARK minimizedRMSD -1
REMARK  0 active torsions:
REMARK  status: ('A' for Active; 'I' for Inactive)
ROOT
ATOM      1  C4' PXY d   1      -2.381  -3.026   0.531  0.00  0.00     0.077 C 
ATOM      2  C1' PXY d   1       2.140   0.531  -0.038  0.00  0.00     0.077 C 
ATOM      3  C1  PXY d   1       0.958  -0.408   0.100  0.00  0.00    -0.082 A 
ATOM      4  C2  PXY d   1      -0.108  -0.021   0.781  0.00  0.00     0.003 A 
ATOM      5  C3  PXY d   1      -1.173  -0.870   0.943  0.00  0.00     0.003 A 
ATOM      6  C4  PXY d   1      -1.168  -2.107   0.357  0.00  0.00    -0.082 A 
ATOM      7  C5  PXY d   1      -0.088  -2.505  -0.348  0.00  0.00     0.003 A 
ATOM      8  C6  PXY d   1       0.999  -1.645  -0.466  0.00  0.00     0.003 A 
ENDROOT
TORSDOF 0
ENDMDL
