MODEL 1
REMARK minimizedAffinity 2.95841217
REMARK minimizedRMSD -1
REMARK  0 active torsions:
REMARK  status: ('A' for Active; 'I' for Inactive)
ROOT
ATOM      1  C4' PXY d   1      -0.007  -3.459   0.399  0.00  0.00     0.077 C 
ATOM      2  C1' PXY d   1      -4.915  -5.995   2.103  0.00  0.00     0.077 C 
ATOM      3  C1  PXY d   1      -3.626  -5.325   1.668  0.00  0.00    -0.082 A 
ATOM      4  C2  PXY d   1      -3.422  -5.069   0.386  0.00  0.00     0.003 A 
ATOM      5  C3  PXY d   1      -2.249  -4.493  -0.029  0.00  0.00     0.003 A 
ATOM      6  C4  PXY d   1      -1.297  -4.126   0.884  0.00  0.00    -0.082 A 
ATOM      7  C5  PXY d   1      -1.503  -4.373   2.196  0.00  0.00     0.003 A 
ATOM      8  C6  PXY d   1      -2.682  -4.997   2.591  0.00  0.00     0.003 A 
ENDROOT
TORSDOF 0
ENDMDL
