MODEL 1
REMARK minimizedAffinity -1.73815918
REMARK minimizedRMSD -1
REMARK  0 active torsions:
REMARK  status: ('A' for Active; 'I' for Inactive)
ROOT
ATOM      1  C4' PXY d   1       1.105  -5.253  -5.690  0.00  0.00     0.077 C 
ATOM      2  C1' PXY d   1      -4.294  -6.000  -3.763  0.00  0.00     0.077 C 
ATOM      3  C1  PXY d   1      -2.876  -5.796  -4.258  0.00  0.00    -0.082 A 
ATOM      4  C2  PXY d   1      -2.593  -5.998  -5.535  0.00  0.00     0.003 A 
ATOM      5  C3  PXY d   1      -1.310  -5.849  -5.994  0.00  0.00     0.003 A 
ATOM      6  C4  PXY d   1      -0.315  -5.438  -5.147  0.00  0.00    -0.082 A 
ATOM      7  C5  PXY d   1      -0.597  -5.220  -3.845  0.00  0.00     0.003 A 
ATOM      8  C6  PXY d   1      -1.898  -5.416  -3.391  0.00  0.00     0.003 A 
ENDROOT
TORSDOF 0
ENDMDL
