MODEL 1
REMARK minimizedAffinity 6.41184235
REMARK minimizedRMSD -1
REMARK  0 active torsions:
REMARK  status: ('A' for Active; 'I' for Inactive)
ROOT
ATOM      1  C4' PXY d   1       2.596  -1.460   3.733  0.00  0.00     0.077 C 
ATOM      2  C1' PXY d   1       2.582  -0.209  -1.911  0.00  0.00     0.077 C 
ATOM      3  C1  PXY d   1       2.597  -0.544  -0.432  0.00  0.00    -0.082 A 
ATOM      4  C2  PXY d   1       1.465  -0.532   0.252  0.00  0.00     0.003 A 
ATOM      5  C3  PXY d   1       1.464  -0.801   1.597  0.00  0.00     0.003 A 
ATOM      6  C4  PXY d   1       2.627  -1.138   2.236  0.00  0.00    -0.082 A 
ATOM      7  C5  PXY d   1       3.785  -1.163   1.542  0.00  0.00     0.003 A 
ATOM      8  C6  PXY d   1       3.770  -0.847   0.187  0.00  0.00     0.003 A 
ENDROOT
TORSDOF 0
ENDMDL
