MODEL 1
REMARK minimizedAffinity -4.6874342
REMARK minimizedRMSD -1
REMARK  0 active torsions:
REMARK  status: ('A' for Active; 'I' for Inactive)
ROOT
ATOM      1  C4' PXY d   1      -5.221  -6.000  -2.563  0.00  0.00     0.077 C 
ATOM      2  C1' PXY d   1      -3.517  -5.889   2.960  0.00  0.00     0.077 C 
ATOM      3  C1  PXY d   1      -3.953  -5.913   1.508  0.00  0.00    -0.082 A 
ATOM      4  C2  PXY d   1      -5.242  -5.946   1.212  0.00  0.00     0.003 A 
ATOM      5  C3  PXY d   1      -5.652  -6.000  -0.095  0.00  0.00     0.003 A 
ATOM      6  C4  PXY d   1      -4.735  -5.966  -1.111  0.00  0.00    -0.082 A 
ATOM      7  C5  PXY d   1      -3.419  -5.921  -0.818  0.00  0.00     0.003 A 
ATOM      8  C6  PXY d   1      -3.021  -5.909   0.516  0.00  0.00     0.003 A 
ENDROOT
TORSDOF 0
ENDMDL
