MODEL 1
REMARK minimizedAffinity -3.12623787
REMARK minimizedRMSD -1
REMARK  0 active torsions:
REMARK  status: ('A' for Active; 'I' for Inactive)
ROOT
ATOM      1  C4' PXY d   1      -2.656  -6.000  -0.513  0.00  0.00     0.077 C 
ATOM      2  C1' PXY d   1      -0.983  -5.281  -6.000  0.00  0.00     0.077 C 
ATOM      3  C1  PXY d   1      -1.410  -5.472  -4.557  0.00  0.00    -0.082 A 
ATOM      4  C2  PXY d   1      -2.647  -5.853  -4.286  0.00  0.00     0.003 A 
ATOM      5  C3  PXY d   1      -3.059  -5.999  -2.986  0.00  0.00     0.003 A 
ATOM      6  C4  PXY d   1      -2.179  -5.804  -1.955  0.00  0.00    -0.082 A 
ATOM      7  C5  PXY d   1      -0.912  -5.426  -2.224  0.00  0.00     0.003 A 
ATOM      8  C6  PXY d   1      -0.525  -5.243  -3.549  0.00  0.00     0.003 A 
ENDROOT
TORSDOF 0
ENDMDL
