MODEL 1
REMARK minimizedAffinity -3.30417347
REMARK minimizedRMSD -1
REMARK  0 active torsions:
REMARK  status: ('A' for Active; 'I' for Inactive)
ROOT
ATOM      1  C4' PXY d   1      -1.178  -5.564  -5.993  0.00  0.00     0.077 C 
ATOM      2  C1' PXY d   1      -2.269  -5.932  -0.328  0.00  0.00     0.077 C 
ATOM      3  C1  PXY d   1      -1.994  -5.843  -1.816  0.00  0.00    -0.082 A 
ATOM      4  C2  PXY d   1      -0.763  -5.607  -2.240  0.00  0.00     0.003 A 
ATOM      5  C3  PXY d   1      -0.502  -5.491  -3.581  0.00  0.00     0.003 A 
ATOM      6  C4  PXY d   1      -1.501  -5.672  -4.500  0.00  0.00    -0.082 A 
ATOM      7  C5  PXY d   1      -2.757  -5.924  -4.075  0.00  0.00     0.003 A 
ATOM      8  C6  PXY d   1      -3.010  -5.996  -2.708  0.00  0.00     0.003 A 
ENDROOT
TORSDOF 0
ENDMDL
