MODEL 1
REMARK minimizedAffinity 2.70135617
REMARK minimizedRMSD -1
REMARK  0 active torsions:
REMARK  status: ('A' for Active; 'I' for Inactive)
ROOT
ATOM      1  C4' PXY d   1      -3.758   1.190  -2.439  0.00  0.00     0.077 C 
ATOM      2  C1' PXY d   1       0.541   4.404  -4.586  0.00  0.00     0.077 C 
ATOM      3  C1  PXY d   1      -0.595   3.571  -4.025  0.00  0.00    -0.082 A 
ATOM      4  C2  PXY d   1      -0.328   2.575  -3.196  0.00  0.00     0.003 A 
ATOM      5  C3  PXY d   1      -1.340   1.791  -2.705  0.00  0.00     0.003 A 
ATOM      6  C4  PXY d   1      -2.644   2.064  -3.023  0.00  0.00    -0.082 A 
ATOM      7  C5  PXY d   1      -2.925   3.085  -3.859  0.00  0.00     0.003 A 
ATOM      8  C6  PXY d   1      -1.880   3.843  -4.380  0.00  0.00     0.003 A 
ENDROOT
TORSDOF 0
ENDMDL
