MODEL 1
REMARK minimizedAffinity -2.70693636
REMARK minimizedRMSD -1
REMARK  0 active torsions:
REMARK  status: ('A' for Active; 'I' for Inactive)
ROOT
ATOM      1  C4' PXY d   1       4.477  -1.407   3.001  0.00  0.00     0.077 C 
ATOM      2  C1' PXY d   1      -0.120  -0.137  -0.265  0.00  0.00     0.077 C 
ATOM      3  C1  PXY d   1       1.079  -0.466   0.602  0.00  0.00    -0.082 A 
ATOM      4  C2  PXY d   1       2.277  -0.569   0.049  0.00  0.00     0.003 A 
ATOM      5  C3  PXY d   1       3.367  -0.897   0.813  0.00  0.00     0.003 A 
ATOM      6  C4  PXY d   1       3.240  -1.068   2.166  0.00  0.00    -0.082 A 
ATOM      7  C5  PXY d   1       2.023  -0.953   2.739  0.00  0.00     0.003 A 
ATOM      8  C6  PXY d   1       0.922  -0.660   1.939  0.00  0.00     0.003 A 
ENDROOT
TORSDOF 0
ENDMDL
