MODEL 1
REMARK minimizedAffinity 5.1284194
REMARK minimizedRMSD -1
REMARK  0 active torsions:
REMARK  status: ('A' for Active; 'I' for Inactive)
ROOT
ATOM      1  C4' PXY d   1       0.401   0.068  -0.606  0.00  0.00     0.077 C 
ATOM      2  C1' PXY d   1      -2.775  -4.537   0.851  0.00  0.00     0.077 C 
ATOM      3  C1  PXY d   1      -1.952  -3.325   0.462  0.00  0.00    -0.082 A 
ATOM      4  C2  PXY d   1      -0.631  -3.408   0.448  0.00  0.00     0.003 A 
ATOM      5  C3  PXY d   1       0.129  -2.312   0.130  0.00  0.00     0.003 A 
ATOM      6  C4  PXY d   1      -0.470  -1.134  -0.229  0.00  0.00    -0.082 A 
ATOM      7  C5  PXY d   1      -1.817  -1.045  -0.228  0.00  0.00     0.003 A 
ATOM      8  C6  PXY d   1      -2.570  -2.157   0.138  0.00  0.00     0.003 A 
ENDROOT
TORSDOF 0
ENDMDL
