MODEL 1
REMARK minimizedAffinity -0.257737845
REMARK minimizedRMSD -1
REMARK  0 active torsions:
REMARK  status: ('A' for Active; 'I' for Inactive)
ROOT
ATOM      1  C4' PXY d   1      -2.456  -0.360   0.546  0.00  0.00     0.077 C 
ATOM      2  C1' PXY d   1       3.270  -0.532  -0.227  0.00  0.00     0.077 C 
ATOM      3  C1  PXY d   1       1.770  -0.489  -0.011  0.00  0.00    -0.082 A 
ATOM      4  C2  PXY d   1       0.956  -0.780  -1.014  0.00  0.00     0.003 A 
ATOM      5  C3  PXY d   1      -0.403  -0.714  -0.845  0.00  0.00     0.003 A 
ATOM      6  C4  PXY d   1      -0.935  -0.400   0.377  0.00  0.00    -0.082 A 
ATOM      7  C5  PXY d   1      -0.112  -0.112   1.407  0.00  0.00     0.003 A 
ATOM      8  C6  PXY d   1       1.265  -0.144   1.204  0.00  0.00     0.003 A 
ENDROOT
TORSDOF 0
ENDMDL
