MODEL 1
REMARK minimizedAffinity -0.456752568
REMARK minimizedRMSD -1
REMARK  0 active torsions:
REMARK  status: ('A' for Active; 'I' for Inactive)
ROOT
ATOM      1  C4' PXY d   1      -3.684  -5.994  -3.022  0.00  0.00     0.077 C 
ATOM      2  C1' PXY d   1       1.257  -5.627  -5.999  0.00  0.00     0.077 C 
ATOM      3  C1  PXY d   1      -0.045  -5.719  -5.229  0.00  0.00    -0.082 A 
ATOM      4  C2  PXY d   1      -0.035  -5.609  -3.911  0.00  0.00     0.003 A 
ATOM      5  C3  PXY d   1      -1.199  -5.723  -3.196  0.00  0.00     0.003 A 
ATOM      6  C4  PXY d   1      -2.394  -5.897  -3.841  0.00  0.00    -0.082 A 
ATOM      7  C5  PXY d   1      -2.414  -6.000  -5.187  0.00  0.00     0.003 A 
ATOM      8  C6  PXY d   1      -1.216  -5.923  -5.891  0.00  0.00     0.003 A 
ENDROOT
TORSDOF 0
ENDMDL
