MODEL 1
REMARK minimizedAffinity 2.65428829
REMARK minimizedRMSD -1
REMARK  0 active torsions:
REMARK  status: ('A' for Active; 'I' for Inactive)
ROOT
ATOM      1  C4' PXY d   1       0.014   0.334   0.081  0.00  0.00     0.077 C 
ATOM      2  C1' PXY d   1      -0.501   4.391  -4.004  0.00  0.00     0.077 C 
ATOM      3  C1  PXY d   1      -0.358   3.335  -2.926  0.00  0.00    -0.082 A 
ATOM      4  C2  PXY d   1      -0.612   2.069  -3.213  0.00  0.00     0.003 A 
ATOM      5  C3  PXY d   1      -0.518   1.105  -2.243  0.00  0.00     0.003 A 
ATOM      6  C4  PXY d   1      -0.108   1.433  -0.978  0.00  0.00    -0.082 A 
ATOM      7  C5  PXY d   1       0.163   2.721  -0.680  0.00  0.00     0.003 A 
ATOM      8  C6  PXY d   1       0.022   3.690  -1.669  0.00  0.00     0.003 A 
ENDROOT
TORSDOF 0
ENDMDL
