MODEL 1
REMARK minimizedAffinity -4.92647076
REMARK minimizedRMSD -1
REMARK  1 active torsions:
REMARK  status: ('A' for Active; 'I' for Inactive)
REMARK    1  A    between atoms: C1_2  and  C2_3 
ROOT
ATOM      1  C2  UNL d   1       0.367  -0.903  -0.462  0.00  0.00    -0.073 A 
ATOM      2  C3  UNL d   1       0.373  -0.914  -1.861  0.00  0.00    -0.002 A 
ATOM      3  C4  UNL d   1       0.203   0.273  -2.575  0.00  0.00     0.004 A 
ATOM      4  C5  UNL d   1       0.034   1.481  -1.900  0.00  0.00    -0.004 A 
ATOM      5  C6  UNL d   1       0.038   1.514  -0.501  0.00  0.00    -0.075 A 
ATOM      6  C7  UNL d   1      -0.145   2.805   0.241  0.00  0.00     0.076 C 
ATOM      7  C8  UNL d   1       0.206   0.318   0.209  0.00  0.00     0.001 A 
ENDROOT
BRANCH   1   8
ATOM      8  C1  UNL d   1       0.556  -2.181   0.314  0.00  0.00     0.053 C 
ATOM      9  C   UNL d   1      -0.706  -3.029   0.332  0.00  0.00     0.018 C 
ENDBRANCH   1   8
TORSDOF 1
ENDMDL
