MODEL 1
REMARK minimizedAffinity -2.98993444
REMARK minimizedRMSD -1
REMARK  1 active torsions:
REMARK  status: ('A' for Active; 'I' for Inactive)
REMARK    1  A    between atoms: C1_2  and  C2_3 
ROOT
ATOM      1  C2  UNL d   1       0.294   0.317   0.224  0.00  0.00    -0.073 A 
ATOM      2  C3  UNL d   1      -0.848   0.489   1.014  0.00  0.00    -0.002 A 
ATOM      3  C4  UNL d   1      -1.594  -0.616   1.425  0.00  0.00     0.004 A 
ATOM      4  C5  UNL d   1      -1.202  -1.903   1.059  0.00  0.00    -0.004 A 
ATOM      5  C6  UNL d   1      -0.057  -2.097   0.280  0.00  0.00    -0.075 A 
ATOM      6  C7  UNL d   1       0.377  -3.475  -0.125  0.00  0.00     0.076 C 
ATOM      7  C8  UNL d   1       0.686  -0.982  -0.132  0.00  0.00     0.001 A 
ENDROOT
BRANCH   1   8
ATOM      8  C1  UNL d   1       1.106   1.507  -0.217  0.00  0.00     0.053 C 
ATOM      9  C   UNL d   1       1.409   2.450   0.936  0.00  0.00     0.018 C 
ENDBRANCH   1   8
TORSDOF 1
ENDMDL
