MODEL 1
REMARK minimizedAffinity -3.93093753
REMARK minimizedRMSD -1
REMARK  1 active torsions:
REMARK  status: ('A' for Active; 'I' for Inactive)
REMARK    1  A    between atoms: C1_2  and  C2_3 
ROOT
ATOM      1  C2  UNL d   1       0.399  -0.381  -0.887  0.00  0.00    -0.073 A 
ATOM      2  C3  UNL d   1       0.756  -1.720  -0.691  0.00  0.00    -0.002 A 
ATOM      3  C4  UNL d   1       0.234  -2.438   0.385  0.00  0.00     0.004 A 
ATOM      4  C5  UNL d   1      -0.655  -1.829   1.271  0.00  0.00    -0.004 A 
ATOM      5  C6  UNL d   1      -1.032  -0.495   1.085  0.00  0.00    -0.075 A 
ATOM      6  C7  UNL d   1      -1.985   0.176   2.030  0.00  0.00     0.076 C 
ATOM      7  C8  UNL d   1      -0.501   0.221   0.003  0.00  0.00     0.001 A 
ENDROOT
BRANCH   1   8
ATOM      8  C1  UNL d   1       0.956   0.397  -2.052  0.00  0.00     0.053 C 
ATOM      9  C   UNL d   1       1.115  -0.469  -3.292  0.00  0.00     0.018 C 
ENDBRANCH   1   8
TORSDOF 1
ENDMDL
