MODEL 1
REMARK minimizedAffinity -4.46656275
REMARK minimizedRMSD -1
REMARK  1 active torsions:
REMARK  status: ('A' for Active; 'I' for Inactive)
REMARK    1  A    between atoms: C1_2  and  C2_3 
ROOT
ATOM      1  C2  UNL d   1       0.026   3.469   1.247  0.00  0.00    -0.073 A 
ATOM      2  C3  UNL d   1       1.098   3.341   2.137  0.00  0.00    -0.002 A 
ATOM      3  C4  UNL d   1       1.121   4.075   3.324  0.00  0.00     0.004 A 
ATOM      4  C5  UNL d   1       0.071   4.938   3.635  0.00  0.00    -0.004 A 
ATOM      5  C6  UNL d   1      -1.015   5.071   2.764  0.00  0.00    -0.075 A 
ATOM      6  C7  UNL d   1      -2.152   5.997   3.084  0.00  0.00     0.076 C 
ATOM      7  C8  UNL d   1      -1.030   4.333   1.574  0.00  0.00     0.001 A 
ENDROOT
BRANCH   1   8
ATOM      8  C1  UNL d   1      -0.006   2.673  -0.032  0.00  0.00     0.053 C 
ATOM      9  C   UNL d   1      -0.071   1.177   0.229  0.00  0.00     0.018 C 
ENDBRANCH   1   8
TORSDOF 1
ENDMDL
