MODEL 1
REMARK minimizedAffinity -2.65993476
REMARK minimizedRMSD -1
REMARK  1 active torsions:
REMARK  status: ('A' for Active; 'I' for Inactive)
REMARK    1  A    between atoms: C1_2  and  C2_3 
ROOT
ATOM      1  C2  UNL d   1       0.160   0.416   0.609  0.00  0.00    -0.073 A 
ATOM      2  C3  UNL d   1       1.422   0.011   1.060  0.00  0.00    -0.002 A 
ATOM      3  C4  UNL d   1       1.687  -1.339   1.294  0.00  0.00     0.004 A 
ATOM      4  C5  UNL d   1       0.698  -2.297   1.072  0.00  0.00    -0.004 A 
ATOM      5  C6  UNL d   1      -0.565  -1.913   0.610  0.00  0.00    -0.075 A 
ATOM      6  C7  UNL d   1      -1.640  -2.932   0.369  0.00  0.00     0.076 C 
ATOM      7  C8  UNL d   1      -0.824  -0.556   0.381  0.00  0.00     0.001 A 
ENDROOT
BRANCH   1   8
ATOM      8  C1  UNL d   1      -0.129   1.872   0.350  0.00  0.00     0.053 C 
ATOM      9  C   UNL d   1       1.057   2.759   0.694  0.00  0.00     0.018 C 
ENDBRANCH   1   8
TORSDOF 1
ENDMDL
