MODEL 1
REMARK minimizedAffinity 3.57172966
REMARK minimizedRMSD -1
REMARK  0 active torsions:
REMARK  status: ('A' for Active; 'I' for Inactive)
ROOT
ATOM      1  C2' OXE d   1      -2.289   2.310   3.062  0.00  0.00     0.078 C 
ATOM      2  C1' OXE d   1      -2.456  -0.444   2.541  0.00  0.00     0.078 C 
ATOM      3  C1  OXE d   1      -1.284   0.311   1.965  0.00  0.00    -0.078 A 
ATOM      4  C2  OXE d   1      -1.235   1.666   2.186  0.00  0.00    -0.078 A 
ATOM      5  C3  OXE d   1      -0.147   2.401   1.724  0.00  0.00     0.003 A 
ATOM      6  C4  OXE d   1       0.818   1.800   0.907  0.00  0.00    -0.002 A 
ATOM      7  C5  OXE d   1       0.766   0.429   0.636  0.00  0.00    -0.002 A 
ATOM      8  C6  OXE d   1      -0.253  -0.337   1.192  0.00  0.00     0.003 A 
ENDROOT
TORSDOF 0
ENDMDL
