MODEL 1
REMARK minimizedAffinity -2.01998806
REMARK minimizedRMSD -1
REMARK  0 active torsions:
REMARK  status: ('A' for Active; 'I' for Inactive)
ROOT
ATOM      1  C2' OXE d   1      -3.050  -1.119   3.324  0.00  0.00     0.078 C 
ATOM      2  C1' OXE d   1      -3.111   1.664   3.684  0.00  0.00     0.078 C 
ATOM      3  C1  OXE d   1      -1.987   1.086   2.861  0.00  0.00    -0.078 A 
ATOM      4  C2  OXE d   1      -1.939  -0.281   2.729  0.00  0.00    -0.078 A 
ATOM      5  C3  OXE d   1      -0.955  -0.863   1.935  0.00  0.00     0.003 A 
ATOM      6  C4  OXE d   1       0.075  -0.082   1.396  0.00  0.00    -0.002 A 
ATOM      7  C5  OXE d   1       0.067   1.308   1.552  0.00  0.00    -0.002 A 
ATOM      8  C6  OXE d   1      -0.978   1.911   2.244  0.00  0.00     0.003 A 
ENDROOT
TORSDOF 0
ENDMDL
