MODEL 1
REMARK minimizedAffinity 1.68728673
REMARK minimizedRMSD -1
REMARK  0 active torsions:
REMARK  status: ('A' for Active; 'I' for Inactive)
ROOT
ATOM      1  C2' OXE d   1      -3.672   1.968   3.949  0.00  0.00     0.078 C 
ATOM      2  C1' OXE d   1      -3.075  -0.653   3.138  0.00  0.00     0.078 C 
ATOM      3  C1  OXE d   1      -2.105   0.439   2.760  0.00  0.00    -0.078 A 
ATOM      4  C2  OXE d   1      -2.429   1.725   3.120  0.00  0.00    -0.078 A 
ATOM      5  C3  OXE d   1      -1.542   2.762   2.844  0.00  0.00     0.003 A 
ATOM      6  C4  OXE d   1      -0.400   2.530   2.069  0.00  0.00    -0.002 A 
ATOM      7  C5  OXE d   1      -0.072   1.234   1.657  0.00  0.00    -0.002 A 
ATOM      8  C6  OXE d   1      -0.890   0.173   2.030  0.00  0.00     0.003 A 
ENDROOT
TORSDOF 0
ENDMDL
