MODEL 1
REMARK minimizedAffinity -4.13690472
REMARK minimizedRMSD -1
REMARK  0 active torsions:
REMARK  status: ('A' for Active; 'I' for Inactive)
ROOT
ATOM      1  C2' OXE d   1      -3.031   2.095   3.356  0.00  0.00     0.078 C 
ATOM      2  C1' OXE d   1      -3.067  -0.683   2.953  0.00  0.00     0.078 C 
ATOM      3  C1  OXE d   1      -1.915   0.097   2.371  0.00  0.00    -0.078 A 
ATOM      4  C2  OXE d   1      -1.929   1.461   2.533  0.00  0.00    -0.078 A 
ATOM      5  C3  OXE d   1      -0.863   2.223   2.064  0.00  0.00     0.003 A 
ATOM      6  C4  OXE d   1       0.147   1.630   1.295  0.00  0.00    -0.002 A 
ATOM      7  C5  OXE d   1       0.160   0.247   1.085  0.00  0.00    -0.002 A 
ATOM      8  C6  OXE d   1      -0.839  -0.538   1.651  0.00  0.00     0.003 A 
ENDROOT
TORSDOF 0
ENDMDL
