MODEL 1
REMARK minimizedAffinity -4.51663971
REMARK minimizedRMSD -1
REMARK  0 active torsions:
REMARK  status: ('A' for Active; 'I' for Inactive)
ROOT
ATOM      1  C2' OXE d   1       0.500   2.125   1.397  0.00  0.00     0.078 C 
ATOM      2  C1' OXE d   1      -0.331  -0.517   0.941  0.00  0.00     0.078 C 
ATOM      3  C1  OXE d   1      -1.296   0.415   1.630  0.00  0.00    -0.078 A 
ATOM      4  C2  OXE d   1      -0.864   1.693   1.891  0.00  0.00    -0.078 A 
ATOM      5  C3  OXE d   1      -1.734   2.609   2.475  0.00  0.00     0.003 A 
ATOM      6  C4  OXE d   1      -2.990   2.198   2.937  0.00  0.00    -0.002 A 
ATOM      7  C5  OXE d   1      -3.435   0.890   2.717  0.00  0.00    -0.002 A 
ATOM      8  C6  OXE d   1      -2.619  -0.000   2.028  0.00  0.00     0.003 A 
ENDROOT
TORSDOF 0
ENDMDL
