MODEL 1
REMARK minimizedAffinity -3.96791768
REMARK minimizedRMSD -1
REMARK  0 active torsions:
REMARK  status: ('A' for Active; 'I' for Inactive)
ROOT
ATOM      1  C2' OXE d   1      -2.562   0.501   2.534  0.00  0.00     0.078 C 
ATOM      2  C1' OXE d   1      -1.556  -1.469   0.804  0.00  0.00     0.078 C 
ATOM      3  C1  OXE d   1      -0.727  -0.227   1.014  0.00  0.00    -0.078 A 
ATOM      4  C2  OXE d   1      -1.248   0.752   1.825  0.00  0.00    -0.078 A 
ATOM      5  C3  OXE d   1      -0.500   1.894   2.096  0.00  0.00     0.003 A 
ATOM      6  C4  OXE d   1       0.709   2.124   1.429  0.00  0.00    -0.002 A 
ATOM      7  C5  OXE d   1       1.240   1.157   0.568  0.00  0.00    -0.002 A 
ATOM      8  C6  OXE d   1       0.556  -0.039   0.383  0.00  0.00     0.003 A 
ENDROOT
TORSDOF 0
ENDMDL
