MODEL 1
REMARK minimizedAffinity 5.20913029
REMARK minimizedRMSD -1
REMARK  0 active torsions:
REMARK  status: ('A' for Active; 'I' for Inactive)
ROOT
ATOM      1  C2' OXE d   1      -2.061  -0.299   2.948  0.00  0.00     0.078 C 
ATOM      2  C1' OXE d   1       0.133  -2.044   2.813  0.00  0.00     0.078 C 
ATOM      3  C1  OXE d   1       0.132  -0.844   1.900  0.00  0.00    -0.078 A 
ATOM      4  C2  OXE d   1      -0.967  -0.020   1.940  0.00  0.00    -0.078 A 
ATOM      5  C3  OXE d   1      -0.995   1.131   1.158  0.00  0.00     0.003 A 
ATOM      6  C4  OXE d   1       0.017   1.376   0.221  0.00  0.00    -0.002 A 
ATOM      7  C5  OXE d   1       1.126   0.529   0.137  0.00  0.00    -0.002 A 
ATOM      8  C6  OXE d   1       1.220  -0.560   0.997  0.00  0.00     0.003 A 
ENDROOT
TORSDOF 0
ENDMDL
