MODEL 1
REMARK minimizedAffinity -2.46835518
REMARK minimizedRMSD -1
REMARK  0 active torsions:
REMARK  status: ('A' for Active; 'I' for Inactive)
ROOT
ATOM      1  C2' OXE d   1       1.964   2.602   0.876  0.00  0.00     0.078 C 
ATOM      2  C1' OXE d   1       1.977  -0.057   1.776  0.00  0.00     0.078 C 
ATOM      3  C1  OXE d   1       0.669   0.693   1.817  0.00  0.00    -0.078 A 
ATOM      4  C2  OXE d   1       0.682   2.008   1.418  0.00  0.00    -0.078 A 
ATOM      5  C3  OXE d   1      -0.508   2.730   1.384  0.00  0.00     0.003 A 
ATOM      6  C4  OXE d   1      -1.688   2.177   1.896  0.00  0.00    -0.002 A 
ATOM      7  C5  OXE d   1      -1.714   0.852   2.344  0.00  0.00    -0.002 A 
ATOM      8  C6  OXE d   1      -0.557   0.085   2.272  0.00  0.00     0.003 A 
ENDROOT
TORSDOF 0
ENDMDL
