MODEL 1
REMARK minimizedAffinity -3.46654081
REMARK minimizedRMSD -1
REMARK  0 active torsions:
REMARK  status: ('A' for Active; 'I' for Inactive)
ROOT
ATOM      1  C2' OXE d   1      -3.232   1.941   3.355  0.00  0.00     0.078 C 
ATOM      2  C1' OXE d   1      -3.008  -0.799   2.790  0.00  0.00     0.078 C 
ATOM      3  C1  OXE d   1      -1.945   0.121   2.243  0.00  0.00    -0.078 A 
ATOM      4  C2  OXE d   1      -2.088   1.466   2.486  0.00  0.00    -0.078 A 
ATOM      5  C3  OXE d   1      -1.107   2.352   2.051  0.00  0.00     0.003 A 
ATOM      6  C4  OXE d   1      -0.057   1.906   1.239  0.00  0.00    -0.002 A 
ATOM      7  C5  OXE d   1       0.085   0.545   0.947  0.00  0.00    -0.002 A 
ATOM      8  C6  OXE d   1      -0.825  -0.364   1.476  0.00  0.00     0.003 A 
ENDROOT
TORSDOF 0
ENDMDL
