MODEL 1
REMARK minimizedAffinity -0.41859442
REMARK minimizedRMSD -1
REMARK  0 active torsions:
REMARK  status: ('A' for Active; 'I' for Inactive)
ROOT
ATOM      1  C2' OXE d   1      -2.943  -0.335   2.843  0.00  0.00     0.078 C 
ATOM      2  C1' OXE d   1      -2.097   2.342   2.811  0.00  0.00     0.078 C 
ATOM      3  C1  OXE d   1      -1.264   1.331   2.062  0.00  0.00    -0.078 A 
ATOM      4  C2  OXE d   1      -1.660   0.017   2.122  0.00  0.00    -0.078 A 
ATOM      5  C3  OXE d   1      -0.958  -0.948   1.404  0.00  0.00     0.003 A 
ATOM      6  C4  OXE d   1       0.233  -0.616   0.747  0.00  0.00    -0.002 A 
ATOM      7  C5  OXE d   1       0.675   0.711   0.707  0.00  0.00    -0.002 A 
ATOM      8  C6  OXE d   1      -0.083   1.701   1.322  0.00  0.00     0.003 A 
ENDROOT
TORSDOF 0
ENDMDL
