MODEL 1
REMARK minimizedAffinity 2.84109092
REMARK minimizedRMSD -1
REMARK  0 active torsions:
REMARK  status: ('A' for Active; 'I' for Inactive)
ROOT
ATOM      1  C2' OXE d   1       1.013   1.195   1.093  0.00  0.00     0.078 C 
ATOM      2  C1' OXE d   1      -0.432  -0.864   2.341  0.00  0.00     0.078 C 
ATOM      3  C1  OXE d   1      -1.101   0.480   2.200  0.00  0.00    -0.078 A 
ATOM      4  C2  OXE d   1      -0.370   1.495   1.630  0.00  0.00    -0.078 A 
ATOM      5  C3  OXE d   1      -0.959   2.739   1.426  0.00  0.00     0.003 A 
ATOM      6  C4  OXE d   1      -2.235   3.011   1.935  0.00  0.00    -0.002 A 
ATOM      7  C5  OXE d   1      -2.982   2.003   2.555  0.00  0.00    -0.002 A 
ATOM      8  C6  OXE d   1      -2.447   0.724   2.657  0.00  0.00     0.003 A 
ENDROOT
TORSDOF 0
ENDMDL
