MODEL 1
REMARK minimizedAffinity -0.0653042719
REMARK minimizedRMSD -1
REMARK  0 active torsions:
REMARK  status: ('A' for Active; 'I' for Inactive)
ROOT
ATOM      1  C2' OXE d   1      -2.706  -0.506   2.922  0.00  0.00     0.078 C 
ATOM      2  C1' OXE d   1      -2.181   2.221   3.333  0.00  0.00     0.078 C 
ATOM      3  C1  OXE d   1      -1.192   1.430   2.513  0.00  0.00    -0.078 A 
ATOM      4  C2  OXE d   1      -1.433   0.086   2.357  0.00  0.00    -0.078 A 
ATOM      5  C3  OXE d   1      -0.581  -0.679   1.565  0.00  0.00     0.003 A 
ATOM      6  C4  OXE d   1       0.599  -0.126   1.054  0.00  0.00    -0.002 A 
ATOM      7  C5  OXE d   1       0.884   1.231   1.236  0.00  0.00    -0.002 A 
ATOM      8  C6  OXE d   1      -0.021   2.031   1.925  0.00  0.00     0.003 A 
ENDROOT
TORSDOF 0
ENDMDL
