MODEL 1
REMARK minimizedAffinity 1.5623318
REMARK minimizedRMSD -1
REMARK  0 active torsions:
REMARK  status: ('A' for Active; 'I' for Inactive)
ROOT
ATOM      1  C2' OXE d   1      -2.650  -0.597   2.731  0.00  0.00     0.078 C 
ATOM      2  C1' OXE d   1      -2.179   2.165   2.563  0.00  0.00     0.078 C 
ATOM      3  C1  OXE d   1      -1.148   1.238   1.969  0.00  0.00    -0.078 A 
ATOM      4  C2  OXE d   1      -1.364  -0.113   2.097  0.00  0.00    -0.078 A 
ATOM      5  C3  OXE d   1      -0.472  -1.012   1.519  0.00  0.00     0.003 A 
ATOM      6  C4  OXE d   1       0.720  -0.556   0.944  0.00  0.00    -0.002 A 
ATOM      7  C5  OXE d   1       0.979   0.815   0.838  0.00  0.00    -0.002 A 
ATOM      8  C6  OXE d   1       0.037   1.724   1.307  0.00  0.00     0.003 A 
ENDROOT
TORSDOF 0
ENDMDL
