MODEL 1
REMARK minimizedAffinity 3.44443345
REMARK minimizedRMSD -1
REMARK  0 active torsions:
REMARK  status: ('A' for Active; 'I' for Inactive)
ROOT
ATOM      1  C2' OXE d   1       2.560   1.744  -1.365  0.00  0.00     0.078 C 
ATOM      2  C1' OXE d   1       3.203  -0.579   0.074  0.00  0.00     0.078 C 
ATOM      3  C1  OXE d   1       1.948   0.162   0.460  0.00  0.00    -0.078 A 
ATOM      4  C2  OXE d   1       1.666   1.323  -0.219  0.00  0.00    -0.078 A 
ATOM      5  C3  OXE d   1       0.492   2.017   0.060  0.00  0.00     0.003 A 
ATOM      6  C4  OXE d   1      -0.325   1.627   1.128  0.00  0.00    -0.002 A 
ATOM      7  C5  OXE d   1      -0.035   0.469   1.858  0.00  0.00    -0.002 A 
ATOM      8  C6  OXE d   1       1.072  -0.296   1.510  0.00  0.00     0.003 A 
ENDROOT
TORSDOF 0
ENDMDL
