MODEL 1
REMARK minimizedAffinity -3.56477427
REMARK minimizedRMSD -1
REMARK  0 active torsions:
REMARK  status: ('A' for Active; 'I' for Inactive)
ROOT
ATOM      1  C2' OXE d   1      -1.501   2.376   2.814  0.00  0.00     0.078 C 
ATOM      2  C1' OXE d   1      -2.543  -0.155   2.194  0.00  0.00     0.078 C 
ATOM      3  C1  OXE d   1      -1.157   0.175   1.699  0.00  0.00    -0.078 A 
ATOM      4  C2  OXE d   1      -0.674   1.433   1.967  0.00  0.00    -0.078 A 
ATOM      5  C3  OXE d   1       0.620   1.771   1.581  0.00  0.00     0.003 A 
ATOM      6  C4  OXE d   1       1.375   0.897   0.789  0.00  0.00    -0.002 A 
ATOM      7  C5  OXE d   1       0.885  -0.375   0.471  0.00  0.00    -0.002 A 
ATOM      8  C6  OXE d   1      -0.359  -0.766   0.953  0.00  0.00     0.003 A 
ENDROOT
TORSDOF 0
ENDMDL
