MODEL 1
REMARK minimizedAffinity -0.738696754
REMARK minimizedRMSD -1
REMARK  0 active torsions:
REMARK  status: ('A' for Active; 'I' for Inactive)
ROOT
ATOM      1  C2' OXE d   1       3.516  -1.081  -0.214  0.00  0.00     0.078 C 
ATOM      2  C1' OXE d   1       2.759   1.179  -1.698  0.00  0.00     0.078 C 
ATOM      3  C1  OXE d   1       1.937   0.827  -0.483  0.00  0.00    -0.078 A 
ATOM      4  C2  OXE d   1       2.286  -0.307   0.210  0.00  0.00    -0.078 A 
ATOM      5  C3  OXE d   1       1.595  -0.646   1.369  0.00  0.00     0.003 A 
ATOM      6  C4  OXE d   1       0.453   0.069   1.749  0.00  0.00    -0.002 A 
ATOM      7  C5  OXE d   1       0.057   1.205   1.034  0.00  0.00    -0.002 A 
ATOM      8  C6  OXE d   1       0.811   1.621  -0.057  0.00  0.00     0.003 A 
ENDROOT
TORSDOF 0
ENDMDL
