MODEL 1
REMARK minimizedAffinity 1.64877927
REMARK minimizedRMSD -1
REMARK  0 active torsions:
REMARK  status: ('A' for Active; 'I' for Inactive)
ROOT
ATOM      1  C2' OXE d   1      -2.118   0.415   2.592  0.00  0.00     0.078 C 
ATOM      2  C1' OXE d   1       0.579   0.743   3.298  0.00  0.00     0.078 C 
ATOM      3  C1  OXE d   1       0.080   1.466   2.072  0.00  0.00    -0.078 A 
ATOM      4  C2  OXE d   1      -1.229   1.263   1.708  0.00  0.00    -0.078 A 
ATOM      5  C3  OXE d   1      -1.756   1.950   0.617  0.00  0.00     0.003 A 
ATOM      6  C4  OXE d   1      -0.925   2.724  -0.201  0.00  0.00    -0.002 A 
ATOM      7  C5  OXE d   1       0.421   2.913   0.130  0.00  0.00    -0.002 A 
ATOM      8  C6  OXE d   1       0.928   2.326   1.284  0.00  0.00     0.003 A 
ENDROOT
TORSDOF 0
ENDMDL
