MODEL 1
REMARK minimizedAffinity -4.77793026
REMARK minimizedRMSD -1
REMARK  1 active torsions:
REMARK  status: ('A' for Active; 'I' for Inactive)
REMARK    1  A    between atoms: C1_2  and  C2_3 
ROOT
ATOM      1  C2  UNL d   1       0.139   1.398   0.365  0.00  0.00    -0.081 A 
ATOM      2  C3  UNL d   1      -0.692   0.897   1.375  0.00  0.00     0.006 A 
ATOM      3  C4  UNL d   1      -1.053  -0.452   1.390  0.00  0.00     0.002 A 
ATOM      4  C5  UNL d   1      -0.583  -1.324   0.402  0.00  0.00    -0.080 A 
ATOM      5  C6  UNL d   1      -0.938  -2.781   0.424  0.00  0.00     0.076 C 
ATOM      6  C7  UNL d   1       0.234  -0.820  -0.616  0.00  0.00     0.002 A 
ATOM      7  C8  UNL d   1       0.594   0.529  -0.632  0.00  0.00     0.006 A 
ENDROOT
BRANCH   1   8
ATOM      8  C1  UNL d   1       0.582   2.839   0.382  0.00  0.00     0.054 C 
ATOM      9  C   UNL d   1       2.063   2.958   0.714  0.00  0.00     0.018 C 
ENDBRANCH   1   8
TORSDOF 1
ENDMDL
