MODEL 1
REMARK minimizedAffinity -3.01174974
REMARK minimizedRMSD -1
REMARK  1 active torsions:
REMARK  status: ('A' for Active; 'I' for Inactive)
REMARK    1  A    between atoms: C1_2  and  C2_3 
ROOT
ATOM      1  C2  UNL d   1       0.459   1.561   0.288  0.00  0.00    -0.081 A 
ATOM      2  C3  UNL d   1       0.712   0.531  -0.627  0.00  0.00     0.006 A 
ATOM      3  C4  UNL d   1       0.179  -0.744  -0.423  0.00  0.00     0.002 A 
ATOM      4  C5  UNL d   1      -0.622  -1.008   0.693  0.00  0.00    -0.080 A 
ATOM      5  C6  UNL d   1      -1.226  -2.364   0.908  0.00  0.00     0.076 C 
ATOM      6  C7  UNL d   1      -0.861   0.016   1.616  0.00  0.00     0.002 A 
ATOM      7  C8  UNL d   1      -0.327   1.291   1.413  0.00  0.00     0.006 A 
ENDROOT
BRANCH   1   8
ATOM      8  C1  UNL d   1       0.979   2.953   0.037  0.00  0.00     0.054 C 
ATOM      9  C   UNL d   1       2.464   3.055   0.356  0.00  0.00     0.018 C 
ENDBRANCH   1   8
TORSDOF 1
ENDMDL
