MODEL 1
REMARK minimizedAffinity -1.67256713
REMARK minimizedRMSD -1
REMARK  1 active torsions:
REMARK  status: ('A' for Active; 'I' for Inactive)
REMARK    1  A    between atoms: C1_2  and  C2_3 
ROOT
ATOM      1  C2  UNL d   1       0.303   1.170   0.309  0.00  0.00    -0.081 A 
ATOM      2  C3  UNL d   1       0.057   0.537  -0.915  0.00  0.00     0.006 A 
ATOM      3  C4  UNL d   1      -0.454  -0.763  -0.951  0.00  0.00     0.002 A 
ATOM      4  C5  UNL d   1      -0.735  -1.448   0.236  0.00  0.00    -0.080 A 
ATOM      5  C6  UNL d   1      -1.312  -2.832   0.212  0.00  0.00     0.076 C 
ATOM      6  C7  UNL d   1      -0.473  -0.822   1.460  0.00  0.00     0.002 A 
ATOM      7  C8  UNL d   1       0.039   0.477   1.496  0.00  0.00     0.006 A 
ENDROOT
BRANCH   1   8
ATOM      8  C1  UNL d   1       0.793   2.595   0.351  0.00  0.00     0.054 C 
ATOM      9  C   UNL d   1       2.290   2.657   0.616  0.00  0.00     0.018 C 
ENDBRANCH   1   8
TORSDOF 1
ENDMDL
