MODEL 1
REMARK minimizedAffinity 0.460164189
REMARK minimizedRMSD -1
REMARK  1 active torsions:
REMARK  status: ('A' for Active; 'I' for Inactive)
REMARK    1  A    between atoms: C1_2  and  C2_3 
ROOT
ATOM      1  C2  UNL d   1      -0.165   1.375   0.844  0.00  0.00    -0.081 A 
ATOM      2  C3  UNL d   1       0.356   0.599  -0.199  0.00  0.00     0.006 A 
ATOM      3  C4  UNL d   1       0.011  -0.749  -0.321  0.00  0.00     0.002 A 
ATOM      4  C5  UNL d   1      -0.866  -1.342   0.593  0.00  0.00    -0.080 A 
ATOM      5  C6  UNL d   1      -1.269  -2.780   0.457  0.00  0.00     0.076 C 
ATOM      6  C7  UNL d   1      -1.374  -0.572   1.645  0.00  0.00     0.002 A 
ATOM      7  C8  UNL d   1      -1.029   0.776   1.768  0.00  0.00     0.006 A 
ENDROOT
BRANCH   1   8
ATOM      8  C1  UNL d   1       0.154   2.845   0.940  0.00  0.00     0.054 C 
ATOM      9  C   UNL d   1       1.627   3.072   1.245  0.00  0.00     0.018 C 
ENDBRANCH   1   8
TORSDOF 1
ENDMDL
