MODEL 1
REMARK minimizedAffinity -1.47143078
REMARK minimizedRMSD -1
REMARK  1 active torsions:
REMARK  status: ('A' for Active; 'I' for Inactive)
REMARK    1  A    between atoms: C1_2  and  C2_3 
ROOT
ATOM      1  C2  UNL d   1       0.228   1.078  -0.400  0.00  0.00    -0.081 A 
ATOM      2  C3  UNL d   1      -0.336   0.733   0.835  0.00  0.00     0.006 A 
ATOM      3  C4  UNL d   1      -0.720  -0.585   1.094  0.00  0.00     0.002 A 
ATOM      4  C5  UNL d   1      -0.539  -1.580   0.127  0.00  0.00    -0.080 A 
ATOM      5  C6  UNL d   1      -0.918  -3.005   0.404  0.00  0.00     0.076 C 
ATOM      6  C7  UNL d   1       0.009  -1.232  -1.112  0.00  0.00     0.002 A 
ATOM      7  C8  UNL d   1       0.391   0.086  -1.372  0.00  0.00     0.006 A 
ENDROOT
BRANCH   1   8
ATOM      8  C1  UNL d   1       0.701   2.486  -0.659  0.00  0.00     0.054 C 
ATOM      9  C   UNL d   1       0.908   3.248   0.642  0.00  0.00     0.018 C 
ENDBRANCH   1   8
TORSDOF 1
ENDMDL
