MODEL 1
REMARK minimizedAffinity -5.14348412
REMARK minimizedRMSD -1
REMARK  1 active torsions:
REMARK  status: ('A' for Active; 'I' for Inactive)
REMARK    1  A    between atoms: C1_2  and  C2_3 
ROOT
ATOM      1  C2  UNL d   1       0.189   1.110   0.005  0.00  0.00    -0.081 A 
ATOM      2  C3  UNL d   1      -0.151   0.554   1.244  0.00  0.00     0.006 A 
ATOM      3  C4  UNL d   1      -0.594  -0.769   1.329  0.00  0.00     0.002 A 
ATOM      4  C5  UNL d   1      -0.694  -1.558   0.178  0.00  0.00    -0.080 A 
ATOM      5  C6  UNL d   1      -1.139  -2.989   0.259  0.00  0.00     0.076 C 
ATOM      6  C7  UNL d   1      -0.371  -0.997  -1.062  0.00  0.00     0.002 A 
ATOM      7  C8  UNL d   1       0.071   0.325  -1.147  0.00  0.00     0.006 A 
ENDROOT
BRANCH   1   8
ATOM      8  C1  UNL d   1       0.728   2.515  -0.082  0.00  0.00     0.054 C 
ATOM      9  C   UNL d   1       2.161   2.591   0.426  0.00  0.00     0.018 C 
ENDBRANCH   1   8
TORSDOF 1
ENDMDL
