MODEL 1
REMARK minimizedAffinity -1.56765592
REMARK minimizedRMSD -1
REMARK  1 active torsions:
REMARK  status: ('A' for Active; 'I' for Inactive)
REMARK    1  A    between atoms: C1_2  and  C2_3 
ROOT
ATOM      1  C2  UNL d   1      -0.042   1.531   0.755  0.00  0.00    -0.081 A 
ATOM      2  C3  UNL d   1      -0.606   0.688   1.720  0.00  0.00     0.006 A 
ATOM      3  C4  UNL d   1      -0.728  -0.682   1.480  0.00  0.00     0.002 A 
ATOM      4  C5  UNL d   1      -0.281  -1.234   0.274  0.00  0.00    -0.080 A 
ATOM      5  C6  UNL d   1      -0.378  -2.708   0.015  0.00  0.00     0.076 C 
ATOM      6  C7  UNL d   1       0.267  -0.389  -0.697  0.00  0.00     0.002 A 
ATOM      7  C8  UNL d   1       0.388   0.982  -0.457  0.00  0.00     0.006 A 
ENDROOT
BRANCH   1   8
ATOM      8  C1  UNL d   1       0.150   3.000   1.038  0.00  0.00     0.054 C 
ATOM      9  C   UNL d   1       1.615   3.329   1.285  0.00  0.00     0.018 C 
ENDBRANCH   1   8
TORSDOF 1
ENDMDL
