MODEL 1
REMARK minimizedAffinity -4.7931776
REMARK minimizedRMSD -1
REMARK  1 active torsions:
REMARK  status: ('A' for Active; 'I' for Inactive)
REMARK    1  A    between atoms: C1_2  and  C2_3 
ROOT
ATOM      1  C2  UNL d   1       1.062   2.557  -0.160  0.00  0.00    -0.081 A 
ATOM      2  C3  UNL d   1       2.057   2.068  -1.016  0.00  0.00     0.006 A 
ATOM      3  C4  UNL d   1       1.798   0.983  -1.857  0.00  0.00     0.002 A 
ATOM      4  C5  UNL d   1       0.538   0.374  -1.862  0.00  0.00    -0.080 A 
ATOM      5  C6  UNL d   1       0.237  -0.772  -2.782  0.00  0.00     0.076 C 
ATOM      6  C7  UNL d   1      -0.451   0.852  -0.995  0.00  0.00     0.002 A 
ATOM      7  C8  UNL d   1      -0.192   1.936  -0.154  0.00  0.00     0.006 A 
ENDROOT
BRANCH   1   8
ATOM      8  C1  UNL d   1       1.319   3.767   0.701  0.00  0.00     0.054 C 
ATOM      9  C   UNL d   1       2.317   3.457   1.807  0.00  0.00     0.018 C 
ENDBRANCH   1   8
TORSDOF 1
ENDMDL
