MODEL 1
REMARK minimizedAffinity 2.30240273
REMARK minimizedRMSD -1
REMARK  1 active torsions:
REMARK  status: ('A' for Active; 'I' for Inactive)
REMARK    1  A    between atoms: C1_2  and  C2_3 
ROOT
ATOM      1  C2  UNL d   1       0.146   2.298  -0.087  0.00  0.00    -0.081 A 
ATOM      2  C3  UNL d   1      -0.593   1.333   0.609  0.00  0.00     0.006 A 
ATOM      3  C4  UNL d   1      -0.623   0.009   0.165  0.00  0.00     0.002 A 
ATOM      4  C5  UNL d   1       0.091  -0.374  -0.976  0.00  0.00    -0.080 A 
ATOM      5  C6  UNL d   1       0.092  -1.799  -1.445  0.00  0.00     0.076 C 
ATOM      6  C7  UNL d   1       0.815   0.594  -1.681  0.00  0.00     0.002 A 
ATOM      7  C8  UNL d   1       0.845   1.918  -1.238  0.00  0.00     0.006 A 
ENDROOT
BRANCH   1   8
ATOM      8  C1  UNL d   1       0.233   3.713   0.425  0.00  0.00     0.054 C 
ATOM      9  C   UNL d   1       1.660   4.076   0.811  0.00  0.00     0.018 C 
ENDBRANCH   1   8
TORSDOF 1
ENDMDL
