MODEL 1
REMARK minimizedAffinity 0.711645722
REMARK minimizedRMSD -1
REMARK  1 active torsions:
REMARK  status: ('A' for Active; 'I' for Inactive)
REMARK    1  A    between atoms: C1_2  and  C2_3 
ROOT
ATOM      1  C2  UNL d   1       0.353   1.899   0.980  0.00  0.00    -0.081 A 
ATOM      2  C3  UNL d   1      -0.534   1.187   1.798  0.00  0.00     0.006 A 
ATOM      3  C4  UNL d   1      -0.831  -0.150   1.523  0.00  0.00     0.002 A 
ATOM      4  C5  UNL d   1      -0.243  -0.799   0.433  0.00  0.00    -0.080 A 
ATOM      5  C6  UNL d   1      -0.530  -2.242   0.145  0.00  0.00     0.076 C 
ATOM      6  C7  UNL d   1       0.629  -0.082  -0.394  0.00  0.00     0.002 A 
ATOM      7  C8  UNL d   1       0.927   1.255  -0.121  0.00  0.00     0.006 A 
ENDROOT
BRANCH   1   8
ATOM      8  C1  UNL d   1       0.726   3.322   1.311  0.00  0.00     0.054 C 
ATOM      9  C   UNL d   1       2.159   3.628   0.901  0.00  0.00     0.018 C 
ENDBRANCH   1   8
TORSDOF 1
ENDMDL
