MODEL 1
REMARK minimizedAffinity -3.95895481
REMARK minimizedRMSD -1
REMARK  1 active torsions:
REMARK  status: ('A' for Active; 'I' for Inactive)
REMARK    1  A    between atoms: C1_2  and  C2_3 
ROOT
ATOM      1  C2  UNL d   1       0.058   1.274  -0.169  0.00  0.00    -0.081 A 
ATOM      2  C3  UNL d   1       0.118   0.641   1.078  0.00  0.00     0.006 A 
ATOM      3  C4  UNL d   1      -0.035  -0.744   1.177  0.00  0.00     0.002 A 
ATOM      4  C5  UNL d   1      -0.241  -1.519   0.031  0.00  0.00    -0.080 A 
ATOM      5  C6  UNL d   1      -0.375  -3.010   0.120  0.00  0.00     0.076 C 
ATOM      6  C7  UNL d   1      -0.317  -0.885  -1.213  0.00  0.00     0.002 A 
ATOM      7  C8  UNL d   1      -0.166   0.500  -1.313  0.00  0.00     0.006 A 
ENDROOT
BRANCH   1   8
ATOM      8  C1  UNL d   1       0.286   2.760  -0.287  0.00  0.00     0.054 C 
ATOM      9  C   UNL d   1       1.686   3.142   0.174  0.00  0.00     0.018 C 
ENDBRANCH   1   8
TORSDOF 1
ENDMDL
