MODEL 1
REMARK minimizedAffinity 8.47080517
REMARK minimizedRMSD -1
REMARK  0 active torsions:
REMARK  status: ('A' for Active; 'I' for Inactive)
ROOT
ATOM      1  N1  IND d   1       5.762  -1.969  -3.054  0.00  0.00    -0.196 N 
ATOM      2  C2  IND d   1       5.744  -1.361  -4.278  0.00  0.00     0.054 A 
ATOM      3  C3  IND d   1       5.831  -2.283  -5.263  0.00  0.00    -0.031 A 
ATOM      4  C4  IND d   1       5.910  -4.851  -5.096  0.00  0.00     0.051 A 
ATOM      5  C5  IND d   1       5.987  -5.870  -4.188  0.00  0.00    -0.031 A 
ATOM      6  C6  IND d   1       5.989  -5.636  -2.828  0.00  0.00     0.015 A 
ATOM      7  C7  IND d   1       5.904  -4.369  -2.323  0.00  0.00    -0.016 A 
ATOM      8  C8  IND d   1       5.833  -3.332  -3.242  0.00  0.00    -0.047 A 
ATOM      9  C9  IND d   1       5.873  -3.560  -4.624  0.00  0.00    -0.096 A 
ATOM     10  HN1 IND d   1       5.734  -1.568  -2.294  0.00  0.00     0.298 HD
ENDROOT
TORSDOF 0
ENDMDL
