MODEL 1
REMARK minimizedAffinity 8.89033222
REMARK minimizedRMSD -1
REMARK  0 active torsions:
REMARK  status: ('A' for Active; 'I' for Inactive)
ROOT
ATOM      1  N1  IND d   1      -2.000   4.856  -2.260  0.00  0.00    -0.196 N 
ATOM      2  C2  IND d   1      -1.270   5.998  -2.444  0.00  0.00     0.054 A 
ATOM      3  C3  IND d   1       0.007   5.809  -2.043  0.00  0.00    -0.031 A 
ATOM      4  C4  IND d   1       1.144   3.679  -1.150  0.00  0.00     0.051 A 
ATOM      5  C5  IND d   1       0.876   2.393  -0.772  0.00  0.00    -0.031 A 
ATOM      6  C6  IND d   1      -0.388   1.850  -0.876  0.00  0.00     0.015 A 
ATOM      7  C7  IND d   1      -1.435   2.573  -1.374  0.00  0.00    -0.016 A 
ATOM      8  C8  IND d   1      -1.169   3.882  -1.752  0.00  0.00    -0.047 A 
ATOM      9  C9  IND d   1       0.103   4.451  -1.609  0.00  0.00    -0.096 A 
ATOM     10  HN1 IND d   1      -2.837   4.762  -2.433  0.00  0.00     0.298 HD
ENDROOT
TORSDOF 0
ENDMDL
