MODEL 1
REMARK minimizedAffinity 0.340011448
REMARK minimizedRMSD -1
REMARK  0 active torsions:
REMARK  status: ('A' for Active; 'I' for Inactive)
ROOT
ATOM      1  N1  IND d   1       0.180   3.118  -1.697  0.00  0.00    -0.196 N 
ATOM      2  C2  IND d   1      -0.385   1.875  -1.639  0.00  0.00     0.054 A 
ATOM      3  C3  IND d   1      -0.196   1.329  -0.417  0.00  0.00    -0.031 A 
ATOM      4  C4  IND d   1       0.924   2.337   1.670  0.00  0.00     0.051 A 
ATOM      5  C5  IND d   1       1.621   3.433   2.095  0.00  0.00    -0.031 A 
ATOM      6  C6  IND d   1       1.878   4.503   1.261  0.00  0.00     0.015 A 
ATOM      7  C7  IND d   1       1.433   4.521  -0.030  0.00  0.00    -0.016 A 
ATOM      8  C8  IND d   1       0.730   3.407  -0.467  0.00  0.00    -0.047 A 
ATOM      9  C9  IND d   1       0.504   2.301   0.361  0.00  0.00    -0.096 A 
ATOM     10  HN1 IND d   1       0.191   3.633  -2.385  0.00  0.00     0.298 HD
ENDROOT
TORSDOF 0
ENDMDL
