MODEL 1
REMARK minimizedAffinity -1.45083809
REMARK minimizedRMSD -1
REMARK  0 active torsions:
REMARK  status: ('A' for Active; 'I' for Inactive)
ROOT
ATOM      1  N1  IND d   1       3.390  -1.029  -2.778  0.00  0.00    -0.196 N 
ATOM      2  C2  IND d   1       2.653  -1.354  -1.674  0.00  0.00     0.054 A 
ATOM      3  C3  IND d   1       3.034  -2.558  -1.192  0.00  0.00    -0.031 A 
ATOM      4  C4  IND d   1       4.915  -4.121  -1.996  0.00  0.00     0.051 A 
ATOM      5  C5  IND d   1       5.839  -4.271  -2.992  0.00  0.00    -0.031 A 
ATOM      6  C6  IND d   1       6.000  -3.327  -3.985  0.00  0.00     0.015 A 
ATOM      7  C7  IND d   1       5.246  -2.188  -4.014  0.00  0.00    -0.016 A 
ATOM      8  C8  IND d   1       4.301  -2.036  -3.009  0.00  0.00    -0.047 A 
ATOM      9  C9  IND d   1       4.105  -3.011  -2.022  0.00  0.00    -0.096 A 
ATOM     10  HN1 IND d   1       3.300  -0.315  -3.250  0.00  0.00     0.298 HD
ENDROOT
TORSDOF 0
ENDMDL
