MODEL 1
REMARK minimizedAffinity -2.83604598
REMARK minimizedRMSD -1
REMARK  0 active torsions:
REMARK  status: ('A' for Active; 'I' for Inactive)
ROOT
ATOM      1  N1  IND d   1      -0.841   2.285  -1.583  0.00  0.00    -0.196 N 
ATOM      2  C2  IND d   1      -1.070   1.164  -0.836  0.00  0.00     0.054 A 
ATOM      3  C3  IND d   1      -0.210   1.108   0.205  0.00  0.00    -0.031 A 
ATOM      4  C4  IND d   1       1.591   2.799   0.931  0.00  0.00     0.051 A 
ATOM      5  C5  IND d   1       2.198   3.960   0.542  0.00  0.00    -0.031 A 
ATOM      6  C6  IND d   1       1.813   4.637  -0.597  0.00  0.00     0.015 A 
ATOM      7  C7  IND d   1       0.795   4.183  -1.387  0.00  0.00    -0.016 A 
ATOM      8  C8  IND d   1       0.181   3.000  -0.998  0.00  0.00    -0.047 A 
ATOM      9  C9  IND d   1       0.596   2.286   0.133  0.00  0.00    -0.096 A 
ATOM     10  HN1 IND d   1      -1.263   2.507  -2.299  0.00  0.00     0.298 HD
ENDROOT
TORSDOF 0
ENDMDL
