MODEL 1
REMARK minimizedAffinity 9.74580193
REMARK minimizedRMSD -1
REMARK  0 active torsions:
REMARK  status: ('A' for Active; 'I' for Inactive)
ROOT
ATOM      1  N1  IND d   1       4.208  -5.021  -4.338  0.00  0.00    -0.196 N 
ATOM      2  C2  IND d   1       5.176  -5.856  -3.855  0.00  0.00     0.054 A 
ATOM      3  C3  IND d   1       6.000  -5.186  -3.018  0.00  0.00    -0.031 A 
ATOM      4  C4  IND d   1       5.884  -2.742  -2.218  0.00  0.00     0.051 A 
ATOM      5  C5  IND d   1       5.198  -1.576  -2.412  0.00  0.00    -0.031 A 
ATOM      6  C6  IND d   1       4.122  -1.498  -3.273  0.00  0.00     0.015 A 
ATOM      7  C7  IND d   1       3.684  -2.591  -3.967  0.00  0.00    -0.016 A 
ATOM      8  C8  IND d   1       4.384  -3.774  -3.778  0.00  0.00    -0.047 A 
ATOM      9  C9  IND d   1       5.502  -3.849  -2.938  0.00  0.00    -0.096 A 
ATOM     10  HN1 IND d   1       3.592  -5.237  -4.897  0.00  0.00     0.298 HD
ENDROOT
TORSDOF 0
ENDMDL
