MODEL 1
REMARK minimizedAffinity 2.1654954
REMARK minimizedRMSD -1
REMARK  0 active torsions:
REMARK  status: ('A' for Active; 'I' for Inactive)
ROOT
ATOM      1  N1  IND d   1       1.179   2.379   1.749  0.00  0.00    -0.196 N 
ATOM      2  C2  IND d   1       0.261   1.368   1.693  0.00  0.00     0.054 A 
ATOM      3  C3  IND d   1      -0.337   1.342   0.481  0.00  0.00    -0.031 A 
ATOM      4  C4  IND d   1       0.107   2.801  -1.593  0.00  0.00     0.051 A 
ATOM      5  C5  IND d   1       0.828   3.883  -2.015  0.00  0.00    -0.031 A 
ATOM      6  C6  IND d   1       1.723   4.530  -1.188  0.00  0.00     0.015 A 
ATOM      7  C7  IND d   1       1.939   4.111   0.094  0.00  0.00    -0.016 A 
ATOM      8  C8  IND d   1       1.204   3.017   0.528  0.00  0.00    -0.047 A 
ATOM      9  C9  IND d   1       0.263   2.382  -0.293  0.00  0.00    -0.096 A 
ATOM     10  HN1 IND d   1       1.660   2.583   2.432  0.00  0.00     0.298 HD
ENDROOT
TORSDOF 0
ENDMDL
