MODEL 1
REMARK minimizedAffinity 6.25935078
REMARK minimizedRMSD -1
REMARK  0 active torsions:
REMARK  status: ('A' for Active; 'I' for Inactive)
ROOT
ATOM      1  N1  IND d   1       4.486  -6.000  -2.421  0.00  0.00    -0.196 N 
ATOM      2  C2  IND d   1       3.531  -5.803  -3.379  0.00  0.00     0.054 A 
ATOM      3  C3  IND d   1       2.997  -4.566  -3.264  0.00  0.00    -0.031 A 
ATOM      4  C4  IND d   1       3.611  -2.665  -1.640  0.00  0.00     0.051 A 
ATOM      5  C5  IND d   1       4.397  -2.384  -0.558  0.00  0.00    -0.031 A 
ATOM      6  C6  IND d   1       5.273  -3.312  -0.033  0.00  0.00     0.015 A 
ATOM      7  C7  IND d   1       5.404  -4.557  -0.580  0.00  0.00    -0.016 A 
ATOM      8  C8  IND d   1       4.602  -4.848  -1.674  0.00  0.00    -0.047 A 
ATOM      9  C9  IND d   1       3.680  -3.925  -2.185  0.00  0.00    -0.096 A 
ATOM     10  HN1 IND d   1       4.938  -6.722  -2.304  0.00  0.00     0.298 HD
ENDROOT
TORSDOF 0
ENDMDL
