MODEL 1
REMARK minimizedAffinity 6.87441778
REMARK minimizedRMSD -1
REMARK  0 active torsions:
REMARK  status: ('A' for Active; 'I' for Inactive)
ROOT
ATOM      1  N1  IND d   1       5.073  -2.656  -1.647  0.00  0.00    -0.196 N 
ATOM      2  C2  IND d   1       4.718  -2.316  -0.371  0.00  0.00     0.054 A 
ATOM      3  C3  IND d   1       3.800  -3.185   0.109  0.00  0.00    -0.031 A 
ATOM      4  C4  IND d   1       2.815  -5.296  -0.988  0.00  0.00     0.051 A 
ATOM      5  C5  IND d   1       2.807  -5.996  -2.161  0.00  0.00    -0.031 A 
ATOM      6  C6  IND d   1       3.572  -5.613  -3.244  0.00  0.00     0.015 A 
ATOM      7  C7  IND d   1       4.385  -4.517  -3.190  0.00  0.00    -0.016 A 
ATOM      8  C8  IND d   1       4.390  -3.799  -2.002  0.00  0.00    -0.047 A 
ATOM      9  C9  IND d   1       3.584  -4.158  -0.914  0.00  0.00    -0.096 A 
ATOM     10  HN1 IND d   1       5.630  -2.229  -2.143  0.00  0.00     0.298 HD
ENDROOT
TORSDOF 0
ENDMDL
