MODEL 1
REMARK minimizedAffinity 0.112437978
REMARK minimizedRMSD -1
REMARK  0 active torsions:
REMARK  status: ('A' for Active; 'I' for Inactive)
ROOT
ATOM      1  N1  IND d   1      -4.573   1.032  -2.587  0.00  0.00    -0.196 N 
ATOM      2  C2  IND d   1      -4.838   2.123  -3.366  0.00  0.00     0.054 A 
ATOM      3  C3  IND d   1      -3.850   3.038  -3.246  0.00  0.00    -0.031 A 
ATOM      4  C4  IND d   1      -1.655   2.909  -1.907  0.00  0.00     0.051 A 
ATOM      5  C5  IND d   1      -0.984   2.124  -1.012  0.00  0.00    -0.031 A 
ATOM      6  C6  IND d   1      -1.484   0.909  -0.589  0.00  0.00     0.015 A 
ATOM      7  C7  IND d   1      -2.673   0.426  -1.058  0.00  0.00    -0.016 A 
ATOM      8  C8  IND d   1      -3.361   1.224  -1.961  0.00  0.00    -0.047 A 
ATOM      9  C9  IND d   1      -2.879   2.477  -2.361  0.00  0.00    -0.096 A 
ATOM     10  HN1 IND d   1      -5.078   0.341  -2.503  0.00  0.00     0.298 HD
ENDROOT
TORSDOF 0
ENDMDL
