MODEL 1
REMARK minimizedAffinity 10.3641777
REMARK minimizedRMSD -1
REMARK  0 active torsions:
REMARK  status: ('A' for Active; 'I' for Inactive)
ROOT
ATOM      1  N1  IND d   1       0.828  -1.211   4.136  0.00  0.00    -0.196 N 
ATOM      2  C2  IND d   1      -0.057  -1.482   5.143  0.00  0.00     0.054 A 
ATOM      3  C3  IND d   1       0.469  -2.386   6.000  0.00  0.00    -0.031 A 
ATOM      4  C4  IND d   1       2.801  -3.477   6.000  0.00  0.00     0.051 A 
ATOM      5  C5  IND d   1       3.947  -3.569   5.260  0.00  0.00    -0.031 A 
ATOM      6  C6  IND d   1       4.116  -2.864   4.086  0.00  0.00     0.015 A 
ATOM      7  C7  IND d   1       3.146  -2.028   3.612  0.00  0.00    -0.016 A 
ATOM      8  C8  IND d   1       1.978  -1.937   4.356  0.00  0.00    -0.047 A 
ATOM      9  C9  IND d   1       1.783  -2.682   5.526  0.00  0.00    -0.096 A 
ATOM     10  HN1 IND d   1       0.689  -0.677   3.476  0.00  0.00     0.298 HD
ENDROOT
TORSDOF 0
ENDMDL
