MODEL 1
REMARK minimizedAffinity 5.22429323
REMARK minimizedRMSD -1
REMARK  0 active torsions:
REMARK  status: ('A' for Active; 'I' for Inactive)
ROOT
ATOM      1  N1  IND d   1       3.504  -5.510  -3.103  0.00  0.00    -0.196 N 
ATOM      2  C2  IND d   1       4.690  -4.831  -3.073  0.00  0.00     0.054 A 
ATOM      3  C3  IND d   1       4.749  -4.036  -1.981  0.00  0.00    -0.031 A 
ATOM      4  C4  IND d   1       3.058  -3.770  -0.058  0.00  0.00     0.051 A 
ATOM      5  C5  IND d   1       1.809  -4.157   0.339  0.00  0.00    -0.031 A 
ATOM      6  C6  IND d   1       1.047  -5.034  -0.405  0.00  0.00     0.015 A 
ATOM      7  C7  IND d   1       1.512  -5.569  -1.573  0.00  0.00    -0.016 A 
ATOM      8  C8  IND d   1       2.777  -5.173  -1.983  0.00  0.00    -0.047 A 
ATOM      9  C9  IND d   1       3.538  -4.250  -1.254  0.00  0.00    -0.096 A 
ATOM     10  HN1 IND d   1       3.254  -6.056  -3.719  0.00  0.00     0.298 HD
ENDROOT
TORSDOF 0
ENDMDL
