MODEL 1
REMARK minimizedAffinity -1.24048603
REMARK minimizedRMSD -1
REMARK  0 active torsions:
REMARK  status: ('A' for Active; 'I' for Inactive)
ROOT
ATOM      1  C   UNL d   1       0.882  -0.080  -1.687  0.00  0.00     0.020 A 
ATOM      2  C1  UNL d   1      -0.069   0.567  -0.899  0.00  0.00     0.020 A 
ATOM      3  C2  UNL d   1      -0.198   0.236   0.452  0.00  0.00     0.034 A 
ATOM      4  C3  UNL d   1       0.625  -0.743   1.019  0.00  0.00     0.017 A 
ATOM      5  C4  UNL d   1       1.580  -1.392   0.227  0.00  0.00     0.017 A 
ATOM      6  C5  UNL d   1       1.705  -1.057  -1.125  0.00  0.00     0.034 A 
ATOM      7 Cl   UNL d   1       2.632  -2.610   0.855  0.00  0.00    -0.070 Cl
ATOM      8 Cl1  UNL d   1       0.411  -1.101   2.695  0.00  0.00    -0.070 Cl
ENDROOT
TORSDOF 0
ENDMDL
