MODEL 1
REMARK minimizedAffinity 9.22320747
REMARK minimizedRMSD -1
REMARK  0 active torsions:
REMARK  status: ('A' for Active; 'I' for Inactive)
ROOT
ATOM      1  C   UNL d   1      -4.559   0.685  -4.858  0.00  0.00     0.020 A 
ATOM      2  C1  UNL d   1      -5.838   1.107  -4.498  0.00  0.00     0.020 A 
ATOM      3  C2  UNL d   1      -5.999   2.119  -3.549  0.00  0.00     0.034 A 
ATOM      4  C3  UNL d   1      -4.878   2.712  -2.956  0.00  0.00     0.017 A 
ATOM      5  C4  UNL d   1      -3.594   2.288  -3.318  0.00  0.00     0.017 A 
ATOM      6  C5  UNL d   1      -3.440   1.275  -4.269  0.00  0.00     0.034 A 
ATOM      7 Cl   UNL d   1      -2.164   2.973  -2.631  0.00  0.00    -0.070 Cl
ATOM      8 Cl1  UNL d   1      -5.150   3.958  -1.791  0.00  0.00    -0.070 Cl
ENDROOT
TORSDOF 0
ENDMDL
