MODEL 1
REMARK minimizedAffinity -5.33663273
REMARK minimizedRMSD -1
REMARK  0 active torsions:
REMARK  status: ('A' for Active; 'I' for Inactive)
ROOT
ATOM      1  C   UNL d   1       2.678  -1.140   1.463  0.00  0.00     0.020 A 
ATOM      2  C1  UNL d   1       1.965  -1.265   2.655  0.00  0.00     0.020 A 
ATOM      3  C2  UNL d   1       0.607  -0.943   2.694  0.00  0.00     0.034 A 
ATOM      4  C3  UNL d   1      -0.043  -0.495   1.538  0.00  0.00     0.017 A 
ATOM      5  C4  UNL d   1       0.673  -0.370   0.342  0.00  0.00     0.017 A 
ATOM      6  C5  UNL d   1       2.033  -0.694   0.309  0.00  0.00     0.034 A 
ATOM      7 Cl   UNL d   1      -0.060   0.177  -1.124  0.00  0.00    -0.070 Cl
ATOM      8 Cl1  UNL d   1      -1.724  -0.114   1.658  0.00  0.00    -0.070 Cl
ENDROOT
TORSDOF 0
ENDMDL
