MODEL 1
REMARK minimizedAffinity -4.54129982
REMARK minimizedRMSD -1
REMARK  0 active torsions:
REMARK  status: ('A' for Active; 'I' for Inactive)
ROOT
ATOM      1  C   UNL d   1       1.721  -1.643   3.201  0.00  0.00     0.020 A 
ATOM      2  C1  UNL d   1       2.730  -1.550   2.244  0.00  0.00     0.020 A 
ATOM      3  C2  UNL d   1       2.495  -0.873   1.045  0.00  0.00     0.034 A 
ATOM      4  C3  UNL d   1       1.247  -0.288   0.800  0.00  0.00     0.017 A 
ATOM      5  C4  UNL d   1       0.235  -0.382   1.762  0.00  0.00     0.017 A 
ATOM      6  C5  UNL d   1       0.476  -1.061   2.961  0.00  0.00     0.034 A 
ATOM      7 Cl   UNL d   1      -1.330   0.314   1.532  0.00  0.00    -0.070 Cl
ATOM      8 Cl1  UNL d   1       1.026   0.533  -0.704  0.00  0.00    -0.070 Cl
ENDROOT
TORSDOF 0
ENDMDL
