MODEL 1
REMARK minimizedAffinity -5.44718313
REMARK minimizedRMSD -1
REMARK  0 active torsions:
REMARK  status: ('A' for Active; 'I' for Inactive)
ROOT
ATOM      1  C   UNL d   1       1.200  -0.372   3.462  0.00  0.00     0.020 A 
ATOM      2  C1  UNL d   1       2.381  -1.114   3.471  0.00  0.00     0.020 A 
ATOM      3  C2  UNL d   1       2.819  -1.742   2.303  0.00  0.00     0.034 A 
ATOM      4  C3  UNL d   1       2.076  -1.631   1.123  0.00  0.00     0.017 A 
ATOM      5  C4  UNL d   1       0.891  -0.886   1.115  0.00  0.00     0.017 A 
ATOM      6  C5  UNL d   1       0.457  -0.259   2.287  0.00  0.00     0.034 A 
ATOM      7 Cl   UNL d   1      -0.080  -0.703  -0.303  0.00  0.00    -0.070 Cl
ATOM      8 Cl1  UNL d   1       2.677  -2.434  -0.284  0.00  0.00    -0.070 Cl
ENDROOT
TORSDOF 0
ENDMDL
