MODEL 1
REMARK minimizedAffinity -5.34475088
REMARK minimizedRMSD -1
REMARK  0 active torsions:
REMARK  status: ('A' for Active; 'I' for Inactive)
ROOT
ATOM      1  C   UNL d   1       2.023  -1.305   2.866  0.00  0.00     0.020 A 
ATOM      2  C1  UNL d   1       2.726  -1.763   1.753  0.00  0.00     0.020 A 
ATOM      3  C2  UNL d   1       2.228  -1.534   0.469  0.00  0.00     0.034 A 
ATOM      4  C3  UNL d   1       1.023  -0.844   0.295  0.00  0.00     0.017 A 
ATOM      5  C4  UNL d   1       0.317  -0.384   1.413  0.00  0.00     0.017 A 
ATOM      6  C5  UNL d   1       0.821  -0.617   2.696  0.00  0.00     0.034 A 
ATOM      7 Cl   UNL d   1      -1.177   0.475   1.277  0.00  0.00    -0.070 Cl
ATOM      8 Cl1  UNL d   1       0.466  -0.595  -1.322  0.00  0.00    -0.070 Cl
ENDROOT
TORSDOF 0
ENDMDL
