MODEL 1
REMARK minimizedAffinity -4.93649626
REMARK minimizedRMSD -1
REMARK  0 active torsions:
REMARK  status: ('A' for Active; 'I' for Inactive)
ROOT
ATOM      1  C   UNL d   1       2.150  -1.267   3.321  0.00  0.00     0.020 A 
ATOM      2  C1  UNL d   1       3.176  -1.457   2.396  0.00  0.00     0.020 A 
ATOM      3  C2  UNL d   1       2.911  -1.356   1.029  0.00  0.00     0.034 A 
ATOM      4  C3  UNL d   1       1.617  -1.064   0.582  0.00  0.00     0.017 A 
ATOM      5  C4  UNL d   1       0.588  -0.873   1.511  0.00  0.00     0.017 A 
ATOM      6  C5  UNL d   1       0.859  -0.976   2.879  0.00  0.00     0.034 A 
ATOM      7 Cl   UNL d   1      -1.034  -0.510   1.037  0.00  0.00    -0.070 Cl
ATOM      8 Cl1  UNL d   1       1.362  -0.953  -1.123  0.00  0.00    -0.070 Cl
ENDROOT
TORSDOF 0
ENDMDL
