MODEL 1
REMARK minimizedAffinity 0.426637143
REMARK minimizedRMSD -1
REMARK  0 active torsions:
REMARK  status: ('A' for Active; 'I' for Inactive)
ROOT
ATOM      1  C   UNL d   1       0.003  -1.605   2.998  0.00  0.00     0.020 A 
ATOM      2  C1  UNL d   1      -1.102  -0.849   2.611  0.00  0.00     0.020 A 
ATOM      3  C2  UNL d   1      -1.191  -0.360   1.306  0.00  0.00     0.034 A 
ATOM      4  C3  UNL d   1      -0.173  -0.627   0.384  0.00  0.00     0.017 A 
ATOM      5  C4  UNL d   1       0.936  -1.386   0.773  0.00  0.00     0.017 A 
ATOM      6  C5  UNL d   1       1.020  -1.873   2.081  0.00  0.00     0.034 A 
ATOM      7 Cl   UNL d   1       2.232  -1.756  -0.309  0.00  0.00    -0.070 Cl
ATOM      8 Cl1  UNL d   1      -0.349   0.009  -1.213  0.00  0.00    -0.070 Cl
ENDROOT
TORSDOF 0
ENDMDL
