MODEL 1
REMARK minimizedAffinity -4.39371967
REMARK minimizedRMSD -1
REMARK  0 active torsions:
REMARK  status: ('A' for Active; 'I' for Inactive)
ROOT
ATOM      1  C   UNL d   1      -0.533  -0.552   2.271  0.00  0.00     0.020 A 
ATOM      2  C1  UNL d   1      -0.889   0.148   1.119  0.00  0.00     0.020 A 
ATOM      3  C2  UNL d   1      -0.317  -0.190  -0.108  0.00  0.00     0.034 A 
ATOM      4  C3  UNL d   1       0.615  -1.232  -0.187  0.00  0.00     0.017 A 
ATOM      5  C4  UNL d   1       0.972  -1.934   0.970  0.00  0.00     0.017 A 
ATOM      6  C5  UNL d   1       0.395  -1.591   2.197  0.00  0.00     0.034 A 
ATOM      7 Cl   UNL d   1       2.114  -3.231   0.952  0.00  0.00    -0.070 Cl
ATOM      8 Cl1  UNL d   1       1.283  -1.597  -1.738  0.00  0.00    -0.070 Cl
ENDROOT
TORSDOF 0
ENDMDL
