MODEL 1
REMARK minimizedAffinity -4.6043005
REMARK minimizedRMSD -1
REMARK  0 active torsions:
REMARK  status: ('A' for Active; 'I' for Inactive)
ROOT
ATOM      1  C   UNL d   1       1.876  -1.564   2.402  0.00  0.00     0.020 A 
ATOM      2  C1  UNL d   1       0.674  -0.884   2.593  0.00  0.00     0.020 A 
ATOM      3  C2  UNL d   1      -0.060  -0.441   1.491  0.00  0.00     0.034 A 
ATOM      4  C3  UNL d   1       0.407  -0.677   0.193  0.00  0.00     0.017 A 
ATOM      5  C4  UNL d   1       1.613  -1.360   0.002  0.00  0.00     0.017 A 
ATOM      6  C5  UNL d   1       2.345  -1.802   1.109  0.00  0.00     0.034 A 
ATOM      7 Cl   UNL d   1       2.254  -1.689  -1.570  0.00  0.00    -0.070 Cl
ATOM      8 Cl1  UNL d   1      -0.553  -0.101  -1.124  0.00  0.00    -0.070 Cl
ENDROOT
TORSDOF 0
ENDMDL
