MODEL 1
REMARK minimizedAffinity 2.2605617
REMARK minimizedRMSD -1
REMARK  2 active torsions:
REMARK  status: ('A' for Active; 'I' for Inactive)
REMARK    1  A    between atoms: C1_2  and  C2_3 
REMARK    2  A    between atoms: C2_3  and  C3_4 
ROOT
ATOM      1  C3  UNL d   1       1.746  -1.116   1.121  0.00  0.00    -0.075 A 
ATOM      2  C4  UNL d   1       0.366  -1.080   1.371  0.00  0.00     0.002 A 
ATOM      3  C5  UNL d   1      -0.484  -2.021   0.789  0.00  0.00     0.002 A 
ATOM      4  C6  UNL d   1       0.031  -3.001  -0.056  0.00  0.00    -0.004 A 
ATOM      5  C7  UNL d   1       1.398  -3.036  -0.325  0.00  0.00     0.002 A 
ATOM      6  C8  UNL d   1       2.251  -2.099   0.260  0.00  0.00     0.002 A 
ENDROOT
BRANCH   1   7
ATOM      7  C2  UNL d   1       2.675  -0.119   1.771  0.00  0.00     0.056 C 
BRANCH   7   8
ATOM      8  C1  UNL d   1       3.943  -0.743   2.364  0.00  0.00     0.007 C 
ATOM      9  C   UNL d   1       5.126  -0.725   1.405  0.00  0.00     0.009 C 
ENDBRANCH   7   8
ENDBRANCH   1   7
TORSDOF 2
ENDMDL
