MODEL 1
REMARK minimizedAffinity 7.11141682
REMARK minimizedRMSD -1
REMARK  2 active torsions:
REMARK  status: ('A' for Active; 'I' for Inactive)
REMARK    1  A    between atoms: C1_2  and  C2_3 
REMARK    2  A    between atoms: C2_3  and  C3_4 
ROOT
ATOM      1  C3  UNL d   1       1.690  -0.418  -0.448  0.00  0.00    -0.075 A 
ATOM      2  C4  UNL d   1       0.822  -1.370  -1.003  0.00  0.00     0.002 A 
ATOM      3  C5  UNL d   1      -0.216  -1.910  -0.244  0.00  0.00     0.002 A 
ATOM      4  C6  UNL d   1      -0.394  -1.514   1.080  0.00  0.00    -0.004 A 
ATOM      5  C7  UNL d   1       0.472  -0.581   1.646  0.00  0.00     0.002 A 
ATOM      6  C8  UNL d   1       1.509  -0.036   0.888  0.00  0.00     0.002 A 
ENDROOT
BRANCH   1   7
ATOM      7  C2  UNL d   1       2.797   0.192  -1.274  0.00  0.00     0.056 C 
BRANCH   7   8
ATOM      8  C1  UNL d   1       2.303   1.047  -2.446  0.00  0.00     0.007 C 
ATOM      9  C   UNL d   1       3.423   1.797  -3.155  0.00  0.00     0.009 C 
ENDBRANCH   7   8
ENDBRANCH   1   7
TORSDOF 2
ENDMDL
