MODEL 1
REMARK minimizedAffinity -2.88932443
REMARK minimizedRMSD -1
REMARK  2 active torsions:
REMARK  status: ('A' for Active; 'I' for Inactive)
REMARK    1  A    between atoms: C1_2  and  C2_3 
REMARK    2  A    between atoms: C2_3  and  C3_4 
ROOT
ATOM      1  C3  UNL d   1       1.853  -1.272   0.312  0.00  0.00    -0.075 A 
ATOM      2  C4  UNL d   1       1.915  -2.470  -0.414  0.00  0.00     0.002 A 
ATOM      3  C5  UNL d   1       0.768  -3.242  -0.605  0.00  0.00     0.002 A 
ATOM      4  C6  UNL d   1      -0.450  -2.832  -0.067  0.00  0.00    -0.004 A 
ATOM      5  C7  UNL d   1      -0.519  -1.651   0.669  0.00  0.00     0.002 A 
ATOM      6  C8  UNL d   1       0.625  -0.875   0.859  0.00  0.00     0.002 A 
ENDROOT
BRANCH   1   7
ATOM      7  C2  UNL d   1       3.084  -0.417   0.498  0.00  0.00     0.056 C 
BRANCH   7   8
ATOM      8  C1  UNL d   1       3.071   0.424   1.779  0.00  0.00     0.007 C 
ATOM      9  C   UNL d   1       3.226   1.917   1.518  0.00  0.00     0.009 C 
ENDBRANCH   7   8
ENDBRANCH   1   7
TORSDOF 2
ENDMDL
