MODEL 1
REMARK minimizedAffinity -2.52442908
REMARK minimizedRMSD -1
REMARK  2 active torsions:
REMARK  status: ('A' for Active; 'I' for Inactive)
REMARK    1  A    between atoms: C1_2  and  C2_3 
REMARK    2  A    between atoms: C2_3  and  C3_4 
ROOT
ATOM      1  C3  UNL d   1      -0.717  -0.651   0.755  0.00  0.00    -0.075 A 
ATOM      2  C4  UNL d   1      -1.059  -1.834   0.082  0.00  0.00     0.002 A 
ATOM      3  C5  UNL d   1      -0.079  -2.773  -0.240  0.00  0.00     0.002 A 
ATOM      4  C6  UNL d   1       1.253  -2.539   0.095  0.00  0.00    -0.004 A 
ATOM      5  C7  UNL d   1       1.605  -1.360   0.749  0.00  0.00     0.002 A 
ATOM      6  C8  UNL d   1       0.627  -0.420   1.077  0.00  0.00     0.002 A 
ENDROOT
BRANCH   1   7
ATOM      7  C2  UNL d   1      -1.777   0.356   1.133  0.00  0.00     0.056 C 
BRANCH   7   8
ATOM      8  C1  UNL d   1      -1.414   1.217   2.348  0.00  0.00     0.007 C 
ATOM      9  C   UNL d   1      -2.470   1.183   3.444  0.00  0.00     0.009 C 
ENDBRANCH   7   8
ENDBRANCH   1   7
TORSDOF 2
ENDMDL
