MODEL 1
REMARK minimizedAffinity 0.785035074
REMARK minimizedRMSD -1
REMARK  2 active torsions:
REMARK  status: ('A' for Active; 'I' for Inactive)
REMARK    1  A    between atoms: C1_2  and  C2_3 
REMARK    2  A    between atoms: C2_3  and  C3_4 
ROOT
ATOM      1  C3  UNL d   1       1.123  -2.514  -0.211  0.00  0.00    -0.075 A 
ATOM      2  C4  UNL d   1       1.982  -1.442   0.072  0.00  0.00     0.002 A 
ATOM      3  C5  UNL d   1       1.530  -0.349   0.812  0.00  0.00     0.002 A 
ATOM      4  C6  UNL d   1       0.214  -0.308   1.268  0.00  0.00    -0.004 A 
ATOM      5  C7  UNL d   1      -0.653  -1.360   0.977  0.00  0.00     0.002 A 
ATOM      6  C8  UNL d   1      -0.202  -2.457   0.241  0.00  0.00     0.002 A 
ENDROOT
BRANCH   1   7
ATOM      7  C2  UNL d   1       1.614  -3.714  -0.986  0.00  0.00     0.056 C 
BRANCH   7   8
ATOM      8  C1  UNL d   1       0.512  -4.458  -1.747  0.00  0.00     0.007 C 
ATOM      9  C   UNL d   1       0.756  -4.519  -3.249  0.00  0.00     0.009 C 
ENDBRANCH   7   8
ENDBRANCH   1   7
TORSDOF 2
ENDMDL
