MODEL 1
REMARK minimizedAffinity 0.0408798344
REMARK minimizedRMSD -1
REMARK  2 active torsions:
REMARK  status: ('A' for Active; 'I' for Inactive)
REMARK    1  A    between atoms: C1_2  and  C2_3 
REMARK    2  A    between atoms: C2_3  and  C3_4 
ROOT
ATOM      1  C3  UNL d   1       1.326  -2.522   0.058  0.00  0.00    -0.075 A 
ATOM      2  C4  UNL d   1       2.129  -1.405   0.329  0.00  0.00     0.002 A 
ATOM      3  C5  UNL d   1       1.562  -0.225   0.812  0.00  0.00     0.002 A 
ATOM      4  C6  UNL d   1       0.187  -0.144   1.019  0.00  0.00    -0.004 A 
ATOM      5  C7  UNL d   1      -0.623  -1.242   0.737  0.00  0.00     0.002 A 
ATOM      6  C8  UNL d   1      -0.057  -2.425   0.259  0.00  0.00     0.002 A 
ENDROOT
BRANCH   1   7
ATOM      7  C2  UNL d   1       1.938  -3.811  -0.436  0.00  0.00     0.056 C 
BRANCH   7   8
ATOM      8  C1  UNL d   1       3.466  -3.858  -0.329  0.00  0.00     0.007 C 
ATOM      9  C   UNL d   1       4.031  -5.270  -0.410  0.00  0.00     0.009 C 
ENDBRANCH   7   8
ENDBRANCH   1   7
TORSDOF 2
ENDMDL
