MODEL 1
REMARK minimizedAffinity 3.13650131
REMARK minimizedRMSD -1
REMARK  2 active torsions:
REMARK  status: ('A' for Active; 'I' for Inactive)
REMARK    1  A    between atoms: C1_2  and  C2_3 
REMARK    2  A    between atoms: C2_3  and  C3_4 
ROOT
ATOM      1  C3  UNL d   1       0.763  -1.324  -0.122  0.00  0.00    -0.075 A 
ATOM      2  C4  UNL d   1       2.100  -1.013   0.163  0.00  0.00     0.002 A 
ATOM      3  C5  UNL d   1       2.435  -0.323   1.328  0.00  0.00     0.002 A 
ATOM      4  C6  UNL d   1       1.438   0.073   2.217  0.00  0.00    -0.004 A 
ATOM      5  C7  UNL d   1       0.104  -0.216   1.936  0.00  0.00     0.002 A 
ATOM      6  C8  UNL d   1      -0.233  -0.910   0.773  0.00  0.00     0.002 A 
ENDROOT
BRANCH   1   7
ATOM      7  C2  UNL d   1       0.397  -2.096  -1.367  0.00  0.00     0.056 C 
BRANCH   7   8
ATOM      8  C1  UNL d   1       0.619  -3.607  -1.252  0.00  0.00     0.007 C 
ATOM      9  C   UNL d   1       0.312  -4.155   0.136  0.00  0.00     0.009 C 
ENDBRANCH   7   8
ENDBRANCH   1   7
TORSDOF 2
ENDMDL
