MODEL 1
REMARK minimizedAffinity 4.20826387
REMARK minimizedRMSD -1
REMARK  2 active torsions:
REMARK  status: ('A' for Active; 'I' for Inactive)
REMARK    1  A    between atoms: C1_2  and  C2_3 
REMARK    2  A    between atoms: C2_3  and  C3_4 
ROOT
ATOM      1  C3  UNL d   1       2.074  -2.857   0.364  0.00  0.00    -0.075 A 
ATOM      2  C4  UNL d   1       1.915  -1.720   1.170  0.00  0.00     0.002 A 
ATOM      3  C5  UNL d   1       0.647  -1.184   1.396  0.00  0.00     0.002 A 
ATOM      4  C6  UNL d   1      -0.474  -1.770   0.813  0.00  0.00    -0.004 A 
ATOM      5  C7  UNL d   1      -0.326  -2.889  -0.003  0.00  0.00     0.002 A 
ATOM      6  C8  UNL d   1       0.941  -3.430  -0.228  0.00  0.00     0.002 A 
ENDROOT
BRANCH   1   7
ATOM      7  C2  UNL d   1       3.441  -3.459   0.140  0.00  0.00     0.056 C 
BRANCH   7   8
ATOM      8  C1  UNL d   1       3.431  -4.982  -0.028  0.00  0.00     0.007 C 
ATOM      9  C   UNL d   1       4.805  -5.561  -0.337  0.00  0.00     0.009 C 
ENDBRANCH   7   8
ENDBRANCH   1   7
TORSDOF 2
ENDMDL
