MODEL 1
REMARK minimizedAffinity -3.66849613
REMARK minimizedRMSD -1
REMARK  1 active torsions:
REMARK  status: ('A' for Active; 'I' for Inactive)
REMARK    1  A    between atoms: C3_4  and  O_7 
ROOT
ATOM      1  C   UNL d   1      -0.242   0.160  -0.898  0.00  0.00    -0.033 A 
ATOM      2  C1  UNL d   1      -1.354  -0.649  -0.656  0.00  0.00     0.039 A 
ATOM      3  C2  UNL d   1      -1.280  -1.677   0.286  0.00  0.00    -0.080 A 
ATOM      4  C3  UNL d   1      -0.090  -1.884   0.979  0.00  0.00     0.150 A 
ATOM      5  C4  UNL d   1       1.020  -1.079   0.746  0.00  0.00    -0.007 A 
ATOM      6  C5  UNL d   1       0.944  -0.054  -0.196  0.00  0.00     0.039 A 
ENDROOT
BRANCH   4   7
ATOM      7  O   UNL d   1       0.032  -2.878   1.904  0.00  0.00    -0.526 OA
ATOM      8  H5  UNL d   1      -0.805  -3.371   1.939  0.00  0.00     0.418 HD
ENDBRANCH   4   7
TORSDOF 1
ENDMDL
