MODEL 1
REMARK minimizedAffinity -4.77320099
REMARK minimizedRMSD -1
REMARK  1 active torsions:
REMARK  status: ('A' for Active; 'I' for Inactive)
REMARK    1  A    between atoms: C3_4  and  O_7 
ROOT
ATOM      1  C   UNL d   1       0.336   0.136  -0.899  0.00  0.00    -0.033 A 
ATOM      2  C1  UNL d   1      -0.606   0.202  -1.927  0.00  0.00     0.039 A 
ATOM      3  C2  UNL d   1      -1.958  -0.015  -1.651  0.00  0.00    -0.080 A 
ATOM      4  C3  UNL d   1      -2.353  -0.295  -0.346  0.00  0.00     0.150 A 
ATOM      5  C4  UNL d   1      -1.420  -0.358   0.683  0.00  0.00    -0.007 A 
ATOM      6  C5  UNL d   1      -0.070  -0.143   0.406  0.00  0.00     0.039 A 
ENDROOT
BRANCH   4   7
ATOM      7  O   UNL d   1      -3.660  -0.518  -0.030  0.00  0.00    -0.526 OA
ATOM      8  H5  UNL d   1      -4.187  -0.470  -0.845  0.00  0.00     0.418 HD
ENDBRANCH   4   7
TORSDOF 1
ENDMDL
