MODEL 1
REMARK minimizedAffinity -4.32492161
REMARK minimizedRMSD -1
REMARK  1 active torsions:
REMARK  status: ('A' for Active; 'I' for Inactive)
REMARK    1  A    between atoms: C3_4  and  O_7 
ROOT
ATOM      1  C   UNL d   1       0.630   0.199  -0.341  0.00  0.00    -0.033 A 
ATOM      2  C1  UNL d   1       0.019  -0.427   0.747  0.00  0.00     0.039 A 
ATOM      3  C2  UNL d   1      -1.323  -0.808   0.672  0.00  0.00    -0.080 A 
ATOM      4  C3  UNL d   1      -2.040  -0.558  -0.495  0.00  0.00     0.150 A 
ATOM      5  C4  UNL d   1      -1.436   0.062  -1.584  0.00  0.00    -0.007 A 
ATOM      6  C5  UNL d   1      -0.097   0.442  -1.507  0.00  0.00     0.039 A 
ENDROOT
BRANCH   4   7
ATOM      7  O   UNL d   1      -3.352  -0.907  -0.613  0.00  0.00    -0.526 OA
ATOM      8  H5  UNL d   1      -3.643  -1.299   0.227  0.00  0.00     0.418 HD
ENDBRANCH   4   7
TORSDOF 1
ENDMDL
