MODEL 1
REMARK minimizedAffinity -3.82977414
REMARK minimizedRMSD -1
REMARK  1 active torsions:
REMARK  status: ('A' for Active; 'I' for Inactive)
REMARK    1  A    between atoms: C3_4  and  O_7 
ROOT
ATOM      1  C   UNL d   1       1.525  -0.189   0.554  0.00  0.00    -0.033 A 
ATOM      2  C1  UNL d   1       0.788  -1.039   1.381  0.00  0.00     0.039 A 
ATOM      3  C2  UNL d   1      -0.597  -1.137   1.227  0.00  0.00    -0.080 A 
ATOM      4  C3  UNL d   1      -1.230  -0.383   0.243  0.00  0.00     0.150 A 
ATOM      5  C4  UNL d   1      -0.500   0.462  -0.587  0.00  0.00    -0.007 A 
ATOM      6  C5  UNL d   1       0.882   0.560  -0.431  0.00  0.00     0.039 A 
ENDROOT
BRANCH   4   7
ATOM      7  O   UNL d   1      -2.579  -0.442   0.057  0.00  0.00    -0.526 OA
ATOM      8  H5  UNL d   1      -2.955  -1.044   0.721  0.00  0.00     0.418 HD
ENDBRANCH   4   7
TORSDOF 1
ENDMDL
