MODEL 1
REMARK minimizedAffinity -5.01317978
REMARK minimizedRMSD -1
REMARK  1 active torsions:
REMARK  status: ('A' for Active; 'I' for Inactive)
REMARK    1  A    between atoms: C3_4  and  O_7 
ROOT
ATOM      1  C   UNL d   1       0.211   0.287  -0.572  0.00  0.00    -0.033 A 
ATOM      2  C1  UNL d   1      -0.339  -0.164   0.630  0.00  0.00     0.039 A 
ATOM      3  C2  UNL d   1      -1.705  -0.442   0.713  0.00  0.00    -0.080 A 
ATOM      4  C3  UNL d   1      -2.508  -0.265  -0.410  0.00  0.00     0.150 A 
ATOM      5  C4  UNL d   1      -1.966   0.180  -1.611  0.00  0.00    -0.007 A 
ATOM      6  C5  UNL d   1      -0.602   0.457  -1.692  0.00  0.00     0.039 A 
ENDROOT
BRANCH   4   7
ATOM      7  O   UNL d   1      -3.847  -0.519  -0.376  0.00  0.00    -0.526 OA
ATOM      8  H5  UNL d   1      -4.086  -0.791   0.526  0.00  0.00     0.418 HD
ENDBRANCH   4   7
TORSDOF 1
ENDMDL
