MODEL 1
REMARK minimizedAffinity -5.19225216
REMARK minimizedRMSD -1
REMARK  1 active torsions:
REMARK  status: ('A' for Active; 'I' for Inactive)
REMARK    1  A    between atoms: C3_4  and  O_7 
ROOT
ATOM      1  C   UNL d   1       0.436  -0.174  -0.301  0.00  0.00    -0.033 A 
ATOM      2  C1  UNL d   1      -0.192  -0.545   0.889  0.00  0.00     0.039 A 
ATOM      3  C2  UNL d   1      -1.578  -0.714   0.926  0.00  0.00    -0.080 A 
ATOM      4  C3  UNL d   1      -2.322  -0.509  -0.232  0.00  0.00     0.150 A 
ATOM      5  C4  UNL d   1      -1.702  -0.142  -1.422  0.00  0.00    -0.007 A 
ATOM      6  C5  UNL d   1      -0.319   0.027  -1.457  0.00  0.00     0.039 A 
ENDROOT
BRANCH   4   7
ATOM      7  O   UNL d   1      -3.677  -0.656  -0.244  0.00  0.00    -0.526 OA
ATOM      8  H5  UNL d   1      -3.970  -0.883   0.654  0.00  0.00     0.418 HD
ENDBRANCH   4   7
TORSDOF 1
ENDMDL
