MODEL 1
REMARK minimizedAffinity -5.09419966
REMARK minimizedRMSD -1
REMARK  1 active torsions:
REMARK  status: ('A' for Active; 'I' for Inactive)
REMARK    1  A    between atoms: C3_4  and  O_7 
ROOT
ATOM      1  C   UNL d   1       0.377   0.328  -0.021  0.00  0.00    -0.033 A 
ATOM      2  C1  UNL d   1      -0.182  -0.294   1.098  0.00  0.00     0.039 A 
ATOM      3  C2  UNL d   1      -1.509  -0.728   1.068  0.00  0.00    -0.080 A 
ATOM      4  C3  UNL d   1      -2.265  -0.535  -0.085  0.00  0.00     0.150 A 
ATOM      5  C4  UNL d   1      -1.714   0.080  -1.204  0.00  0.00    -0.007 A 
ATOM      6  C5  UNL d   1      -0.389   0.514  -1.172  0.00  0.00     0.039 A 
ENDROOT
BRANCH   4   7
ATOM      7  O   UNL d   1      -3.565  -0.937  -0.159  0.00  0.00    -0.526 OA
ATOM      8  H5  UNL d   1      -3.819  -1.319   0.698  0.00  0.00     0.418 HD
ENDBRANCH   4   7
TORSDOF 1
ENDMDL
