MODEL 1
REMARK minimizedAffinity -4.95774603
REMARK minimizedRMSD -1
REMARK  1 active torsions:
REMARK  status: ('A' for Active; 'I' for Inactive)
REMARK    1  A    between atoms: C3_4  and  O_7 
ROOT
ATOM      1  C   UNL d   1      -3.054  -1.685   0.225  0.00  0.00    -0.033 A 
ATOM      2  C1  UNL d   1      -2.014  -2.145   1.035  0.00  0.00     0.039 A 
ATOM      3  C2  UNL d   1      -0.816  -1.430   1.109  0.00  0.00    -0.080 A 
ATOM      4  C3  UNL d   1      -0.673  -0.258   0.371  0.00  0.00     0.150 A 
ATOM      5  C4  UNL d   1      -1.707   0.208  -0.434  0.00  0.00    -0.007 A 
ATOM      6  C5  UNL d   1      -2.901  -0.508  -0.508  0.00  0.00     0.039 A 
ENDROOT
BRANCH   4   7
ATOM      7  O   UNL d   1       0.478   0.471   0.408  0.00  0.00    -0.526 OA
ATOM      8  H5  UNL d   1       1.114   0.013   0.983  0.00  0.00     0.418 HD
ENDBRANCH   4   7
TORSDOF 1
ENDMDL
