MODEL 1
REMARK minimizedAffinity -3.69553113
REMARK minimizedRMSD -1
REMARK  1 active torsions:
REMARK  status: ('A' for Active; 'I' for Inactive)
REMARK    1  A    between atoms: C3_4  and  O_7 
ROOT
ATOM      1  C   UNL d   1       2.089   1.191   1.779  0.00  0.00    -0.033 A 
ATOM      2  C1  UNL d   1       2.170   0.823   0.434  0.00  0.00     0.039 A 
ATOM      3  C2  UNL d   1       2.444   1.785  -0.539  0.00  0.00    -0.080 A 
ATOM      4  C3  UNL d   1       2.637   3.110  -0.156  0.00  0.00     0.150 A 
ATOM      5  C4  UNL d   1       2.561   3.483   1.182  0.00  0.00    -0.007 A 
ATOM      6  C5  UNL d   1       2.286   2.520   2.153  0.00  0.00     0.039 A 
ENDROOT
BRANCH   4   7
ATOM      7  O   UNL d   1       2.902   4.085  -1.070  0.00  0.00    -0.526 OA
ATOM      8  H5  UNL d   1       2.896   3.686  -1.957  0.00  0.00     0.418 HD
ENDBRANCH   4   7
TORSDOF 1
ENDMDL
