MODEL 1
REMARK minimizedAffinity -2.11502528
REMARK minimizedRMSD -1
REMARK  1 active torsions:
REMARK  status: ('A' for Active; 'I' for Inactive)
REMARK    1  A    between atoms: C3_4  and  O_7 
ROOT
ATOM      1  C   UNL d   1       1.236   0.327   0.006  0.00  0.00    -0.033 A 
ATOM      2  C1  UNL d   1       0.446  -0.456   0.849  0.00  0.00     0.039 A 
ATOM      3  C2  UNL d   1      -0.860  -0.784   0.480  0.00  0.00    -0.080 A 
ATOM      4  C3  UNL d   1      -1.363  -0.325  -0.734  0.00  0.00     0.150 A 
ATOM      5  C4  UNL d   1      -0.581   0.453  -1.581  0.00  0.00    -0.007 A 
ATOM      6  C5  UNL d   1       0.723   0.780  -1.210  0.00  0.00     0.039 A 
ENDROOT
BRANCH   4   7
ATOM      7  O   UNL d   1      -2.633  -0.615  -1.135  0.00  0.00    -0.526 OA
ATOM      8  H5  UNL d   1      -3.065  -1.135  -0.437  0.00  0.00     0.418 HD
ENDBRANCH   4   7
TORSDOF 1
ENDMDL
