MODEL 1
REMARK minimizedAffinity -4.52335739
REMARK minimizedRMSD -1
REMARK  1 active torsions:
REMARK  status: ('A' for Active; 'I' for Inactive)
REMARK    1  A    between atoms: C3_4  and  O_7 
ROOT
ATOM      1  C   UNL d   1       0.776  -0.420   0.049  0.00  0.00    -0.033 A 
ATOM      2  C1  UNL d   1       0.014   0.155  -0.970  0.00  0.00     0.039 A 
ATOM      3  C2  UNL d   1      -1.377   0.040  -0.954  0.00  0.00    -0.080 A 
ATOM      4  C3  UNL d   1      -1.994  -0.650   0.086  0.00  0.00     0.150 A 
ATOM      5  C4  UNL d   1      -1.242  -1.222   1.106  0.00  0.00    -0.007 A 
ATOM      6  C5  UNL d   1       0.148  -1.107   1.088  0.00  0.00     0.039 A 
ENDROOT
BRANCH   4   7
ATOM      7  O   UNL d   1      -3.348  -0.792   0.141  0.00  0.00    -0.526 OA
ATOM      8  H5  UNL d   1      -3.735  -0.371  -0.645  0.00  0.00     0.418 HD
ENDBRANCH   4   7
TORSDOF 1
ENDMDL
