MODEL 1
REMARK minimizedAffinity -4.51022387
REMARK minimizedRMSD -1
REMARK  1 active torsions:
REMARK  status: ('A' for Active; 'I' for Inactive)
REMARK    1  A    between atoms: C3_4  and  O_7 
ROOT
ATOM      1  C   UNL d   1      -2.752  -0.991  -0.328  0.00  0.00    -0.033 A 
ATOM      2  C1  UNL d   1      -2.062  -0.355  -1.362  0.00  0.00     0.039 A 
ATOM      3  C2  UNL d   1      -0.783   0.158  -1.138  0.00  0.00    -0.080 A 
ATOM      4  C3  UNL d   1      -0.205   0.027   0.122  0.00  0.00     0.150 A 
ATOM      5  C4  UNL d   1      -0.886  -0.609   1.155  0.00  0.00    -0.007 A 
ATOM      6  C5  UNL d   1      -2.163  -1.119   0.930  0.00  0.00     0.039 A 
ENDROOT
BRANCH   4   7
ATOM      7  O   UNL d   1       1.039   0.515   0.390  0.00  0.00    -0.526 OA
ATOM      8  H5  UNL d   1       1.376   0.953  -0.409  0.00  0.00     0.418 HD
ENDBRANCH   4   7
TORSDOF 1
ENDMDL
