MODEL 1
REMARK minimizedAffinity -5.57321978
REMARK minimizedRMSD -1
REMARK  1 active torsions:
REMARK  status: ('A' for Active; 'I' for Inactive)
REMARK    1  A    between atoms: C3_4  and  O_7 
ROOT
ATOM      1  C   UNL d   1       0.112  -0.207  -0.637  0.00  0.00    -0.033 A 
ATOM      2  C1  UNL d   1      -0.413  -0.425   0.638  0.00  0.00     0.039 A 
ATOM      3  C2  UNL d   1      -1.766  -0.733   0.795  0.00  0.00    -0.080 A 
ATOM      4  C3  UNL d   1      -2.582  -0.821  -0.330  0.00  0.00     0.150 A 
ATOM      5  C4  UNL d   1      -2.065  -0.609  -1.604  0.00  0.00    -0.007 A 
ATOM      6  C5  UNL d   1      -0.714  -0.300  -1.758  0.00  0.00     0.039 A 
ENDROOT
BRANCH   4   7
ATOM      7  O   UNL d   1      -3.909  -1.114  -0.226  0.00  0.00    -0.526 OA
ATOM      8  H5  UNL d   1      -4.131  -1.206   0.715  0.00  0.00     0.418 HD
ENDBRANCH   4   7
TORSDOF 1
ENDMDL
