MODEL 1
REMARK minimizedAffinity -0.356153399
REMARK minimizedRMSD -1
REMARK  1 active torsions:
REMARK  status: ('A' for Active; 'I' for Inactive)
REMARK    1  A    between atoms: C3_4  and  O_7 
ROOT
ATOM      1  C   UNL d   1       3.436   3.031   0.763  0.00  0.00    -0.033 A 
ATOM      2  C1  UNL d   1       2.780   2.769   1.967  0.00  0.00     0.039 A 
ATOM      3  C2  UNL d   1       1.916   1.677   2.071  0.00  0.00    -0.080 A 
ATOM      4  C3  UNL d   1       1.719   0.855   0.965  0.00  0.00     0.150 A 
ATOM      5  C4  UNL d   1       2.373   1.107  -0.237  0.00  0.00    -0.007 A 
ATOM      6  C5  UNL d   1       3.234   2.199  -0.338  0.00  0.00     0.039 A 
ENDROOT
BRANCH   4   7
ATOM      7  O   UNL d   1       0.882  -0.220   1.017  0.00  0.00    -0.526 OA
ATOM      8  H5  UNL d   1       0.478  -0.253   1.900  0.00  0.00     0.418 HD
ENDBRANCH   4   7
TORSDOF 1
ENDMDL
