MODEL 1
REMARK minimizedAffinity -4.91124296
REMARK minimizedRMSD -1
REMARK  1 active torsions:
REMARK  status: ('A' for Active; 'I' for Inactive)
REMARK    1  A    between atoms: C3_4  and  O_7 
ROOT
ATOM      1  C   UNL d   1       0.091   0.191  -0.810  0.00  0.00    -0.033 A 
ATOM      2  C1  UNL d   1      -0.215  -0.424   0.406  0.00  0.00     0.039 A 
ATOM      3  C2  UNL d   1      -1.542  -0.722   0.724  0.00  0.00    -0.080 A 
ATOM      4  C3  UNL d   1      -2.550  -0.402  -0.181  0.00  0.00     0.150 A 
ATOM      5  C4  UNL d   1      -2.251   0.207  -1.395  0.00  0.00    -0.007 A 
ATOM      6  C5  UNL d   1      -0.926   0.505  -1.711  0.00  0.00     0.039 A 
ENDROOT
BRANCH   4   7
ATOM      7  O   UNL d   1      -3.860  -0.669   0.088  0.00  0.00    -0.526 OA
ATOM      8  H5  UNL d   1      -3.918  -1.064   0.974  0.00  0.00     0.418 HD
ENDBRANCH   4   7
TORSDOF 1
ENDMDL
