MODEL 1
REMARK minimizedAffinity -4.9840045
REMARK minimizedRMSD -1
REMARK  1 active torsions:
REMARK  status: ('A' for Active; 'I' for Inactive)
REMARK    1  A    between atoms: C3_4  and  O_7 
ROOT
ATOM      1  C   UNL d   1      -3.263  -0.553  -0.361  0.00  0.00    -0.033 A 
ATOM      2  C1  UNL d   1      -2.493  -0.180  -1.464  0.00  0.00     0.039 A 
ATOM      3  C2  UNL d   1      -1.113  -0.010  -1.329  0.00  0.00    -0.080 A 
ATOM      4  C3  UNL d   1      -0.518  -0.217  -0.088  0.00  0.00     0.150 A 
ATOM      5  C4  UNL d   1      -1.279  -0.592   1.014  0.00  0.00    -0.007 A 
ATOM      6  C5  UNL d   1      -2.656  -0.760   0.878  0.00  0.00     0.039 A 
ENDROOT
BRANCH   4   7
ATOM      7  O   UNL d   1       0.824  -0.059   0.093  0.00  0.00    -0.526 OA
ATOM      8  H5  UNL d   1       1.217   0.229  -0.748  0.00  0.00     0.418 HD
ENDBRANCH   4   7
TORSDOF 1
ENDMDL
