MODEL 1
REMARK minimizedAffinity 10.8156404
REMARK minimizedRMSD -1
REMARK  2 active torsions:
REMARK  status: ('A' for Active; 'I' for Inactive)
REMARK    1  A    between atoms: C2'_3  and  C1'_4 
REMARK    2  A    between atoms: C1'_4  and  C1_5 
ROOT
ATOM      1  C1  I4B d   1      -0.067   1.938   0.063  0.00  0.00    -0.075 A 
ATOM      2  C2  I4B d   1      -1.394   1.678  -0.175  0.00  0.00     0.003 A 
ATOM      3  C3  I4B d   1      -1.776   0.524  -0.900  0.00  0.00     0.002 A 
ATOM      4  C4  I4B d   1      -0.803  -0.312  -1.409  0.00  0.00    -0.004 A 
ATOM      5  C5  I4B d   1       0.541  -0.060  -1.147  0.00  0.00     0.002 A 
ATOM      6  C6  I4B d   1       0.911   1.065  -0.396  0.00  0.00     0.003 A 
ENDROOT
BRANCH   1   7
ATOM      7  C1' I4B d   1       0.302   3.184   0.803  0.00  0.00     0.060 C 
BRANCH   7   8
ATOM      8  C2' I4B d   1      -0.305   4.361   0.068  0.00  0.00    -0.013 C 
ATOM      9  C4' I4B d   1      -0.910   5.350   1.029  0.00  0.00     0.013 C 
ATOM     10  C3' I4B d   1       0.773   4.997  -0.757  0.00  0.00     0.013 C 
ENDBRANCH   7   8
ENDBRANCH   1   7
TORSDOF 2
ENDMDL
