MODEL 1
REMARK minimizedAffinity 6.97259712
REMARK minimizedRMSD -1
REMARK  2 active torsions:
REMARK  status: ('A' for Active; 'I' for Inactive)
REMARK    1  A    between atoms: C2'_3  and  C1'_4 
REMARK    2  A    between atoms: C1'_4  and  C1_5 
ROOT
ATOM      1  C1  I4B d   1       0.824   0.185   3.653  0.00  0.00    -0.075 A 
ATOM      2  C2  I4B d   1       0.373  -0.522   4.739  0.00  0.00     0.003 A 
ATOM      3  C3  I4B d   1       1.034  -1.707   5.144  0.00  0.00     0.002 A 
ATOM      4  C4  I4B d   1       2.104  -2.173   4.408  0.00  0.00    -0.004 A 
ATOM      5  C5  I4B d   1       2.574  -1.443   3.320  0.00  0.00     0.002 A 
ATOM      6  C6  I4B d   1       1.938  -0.250   2.947  0.00  0.00     0.003 A 
ENDROOT
BRANCH   1   7
ATOM      7  C1' I4B d   1       0.082   1.414   3.233  0.00  0.00     0.060 C 
BRANCH   7   8
ATOM      8  C2' I4B d   1       0.971   2.196   2.288  0.00  0.00    -0.013 C 
ATOM      9  C4' I4B d   1       0.158   2.904   1.236  0.00  0.00     0.013 C 
ATOM     10  C3' I4B d   1       1.770   3.170   3.101  0.00  0.00     0.013 C 
ENDBRANCH   7   8
ENDBRANCH   1   7
TORSDOF 2
ENDMDL
