MODEL 1
REMARK minimizedAffinity 13.8247557
REMARK minimizedRMSD -1
REMARK  2 active torsions:
REMARK  status: ('A' for Active; 'I' for Inactive)
REMARK    1  A    between atoms: C2'_3  and  C1'_4 
REMARK    2  A    between atoms: C1'_4  and  C1_5 
ROOT
ATOM      1  C1  I4B d   1       0.131   1.834   2.577  0.00  0.00    -0.075 A 
ATOM      2  C2  I4B d   1      -1.231   1.849   2.747  0.00  0.00     0.003 A 
ATOM      3  C3  I4B d   1      -1.848   0.935   3.635  0.00  0.00     0.002 A 
ATOM      4  C4  I4B d   1      -1.077  -0.003   4.290  0.00  0.00    -0.004 A 
ATOM      5  C5  I4B d   1       0.306  -0.002   4.134  0.00  0.00     0.002 A 
ATOM      6  C6  I4B d   1       0.916   0.930   3.282  0.00  0.00     0.003 A 
ENDROOT
BRANCH   1   7
ATOM      7  C1' I4B d   1       0.747   2.791   1.606  0.00  0.00     0.060 C 
BRANCH   7   8
ATOM      8  C2' I4B d   1      -0.140   2.845   0.378  0.00  0.00    -0.013 C 
ATOM      9  C4' I4B d   1      -0.011   4.169  -0.328  0.00  0.00     0.013 C 
ATOM     10  C3' I4B d   1       0.248   1.711  -0.522  0.00  0.00     0.013 C 
ENDBRANCH   7   8
ENDBRANCH   1   7
TORSDOF 2
ENDMDL
