MODEL 1
REMARK minimizedAffinity 5.90843153
REMARK minimizedRMSD -1
REMARK  2 active torsions:
REMARK  status: ('A' for Active; 'I' for Inactive)
REMARK    1  A    between atoms: C2'_3  and  C1'_4 
REMARK    2  A    between atoms: C1'_4  and  C1_5 
ROOT
ATOM      1  C1  I4B d   1      -0.309   5.207  -0.956  0.00  0.00    -0.075 A 
ATOM      2  C2  I4B d   1       0.621   5.593  -1.888  0.00  0.00     0.003 A 
ATOM      3  C3  I4B d   1       0.209   6.000  -3.180  0.00  0.00     0.002 A 
ATOM      4  C4  I4B d   1      -1.129   5.956  -3.512  0.00  0.00    -0.004 A 
ATOM      5  C5  I4B d   1      -2.073   5.586  -2.558  0.00  0.00     0.002 A 
ATOM      6  C6  I4B d   1      -1.662   5.221  -1.268  0.00  0.00     0.003 A 
ENDROOT
BRANCH   1   7
ATOM      7  C1' I4B d   1       0.164   4.752   0.389  0.00  0.00     0.060 C 
BRANCH   7   8
ATOM      8  C2' I4B d   1      -0.629   3.519   0.769  0.00  0.00    -0.013 C 
ATOM      9  C4' I4B d   1       0.096   2.260   0.370  0.00  0.00     0.013 C 
ATOM     10  C3' I4B d   1      -0.867   3.560   2.249  0.00  0.00     0.013 C 
ENDBRANCH   7   8
ENDBRANCH   1   7
TORSDOF 2
ENDMDL
