MODEL 1
REMARK minimizedAffinity 14.0195885
REMARK minimizedRMSD -1
REMARK  2 active torsions:
REMARK  status: ('A' for Active; 'I' for Inactive)
REMARK    1  A    between atoms: C2'_3  and  C1'_4 
REMARK    2  A    between atoms: C1'_4  and  C1_5 
ROOT
ATOM      1  C1  I4B d   1       0.718   3.281   1.078  0.00  0.00    -0.075 A 
ATOM      2  C2  I4B d   1      -0.342   2.862   1.843  0.00  0.00     0.003 A 
ATOM      3  C3  I4B d   1      -0.142   2.490   3.194  0.00  0.00     0.002 A 
ATOM      4  C4  I4B d   1       1.133   2.503   3.722  0.00  0.00    -0.004 A 
ATOM      5  C5  I4B d   1       2.203   2.950   2.952  0.00  0.00     0.002 A 
ATOM      6  C6  I4B d   1       1.993   3.353   1.625  0.00  0.00     0.003 A 
ENDROOT
BRANCH   1   7
ATOM      7  C1' I4B d   1       0.477   3.635  -0.355  0.00  0.00     0.060 C 
BRANCH   7   8
ATOM      8  C2' I4B d   1       1.061   5.012  -0.600  0.00  0.00    -0.013 C 
ATOM      9  C4' I4B d   1       1.037   5.361  -2.065  0.00  0.00     0.013 C 
ATOM     10  C3' I4B d   1       0.272   6.000   0.205  0.00  0.00     0.013 C 
ENDBRANCH   7   8
ENDBRANCH   1   7
TORSDOF 2
ENDMDL
