MODEL 1
REMARK minimizedAffinity 9.77726364
REMARK minimizedRMSD -1
REMARK  2 active torsions:
REMARK  status: ('A' for Active; 'I' for Inactive)
REMARK    1  A    between atoms: C2'_3  and  C1'_4 
REMARK    2  A    between atoms: C1'_4  and  C1_5 
ROOT
ATOM      1  C1  I4B d   1       0.226   1.963   0.199  0.00  0.00    -0.075 A 
ATOM      2  C2  I4B d   1      -0.998   1.453  -0.154  0.00  0.00     0.003 A 
ATOM      3  C3  I4B d   1      -1.098   0.142  -0.682  0.00  0.00     0.002 A 
ATOM      4  C4  I4B d   1       0.048  -0.598  -0.885  0.00  0.00    -0.004 A 
ATOM      5  C5  I4B d   1       1.286  -0.087  -0.505  0.00  0.00     0.002 A 
ATOM      6  C6  I4B d   1       1.375   1.197   0.052  0.00  0.00     0.003 A 
ENDROOT
BRANCH   1   7
ATOM      7  C1' I4B d   1       0.300   3.363   0.722  0.00  0.00     0.060 C 
BRANCH   7   8
ATOM      8  C2' I4B d   1       0.328   4.304  -0.465  0.00  0.00    -0.013 C 
ATOM      9  C4' I4B d   1      -0.743   5.356  -0.352  0.00  0.00     0.013 C 
ATOM     10  C3' I4B d   1       1.692   4.924  -0.531  0.00  0.00     0.013 C 
ENDBRANCH   7   8
ENDBRANCH   1   7
TORSDOF 2
ENDMDL
