MODEL 1
REMARK minimizedAffinity 18.0926075
REMARK minimizedRMSD -1
REMARK  2 active torsions:
REMARK  status: ('A' for Active; 'I' for Inactive)
REMARK    1  A    between atoms: C2'_3  and  C1'_4 
REMARK    2  A    between atoms: C1'_4  and  C1_5 
ROOT
ATOM      1  C1  I4B d   1       1.042   0.077   3.723  0.00  0.00    -0.075 A 
ATOM      2  C2  I4B d   1       2.214   0.646   3.290  0.00  0.00     0.003 A 
ATOM      3  C3  I4B d   1       2.192   1.877   2.589  0.00  0.00     0.002 A 
ATOM      4  C4  I4B d   1       0.981   2.473   2.302  0.00  0.00    -0.004 A 
ATOM      5  C5  I4B d   1      -0.204   1.906   2.761  0.00  0.00     0.002 A 
ATOM      6  C6  I4B d   1      -0.173   0.706   3.487  0.00  0.00     0.003 A 
ENDROOT
BRANCH   1   7
ATOM      7  C1' I4B d   1       1.100  -1.240   4.431  0.00  0.00     0.060 C 
BRANCH   7   8
ATOM      8  C2' I4B d   1       2.400  -1.919   4.050  0.00  0.00    -0.013 C 
ATOM      9  C4' I4B d   1       3.142  -2.399   5.269  0.00  0.00     0.013 C 
ATOM     10  C3' I4B d   1       2.075  -3.058   3.130  0.00  0.00     0.013 C 
ENDBRANCH   7   8
ENDBRANCH   1   7
TORSDOF 2
ENDMDL
