MODEL 1
REMARK minimizedAffinity 9.18901539
REMARK minimizedRMSD -1
REMARK  2 active torsions:
REMARK  status: ('A' for Active; 'I' for Inactive)
REMARK    1  A    between atoms: C2'_3  and  C1'_4 
REMARK    2  A    between atoms: C1'_4  and  C1_5 
ROOT
ATOM      1  C1  I4B d   1       1.619   4.292   1.111  0.00  0.00    -0.075 A 
ATOM      2  C2  I4B d   1       2.594   5.204   1.432  0.00  0.00     0.003 A 
ATOM      3  C3  I4B d   1       3.142   5.231   2.738  0.00  0.00     0.002 A 
ATOM      4  C4  I4B d   1       2.654   4.368   3.698  0.00  0.00    -0.004 A 
ATOM      5  C5  I4B d   1       1.682   3.429   3.364  0.00  0.00     0.002 A 
ATOM      6  C6  I4B d   1       1.170   3.383   2.059  0.00  0.00     0.003 A 
ENDROOT
BRANCH   1   7
ATOM      7  C1' I4B d   1       1.039   4.314  -0.267  0.00  0.00     0.060 C 
BRANCH   7   8
ATOM      8  C2' I4B d   1      -0.394   3.829  -0.178  0.00  0.00    -0.013 C 
ATOM      9  C4' I4B d   1      -1.284   4.579  -1.133  0.00  0.00     0.013 C 
ATOM     10  C3' I4B d   1      -0.404   2.358  -0.471  0.00  0.00     0.013 C 
ENDBRANCH   7   8
ENDBRANCH   1   7
TORSDOF 2
ENDMDL
