MODEL 1
REMARK minimizedAffinity -0.544573486
REMARK minimizedRMSD -1
REMARK  2 active torsions:
REMARK  status: ('A' for Active; 'I' for Inactive)
REMARK    1  A    between atoms: C2'_3  and  C1'_4 
REMARK    2  A    between atoms: C1'_4  and  C1_5 
ROOT
ATOM      1  C1  I4B d   1       0.001   2.179   0.853  0.00  0.00    -0.075 A 
ATOM      2  C2  I4B d   1      -0.281   1.834   2.151  0.00  0.00     0.003 A 
ATOM      3  C3  I4B d   1       0.020   0.534   2.624  0.00  0.00     0.002 A 
ATOM      4  C4  I4B d   1       0.552  -0.399   1.758  0.00  0.00    -0.004 A 
ATOM      5  C5  I4B d   1       0.859  -0.040   0.448  0.00  0.00     0.002 A 
ATOM      6  C6  I4B d   1       0.593   1.260  -0.004  0.00  0.00     0.003 A 
ENDROOT
BRANCH   1   7
ATOM      7  C1' I4B d   1      -0.360   3.550   0.376  0.00  0.00     0.060 C 
BRANCH   7   8
ATOM      8  C2' I4B d   1       0.195   3.720  -1.023  0.00  0.00    -0.013 C 
ATOM      9  C4' I4B d   1      -0.888   3.581  -2.060  0.00  0.00     0.013 C 
ATOM     10  C3' I4B d   1       0.850   5.066  -1.101  0.00  0.00     0.013 C 
ENDBRANCH   7   8
ENDBRANCH   1   7
TORSDOF 2
ENDMDL
