MODEL 1
REMARK minimizedAffinity -2.42912269
REMARK minimizedRMSD -1
REMARK  2 active torsions:
REMARK  status: ('A' for Active; 'I' for Inactive)
REMARK    1  A    between atoms: C2'_3  and  C1'_4 
REMARK    2  A    between atoms: C1'_4  and  C1_5 
ROOT
ATOM      1  C1  I4B d   1       0.157  -1.795  -1.071  0.00  0.00    -0.075 A 
ATOM      2  C2  I4B d   1       0.771  -2.978  -0.743  0.00  0.00     0.003 A 
ATOM      3  C3  I4B d   1       0.195  -4.212  -1.129  0.00  0.00     0.002 A 
ATOM      4  C4  I4B d   1      -1.014  -4.219  -1.794  0.00  0.00    -0.004 A 
ATOM      5  C5  I4B d   1      -1.624  -3.019  -2.146  0.00  0.00     0.002 A 
ATOM      6  C6  I4B d   1      -1.029  -1.799  -1.794  0.00  0.00     0.003 A 
ENDROOT
BRANCH   1   7
ATOM      7  C1' I4B d   1       0.776  -0.511  -0.619  0.00  0.00     0.060 C 
BRANCH   7   8
ATOM      8  C2' I4B d   1      -0.316   0.346  -0.014  0.00  0.00    -0.013 C 
ATOM      9  C4' I4B d   1      -0.094   0.551   1.461  0.00  0.00     0.013 C 
ATOM     10  C3' I4B d   1      -0.336   1.655  -0.745  0.00  0.00     0.013 C 
ENDBRANCH   7   8
ENDBRANCH   1   7
TORSDOF 2
ENDMDL
