MODEL 1
REMARK minimizedAffinity -2.52320743
REMARK minimizedRMSD -1
REMARK  2 active torsions:
REMARK  status: ('A' for Active; 'I' for Inactive)
REMARK    1  A    between atoms: C2'_3  and  C1'_4 
REMARK    2  A    between atoms: C1'_4  and  C1_5 
ROOT
ATOM      1  C1  I4B d   1       0.402  -0.726  -0.037  0.00  0.00    -0.075 A 
ATOM      2  C2  I4B d   1      -0.794  -0.427   0.566  0.00  0.00     0.003 A 
ATOM      3  C3  I4B d   1      -0.819   0.309   1.775  0.00  0.00     0.002 A 
ATOM      4  C4  I4B d   1       0.370   0.679   2.370  0.00  0.00    -0.004 A 
ATOM      5  C5  I4B d   1       1.581   0.395   1.746  0.00  0.00     0.002 A 
ATOM      6  C6  I4B d   1       1.598  -0.301   0.529  0.00  0.00     0.003 A 
ENDROOT
BRANCH   1   7
ATOM      7  C1' I4B d   1       0.393  -1.533  -1.296  0.00  0.00     0.060 C 
BRANCH   7   8
ATOM      8  C2' I4B d   1      -0.079  -2.930  -0.952  0.00  0.00    -0.013 C 
ATOM      9  C4' I4B d   1      -1.265  -3.328  -1.791  0.00  0.00     0.013 C 
ATOM     10  C3' I4B d   1       1.070  -3.872  -1.157  0.00  0.00     0.013 C 
ENDBRANCH   7   8
ENDBRANCH   1   7
TORSDOF 2
ENDMDL
