MODEL 1
REMARK minimizedAffinity 7.05593824
REMARK minimizedRMSD -1
REMARK  0 active torsions:
REMARK  status: ('A' for Active; 'I' for Inactive)
ROOT
ATOM      1  C2' OXE d   1       4.183   3.330  -4.464  0.00  0.00     0.078 C 
ATOM      2  C1' OXE d   1       4.477   5.673  -5.983  0.00  0.00     0.078 C 
ATOM      3  C1  OXE d   1       3.078   5.241  -5.619  0.00  0.00    -0.078 A 
ATOM      4  C2  OXE d   1       2.941   4.069  -4.915  0.00  0.00    -0.078 A 
ATOM      5  C3  OXE d   1       1.677   3.654  -4.506  0.00  0.00     0.003 A 
ATOM      6  C4  OXE d   1       0.533   4.338  -4.936  0.00  0.00    -0.002 A 
ATOM      7  C5  OXE d   1       0.648   5.512  -5.687  0.00  0.00    -0.002 A 
ATOM      8  C6  OXE d   1       1.912   6.000  -6.000  0.00  0.00     0.003 A 
ENDROOT
TORSDOF 0
ENDMDL
