MODEL 1
REMARK minimizedAffinity 8.71020603
REMARK minimizedRMSD -1
REMARK  0 active torsions:
REMARK  status: ('A' for Active; 'I' for Inactive)
ROOT
ATOM      1  C2' OXE d   1       1.537  -0.448   3.490  0.00  0.00     0.078 C 
ATOM      2  C1' OXE d   1       3.699  -2.207   3.162  0.00  0.00     0.078 C 
ATOM      3  C1  OXE d   1       2.596  -2.250   2.135  0.00  0.00    -0.078 A 
ATOM      4  C2  OXE d   1       1.519  -1.419   2.329  0.00  0.00    -0.078 A 
ATOM      5  C3  OXE d   1       0.499  -1.380   1.382  0.00  0.00     0.003 A 
ATOM      6  C4  OXE d   1       0.485  -2.288   0.316  0.00  0.00    -0.002 A 
ATOM      7  C5  OXE d   1       1.553  -3.171   0.123  0.00  0.00    -0.002 A 
ATOM      8  C6  OXE d   1       2.634  -3.135   0.997  0.00  0.00     0.003 A 
ENDROOT
TORSDOF 0
ENDMDL
