MODEL 1
REMARK minimizedAffinity 2.14251065
REMARK minimizedRMSD -1
REMARK  0 active torsions:
REMARK  status: ('A' for Active; 'I' for Inactive)
ROOT
ATOM      1  C2' OXE d   1      -4.587   1.542   5.996  0.00  0.00     0.078 C 
ATOM      2  C1' OXE d   1      -2.273   1.002   4.501  0.00  0.00     0.078 C 
ATOM      3  C1  OXE d   1      -3.562   1.219   3.748  0.00  0.00    -0.078 A 
ATOM      4  C2  OXE d   1      -4.698   1.436   4.490  0.00  0.00    -0.078 A 
ATOM      5  C3  OXE d   1      -5.903   1.696   3.844  0.00  0.00     0.003 A 
ATOM      6  C4  OXE d   1      -5.999   1.586   2.452  0.00  0.00    -0.002 A 
ATOM      7  C5  OXE d   1      -4.862   1.326   1.680  0.00  0.00    -0.002 A 
ATOM      8  C6  OXE d   1      -3.630   1.183   2.308  0.00  0.00     0.003 A 
ENDROOT
TORSDOF 0
ENDMDL
