MODEL 1
REMARK minimizedAffinity 8.78590202
REMARK minimizedRMSD -1
REMARK  0 active torsions:
REMARK  status: ('A' for Active; 'I' for Inactive)
ROOT
ATOM      1  C2' OXE d   1       2.069  -4.482  -0.149  0.00  0.00     0.078 C 
ATOM      2  C1' OXE d   1       3.584  -2.432   1.027  0.00  0.00     0.078 C 
ATOM      3  C1  OXE d   1       2.101  -2.458   1.303  0.00  0.00    -0.078 A 
ATOM      4  C2  OXE d   1       1.360  -3.437   0.686  0.00  0.00    -0.078 A 
ATOM      5  C3  OXE d   1      -0.003  -3.539   0.949  0.00  0.00     0.003 A 
ATOM      6  C4  OXE d   1      -0.652  -2.562   1.714  0.00  0.00    -0.002 A 
ATOM      7  C5  OXE d   1       0.078  -1.534   2.319  0.00  0.00    -0.002 A 
ATOM      8  C6  OXE d   1       1.458  -1.492   2.159  0.00  0.00     0.003 A 
ENDROOT
TORSDOF 0
ENDMDL
