MODEL 1
REMARK minimizedAffinity 2.88490248
REMARK minimizedRMSD -1
REMARK  0 active torsions:
REMARK  status: ('A' for Active; 'I' for Inactive)
ROOT
ATOM      1  C2' OXE d   1      -5.948   1.149  -3.854  0.00  0.00     0.078 C 
ATOM      2  C1' OXE d   1      -4.029   1.441  -1.827  0.00  0.00     0.078 C 
ATOM      3  C1  OXE d   1      -4.044   0.146  -2.599  0.00  0.00    -0.078 A 
ATOM      4  C2  OXE d   1      -5.017  -0.007  -3.558  0.00  0.00    -0.078 A 
ATOM      5  C3  OXE d   1      -5.042  -1.160  -4.337  0.00  0.00     0.003 A 
ATOM      6  C4  OXE d   1      -4.183  -2.228  -4.050  0.00  0.00    -0.002 A 
ATOM      7  C5  OXE d   1      -3.211  -2.109  -3.051  0.00  0.00    -0.002 A 
ATOM      8  C6  OXE d   1      -3.100  -0.915  -2.347  0.00  0.00     0.003 A 
ENDROOT
TORSDOF 0
ENDMDL
