MODEL 1
REMARK minimizedAffinity 8.71431828
REMARK minimizedRMSD -1
REMARK  0 active torsions:
REMARK  status: ('A' for Active; 'I' for Inactive)
ROOT
ATOM      1  C2' OXE d   1       5.403  -2.180   0.508  0.00  0.00     0.078 C 
ATOM      2  C1' OXE d   1       2.922  -3.221   1.310  0.00  0.00     0.078 C 
ATOM      3  C1  OXE d   1       3.872  -2.759   2.386  0.00  0.00    -0.078 A 
ATOM      4  C2  OXE d   1       5.102  -2.294   1.987  0.00  0.00    -0.078 A 
ATOM      5  C3  OXE d   1       5.995  -1.805   2.936  0.00  0.00     0.003 A 
ATOM      6  C4  OXE d   1       5.713  -1.923   4.302  0.00  0.00    -0.002 A 
ATOM      7  C5  OXE d   1       4.482  -2.431   4.732  0.00  0.00    -0.002 A 
ATOM      8  C6  OXE d   1       3.536  -2.812   3.787  0.00  0.00     0.003 A 
ENDROOT
TORSDOF 0
ENDMDL
