MODEL 1
REMARK minimizedAffinity 8.87998676
REMARK minimizedRMSD -1
REMARK  0 active torsions:
REMARK  status: ('A' for Active; 'I' for Inactive)
ROOT
ATOM      1  C2' OXE d   1       3.418  -2.796   3.138  0.00  0.00     0.078 C 
ATOM      2  C1' OXE d   1       4.966  -1.675   5.193  0.00  0.00     0.078 C 
ATOM      3  C1  OXE d   1       4.917  -3.179   5.090  0.00  0.00    -0.078 A 
ATOM      4  C2  OXE d   1       4.120  -3.720   4.110  0.00  0.00    -0.078 A 
ATOM      5  C3  OXE d   1       4.082  -5.100   3.937  0.00  0.00     0.003 A 
ATOM      6  C4  OXE d   1       4.726  -5.947   4.847  0.00  0.00    -0.002 A 
ATOM      7  C5  OXE d   1       5.511  -5.417   5.876  0.00  0.00    -0.002 A 
ATOM      8  C6  OXE d   1       5.651  -4.038   5.986  0.00  0.00     0.003 A 
ENDROOT
TORSDOF 0
ENDMDL
