MODEL 1
REMARK minimizedAffinity 8.28358173
REMARK minimizedRMSD -1
REMARK  0 active torsions:
REMARK  status: ('A' for Active; 'I' for Inactive)
ROOT
ATOM      1  C2' OXE d   1      -4.892  -0.669  -2.148  0.00  0.00     0.078 C 
ATOM      2  C1' OXE d   1      -2.707   1.091  -2.241  0.00  0.00     0.078 C 
ATOM      3  C1  OXE d   1      -2.698   0.013  -1.185  0.00  0.00    -0.078 A 
ATOM      4  C2  OXE d   1      -3.794  -0.814  -1.117  0.00  0.00    -0.078 A 
ATOM      5  C3  OXE d   1      -3.812  -1.859  -0.198  0.00  0.00     0.003 A 
ATOM      6  C4  OXE d   1      -2.797  -1.980   0.758  0.00  0.00    -0.002 A 
ATOM      7  C5  OXE d   1      -1.691  -1.123   0.732  0.00  0.00    -0.002 A 
ATOM      8  C6  OXE d   1      -1.606  -0.150  -0.258  0.00  0.00     0.003 A 
ENDROOT
TORSDOF 0
ENDMDL
