MODEL 1
REMARK minimizedAffinity 10.096117
REMARK minimizedRMSD -1
REMARK  0 active torsions:
REMARK  status: ('A' for Active; 'I' for Inactive)
ROOT
ATOM      1  C2' OXE d   1       1.165  -0.073   1.708  0.00  0.00     0.078 C 
ATOM      2  C1' OXE d   1      -0.912  -1.960   1.611  0.00  0.00     0.078 C 
ATOM      3  C1  OXE d   1       0.478  -2.425   1.256  0.00  0.00    -0.078 A 
ATOM      4  C2  OXE d   1       1.480  -1.484   1.260  0.00  0.00    -0.078 A 
ATOM      5  C3  OXE d   1       2.790  -1.871   0.993  0.00  0.00     0.003 A 
ATOM      6  C4  OXE d   1       3.072  -3.176   0.570  0.00  0.00    -0.002 A 
ATOM      7  C5  OXE d   1       2.059  -4.140   0.520  0.00  0.00    -0.002 A 
ATOM      8  C6  OXE d   1       0.768  -3.792   0.900  0.00  0.00     0.003 A 
ENDROOT
TORSDOF 0
ENDMDL
