MODEL 1
REMARK minimizedAffinity 9.13707447
REMARK minimizedRMSD -1
REMARK  0 active torsions:
REMARK  status: ('A' for Active; 'I' for Inactive)
ROOT
ATOM      1  C2' OXE d   1      -5.959  -2.018  -4.440  0.00  0.00     0.078 C 
ATOM      2  C1' OXE d   1      -6.000   0.747  -4.924  0.00  0.00     0.078 C 
ATOM      3  C1  OXE d   1      -5.041   0.229  -3.881  0.00  0.00    -0.078 A 
ATOM      4  C2  OXE d   1      -5.061  -1.119  -3.618  0.00  0.00    -0.078 A 
ATOM      5  C3  OXE d   1      -4.158  -1.657  -2.704  0.00  0.00     0.003 A 
ATOM      6  C4  OXE d   1      -3.338  -0.817  -1.941  0.00  0.00    -0.002 A 
ATOM      7  C5  OXE d   1      -3.330   0.563  -2.165  0.00  0.00    -0.002 A 
ATOM      8  C6  OXE d   1      -4.143   1.097  -3.159  0.00  0.00     0.003 A 
ENDROOT
TORSDOF 0
ENDMDL
