MODEL 1
REMARK minimizedAffinity 8.73624706
REMARK minimizedRMSD -1
REMARK  0 active torsions:
REMARK  status: ('A' for Active; 'I' for Inactive)
ROOT
ATOM      1  C2' OXE d   1       2.542  -5.372  -0.457  0.00  0.00     0.078 C 
ATOM      2  C1' OXE d   1       4.282  -3.329   0.367  0.00  0.00     0.078 C 
ATOM      3  C1  OXE d   1       2.799  -3.067   0.452  0.00  0.00    -0.078 A 
ATOM      4  C2  OXE d   1       1.956  -4.055   0.003  0.00  0.00    -0.078 A 
ATOM      5  C3  OXE d   1       0.578  -3.887   0.111  0.00  0.00     0.003 A 
ATOM      6  C4  OXE d   1       0.044  -2.662   0.528  0.00  0.00    -0.002 A 
ATOM      7  C5  OXE d   1       0.885  -1.628   0.952  0.00  0.00    -0.002 A 
ATOM      8  C6  OXE d   1       2.261  -1.830   0.961  0.00  0.00     0.003 A 
ENDROOT
TORSDOF 0
ENDMDL
