MODEL 1
REMARK minimizedAffinity 7.67511988
REMARK minimizedRMSD -1
REMARK  0 active torsions:
REMARK  status: ('A' for Active; 'I' for Inactive)
ROOT
ATOM      1  C2' OXE d   1      -0.988  -2.156   1.939  0.00  0.00     0.078 C 
ATOM      2  C1' OXE d   1       1.347  -0.952   0.948  0.00  0.00     0.078 C 
ATOM      3  C1  OXE d   1       1.162  -2.430   0.710  0.00  0.00    -0.078 A 
ATOM      4  C2  OXE d   1       0.039  -3.020   1.239  0.00  0.00    -0.078 A 
ATOM      5  C3  OXE d   1      -0.207  -4.369   1.001  0.00  0.00     0.003 A 
ATOM      6  C4  OXE d   1       0.752  -5.163   0.362  0.00  0.00    -0.002 A 
ATOM      7  C5  OXE d   1       1.921  -4.590  -0.150  0.00  0.00    -0.002 A 
ATOM      8  C6  OXE d   1       2.121  -3.220  -0.022  0.00  0.00     0.003 A 
ENDROOT
TORSDOF 0
ENDMDL
