MODEL 1
REMARK minimizedAffinity -3.95334363
REMARK minimizedRMSD -1
REMARK  1 active torsions:
REMARK  status: ('A' for Active; 'I' for Inactive)
REMARK    1  A    between atoms: C1_2  and  C2_3 
ROOT
ATOM      1  C2  UNL d   1      -0.328  -0.449  -0.532  0.00  0.00    -0.081 A 
ATOM      2  C3  UNL d   1      -0.278  -1.039  -1.801  0.00  0.00     0.006 A 
ATOM      3  C4  UNL d   1      -1.394  -1.006  -2.641  0.00  0.00     0.002 A 
ATOM      4  C5  UNL d   1      -2.573  -0.377  -2.230  0.00  0.00    -0.080 A 
ATOM      5  C6  UNL d   1      -3.768  -0.308  -3.134  0.00  0.00     0.076 C 
ATOM      6  C7  UNL d   1      -2.629   0.198  -0.956  0.00  0.00     0.002 A 
ATOM      7  C8  UNL d   1      -1.514   0.165  -0.115  0.00  0.00     0.006 A 
ENDROOT
BRANCH   1   8
ATOM      8  C1  UNL d   1       0.894  -0.426   0.351  0.00  0.00     0.054 C 
ATOM      9  C   UNL d   1       1.676   0.869   0.180  0.00  0.00     0.018 C 
ENDBRANCH   1   8
TORSDOF 1
ENDMDL
