MODEL 1
REMARK minimizedAffinity -5.90733051
REMARK minimizedRMSD -1
REMARK  1 active torsions:
REMARK  status: ('A' for Active; 'I' for Inactive)
REMARK    1  A    between atoms: C1_2  and  C2_3 
ROOT
ATOM      1  C2  UNL d   1      -0.805  -0.349   0.195  0.00  0.00    -0.081 A 
ATOM      2  C3  UNL d   1       0.210   0.602   0.031  0.00  0.00     0.006 A 
ATOM      3  C4  UNL d   1       1.508   0.335   0.470  0.00  0.00     0.002 A 
ATOM      4  C5  UNL d   1       1.816  -0.890   1.074  0.00  0.00    -0.080 A 
ATOM      5  C6  UNL d   1       3.213  -1.201   1.523  0.00  0.00     0.076 C 
ATOM      6  C7  UNL d   1       0.798  -1.833   1.254  0.00  0.00     0.002 A 
ATOM      7  C8  UNL d   1      -0.500  -1.566   0.815  0.00  0.00     0.006 A 
ENDROOT
BRANCH   1   8
ATOM      8  C1  UNL d   1      -2.192  -0.090  -0.337  0.00  0.00     0.054 C 
ATOM      9  C   UNL d   1      -2.174   0.136  -1.842  0.00  0.00     0.018 C 
ENDBRANCH   1   8
TORSDOF 1
ENDMDL
