MODEL 1
REMARK minimizedAffinity -4.88633776
REMARK minimizedRMSD -1
REMARK  1 active torsions:
REMARK  status: ('A' for Active; 'I' for Inactive)
REMARK    1  A    between atoms: C1_2  and  C2_3 
ROOT
ATOM      1  C2  UNL d   1      -0.245   0.367  -0.153  0.00  0.00    -0.081 A 
ATOM      2  C3  UNL d   1      -0.286  -0.942   0.344  0.00  0.00     0.006 A 
ATOM      3  C4  UNL d   1       0.768  -1.440   1.114  0.00  0.00     0.002 A 
ATOM      4  C5  UNL d   1       1.875  -0.636   1.407  0.00  0.00    -0.080 A 
ATOM      5  C6  UNL d   1       2.999  -1.148   2.258  0.00  0.00     0.076 C 
ATOM      6  C7  UNL d   1       1.923   0.665   0.895  0.00  0.00     0.002 A 
ATOM      7  C8  UNL d   1       0.871   1.164   0.125  0.00  0.00     0.006 A 
ENDROOT
BRANCH   1   8
ATOM      8  C1  UNL d   1      -1.409   0.928  -0.929  0.00  0.00     0.054 C 
ATOM      9  C   UNL d   1      -2.461  -0.139  -1.198  0.00  0.00     0.018 C 
ENDBRANCH   1   8
TORSDOF 1
ENDMDL
