MODEL 1
REMARK minimizedAffinity -3.07878184
REMARK minimizedRMSD -1
REMARK  1 active torsions:
REMARK  status: ('A' for Active; 'I' for Inactive)
REMARK    1  A    between atoms: C1_2  and  C2_3 
ROOT
ATOM      1  C2  UNL d   1      -0.861   0.143  -0.393  0.00  0.00    -0.081 A 
ATOM      2  C3  UNL d   1      -0.254   1.388  -0.183  0.00  0.00     0.006 A 
ATOM      3  C4  UNL d   1       0.953   1.478   0.514  0.00  0.00     0.002 A 
ATOM      4  C5  UNL d   1       1.577   0.327   1.005  0.00  0.00    -0.080 A 
ATOM      5  C6  UNL d   1       2.889   0.407   1.728  0.00  0.00     0.076 C 
ATOM      6  C7  UNL d   1       0.962  -0.915   0.810  0.00  0.00     0.002 A 
ATOM      7  C8  UNL d   1      -0.245  -1.006   0.114  0.00  0.00     0.006 A 
ENDROOT
BRANCH   1   8
ATOM      8  C1  UNL d   1      -2.129   0.036  -1.200  0.00  0.00     0.054 C 
ATOM      9  C   UNL d   1      -2.004  -1.020  -2.290  0.00  0.00     0.018 C 
ENDBRANCH   1   8
TORSDOF 1
ENDMDL
