MODEL 1
REMARK minimizedAffinity -3.12254667
REMARK minimizedRMSD -1
REMARK  1 active torsions:
REMARK  status: ('A' for Active; 'I' for Inactive)
REMARK    1  A    between atoms: C1_2  and  C2_3 
ROOT
ATOM      1  C2  UNL d   1      -1.286   0.172  -0.193  0.00  0.00    -0.081 A 
ATOM      2  C3  UNL d   1      -0.709   1.448  -0.173  0.00  0.00     0.006 A 
ATOM      3  C4  UNL d   1       0.604   1.623   0.270  0.00  0.00     0.002 A 
ATOM      4  C5  UNL d   1       1.363   0.527   0.693  0.00  0.00    -0.080 A 
ATOM      5  C6  UNL d   1       2.784   0.698   1.143  0.00  0.00     0.076 C 
ATOM      6  C7  UNL d   1       0.780  -0.745   0.690  0.00  0.00     0.002 A 
ATOM      7  C8  UNL d   1      -0.532  -0.921   0.247  0.00  0.00     0.006 A 
ENDROOT
BRANCH   1   8
ATOM      8  C1  UNL d   1      -2.680  -0.030  -0.731  0.00  0.00     0.054 C 
ATOM      9  C   UNL d   1      -2.681  -0.097  -2.252  0.00  0.00     0.018 C 
ENDBRANCH   1   8
TORSDOF 1
ENDMDL
