MODEL 1
REMARK minimizedAffinity 10.916357
REMARK minimizedRMSD -1
REMARK  0 active torsions:
REMARK  status: ('A' for Active; 'I' for Inactive)
ROOT
ATOM      1  C1  DEN d   1      -2.426   0.193  -5.615  0.00  0.00     0.130 A 
ATOM      2  C2  DEN d   1      -0.975   0.326  -5.519  0.00  0.00    -0.031 A 
ATOM      3  C3  DEN d   1      -0.386  -1.025  -5.603  0.00  0.00     0.027 A 
ATOM      4  C4  DEN d   1      -1.573  -3.298  -5.876  0.00  0.00     0.027 A 
ATOM      5  C5  DEN d   1      -2.798  -3.919  -5.991  0.00  0.00    -0.003 A 
ATOM      6  C6  DEN d   1      -3.976  -3.221  -5.954  0.00  0.00     0.001 A 
ATOM      7  C7  DEN d   1      -3.953  -1.856  -5.844  0.00  0.00     0.017 A 
ATOM      8  C8  DEN d   1      -2.722  -1.224  -5.721  0.00  0.00    -0.094 A 
ATOM      9  C9  DEN d   1      -1.542  -1.946  -5.773  0.00  0.00    -0.072 A 
ENDROOT
TORSDOF 0
ENDMDL
