MODEL 1
REMARK minimizedAffinity 0.955728948
REMARK minimizedRMSD -1
REMARK  0 active torsions:
REMARK  status: ('A' for Active; 'I' for Inactive)
ROOT
ATOM      1  C1  DEN d   1       5.552  -5.376   2.298  0.00  0.00     0.130 A 
ATOM      2  C2  DEN d   1       5.990  -5.700   3.653  0.00  0.00    -0.031 A 
ATOM      3  C3  DEN d   1       4.791  -5.999   4.461  0.00  0.00     0.027 A 
ATOM      4  C4  DEN d   1       2.312  -5.998   3.749  0.00  0.00     0.027 A 
ATOM      5  C5  DEN d   1       1.445  -5.776   2.702  0.00  0.00    -0.003 A 
ATOM      6  C6  DEN d   1       1.880  -5.374   1.466  0.00  0.00     0.001 A 
ATOM      7  C7  DEN d   1       3.222  -5.227   1.234  0.00  0.00     0.017 A 
ATOM      8  C8  DEN d   1       4.102  -5.443   2.286  0.00  0.00    -0.094 A 
ATOM      9  C9  DEN d   1       3.643  -5.860   3.525  0.00  0.00    -0.072 A 
ENDROOT
TORSDOF 0
ENDMDL
