MODEL 1
REMARK minimizedAffinity 7.81936073
REMARK minimizedRMSD -1
REMARK  0 active torsions:
REMARK  status: ('A' for Active; 'I' for Inactive)
ROOT
ATOM      1  C1  DEN d   1      -4.232   1.386   1.105  0.00  0.00     0.130 A 
ATOM      2  C2  DEN d   1      -4.286   0.091   0.433  0.00  0.00    -0.031 A 
ATOM      3  C3  DEN d   1      -2.982  -0.576   0.622  0.00  0.00     0.027 A 
ATOM      4  C4  DEN d   1      -0.897   0.266   1.887  0.00  0.00     0.027 A 
ATOM      5  C5  DEN d   1      -0.370   1.313   2.610  0.00  0.00    -0.003 A 
ATOM      6  C6  DEN d   1      -1.075   2.462   2.852  0.00  0.00     0.001 A 
ATOM      7  C7  DEN d   1      -2.365   2.573   2.404  0.00  0.00     0.017 A 
ATOM      8  C8  DEN d   1      -2.901   1.525   1.668  0.00  0.00    -0.094 A 
ATOM      9  C9  DEN d   1      -2.176   0.367   1.444  0.00  0.00    -0.072 A 
ENDROOT
TORSDOF 0
ENDMDL
