MODEL 1
REMARK minimizedAffinity 7.63977575
REMARK minimizedRMSD -1
REMARK  0 active torsions:
REMARK  status: ('A' for Active; 'I' for Inactive)
ROOT
ATOM      1  C1  DEN d   1      -3.822  -4.010  -6.000  0.00  0.00     0.130 A 
ATOM      2  C2  DEN d   1      -5.203  -3.537  -5.967  0.00  0.00    -0.031 A 
ATOM      3  C3  DEN d   1      -5.180  -2.060  -5.952  0.00  0.00     0.027 A 
ATOM      4  C4  DEN d   1      -3.149  -0.470  -5.980  0.00  0.00     0.027 A 
ATOM      5  C5  DEN d   1      -1.773  -0.406  -5.996  0.00  0.00    -0.003 A 
ATOM      6  C6  DEN d   1      -0.990  -1.529  -5.980  0.00  0.00     0.001 A 
ATOM      7  C7  DEN d   1      -1.578  -2.767  -5.993  0.00  0.00     0.017 A 
ATOM      8  C8  DEN d   1      -2.964  -2.839  -5.969  0.00  0.00    -0.094 A 
ATOM      9  C9  DEN d   1      -3.739  -1.692  -5.998  0.00  0.00    -0.072 A 
ENDROOT
TORSDOF 0
ENDMDL
