MODEL 1
REMARK minimizedAffinity 4.6490798
REMARK minimizedRMSD -1
REMARK  0 active torsions:
REMARK  status: ('A' for Active; 'I' for Inactive)
ROOT
ATOM      1  C1  DEN d   1      -5.251  -1.735  -5.962  0.00  0.00     0.130 A 
ATOM      2  C2  DEN d   1      -4.679  -0.393  -5.901  0.00  0.00    -0.031 A 
ATOM      3  C3  DEN d   1      -3.208  -0.524  -5.885  0.00  0.00     0.027 A 
ATOM      4  C4  DEN d   1      -1.769  -2.664  -5.952  0.00  0.00     0.027 A 
ATOM      5  C5  DEN d   1      -1.806  -4.040  -5.995  0.00  0.00    -0.003 A 
ATOM      6  C6  DEN d   1      -2.983  -4.740  -5.996  0.00  0.00     0.001 A 
ATOM      7  C7  DEN d   1      -4.174  -4.064  -5.998  0.00  0.00     0.017 A 
ATOM      8  C8  DEN d   1      -4.146  -2.676  -5.947  0.00  0.00    -0.094 A 
ATOM      9  C9  DEN d   1      -2.945  -1.987  -5.960  0.00  0.00    -0.072 A 
ENDROOT
TORSDOF 0
ENDMDL
