MODEL 1
REMARK minimizedAffinity 6.34220982
REMARK minimizedRMSD -1
REMARK  0 active torsions:
REMARK  status: ('A' for Active; 'I' for Inactive)
ROOT
ATOM      1  C1  DEN d   1      -5.135  -1.701  -5.933  0.00  0.00     0.130 A 
ATOM      2  C2  DEN d   1      -5.783  -3.010  -5.966  0.00  0.00    -0.031 A 
ATOM      3  C3  DEN d   1      -4.726  -4.041  -6.000  0.00  0.00     0.027 A 
ATOM      4  C4  DEN d   1      -2.164  -3.741  -6.000  0.00  0.00     0.027 A 
ATOM      5  C5  DEN d   1      -1.143  -2.817  -5.990  0.00  0.00    -0.003 A 
ATOM      6  C6  DEN d   1      -1.378  -1.468  -5.995  0.00  0.00     0.001 A 
ATOM      7  C7  DEN d   1      -2.666  -1.003  -5.965  0.00  0.00     0.017 A 
ATOM      8  C8  DEN d   1      -3.702  -1.928  -5.981  0.00  0.00    -0.094 A 
ATOM      9  C9  DEN d   1      -3.443  -3.288  -5.964  0.00  0.00    -0.072 A 
ENDROOT
TORSDOF 0
ENDMDL
