MODEL 1
REMARK minimizedAffinity -1.5239923
REMARK minimizedRMSD -1
REMARK  0 active torsions:
REMARK  status: ('A' for Active; 'I' for Inactive)
ROOT
ATOM      1  C1  DEN d   1      -4.554   2.236   1.380  0.00  0.00     0.130 A 
ATOM      2  C2  DEN d   1      -5.297   3.459   1.669  0.00  0.00    -0.031 A 
ATOM      3  C3  DEN d   1      -5.998   3.274   2.956  0.00  0.00     0.027 A 
ATOM      4  C4  DEN d   1      -5.999   1.225   4.523  0.00  0.00     0.027 A 
ATOM      5  C5  DEN d   1      -5.525  -0.056   4.695  0.00  0.00    -0.003 A 
ATOM      6  C6  DEN d   1      -4.728  -0.671   3.766  0.00  0.00     0.001 A 
ATOM      7  C7  DEN d   1      -4.344   0.012   2.643  0.00  0.00     0.017 A 
ATOM      8  C8  DEN d   1      -4.824   1.302   2.458  0.00  0.00    -0.094 A 
ATOM      9  C9  DEN d   1      -5.619   1.911   3.415  0.00  0.00    -0.072 A 
ENDROOT
TORSDOF 0
ENDMDL
