MODEL 1
REMARK minimizedAffinity 7.81062937
REMARK minimizedRMSD -1
REMARK  0 active torsions:
REMARK  status: ('A' for Active; 'I' for Inactive)
ROOT
ATOM      1  C1  DEN d   1      -2.376  -0.142   2.450  0.00  0.00     0.130 A 
ATOM      2  C2  DEN d   1      -2.740   0.932   1.531  0.00  0.00    -0.031 A 
ATOM      3  C3  DEN d   1      -3.781   1.755   2.178  0.00  0.00     0.027 A 
ATOM      4  C4  DEN d   1      -4.855   1.474   4.506  0.00  0.00     0.027 A 
ATOM      5  C5  DEN d   1      -4.879   0.702   5.646  0.00  0.00    -0.003 A 
ATOM      6  C6  DEN d   1      -4.101  -0.417   5.786  0.00  0.00     0.001 A 
ATOM      7  C7  DEN d   1      -3.232  -0.769   4.787  0.00  0.00     0.017 A 
ATOM      8  C8  DEN d   1      -3.209   0.001   3.631  0.00  0.00    -0.094 A 
ATOM      9  C9  DEN d   1      -3.994   1.135   3.514  0.00  0.00    -0.072 A 
ENDROOT
TORSDOF 0
ENDMDL
