MODEL 1
REMARK minimizedAffinity 7.82592583
REMARK minimizedRMSD -1
REMARK  0 active torsions:
REMARK  status: ('A' for Active; 'I' for Inactive)
ROOT
ATOM      1  C1  DEN d   1       5.729  -2.305   2.875  0.00  0.00     0.130 A 
ATOM      2  C2  DEN d   1       5.689  -1.161   3.782  0.00  0.00    -0.031 A 
ATOM      3  C3  DEN d   1       5.764  -1.673   5.165  0.00  0.00     0.027 A 
ATOM      4  C4  DEN d   1       5.943  -4.112   5.985  0.00  0.00     0.027 A 
ATOM      5  C5  DEN d   1       5.999  -5.429   5.586  0.00  0.00    -0.003 A 
ATOM      6  C6  DEN d   1       5.935  -5.796   4.268  0.00  0.00     0.001 A 
ATOM      7  C7  DEN d   1       5.857  -4.832   3.298  0.00  0.00     0.017 A 
ATOM      8  C8  DEN d   1       5.793  -3.502   3.693  0.00  0.00    -0.094 A 
ATOM      9  C9  DEN d   1       5.871  -3.151   5.030  0.00  0.00    -0.072 A 
ENDROOT
TORSDOF 0
ENDMDL
