MODEL 1
REMARK minimizedAffinity 7.73838997
REMARK minimizedRMSD -1
REMARK  0 active torsions:
REMARK  status: ('A' for Active; 'I' for Inactive)
ROOT
ATOM      1  C1  DEN d   1       4.184   3.535  -4.272  0.00  0.00     0.130 A 
ATOM      2  C2  DEN d   1       4.482   3.178  -5.656  0.00  0.00    -0.031 A 
ATOM      3  C3  DEN d   1       3.990   1.805  -5.890  0.00  0.00     0.027 A 
ATOM      4  C4  DEN d   1       2.798   0.208  -4.252  0.00  0.00     0.027 A 
ATOM      5  C5  DEN d   1       2.335   0.062  -2.963  0.00  0.00    -0.003 A 
ATOM      6  C6  DEN d   1       2.486   1.042  -2.018  0.00  0.00     0.001 A 
ATOM      7  C7  DEN d   1       3.074   2.231  -2.361  0.00  0.00     0.017 A 
ATOM      8  C8  DEN d   1       3.550   2.383  -3.657  0.00  0.00    -0.094 A 
ATOM      9  C9  DEN d   1       3.377   1.385  -4.601  0.00  0.00    -0.072 A 
ENDROOT
TORSDOF 0
ENDMDL
