MODEL 1
REMARK minimizedAffinity 10.6353817
REMARK minimizedRMSD -1
REMARK  0 active torsions:
REMARK  status: ('A' for Active; 'I' for Inactive)
ROOT
ATOM      1  C1  DEN d   1      -2.094   0.001   2.666  0.00  0.00     0.130 A 
ATOM      2  C2  DEN d   1      -2.942   0.888   1.875  0.00  0.00    -0.031 A 
ATOM      3  C3  DEN d   1      -4.186   1.127   2.634  0.00  0.00     0.027 A 
ATOM      4  C4  DEN d   1      -4.875   0.219   4.948  0.00  0.00     0.027 A 
ATOM      5  C5  DEN d   1      -4.489  -0.582   6.000  0.00  0.00    -0.003 A 
ATOM      6  C6  DEN d   1      -3.302  -1.265   6.000  0.00  0.00     0.001 A 
ATOM      7  C7  DEN d   1      -2.438  -1.126   4.946  0.00  0.00     0.017 A 
ATOM      8  C8  DEN d   1      -2.824  -0.326   3.878  0.00  0.00    -0.094 A 
ATOM      9  C9  DEN d   1      -4.023   0.366   3.902  0.00  0.00    -0.072 A 
ENDROOT
TORSDOF 0
ENDMDL
