MODEL 1
REMARK minimizedAffinity 0.994036019
REMARK minimizedRMSD -1
REMARK  0 active torsions:
REMARK  status: ('A' for Active; 'I' for Inactive)
ROOT
ATOM      1  C1  DEN d   1      -1.844  -3.104  -5.948  0.00  0.00     0.130 A 
ATOM      2  C2  DEN d   1      -1.398  -1.714  -5.975  0.00  0.00    -0.031 A 
ATOM      3  C3  DEN d   1      -2.596  -0.851  -6.000  0.00  0.00     0.027 A 
ATOM      4  C4  DEN d   1      -5.085  -1.528  -5.993  0.00  0.00     0.027 A 
ATOM      5  C5  DEN d   1      -5.958  -2.594  -5.986  0.00  0.00    -0.003 A 
ATOM      6  C6  DEN d   1      -5.525  -3.893  -6.000  0.00  0.00     0.001 A 
ATOM      7  C7  DEN d   1      -4.182  -4.161  -5.976  0.00  0.00     0.017 A 
ATOM      8  C8  DEN d   1      -3.295  -3.092  -5.991  0.00  0.00    -0.094 A 
ATOM      9  C9  DEN d   1      -3.753  -1.786  -5.964  0.00  0.00    -0.072 A 
ENDROOT
TORSDOF 0
ENDMDL
