MODEL 1
REMARK minimizedAffinity -2.39791441
REMARK minimizedRMSD -1
REMARK  0 active torsions:
REMARK  status: ('A' for Active; 'I' for Inactive)
ROOT
ATOM      1  C1  DEN d   1      -4.467  -4.520  -6.000  0.00  0.00     0.130 A 
ATOM      2  C2  DEN d   1      -5.883  -4.162  -5.956  0.00  0.00    -0.031 A 
ATOM      3  C3  DEN d   1      -5.980  -2.689  -5.926  0.00  0.00     0.027 A 
ATOM      4  C4  DEN d   1      -4.088  -0.936  -5.948  0.00  0.00     0.027 A 
ATOM      5  C5  DEN d   1      -2.722  -0.760  -5.969  0.00  0.00    -0.003 A 
ATOM      6  C6  DEN d   1      -1.849  -1.815  -5.968  0.00  0.00     0.001 A 
ATOM      7  C7  DEN d   1      -2.333  -3.096  -5.991  0.00  0.00     0.017 A 
ATOM      8  C8  DEN d   1      -3.709  -3.283  -5.962  0.00  0.00    -0.094 A 
ATOM      9  C9  DEN d   1      -4.575  -2.203  -5.975  0.00  0.00    -0.072 A 
ENDROOT
TORSDOF 0
ENDMDL
