MODEL 1
REMARK minimizedAffinity 12.505476
REMARK minimizedRMSD -1
REMARK  0 active torsions:
REMARK  status: ('A' for Active; 'I' for Inactive)
ROOT
ATOM      1  C1  DEN d   1       4.700  -4.824   1.890  0.00  0.00     0.130 A 
ATOM      2  C2  DEN d   1       5.412  -5.432   3.011  0.00  0.00    -0.031 A 
ATOM      3  C3  DEN d   1       4.409  -6.000   3.934  0.00  0.00     0.027 A 
ATOM      4  C4  DEN d   1       1.837  -6.000   3.736  0.00  0.00     0.027 A 
ATOM      5  C5  DEN d   1       0.771  -5.593   2.965  0.00  0.00    -0.003 A 
ATOM      6  C6  DEN d   1       0.937  -4.877   1.809  0.00  0.00     0.001 A 
ATOM      7  C7  DEN d   1       2.200  -4.586   1.366  0.00  0.00     0.017 A 
ATOM      8  C8  DEN d   1       3.280  -4.986   2.142  0.00  0.00    -0.094 A 
ATOM      9  C9  DEN d   1       3.092  -5.719   3.301  0.00  0.00    -0.072 A 
ENDROOT
TORSDOF 0
ENDMDL
