MODEL 1
REMARK minimizedAffinity 4.72812843
REMARK minimizedRMSD -1
REMARK  0 active torsions:
REMARK  status: ('A' for Active; 'I' for Inactive)
ROOT
ATOM      1  C1  DEN d   1      -2.763  -1.435  -5.929  0.00  0.00     0.130 A 
ATOM      2  C2  DEN d   1      -3.877  -0.490  -5.960  0.00  0.00    -0.031 A 
ATOM      3  C3  DEN d   1      -5.133  -1.266  -5.994  0.00  0.00     0.027 A 
ATOM      4  C4  DEN d   1      -5.459  -3.825  -5.998  0.00  0.00     0.027 A 
ATOM      5  C5  DEN d   1      -4.810  -5.039  -5.991  0.00  0.00    -0.003 A 
ATOM      6  C6  DEN d   1      -3.444  -5.137  -5.998  0.00  0.00     0.001 A 
ATOM      7  C7  DEN d   1      -2.682  -3.999  -5.966  0.00  0.00     0.017 A 
ATOM      8  C8  DEN d   1      -3.329  -2.770  -5.980  0.00  0.00    -0.094 A 
ATOM      9  C9  DEN d   1      -4.712  -2.693  -5.961  0.00  0.00    -0.072 A 
ENDROOT
TORSDOF 0
ENDMDL
