MODEL 1
REMARK minimizedAffinity 12.3601761
REMARK minimizedRMSD -1
REMARK  1 active torsions:
REMARK  status: ('A' for Active; 'I' for Inactive)
REMARK    1  A    between atoms: C1_2  and  C2_3 
ROOT
ATOM      1  C2  UNL d   1      -3.425  -0.569  -0.797  0.00  0.00    -0.077 A 
ATOM      2  C3  UNL d   1      -4.596  -0.937  -1.475  0.00  0.00     0.002 A 
ATOM      3  C4  UNL d   1      -5.837  -0.455  -1.054  0.00  0.00     0.002 A 
ATOM      4  C5  UNL d   1      -5.918   0.399   0.043  0.00  0.00    -0.004 A 
ATOM      5  C6  UNL d   1      -4.760   0.769   0.726  0.00  0.00     0.002 A 
ATOM      6  C7  UNL d   1      -3.519   0.288   0.307  0.00  0.00     0.002 A 
ENDROOT
BRANCH   1   7
ATOM      7  C1  UNL d   1      -2.081  -1.048  -1.279  0.00  0.00     0.055 C 
ATOM      8  C   UNL d   1      -0.994  -0.021  -0.998  0.00  0.00     0.019 C 
ENDBRANCH   1   7
TORSDOF 1
ENDMDL
