MODEL 1
REMARK minimizedAffinity 10.1537066
REMARK minimizedRMSD -1
REMARK  1 active torsions:
REMARK  status: ('A' for Active; 'I' for Inactive)
REMARK    1  A    between atoms: C1_2  and  C2_3 
ROOT
ATOM      1  C2  UNL d   1      -4.762  -0.977   0.375  0.00  0.00    -0.077 A 
ATOM      2  C3  UNL d   1      -4.515   0.396   0.242  0.00  0.00     0.002 A 
ATOM      3  C4  UNL d   1      -3.345   0.957   0.759  0.00  0.00     0.002 A 
ATOM      4  C5  UNL d   1      -2.413   0.151   1.408  0.00  0.00    -0.004 A 
ATOM      5  C6  UNL d   1      -2.650  -1.216   1.547  0.00  0.00     0.002 A 
ATOM      6  C7  UNL d   1      -3.819  -1.778   1.032  0.00  0.00     0.002 A 
ENDROOT
BRANCH   1   7
ATOM      7  C1  UNL d   1      -6.000  -1.592  -0.225  0.00  0.00     0.055 C 
ATOM      8  C   UNL d   1      -6.000  -1.468  -1.742  0.00  0.00     0.019 C 
ENDBRANCH   1   7
TORSDOF 1
ENDMDL
