MODEL 1
REMARK minimizedAffinity -0.727776468
REMARK minimizedRMSD -1
REMARK  1 active torsions:
REMARK  status: ('A' for Active; 'I' for Inactive)
REMARK    1  A    between atoms: C1_2  and  C2_3 
ROOT
ATOM      1  C2  UNL d   1       1.621  -3.795   5.999  0.00  0.00    -0.077 A 
ATOM      2  C3  UNL d   1       0.463  -4.584   5.999  0.00  0.00     0.002 A 
ATOM      3  C4  UNL d   1      -0.799  -3.986   5.998  0.00  0.00     0.002 A 
ATOM      4  C5  UNL d   1      -0.914  -2.598   5.994  0.00  0.00    -0.004 A 
ATOM      5  C6  UNL d   1       0.232  -1.804   5.996  0.00  0.00     0.002 A 
ATOM      6  C7  UNL d   1       1.494  -2.400   5.998  0.00  0.00     0.002 A 
ENDROOT
BRANCH   1   7
ATOM      7  C1  UNL d   1       2.983  -4.437   5.950  0.00  0.00     0.055 C 
ATOM      8  C   UNL d   1       2.879  -5.955   5.947  0.00  0.00     0.019 C 
ENDBRANCH   1   7
TORSDOF 1
ENDMDL
