MODEL 1
REMARK minimizedAffinity 5.75585079
REMARK minimizedRMSD -1
REMARK  1 active torsions:
REMARK  status: ('A' for Active; 'I' for Inactive)
REMARK    1  A    between atoms: C1_2  and  C2_3 
ROOT
ATOM      1  C2  UNL d   1       0.992  -2.941   5.950  0.00  0.00    -0.077 A 
ATOM      2  C3  UNL d   1       2.082  -3.823   5.972  0.00  0.00     0.002 A 
ATOM      3  C4  UNL d   1       1.872  -5.203   5.998  0.00  0.00     0.002 A 
ATOM      4  C5  UNL d   1       0.575  -5.713   5.998  0.00  0.00    -0.004 A 
ATOM      5  C6  UNL d   1      -0.515  -4.843   5.977  0.00  0.00     0.002 A 
ATOM      6  C7  UNL d   1      -0.307  -3.464   5.953  0.00  0.00     0.002 A 
ENDROOT
BRANCH   1   7
ATOM      7  C1  UNL d   1       1.217  -1.453   5.873  0.00  0.00     0.055 C 
ATOM      8  C   UNL d   1       1.434  -1.000   4.436  0.00  0.00     0.019 C 
ENDBRANCH   1   7
TORSDOF 1
ENDMDL
