MODEL 1
REMARK minimizedAffinity 3.20173025
REMARK minimizedRMSD -1
REMARK  1 active torsions:
REMARK  status: ('A' for Active; 'I' for Inactive)
REMARK    1  A    between atoms: C1_2  and  C2_3 
ROOT
ATOM      1  C2  UNL d   1       0.259  -1.699   5.998  0.00  0.00    -0.077 A 
ATOM      2  C3  UNL d   1       1.508  -2.335   5.999  0.00  0.00     0.002 A 
ATOM      3  C4  UNL d   1       1.591  -3.729   5.986  0.00  0.00     0.002 A 
ATOM      4  C5  UNL d   1       0.429  -4.497   5.966  0.00  0.00    -0.004 A 
ATOM      5  C6  UNL d   1      -0.819  -3.874   5.967  0.00  0.00     0.002 A 
ATOM      6  C7  UNL d   1      -0.903  -2.481   5.981  0.00  0.00     0.002 A 
ENDROOT
BRANCH   1   7
ATOM      7  C1  UNL d   1       0.168  -0.195   5.963  0.00  0.00     0.055 C 
ATOM      8  C   UNL d   1       1.549   0.444   5.986  0.00  0.00     0.019 C 
ENDBRANCH   1   7
TORSDOF 1
ENDMDL
