MODEL 1
REMARK minimizedAffinity 17.1322498
REMARK minimizedRMSD -1
REMARK  1 active torsions:
REMARK  status: ('A' for Active; 'I' for Inactive)
REMARK    1  A    between atoms: C1_2  and  C2_3 
ROOT
ATOM      1  C2  UNL d   1      -1.466   3.646   0.615  0.00  0.00    -0.076 A 
ATOM      2  C3  UNL d   1      -2.288   4.757   0.873  0.00  0.00     0.004 A 
ATOM      3  C4  UNL d   1      -3.490   4.934   0.192  0.00  0.00    -0.003 A 
ATOM      4  C5  UNL d   1      -3.892   4.002  -0.759  0.00  0.00     0.000 A 
ATOM      5  C6  UNL d   1      -3.098   2.885  -1.015  0.00  0.00     0.000 A 
ATOM      6  C7  UNL d   1      -1.891   2.683  -0.325  0.00  0.00    -0.073 A 
ATOM      7  C8  UNL d   1      -1.071   1.463  -0.646  0.00  0.00     0.078 C 
ENDROOT
BRANCH   1   8
ATOM      8  C1  UNL d   1      -0.160   3.521   1.366  0.00  0.00     0.053 C 
ATOM      9  C   UNL d   1       0.845   4.592   0.969  0.00  0.00     0.018 C 
ENDBRANCH   1   8
TORSDOF 1
ENDMDL
