MODEL 1
REMARK minimizedAffinity 18.7588673
REMARK minimizedRMSD -1
REMARK  1 active torsions:
REMARK  status: ('A' for Active; 'I' for Inactive)
REMARK    1  A    between atoms: C1_2  and  C2_3 
ROOT
ATOM      1  C2  UNL d   1      -1.941  -2.727   1.885  0.00  0.00    -0.076 A 
ATOM      2  C3  UNL d   1      -3.050  -2.265   1.156  0.00  0.00     0.004 A 
ATOM      3  C4  UNL d   1      -3.059  -2.302  -0.237  0.00  0.00    -0.003 A 
ATOM      4  C5  UNL d   1      -1.958  -2.802  -0.924  0.00  0.00     0.000 A 
ATOM      5  C6  UNL d   1      -0.856  -3.282  -0.216  0.00  0.00     0.000 A 
ATOM      6  C7  UNL d   1      -0.838  -3.267   1.189  0.00  0.00    -0.073 A 
ATOM      7  C8  UNL d   1       0.379  -3.791   1.901  0.00  0.00     0.078 C 
ENDROOT
BRANCH   1   8
ATOM      8  C1  UNL d   1      -1.978  -2.637   3.394  0.00  0.00     0.053 C 
ATOM      9  C   UNL d   1      -2.083  -1.203   3.890  0.00  0.00     0.018 C 
ENDBRANCH   1   8
TORSDOF 1
ENDMDL
