MODEL 1
REMARK minimizedAffinity 14.4325695
REMARK minimizedRMSD -1
REMARK  1 active torsions:
REMARK  status: ('A' for Active; 'I' for Inactive)
REMARK    1  A    between atoms: C1_2  and  C2_3 
ROOT
ATOM      1  C2  UNL d   1      -3.576   1.163   4.838  0.00  0.00    -0.076 A 
ATOM      2  C3  UNL d   1      -4.521   0.474   5.618  0.00  0.00     0.004 A 
ATOM      3  C4  UNL d   1      -5.718   1.079   5.996  0.00  0.00    -0.003 A 
ATOM      4  C5  UNL d   1      -5.991   2.383   5.598  0.00  0.00     0.000 A 
ATOM      5  C6  UNL d   1      -5.074   3.076   4.809  0.00  0.00     0.000 A 
ATOM      6  C7  UNL d   1      -3.869   2.474   4.406  0.00  0.00    -0.073 A 
ATOM      7  C8  UNL d   1      -2.913   3.270   3.560  0.00  0.00     0.078 C 
ENDROOT
BRANCH   1   8
ATOM      8  C1  UNL d   1      -2.283   0.465   4.482  0.00  0.00     0.053 C 
ATOM      9  C   UNL d   1      -2.060  -0.800   5.296  0.00  0.00     0.018 C 
ENDBRANCH   1   8
TORSDOF 1
ENDMDL
