MODEL 1
REMARK minimizedAffinity 25.7101135
REMARK minimizedRMSD -1
REMARK  1 active torsions:
REMARK  status: ('A' for Active; 'I' for Inactive)
REMARK    1  A    between atoms: C1_2  and  C2_3 
ROOT
ATOM      1  C2  UNL d   1      -3.954  -1.148   5.221  0.00  0.00    -0.076 A 
ATOM      2  C3  UNL d   1      -3.152  -0.005   5.057  0.00  0.00     0.004 A 
ATOM      3  C4  UNL d   1      -1.771  -0.066   5.233  0.00  0.00    -0.003 A 
ATOM      4  C5  UNL d   1      -1.168  -1.272   5.575  0.00  0.00     0.000 A 
ATOM      5  C6  UNL d   1      -1.946  -2.420   5.725  0.00  0.00     0.000 A 
ATOM      6  C7  UNL d   1      -3.338  -2.379   5.535  0.00  0.00    -0.073 A 
ATOM      7  C8  UNL d   1      -4.129  -3.645   5.716  0.00  0.00     0.078 C 
ENDROOT
BRANCH   1   8
ATOM      8  C1  UNL d   1      -5.450  -1.015   5.045  0.00  0.00     0.053 C 
ATOM      9  C   UNL d   1      -5.999   0.260   5.666  0.00  0.00     0.018 C 
ENDBRANCH   1   8
TORSDOF 1
ENDMDL
