MODEL 1
REMARK minimizedAffinity 5.64794445
REMARK minimizedRMSD -1
REMARK  1 active torsions:
REMARK  status: ('A' for Active; 'I' for Inactive)
REMARK    1  A    between atoms: C1_2  and  C2_3 
ROOT
ATOM      1  C2  UNL d   1       4.865  -2.808  -4.619  0.00  0.00    -0.076 A 
ATOM      2  C3  UNL d   1       4.839  -1.565  -3.963  0.00  0.00     0.004 A 
ATOM      3  C4  UNL d   1       5.375  -1.416  -2.685  0.00  0.00    -0.003 A 
ATOM      4  C5  UNL d   1       5.947  -2.508  -2.042  0.00  0.00     0.000 A 
ATOM      5  C6  UNL d   1       5.997  -3.745  -2.684  0.00  0.00     0.000 A 
ATOM      6  C7  UNL d   1       5.476  -3.908  -3.979  0.00  0.00    -0.073 A 
ATOM      7  C8  UNL d   1       5.552  -5.266  -4.622  0.00  0.00     0.078 C 
ENDROOT
BRANCH   1   8
ATOM      8  C1  UNL d   1       4.244  -2.915  -5.993  0.00  0.00     0.053 C 
ATOM      9  C   UNL d   1       2.989  -3.774  -6.000  0.00  0.00     0.018 C 
ENDBRANCH   1   8
TORSDOF 1
ENDMDL
