MODEL 1
REMARK minimizedAffinity 15.6525478
REMARK minimizedRMSD -1
REMARK  1 active torsions:
REMARK  status: ('A' for Active; 'I' for Inactive)
REMARK    1  A    between atoms: C1_2  and  C2_3 
ROOT
ATOM      1  C2  UNL d   1      -2.324  -0.977   2.636  0.00  0.00    -0.076 A 
ATOM      2  C3  UNL d   1      -2.744  -2.040   3.454  0.00  0.00     0.004 A 
ATOM      3  C4  UNL d   1      -2.875  -1.877   4.832  0.00  0.00    -0.003 A 
ATOM      4  C5  UNL d   1      -2.589  -0.647   5.414  0.00  0.00     0.000 A 
ATOM      5  C6  UNL d   1      -2.189   0.424   4.616  0.00  0.00     0.000 A 
ATOM      6  C7  UNL d   1      -2.067   0.281   3.223  0.00  0.00    -0.073 A 
ATOM      7  C8  UNL d   1      -1.625   1.467   2.411  0.00  0.00     0.078 C 
ENDROOT
BRANCH   1   8
ATOM      8  C1  UNL d   1      -2.174  -1.221   1.151  0.00  0.00     0.053 C 
ATOM      9  C   UNL d   1      -3.473  -1.008   0.391  0.00  0.00     0.018 C 
ENDBRANCH   1   8
TORSDOF 1
ENDMDL
