MODEL 1
REMARK minimizedAffinity 8.39181519
REMARK minimizedRMSD -1
REMARK  1 active torsions:
REMARK  status: ('A' for Active; 'I' for Inactive)
REMARK    1  A    between atoms: C1_2  and  C2_3 
ROOT
ATOM      1  C2  UNL d   1       4.840  -1.030  -4.417  0.00  0.00    -0.076 A 
ATOM      2  C3  UNL d   1       4.488  -1.593  -5.656  0.00  0.00     0.004 A 
ATOM      3  C4  UNL d   1       4.893  -2.882  -6.000  0.00  0.00    -0.003 A 
ATOM      4  C5  UNL d   1       5.657  -3.629  -5.109  0.00  0.00     0.000 A 
ATOM      5  C6  UNL d   1       6.000  -3.093  -3.868  0.00  0.00     0.000 A 
ATOM      6  C7  UNL d   1       5.585  -1.801  -3.500  0.00  0.00    -0.073 A 
ATOM      7  C8  UNL d   1       5.989  -1.271  -2.152  0.00  0.00     0.078 C 
ENDROOT
BRANCH   1   8
ATOM      8  C1  UNL d   1       4.394   0.382  -4.111  0.00  0.00     0.053 C 
ATOM      9  C   UNL d   1       4.743   1.357  -5.225  0.00  0.00     0.018 C 
ENDBRANCH   1   8
TORSDOF 1
ENDMDL
