MODEL 1
REMARK minimizedAffinity 13.7716856
REMARK minimizedRMSD -1
REMARK  1 active torsions:
REMARK  status: ('A' for Active; 'I' for Inactive)
REMARK    1  A    between atoms: C1_2  and  C2_3 
ROOT
ATOM      1  C2  UNL d   1       4.786  -2.149   5.239  0.00  0.00    -0.076 A 
ATOM      2  C3  UNL d   1       5.979  -2.893   5.270  0.00  0.00     0.004 A 
ATOM      3  C4  UNL d   1       5.978  -4.235   5.647  0.00  0.00    -0.003 A 
ATOM      4  C5  UNL d   1       4.785  -4.855   5.999  0.00  0.00     0.000 A 
ATOM      5  C6  UNL d   1       3.590  -4.137   5.957  0.00  0.00     0.000 A 
ATOM      6  C7  UNL d   1       3.571  -2.788   5.563  0.00  0.00    -0.073 A 
ATOM      7  C8  UNL d   1       2.254  -2.061   5.542  0.00  0.00     0.078 C 
ENDROOT
BRANCH   1   8
ATOM      8  C1  UNL d   1       4.853  -0.690   4.848  0.00  0.00     0.053 C 
ATOM      9  C   UNL d   1       4.555  -0.468   3.374  0.00  0.00     0.018 C 
ENDBRANCH   1   8
TORSDOF 1
ENDMDL
