MODEL 1
REMARK minimizedAffinity 10.6927681
REMARK minimizedRMSD -1
REMARK  1 active torsions:
REMARK  status: ('A' for Active; 'I' for Inactive)
REMARK    1  A    between atoms: C1_2  and  C2_3 
ROOT
ATOM      1  C2  UNL d   1      -2.447  -1.262   4.530  0.00  0.00    -0.076 A 
ATOM      2  C3  UNL d   1      -2.218   0.063   4.121  0.00  0.00     0.004 A 
ATOM      3  C4  UNL d   1      -2.975   1.114   4.636  0.00  0.00    -0.003 A 
ATOM      4  C5  UNL d   1      -3.973   0.857   5.569  0.00  0.00     0.000 A 
ATOM      5  C6  UNL d   1      -4.202  -0.449   6.000  0.00  0.00     0.000 A 
ATOM      6  C7  UNL d   1      -3.437  -1.518   5.503  0.00  0.00    -0.073 A 
ATOM      7  C8  UNL d   1      -3.731  -2.908   5.998  0.00  0.00     0.078 C 
ENDROOT
BRANCH   1   8
ATOM      8  C1  UNL d   1      -1.613  -2.364   3.917  0.00  0.00     0.053 C 
ATOM      9  C   UNL d   1      -1.996  -2.650   2.473  0.00  0.00     0.018 C 
ENDBRANCH   1   8
TORSDOF 1
ENDMDL
