MODEL 1
REMARK minimizedAffinity 15.3826513
REMARK minimizedRMSD -1
REMARK  1 active torsions:
REMARK  status: ('A' for Active; 'I' for Inactive)
REMARK    1  A    between atoms: C1_2  and  C2_3 
ROOT
ATOM      1  C2  UNL d   1       4.700  -3.073   5.568  0.00  0.00    -0.076 A 
ATOM      2  C3  UNL d   1       3.623  -3.883   5.166  0.00  0.00     0.004 A 
ATOM      3  C4  UNL d   1       2.395  -3.323   4.819  0.00  0.00    -0.003 A 
ATOM      4  C5  UNL d   1       2.223  -1.944   4.867  0.00  0.00     0.000 A 
ATOM      5  C6  UNL d   1       3.285  -1.124   5.246  0.00  0.00     0.000 A 
ATOM      6  C7  UNL d   1       4.535  -1.671   5.583  0.00  0.00    -0.073 A 
ATOM      7  C8  UNL d   1       5.645  -0.741   5.990  0.00  0.00     0.078 C 
ENDROOT
BRANCH   1   8
ATOM      8  C1  UNL d   1       6.000  -3.738   5.959  0.00  0.00     0.053 C 
ATOM      9  C   UNL d   1       5.890  -5.254   5.999  0.00  0.00     0.018 C 
ENDBRANCH   1   8
TORSDOF 1
ENDMDL
