MODEL 1
REMARK minimizedAffinity 2.55399227
REMARK minimizedRMSD -1
REMARK  1 active torsions:
REMARK  status: ('A' for Active; 'I' for Inactive)
REMARK    1  A    between atoms: C1_2  and  C2_3 
ROOT
ATOM      1  C2  UNL d   1       3.859   4.972  -3.854  0.00  0.00    -0.076 A 
ATOM      2  C3  UNL d   1       3.736   3.980  -4.843  0.00  0.00     0.004 A 
ATOM      3  C4  UNL d   1       4.734   3.025  -5.028  0.00  0.00    -0.003 A 
ATOM      4  C5  UNL d   1       5.870   3.045  -4.226  0.00  0.00     0.000 A 
ATOM      5  C6  UNL d   1       6.000   4.011  -3.228  0.00  0.00     0.000 A 
ATOM      6  C7  UNL d   1       4.996   4.971  -3.018  0.00  0.00    -0.073 A 
ATOM      7  C8  UNL d   1       5.191   5.993  -1.932  0.00  0.00     0.078 C 
ENDROOT
BRANCH   1   8
ATOM      8  C1  UNL d   1       2.757   5.999  -3.718  0.00  0.00     0.053 C 
ATOM      9  C   UNL d   1       1.719   5.605  -2.679  0.00  0.00     0.018 C 
ENDBRANCH   1   8
TORSDOF 1
ENDMDL
