MODEL 1
REMARK minimizedAffinity 4.86004591
REMARK minimizedRMSD -1
REMARK  1 active torsions:
REMARK  status: ('A' for Active; 'I' for Inactive)
REMARK    1  A    between atoms: C1_2  and  C2_3 
ROOT
ATOM      1  C2  UNL d   1       4.751   4.493  -3.120  0.00  0.00    -0.076 A 
ATOM      2  C3  UNL d   1       3.559   4.279  -3.832  0.00  0.00     0.004 A 
ATOM      3  C4  UNL d   1       2.374   4.908  -3.453  0.00  0.00    -0.003 A 
ATOM      4  C5  UNL d   1       2.363   5.762  -2.356  0.00  0.00     0.000 A 
ATOM      5  C6  UNL d   1       3.541   6.000  -1.649  0.00  0.00     0.000 A 
ATOM      6  C7  UNL d   1       4.747   5.387  -2.027  0.00  0.00    -0.073 A 
ATOM      7  C8  UNL d   1       5.986   5.675  -1.225  0.00  0.00     0.078 C 
ENDROOT
BRANCH   1   8
ATOM      8  C1  UNL d   1       6.000   3.763  -3.561  0.00  0.00     0.053 C 
ATOM      9  C   UNL d   1       5.794   2.983  -4.850  0.00  0.00     0.018 C 
ENDBRANCH   1   8
TORSDOF 1
ENDMDL
