MODEL 1
REMARK minimizedAffinity 6.78543234
REMARK minimizedRMSD -1
REMARK  1 active torsions:
REMARK  status: ('A' for Active; 'I' for Inactive)
REMARK    1  A    between atoms: C1_2  and  C2_3 
ROOT
ATOM      1  C2  UNL d   1      -1.973   5.157   2.890  0.00  0.00    -0.076 A 
ATOM      2  C3  UNL d   1      -2.561   4.890   4.138  0.00  0.00     0.004 A 
ATOM      3  C4  UNL d   1      -3.903   5.181   4.377  0.00  0.00    -0.003 A 
ATOM      4  C5  UNL d   1      -4.679   5.744   3.370  0.00  0.00     0.000 A 
ATOM      5  C6  UNL d   1      -4.117   5.999   2.120  0.00  0.00     0.000 A 
ATOM      6  C7  UNL d   1      -2.770   5.697   1.858  0.00  0.00    -0.073 A 
ATOM      7  C8  UNL d   1      -2.214   5.999   0.493  0.00  0.00     0.078 C 
ENDROOT
BRANCH   1   8
ATOM      8  C1  UNL d   1      -0.506   4.845   2.698  0.00  0.00     0.053 C 
ATOM      9  C   UNL d   1      -0.273   3.750   1.669  0.00  0.00     0.018 C 
ENDBRANCH   1   8
TORSDOF 1
ENDMDL
