MODEL 1
REMARK minimizedAffinity -3.23367667
REMARK minimizedRMSD -1
REMARK  1 active torsions:
REMARK  status: ('A' for Active; 'I' for Inactive)
REMARK    1  A    between atoms: C1_2  and  C2_3 
ROOT
ATOM      1  C2  UNL d   1       1.049  -1.124  -0.679  0.00  0.00    -0.077 A 
ATOM      2  C3  UNL d   1       0.975  -1.486   0.673  0.00  0.00     0.002 A 
ATOM      3  C4  UNL d   1       0.089  -0.832   1.532  0.00  0.00     0.002 A 
ATOM      4  C5  UNL d   1      -0.731   0.184   1.047  0.00  0.00    -0.004 A 
ATOM      5  C6  UNL d   1      -0.663   0.553  -0.296  0.00  0.00     0.002 A 
ATOM      6  C7  UNL d   1       0.222  -0.098  -1.155  0.00  0.00     0.002 A 
ENDROOT
BRANCH   1   7
ATOM      7  C1  UNL d   1       1.969  -1.861  -1.617  0.00  0.00     0.055 C 
ATOM      8  C   UNL d   1       2.208  -1.069  -2.894  0.00  0.00     0.019 C 
ENDBRANCH   1   7
TORSDOF 1
ENDMDL
