MODEL 1
REMARK minimizedAffinity -3.57559323
REMARK minimizedRMSD -1
REMARK  1 active torsions:
REMARK  status: ('A' for Active; 'I' for Inactive)
REMARK    1  A    between atoms: C1_2  and  C2_3 
ROOT
ATOM      1  C2  UNL d   1      -0.201  -0.379   0.031  0.00  0.00    -0.077 A 
ATOM      2  C3  UNL d   1       0.312  -0.224  -1.265  0.00  0.00     0.002 A 
ATOM      3  C4  UNL d   1       1.547  -0.779  -1.606  0.00  0.00     0.002 A 
ATOM      4  C5  UNL d   1       2.277  -1.494  -0.659  0.00  0.00    -0.004 A 
ATOM      5  C6  UNL d   1       1.776  -1.652   0.632  0.00  0.00     0.002 A 
ATOM      6  C7  UNL d   1       0.542  -1.098   0.976  0.00  0.00     0.002 A 
ENDROOT
BRANCH   1   7
ATOM      7  C1  UNL d   1      -1.556   0.176   0.386  0.00  0.00     0.055 C 
ATOM      8  C   UNL d   1      -1.608   0.618   1.842  0.00  0.00     0.019 C 
ENDBRANCH   1   7
TORSDOF 1
ENDMDL
