MODEL 1
REMARK minimizedAffinity -2.05787992
REMARK minimizedRMSD -1
REMARK  1 active torsions:
REMARK  status: ('A' for Active; 'I' for Inactive)
REMARK    1  A    between atoms: C1_2  and  C2_3 
ROOT
ATOM      1  C2  UNL d   1      -0.475  -0.203  -0.130  0.00  0.00    -0.077 A 
ATOM      2  C3  UNL d   1       0.665   0.372  -0.708  0.00  0.00     0.002 A 
ATOM      3  C4  UNL d   1       1.763  -0.422  -1.047  0.00  0.00     0.002 A 
ATOM      4  C5  UNL d   1       1.729  -1.795  -0.814  0.00  0.00    -0.004 A 
ATOM      5  C6  UNL d   1       0.600  -2.376  -0.237  0.00  0.00     0.002 A 
ATOM      6  C7  UNL d   1      -0.497  -1.584   0.102  0.00  0.00     0.002 A 
ENDROOT
BRANCH   1   7
ATOM      7  C1  UNL d   1      -1.679   0.645   0.190  0.00  0.00     0.055 C 
ATOM      8  C   UNL d   1      -1.970   0.651   1.684  0.00  0.00     0.019 C 
ENDBRANCH   1   7
TORSDOF 1
ENDMDL
