MODEL 1
REMARK minimizedAffinity 0.907599449
REMARK minimizedRMSD -1
REMARK  1 active torsions:
REMARK  status: ('A' for Active; 'I' for Inactive)
REMARK    1  A    between atoms: C1_2  and  C2_3 
ROOT
ATOM      1  C2  UNL d   1      -0.010  -0.407   1.504  0.00  0.00    -0.077 A 
ATOM      2  C3  UNL d   1      -0.606  -0.414   0.235  0.00  0.00     0.002 A 
ATOM      3  C4  UNL d   1      -0.320  -1.434  -0.675  0.00  0.00     0.002 A 
ATOM      4  C5  UNL d   1       0.559  -2.456  -0.323  0.00  0.00    -0.004 A 
ATOM      5  C6  UNL d   1       1.159  -2.457   0.936  0.00  0.00     0.002 A 
ATOM      6  C7  UNL d   1       0.874  -1.438   1.845  0.00  0.00     0.002 A 
ENDROOT
BRANCH   1   7
ATOM      7  C1  UNL d   1      -0.356   0.665   2.504  0.00  0.00     0.055 C 
ATOM      8  C   UNL d   1      -1.424   0.190   3.478  0.00  0.00     0.019 C 
ENDBRANCH   1   7
TORSDOF 1
ENDMDL
