MODEL 1
REMARK minimizedAffinity -1.62216318
REMARK minimizedRMSD -1
REMARK  1 active torsions:
REMARK  status: ('A' for Active; 'I' for Inactive)
REMARK    1  A    between atoms: C1_2  and  C2_3 
ROOT
ATOM      1  C2  UNL d   1      -0.790  -0.195   0.252  0.00  0.00    -0.077 A 
ATOM      2  C3  UNL d   1      -0.966  -1.285  -0.611  0.00  0.00     0.002 A 
ATOM      3  C4  UNL d   1       0.115  -2.104  -0.944  0.00  0.00     0.002 A 
ATOM      4  C5  UNL d   1       1.377  -1.844  -0.414  0.00  0.00    -0.004 A 
ATOM      5  C6  UNL d   1       1.563  -0.761   0.444  0.00  0.00     0.002 A 
ATOM      6  C7  UNL d   1       0.484   0.060   0.776  0.00  0.00     0.002 A 
ENDROOT
BRANCH   1   7
ATOM      7  C1  UNL d   1      -1.964   0.661   0.650  0.00  0.00     0.055 C 
ATOM      8  C   UNL d   1      -2.300   0.488   2.125  0.00  0.00     0.019 C 
ENDBRANCH   1   7
TORSDOF 1
ENDMDL
