MODEL 1
REMARK minimizedAffinity -4.30840111
REMARK minimizedRMSD -1
REMARK  1 active torsions:
REMARK  status: ('A' for Active; 'I' for Inactive)
REMARK    1  A    between atoms: C1_2  and  C2_3 
ROOT
ATOM      1  C2  UNL d   1       1.298  -0.014  -0.730  0.00  0.00    -0.077 A 
ATOM      2  C3  UNL d   1       2.065  -0.698  -1.684  0.00  0.00     0.002 A 
ATOM      3  C4  UNL d   1       2.365  -0.100  -2.910  0.00  0.00     0.002 A 
ATOM      4  C5  UNL d   1       1.907   1.186  -3.190  0.00  0.00    -0.004 A 
ATOM      5  C6  UNL d   1       1.142   1.873  -2.248  0.00  0.00     0.002 A 
ATOM      6  C7  UNL d   1       0.840   1.276  -1.024  0.00  0.00     0.002 A 
ENDROOT
BRANCH   1   7
ATOM      7  C1  UNL d   1       1.015  -0.639   0.611  0.00  0.00     0.055 C 
ATOM      8  C   UNL d   1       0.216   0.302   1.502  0.00  0.00     0.019 C 
ENDBRANCH   1   7
TORSDOF 1
ENDMDL
