MODEL 1
REMARK minimizedAffinity -4.44335461
REMARK minimizedRMSD -1
REMARK  1 active torsions:
REMARK  status: ('A' for Active; 'I' for Inactive)
REMARK    1  A    between atoms: C1_2  and  C2_3 
ROOT
ATOM      1  C2  UNL d   1      -1.019   0.709   1.704  0.00  0.00    -0.077 A 
ATOM      2  C3  UNL d   1      -1.440   0.594   0.372  0.00  0.00     0.002 A 
ATOM      3  C4  UNL d   1      -0.823  -0.316  -0.488  0.00  0.00     0.002 A 
ATOM      4  C5  UNL d   1       0.216  -1.121  -0.024  0.00  0.00    -0.004 A 
ATOM      5  C6  UNL d   1       0.644  -1.012   1.298  0.00  0.00     0.002 A 
ATOM      6  C7  UNL d   1       0.029  -0.102   2.159  0.00  0.00     0.002 A 
ENDROOT
BRANCH   1   7
ATOM      7  C1  UNL d   1      -1.716   1.655   2.647  0.00  0.00     0.055 C 
ATOM      8  C   UNL d   1      -1.784   1.084   4.055  0.00  0.00     0.019 C 
ENDBRANCH   1   7
TORSDOF 1
ENDMDL
