MODEL 1
REMARK minimizedAffinity -4.11121845
REMARK minimizedRMSD -1
REMARK  1 active torsions:
REMARK  status: ('A' for Active; 'I' for Inactive)
REMARK    1  A    between atoms: C1_2  and  C2_3 
ROOT
ATOM      1  C2  UNL d   1       0.684   0.478  -1.480  0.00  0.00    -0.077 A 
ATOM      2  C3  UNL d   1       1.552  -0.607  -1.668  0.00  0.00     0.002 A 
ATOM      3  C4  UNL d   1       1.495  -1.712  -0.816  0.00  0.00     0.002 A 
ATOM      4  C5  UNL d   1       0.570  -1.744   0.226  0.00  0.00    -0.004 A 
ATOM      5  C6  UNL d   1      -0.296  -0.669   0.422  0.00  0.00     0.002 A 
ATOM      6  C7  UNL d   1      -0.239   0.437  -0.428  0.00  0.00     0.002 A 
ENDROOT
BRANCH   1   7
ATOM      7  C1  UNL d   1       0.711   1.649  -2.427  0.00  0.00     0.055 C 
ATOM      8  C   UNL d   1       1.509   1.328  -3.682  0.00  0.00     0.019 C 
ENDBRANCH   1   7
TORSDOF 1
ENDMDL
