MODEL 1
REMARK minimizedAffinity -3.02980995
REMARK minimizedRMSD -1
REMARK  1 active torsions:
REMARK  status: ('A' for Active; 'I' for Inactive)
REMARK    1  A    between atoms: C1_2  and  C2_3 
ROOT
ATOM      1  C2  UNL d   1      -1.823   0.394   1.615  0.00  0.00    -0.077 A 
ATOM      2  C3  UNL d   1      -0.477   0.058   1.820  0.00  0.00     0.002 A 
ATOM      3  C4  UNL d   1       0.388  -0.088   0.733  0.00  0.00     0.002 A 
ATOM      4  C5  UNL d   1      -0.082   0.103  -0.564  0.00  0.00    -0.004 A 
ATOM      5  C6  UNL d   1      -1.420   0.435  -0.779  0.00  0.00     0.002 A 
ATOM      6  C7  UNL d   1      -2.286   0.580   0.306  0.00  0.00     0.002 A 
ENDROOT
BRANCH   1   7
ATOM      7  C1  UNL d   1      -2.745   0.601   2.788  0.00  0.00     0.055 C 
ATOM      8  C   UNL d   1      -2.251   1.723   3.689  0.00  0.00     0.019 C 
ENDBRANCH   1   7
TORSDOF 1
ENDMDL
