MODEL 1
REMARK minimizedAffinity -3.17913675
REMARK minimizedRMSD -1
REMARK  1 active torsions:
REMARK  status: ('A' for Active; 'I' for Inactive)
REMARK    1  A    between atoms: C1_2  and  C2_3 
ROOT
ATOM      1  C2  UNL d   1       1.471  -0.059  -1.564  0.00  0.00    -0.077 A 
ATOM      2  C3  UNL d   1       0.263   0.352  -0.984  0.00  0.00     0.002 A 
ATOM      3  C4  UNL d   1      -0.161  -0.197   0.228  0.00  0.00     0.002 A 
ATOM      4  C5  UNL d   1       0.619  -1.155   0.872  0.00  0.00    -0.004 A 
ATOM      5  C6  UNL d   1       1.821  -1.572   0.301  0.00  0.00     0.002 A 
ATOM      6  C7  UNL d   1       2.246  -1.026  -0.911  0.00  0.00     0.002 A 
ENDROOT
BRANCH   1   7
ATOM      7  C1  UNL d   1       1.954   0.567  -2.847  0.00  0.00     0.055 C 
ATOM      8  C   UNL d   1       1.351   1.950  -3.049  0.00  0.00     0.019 C 
ENDBRANCH   1   7
TORSDOF 1
ENDMDL
