MODEL 1
REMARK minimizedAffinity -3.56181145
REMARK minimizedRMSD -1
REMARK  1 active torsions:
REMARK  status: ('A' for Active; 'I' for Inactive)
REMARK    1  A    between atoms: C3_4  and  O_7 
ROOT
ATOM      1  C   UNL d   1       0.303  -0.059  -1.373  0.00  0.00    -0.033 A 
ATOM      2  C1  UNL d   1      -0.500   1.083  -1.323  0.00  0.00     0.039 A 
ATOM      3  C2  UNL d   1      -1.147   1.432  -0.137  0.00  0.00    -0.080 A 
ATOM      4  C3  UNL d   1      -0.984   0.634   0.992  0.00  0.00     0.150 A 
ATOM      5  C4  UNL d   1      -0.183  -0.503   0.951  0.00  0.00    -0.007 A 
ATOM      6  C5  UNL d   1       0.462  -0.851  -0.235  0.00  0.00     0.039 A 
ENDROOT
BRANCH   4   7
ATOM      7  O   UNL d   1      -1.600   0.932   2.171  0.00  0.00    -0.526 OA
ATOM      8  H5  UNL d   1      -2.143   1.727   2.042  0.00  0.00     0.418 HD
ENDBRANCH   4   7
TORSDOF 1
ENDMDL
