MODEL 1
REMARK minimizedAffinity -5.89696026
REMARK minimizedRMSD -1
REMARK  1 active torsions:
REMARK  status: ('A' for Active; 'I' for Inactive)
REMARK    1  A    between atoms: C3_4  and  O_7 
ROOT
ATOM      1  C   UNL d   1       1.197  -0.742   0.457  0.00  0.00    -0.033 A 
ATOM      2  C1  UNL d   1       0.078  -0.110  -0.089  0.00  0.00     0.039 A 
ATOM      3  C2  UNL d   1      -0.675   0.773   0.687  0.00  0.00    -0.080 A 
ATOM      4  C3  UNL d   1      -0.298   1.017   2.005  0.00  0.00     0.150 A 
ATOM      5  C4  UNL d   1       0.818   0.394   2.554  0.00  0.00    -0.007 A 
ATOM      6  C5  UNL d   1       1.568  -0.488   1.778  0.00  0.00     0.039 A 
ENDROOT
BRANCH   4   7
ATOM      7  O   UNL d   1      -1.004   1.867   2.803  0.00  0.00    -0.526 OA
ATOM      8  H5  UNL d   1      -1.765   2.201   2.299  0.00  0.00     0.418 HD
ENDBRANCH   4   7
TORSDOF 1
ENDMDL
