MODEL 1
REMARK minimizedAffinity -4.79990673
REMARK minimizedRMSD -1
REMARK  1 active torsions:
REMARK  status: ('A' for Active; 'I' for Inactive)
REMARK    1  A    between atoms: C3_4  and  O_7 
ROOT
ATOM      1  C   UNL d   1      -1.511   0.615   1.671  0.00  0.00    -0.033 A 
ATOM      2  C1  UNL d   1      -0.250   0.813   2.237  0.00  0.00     0.039 A 
ATOM      3  C2  UNL d   1       0.892   0.762   1.436  0.00  0.00    -0.080 A 
ATOM      4  C3  UNL d   1       0.761   0.515   0.073  0.00  0.00     0.150 A 
ATOM      5  C4  UNL d   1      -0.493   0.321  -0.499  0.00  0.00    -0.007 A 
ATOM      6  C5  UNL d   1      -1.632   0.371   0.303  0.00  0.00     0.039 A 
ENDROOT
BRANCH   4   7
ATOM      7  O   UNL d   1       1.847   0.452  -0.748  0.00  0.00    -0.526 OA
ATOM      8  H5  UNL d   1       2.647   0.577  -0.210  0.00  0.00     0.418 HD
ENDBRANCH   4   7
TORSDOF 1
ENDMDL
