MODEL 1
REMARK minimizedAffinity -5.03493404
REMARK minimizedRMSD -1
REMARK  1 active torsions:
REMARK  status: ('A' for Active; 'I' for Inactive)
REMARK    1  A    between atoms: C3_4  and  O_7 
ROOT
ATOM      1  C   UNL d   1      -0.871   0.363  -0.753  0.00  0.00    -0.033 A 
ATOM      2  C1  UNL d   1       0.194   0.246   0.142  0.00  0.00     0.039 A 
ATOM      3  C2  UNL d   1       0.078   0.751   1.438  0.00  0.00    -0.080 A 
ATOM      4  C3  UNL d   1      -1.108   1.369   1.828  0.00  0.00     0.150 A 
ATOM      5  C4  UNL d   1      -2.174   1.485   0.943  0.00  0.00    -0.007 A 
ATOM      6  C5  UNL d   1      -2.056   0.981  -0.352  0.00  0.00     0.039 A 
ENDROOT
BRANCH   4   7
ATOM      7  O   UNL d   1      -1.266   1.881   3.081  0.00  0.00    -0.526 OA
ATOM      8  H5  UNL d   1      -0.438   1.754   3.572  0.00  0.00     0.418 HD
ENDBRANCH   4   7
TORSDOF 1
ENDMDL
