MODEL 1
REMARK minimizedAffinity -5.30576134
REMARK minimizedRMSD -1
REMARK  1 active torsions:
REMARK  status: ('A' for Active; 'I' for Inactive)
REMARK    1  A    between atoms: C3_4  and  O_7 
ROOT
ATOM      1  C   UNL d   1      -0.915   0.970   2.973  0.00  0.00    -0.033 A 
ATOM      2  C1  UNL d   1      -1.880   0.622   2.026  0.00  0.00     0.039 A 
ATOM      3  C2  UNL d   1      -1.497   0.291   0.725  0.00  0.00    -0.080 A 
ATOM      4  C3  UNL d   1      -0.148   0.312   0.383  0.00  0.00     0.150 A 
ATOM      5  C4  UNL d   1       0.820   0.654   1.322  0.00  0.00    -0.007 A 
ATOM      6  C5  UNL d   1       0.436   0.984   2.621  0.00  0.00     0.039 A 
ENDROOT
BRANCH   4   7
ATOM      7  O   UNL d   1       0.273   0.001  -0.875  0.00  0.00    -0.526 OA
ATOM      8  H5  UNL d   1      -0.507  -0.187  -1.424  0.00  0.00     0.418 HD
ENDBRANCH   4   7
TORSDOF 1
ENDMDL
