MODEL 1
REMARK minimizedAffinity -3.41374111
REMARK minimizedRMSD -1
REMARK  1 active torsions:
REMARK  status: ('A' for Active; 'I' for Inactive)
REMARK    1  A    between atoms: C3_4  and  O_7 
ROOT
ATOM      1  C   UNL d   1      -0.427  -1.065  -0.495  0.00  0.00    -0.033 A 
ATOM      2  C1  UNL d   1       0.707  -0.835   0.287  0.00  0.00     0.039 A 
ATOM      3  C2  UNL d   1       0.589  -0.175   1.512  0.00  0.00    -0.080 A 
ATOM      4  C3  UNL d   1      -0.665   0.248   1.943  0.00  0.00     0.150 A 
ATOM      5  C4  UNL d   1      -1.799   0.019   1.170  0.00  0.00    -0.007 A 
ATOM      6  C5  UNL d   1      -1.679  -0.639  -0.053  0.00  0.00     0.039 A 
ENDROOT
BRANCH   4   7
ATOM      7  O   UNL d   1      -0.829   0.901   3.129  0.00  0.00    -0.526 OA
ATOM      8  H5  UNL d   1       0.044   1.014   3.540  0.00  0.00     0.418 HD
ENDBRANCH   4   7
TORSDOF 1
ENDMDL
