MODEL 1
REMARK minimizedAffinity -3.00753474
REMARK minimizedRMSD -1
REMARK  1 active torsions:
REMARK  status: ('A' for Active; 'I' for Inactive)
REMARK    1  A    between atoms: C3_4  and  O_7 
ROOT
ATOM      1  C   UNL d   1      -1.221  -0.099   0.446  0.00  0.00    -0.033 A 
ATOM      2  C1  UNL d   1      -0.576  -1.242  -0.030  0.00  0.00     0.039 A 
ATOM      3  C2  UNL d   1       0.319  -1.147  -1.098  0.00  0.00    -0.080 A 
ATOM      4  C3  UNL d   1       0.561   0.095  -1.678  0.00  0.00     0.150 A 
ATOM      5  C4  UNL d   1      -0.076   1.239  -1.206  0.00  0.00    -0.007 A 
ATOM      6  C5  UNL d   1      -0.970   1.141  -0.141  0.00  0.00     0.039 A 
ENDROOT
BRANCH   4   7
ATOM      7  O   UNL d   1       1.422   0.237  -2.725  0.00  0.00    -0.526 OA
ATOM      8  H5  UNL d   1       1.766  -0.640  -2.962  0.00  0.00     0.418 HD
ENDBRANCH   4   7
TORSDOF 1
ENDMDL
