MODEL 1
REMARK minimizedAffinity -1.74591982
REMARK minimizedRMSD -1
REMARK  1 active torsions:
REMARK  status: ('A' for Active; 'I' for Inactive)
REMARK    1  A    between atoms: C3_4  and  O_7 
ROOT
ATOM      1  C   UNL d   1      -1.455   0.178   0.706  0.00  0.00    -0.033 A 
ATOM      2  C1  UNL d   1      -1.323   0.278   2.093  0.00  0.00     0.039 A 
ATOM      3  C2  UNL d   1      -0.165  -0.186   2.721  0.00  0.00    -0.080 A 
ATOM      4  C3  UNL d   1       0.852  -0.746   1.953  0.00  0.00     0.150 A 
ATOM      5  C4  UNL d   1       0.729  -0.845   0.571  0.00  0.00    -0.007 A 
ATOM      6  C5  UNL d   1      -0.428  -0.382  -0.055  0.00  0.00     0.039 A 
ENDROOT
BRANCH   4   7
ATOM      7  O   UNL d   1       1.998  -1.216   2.522  0.00  0.00    -0.526 OA
ATOM      8  H5  UNL d   1       1.930  -1.108   3.485  0.00  0.00     0.418 HD
ENDBRANCH   4   7
TORSDOF 1
ENDMDL
