MODEL 1
REMARK minimizedAffinity -0.51216948
REMARK minimizedRMSD -1
REMARK  2 active torsions:
REMARK  status: ('A' for Active; 'I' for Inactive)
REMARK    1  A    between atoms: C2'_3  and  C1'_4 
REMARK    2  A    between atoms: C1'_4  and  C1_5 
ROOT
ATOM      1  C1  I4B d   1      -1.087   2.261  -1.177  0.00  0.00    -0.075 A 
ATOM      2  C2  I4B d   1      -2.121   1.413  -0.870  0.00  0.00     0.003 A 
ATOM      3  C3  I4B d   1      -3.107   1.111  -1.841  0.00  0.00     0.002 A 
ATOM      4  C4  I4B d   1      -3.048   1.715  -3.080  0.00  0.00    -0.004 A 
ATOM      5  C5  I4B d   1      -1.985   2.557  -3.397  0.00  0.00     0.002 A 
ATOM      6  C6  I4B d   1      -0.992   2.822  -2.444  0.00  0.00     0.003 A 
ENDROOT
BRANCH   1   7
ATOM      7  C1' I4B d   1      -0.081   2.583  -0.117  0.00  0.00     0.060 C 
BRANCH   7   8
ATOM      8  C2' I4B d   1       0.263   4.055  -0.233  0.00  0.00    -0.013 C 
ATOM      9  C4' I4B d   1       0.860   4.371  -1.578  0.00  0.00     0.013 C 
ATOM     10  C3' I4B d   1      -0.991   4.843   0.002  0.00  0.00     0.013 C 
ENDBRANCH   7   8
ENDBRANCH   1   7
TORSDOF 2
ENDMDL
