MODEL 1
REMARK minimizedAffinity 5.75343084
REMARK minimizedRMSD -1
REMARK  2 active torsions:
REMARK  status: ('A' for Active; 'I' for Inactive)
REMARK    1  A    between atoms: C2'_3  and  C1'_4 
REMARK    2  A    between atoms: C1'_4  and  C1_5 
ROOT
ATOM      1  C1  I4B d   1      -0.265   2.140   0.555  0.00  0.00    -0.075 A 
ATOM      2  C2  I4B d   1      -1.525   1.780   0.962  0.00  0.00     0.003 A 
ATOM      3  C3  I4B d   1      -1.868   1.814   2.335  0.00  0.00     0.002 A 
ATOM      4  C4  I4B d   1      -0.911   2.164   3.266  0.00  0.00    -0.004 A 
ATOM      5  C5  I4B d   1       0.359   2.551   2.850  0.00  0.00     0.002 A 
ATOM      6  C6  I4B d   1       0.681   2.551   1.485  0.00  0.00     0.003 A 
ENDROOT
BRANCH   1   7
ATOM      7  C1' I4B d   1       0.073   2.061  -0.900  0.00  0.00     0.060 C 
BRANCH   7   8
ATOM      8  C2' I4B d   1      -0.230   3.408  -1.524  0.00  0.00    -0.013 C 
ATOM      9  C4' I4B d   1       1.013   4.033  -2.101  0.00  0.00     0.013 C 
ATOM     10  C3' I4B d   1      -1.274   3.204  -2.581  0.00  0.00     0.013 C 
ENDBRANCH   7   8
ENDBRANCH   1   7
TORSDOF 2
ENDMDL
