MODEL 1
REMARK minimizedAffinity 2.99789691
REMARK minimizedRMSD -1
REMARK  2 active torsions:
REMARK  status: ('A' for Active; 'I' for Inactive)
REMARK    1  A    between atoms: C2'_3  and  C1'_4 
REMARK    2  A    between atoms: C1'_4  and  C1_5 
ROOT
ATOM      1  C1  I4B d   1      -1.915   4.850   0.524  0.00  0.00    -0.075 A 
ATOM      2  C2  I4B d   1      -0.651   5.160   0.086  0.00  0.00     0.003 A 
ATOM      3  C3  I4B d   1       0.342   4.154   0.007  0.00  0.00     0.002 A 
ATOM      4  C4  I4B d   1       0.045   2.871   0.420  0.00  0.00    -0.004 A 
ATOM      5  C5  I4B d   1      -1.243   2.554   0.842  0.00  0.00     0.002 A 
ATOM      6  C6  I4B d   1      -2.233   3.547   0.883  0.00  0.00     0.003 A 
ENDROOT
BRANCH   1   7
ATOM      7  C1' I4B d   1      -2.930   5.944   0.626  0.00  0.00     0.060 C 
BRANCH   7   8
ATOM      8  C2' I4B d   1      -4.274   5.307   0.916  0.00  0.00    -0.013 C 
ATOM      9  C4' I4B d   1      -4.733   5.615   2.317  0.00  0.00     0.013 C 
ATOM     10  C3' I4B d   1      -5.255   5.814  -0.099  0.00  0.00     0.013 C 
ENDBRANCH   7   8
ENDBRANCH   1   7
TORSDOF 2
ENDMDL
