MODEL 1
REMARK minimizedAffinity 15.2550106
REMARK minimizedRMSD -1
REMARK  2 active torsions:
REMARK  status: ('A' for Active; 'I' for Inactive)
REMARK    1  A    between atoms: C2'_3  and  C1'_4 
REMARK    2  A    between atoms: C1'_4  and  C1_5 
ROOT
ATOM      1  C1  I4B d   1       0.174   3.430  -0.990  0.00  0.00    -0.075 A 
ATOM      2  C2  I4B d   1      -0.631   2.423  -0.519  0.00  0.00     0.003 A 
ATOM      3  C3  I4B d   1      -0.513   1.985   0.823  0.00  0.00     0.002 A 
ATOM      4  C4  I4B d   1       0.451   2.544   1.637  0.00  0.00    -0.004 A 
ATOM      5  C5  I4B d   1       1.250   3.580   1.164  0.00  0.00     0.002 A 
ATOM      6  C6  I4B d   1       1.102   4.035  -0.154  0.00  0.00     0.003 A 
ENDROOT
BRANCH   1   7
ATOM      7  C1' I4B d   1       0.045   3.845  -2.422  0.00  0.00     0.060 C 
BRANCH   7   8
ATOM      8  C2' I4B d   1      -1.372   3.545  -2.869  0.00  0.00    -0.013 C 
ATOM      9  C4' I4B d   1      -2.209   4.796  -2.902  0.00  0.00     0.013 C 
ATOM     10  C3' I4B d   1      -1.304   2.903  -4.222  0.00  0.00     0.013 C 
ENDBRANCH   7   8
ENDBRANCH   1   7
TORSDOF 2
ENDMDL
