MODEL 1
REMARK minimizedAffinity -0.831038773
REMARK minimizedRMSD -1
REMARK  2 active torsions:
REMARK  status: ('A' for Active; 'I' for Inactive)
REMARK    1  A    between atoms: C2'_3  and  C1'_4 
REMARK    2  A    between atoms: C1'_4  and  C1_5 
ROOT
ATOM      1  C1  I4B d   1       0.072   2.644   1.381  0.00  0.00    -0.075 A 
ATOM      2  C2  I4B d   1       1.031   3.436   0.801  0.00  0.00     0.003 A 
ATOM      3  C3  I4B d   1       0.871   3.890  -0.531  0.00  0.00     0.002 A 
ATOM      4  C4  I4B d   1      -0.231   3.489  -1.257  0.00  0.00    -0.004 A 
ATOM      5  C5  I4B d   1      -1.214   2.704  -0.660  0.00  0.00     0.002 A 
ATOM      6  C6  I4B d   1      -1.068   2.289   0.671  0.00  0.00     0.003 A 
ENDROOT
BRANCH   1   7
ATOM      7  C1' I4B d   1       0.289   2.155   2.778  0.00  0.00     0.060 C 
BRANCH   7   8
ATOM      8  C2' I4B d   1      -1.069   1.968   3.424  0.00  0.00    -0.013 C 
ATOM      9  C4' I4B d   1      -1.428   0.509   3.526  0.00  0.00     0.013 C 
ATOM     10  C3' I4B d   1      -1.031   2.613   4.777  0.00  0.00     0.013 C 
ENDBRANCH   7   8
ENDBRANCH   1   7
TORSDOF 2
ENDMDL
