MODEL 1
REMARK minimizedAffinity -0.576945364
REMARK minimizedRMSD -1
REMARK  2 active torsions:
REMARK  status: ('A' for Active; 'I' for Inactive)
REMARK    1  A    between atoms: C2'_3  and  C1'_4 
REMARK    2  A    between atoms: C1'_4  and  C1_5 
ROOT
ATOM      1  C1  I4B d   1      -0.391   3.205   1.237  0.00  0.00    -0.075 A 
ATOM      2  C2  I4B d   1      -0.596   2.932  -0.092  0.00  0.00     0.003 A 
ATOM      3  C3  I4B d   1       0.243   3.508  -1.076  0.00  0.00     0.002 A 
ATOM      4  C4  I4B d   1       1.237   4.386  -0.692  0.00  0.00    -0.004 A 
ATOM      5  C5  I4B d   1       1.458   4.644   0.657  0.00  0.00     0.002 A 
ATOM      6  C6  I4B d   1       0.647   4.040   1.629  0.00  0.00     0.003 A 
ENDROOT
BRANCH   1   7
ATOM      7  C1' I4B d   1      -1.318   2.606   2.247  0.00  0.00     0.060 C 
BRANCH   7   8
ATOM      8  C2' I4B d   1      -1.438   1.125   1.949  0.00  0.00    -0.013 C 
ATOM      9  C4' I4B d   1      -0.097   0.444   2.018  0.00  0.00     0.013 C 
ATOM     10  C3' I4B d   1      -2.399   0.531   2.935  0.00  0.00     0.013 C 
ENDBRANCH   7   8
ENDBRANCH   1   7
TORSDOF 2
ENDMDL
