MODEL 1
REMARK minimizedAffinity 4.75554276
REMARK minimizedRMSD -1
REMARK  2 active torsions:
REMARK  status: ('A' for Active; 'I' for Inactive)
REMARK    1  A    between atoms: C2'_3  and  C1'_4 
REMARK    2  A    between atoms: C1'_4  and  C1_5 
ROOT
ATOM      1  C1  I4B d   1      -1.395  -1.424   3.544  0.00  0.00    -0.075 A 
ATOM      2  C2  I4B d   1      -2.085  -2.464   4.115  0.00  0.00     0.003 A 
ATOM      3  C3  I4B d   1      -1.679  -3.801   3.884  0.00  0.00     0.002 A 
ATOM      4  C4  I4B d   1      -0.616  -4.053   3.041  0.00  0.00    -0.004 A 
ATOM      5  C5  I4B d   1       0.097  -2.997   2.482  0.00  0.00     0.002 A 
ATOM      6  C6  I4B d   1      -0.287  -1.673   2.744  0.00  0.00     0.003 A 
ENDROOT
BRANCH   1   7
ATOM      7  C1' I4B d   1      -1.870  -0.026   3.782  0.00  0.00     0.060 C 
BRANCH   7   8
ATOM      8  C2' I4B d   1      -1.432   0.823   2.606  0.00  0.00    -0.013 C 
ATOM      9  C4' I4B d   1      -2.617   1.301   1.808  0.00  0.00     0.013 C 
ATOM     10  C3' I4B d   1      -0.636   1.976   3.139  0.00  0.00     0.013 C 
ENDBRANCH   7   8
ENDBRANCH   1   7
TORSDOF 2
ENDMDL
