MODEL 1
REMARK minimizedAffinity 5.8472023
REMARK minimizedRMSD -1
REMARK  2 active torsions:
REMARK  status: ('A' for Active; 'I' for Inactive)
REMARK    1  A    between atoms: C2'_3  and  C1'_4 
REMARK    2  A    between atoms: C1'_4  and  C1_5 
ROOT
ATOM      1  C1  I4B d   1      -1.773  -0.318   2.756  0.00  0.00    -0.075 A 
ATOM      2  C2  I4B d   1      -2.542   0.713   2.278  0.00  0.00     0.003 A 
ATOM      3  C3  I4B d   1      -1.929   1.878   1.757  0.00  0.00     0.002 A 
ATOM      4  C4  I4B d   1      -0.554   1.990   1.779  0.00  0.00    -0.004 A 
ATOM      5  C5  I4B d   1       0.226   0.934   2.243  0.00  0.00     0.002 A 
ATOM      6  C6  I4B d   1      -0.387  -0.232   2.723  0.00  0.00     0.003 A 
ENDROOT
BRANCH   1   7
ATOM      7  C1' I4B d   1      -2.454  -1.520   3.330  0.00  0.00     0.060 C 
BRANCH   7   8
ATOM      8  C2' I4B d   1      -1.625  -2.013   4.499  0.00  0.00    -0.013 C 
ATOM      9  C4' I4B d   1      -2.456  -2.117   5.750  0.00  0.00     0.013 C 
ATOM     10  C3' I4B d   1      -1.040  -3.342   4.124  0.00  0.00     0.013 C 
ENDBRANCH   7   8
ENDBRANCH   1   7
TORSDOF 2
ENDMDL
