MODEL 1
REMARK minimizedAffinity 0.654619753
REMARK minimizedRMSD -1
REMARK  2 active torsions:
REMARK  status: ('A' for Active; 'I' for Inactive)
REMARK    1  A    between atoms: C2'_3  and  C1'_4 
REMARK    2  A    between atoms: C1'_4  and  C1_5 
ROOT
ATOM      1  C1  I4B d   1      -1.663  -0.194   3.023  0.00  0.00    -0.075 A 
ATOM      2  C2  I4B d   1      -2.752  -0.805   3.592  0.00  0.00     0.003 A 
ATOM      3  C3  I4B d   1      -2.671  -2.153   4.018  0.00  0.00     0.002 A 
ATOM      4  C4  I4B d   1      -1.505  -2.862   3.811  0.00  0.00    -0.004 A 
ATOM      5  C5  I4B d   1      -0.395  -2.234   3.254  0.00  0.00     0.002 A 
ATOM      6  C6  I4B d   1      -0.469  -0.888   2.869  0.00  0.00     0.003 A 
ENDROOT
BRANCH   1   7
ATOM      7  C1' I4B d   1      -1.793   1.221   2.555  0.00  0.00     0.060 C 
BRANCH   7   8
ATOM      8  C2' I4B d   1      -0.507   1.600   1.851  0.00  0.00    -0.013 C 
ATOM      9  C4' I4B d   1      -0.762   1.976   0.415  0.00  0.00     0.013 C 
ATOM     10  C3' I4B d   1       0.117   2.737   2.605  0.00  0.00     0.013 C 
ENDBRANCH   7   8
ENDBRANCH   1   7
TORSDOF 2
ENDMDL
