MODEL 1
REMARK minimizedAffinity 3.79835057
REMARK minimizedRMSD -1
REMARK  2 active torsions:
REMARK  status: ('A' for Active; 'I' for Inactive)
REMARK    1  A    between atoms: C2'_3  and  C1'_4 
REMARK    2  A    between atoms: C1'_4  and  C1_5 
ROOT
ATOM      1  C1  I4B d   1      -1.850   0.334   3.042  0.00  0.00    -0.075 A 
ATOM      2  C2  I4B d   1      -0.789   0.806   3.774  0.00  0.00     0.003 A 
ATOM      3  C3  I4B d   1       0.062   1.802   3.236  0.00  0.00     0.002 A 
ATOM      4  C4  I4B d   1      -0.155   2.259   1.952  0.00  0.00    -0.004 A 
ATOM      5  C5  I4B d   1      -1.244   1.796   1.220  0.00  0.00     0.002 A 
ATOM      6  C6  I4B d   1      -2.105   0.837   1.773  0.00  0.00     0.003 A 
ENDROOT
BRANCH   1   7
ATOM      7  C1' I4B d   1      -2.708  -0.742   3.628  0.00  0.00     0.060 C 
BRANCH   7   8
ATOM      8  C2' I4B d   1      -1.928  -1.404   4.745  0.00  0.00    -0.013 C 
ATOM      9  C4' I4B d   1      -2.838  -1.826   5.869  0.00  0.00     0.013 C 
ATOM     10  C3' I4B d   1      -1.200  -2.581   4.168  0.00  0.00     0.013 C 
ENDBRANCH   7   8
ENDBRANCH   1   7
TORSDOF 2
ENDMDL
