MODEL 1
REMARK minimizedAffinity 3.27736402
REMARK minimizedRMSD -1
REMARK  2 active torsions:
REMARK  status: ('A' for Active; 'I' for Inactive)
REMARK    1  A    between atoms: C2'_3  and  C1'_4 
REMARK    2  A    between atoms: C1'_4  and  C1_5 
ROOT
ATOM      1  C1  I4B d   1       0.181   2.242   0.659  0.00  0.00    -0.075 A 
ATOM      2  C2  I4B d   1       0.419   3.213   1.601  0.00  0.00     0.003 A 
ATOM      3  C3  I4B d   1       0.039   3.006   2.949  0.00  0.00     0.002 A 
ATOM      4  C4  I4B d   1      -0.617   1.844   3.300  0.00  0.00    -0.004 A 
ATOM      5  C5  I4B d   1      -0.836   0.851   2.349  0.00  0.00     0.002 A 
ATOM      6  C6  I4B d   1      -0.424   1.046   1.022  0.00  0.00     0.003 A 
ENDROOT
BRANCH   1   7
ATOM      7  C1' I4B d   1       0.566   2.507  -0.762  0.00  0.00     0.060 C 
BRANCH   7   8
ATOM      8  C2' I4B d   1      -0.560   3.285  -1.413  0.00  0.00    -0.013 C 
ATOM      9  C4' I4B d   1      -0.090   4.638  -1.878  0.00  0.00     0.013 C 
ATOM     10  C3' I4B d   1      -1.083   2.470  -2.558  0.00  0.00     0.013 C 
ENDBRANCH   7   8
ENDBRANCH   1   7
TORSDOF 2
ENDMDL
