MODEL 1
REMARK minimizedAffinity 9.45584774
REMARK minimizedRMSD -1
REMARK  0 active torsions:
REMARK  status: ('A' for Active; 'I' for Inactive)
ROOT
ATOM      1  C1  DEN d   1      -2.254  -4.517  -5.936  0.00  0.00     0.130 A 
ATOM      2  C2  DEN d   1      -2.643  -5.923  -5.997  0.00  0.00    -0.031 A 
ATOM      3  C3  DEN d   1      -4.114  -5.995  -5.887  0.00  0.00     0.027 A 
ATOM      4  C4  DEN d   1      -5.818  -4.076  -5.636  0.00  0.00     0.027 A 
ATOM      5  C5  DEN d   1      -5.963  -2.710  -5.525  0.00  0.00    -0.003 A 
ATOM      6  C6  DEN d   1      -4.888  -1.861  -5.509  0.00  0.00     0.001 A 
ATOM      7  C7  DEN d   1      -3.623  -2.365  -5.651  0.00  0.00     0.017 A 
ATOM      8  C8  DEN d   1      -3.468  -3.741  -5.756  0.00  0.00    -0.094 A 
ATOM      9  C9  DEN d   1      -4.568  -4.582  -5.782  0.00  0.00    -0.072 A 
ENDROOT
TORSDOF 0
ENDMDL
