MODEL 1
REMARK minimizedAffinity 20.564764
REMARK minimizedRMSD -1
REMARK  0 active torsions:
REMARK  status: ('A' for Active; 'I' for Inactive)
ROOT
ATOM      1  C1  DEN d   1      -1.080  -0.668   2.387  0.00  0.00     0.130 A 
ATOM      2  C2  DEN d   1      -2.047  -0.414   1.322  0.00  0.00    -0.031 A 
ATOM      3  C3  DEN d   1      -1.909   0.996   0.906  0.00  0.00     0.027 A 
ATOM      4  C4  DEN d   1      -0.296   2.800   1.798  0.00  0.00     0.027 A 
ATOM      5  C5  DEN d   1       0.704   3.061   2.709  0.00  0.00    -0.003 A 
ATOM      6  C6  DEN d   1       1.152   2.114   3.592  0.00  0.00     0.001 A 
ATOM      7  C7  DEN d   1       0.630   0.848   3.553  0.00  0.00     0.017 A 
ATOM      8  C8  DEN d   1      -0.383   0.580   2.642  0.00  0.00    -0.094 A 
ATOM      9  C9  DEN d   1      -0.814   1.547   1.750  0.00  0.00    -0.072 A 
ENDROOT
TORSDOF 0
ENDMDL
