MODEL 1
REMARK minimizedAffinity 8.73331356
REMARK minimizedRMSD -1
REMARK  0 active torsions:
REMARK  status: ('A' for Active; 'I' for Inactive)
ROOT
ATOM      1  C1  DEN d   1      -5.234  -5.449  -4.573  0.00  0.00     0.130 A 
ATOM      2  C2  DEN d   1      -4.190  -5.898  -5.490  0.00  0.00    -0.031 A 
ATOM      3  C3  DEN d   1      -3.485  -4.705  -5.999  0.00  0.00     0.027 A 
ATOM      4  C4  DEN d   1      -3.905  -2.218  -5.457  0.00  0.00     0.027 A 
ATOM      5  C5  DEN d   1      -4.691  -1.343  -4.741  0.00  0.00    -0.003 A 
ATOM      6  C6  DEN d   1      -5.727  -1.769  -3.953  0.00  0.00     0.001 A 
ATOM      7  C7  DEN d   1      -5.976  -3.110  -3.825  0.00  0.00     0.017 A 
ATOM      8  C8  DEN d   1      -5.192  -3.998  -4.549  0.00  0.00    -0.094 A 
ATOM      9  C9  DEN d   1      -4.142  -3.549  -5.331  0.00  0.00    -0.072 A 
ENDROOT
TORSDOF 0
ENDMDL
