MODEL 1
REMARK minimizedAffinity 1.33063626
REMARK minimizedRMSD -1
REMARK  0 active torsions:
REMARK  status: ('A' for Active; 'I' for Inactive)
ROOT
ATOM      1  C1  DEN d   1      -5.706  -5.903  -4.265  0.00  0.00     0.130 A 
ATOM      2  C2  DEN d   1      -5.141  -5.996  -5.609  0.00  0.00    -0.031 A 
ATOM      3  C3  DEN d   1      -4.664  -4.653  -5.997  0.00  0.00     0.027 A 
ATOM      4  C4  DEN d   1      -4.739  -2.453  -4.654  0.00  0.00     0.027 A 
ATOM      5  C5  DEN d   1      -5.135  -1.874  -3.468  0.00  0.00    -0.003 A 
ATOM      6  C6  DEN d   1      -5.775  -2.584  -2.487  0.00  0.00     0.001 A 
ATOM      7  C7  DEN d   1      -5.997  -3.926  -2.655  0.00  0.00     0.017 A 
ATOM      8  C8  DEN d   1      -5.607  -4.514  -3.851  0.00  0.00    -0.094 A 
ATOM      9  C9  DEN d   1      -4.951  -3.782  -4.826  0.00  0.00    -0.072 A 
ENDROOT
TORSDOF 0
ENDMDL
