MODEL 1
REMARK minimizedAffinity 1.11364496
REMARK minimizedRMSD -1
REMARK  0 active torsions:
REMARK  status: ('A' for Active; 'I' for Inactive)
ROOT
ATOM      1  C1  DEN d   1      -4.124  -5.252   1.791  0.00  0.00     0.130 A 
ATOM      2  C2  DEN d   1      -3.711  -6.000   0.607  0.00  0.00    -0.031 A 
ATOM      3  C3  DEN d   1      -4.142  -5.241  -0.585  0.00  0.00     0.027 A 
ATOM      4  C4  DEN d   1      -5.395  -2.991  -0.710  0.00  0.00     0.027 A 
ATOM      5  C5  DEN d   1      -5.969  -1.982   0.033  0.00  0.00    -0.003 A 
ATOM      6  C6  DEN d   1      -5.997  -2.009   1.402  0.00  0.00     0.001 A 
ATOM      7  C7  DEN d   1      -5.401  -3.045   2.073  0.00  0.00     0.017 A 
ATOM      8  C8  DEN d   1      -4.828  -4.069   1.331  0.00  0.00    -0.094 A 
ATOM      9  C9  DEN d   1      -4.799  -4.017  -0.053  0.00  0.00    -0.072 A 
ENDROOT
TORSDOF 0
ENDMDL
