MODEL 1
REMARK minimizedAffinity 3.66782832
REMARK minimizedRMSD -1
REMARK  0 active torsions:
REMARK  status: ('A' for Active; 'I' for Inactive)
ROOT
ATOM      1  C1  DEN d   1      -5.982  -2.718   1.459  0.00  0.00     0.130 A 
ATOM      2  C2  DEN d   1      -5.999  -1.780   0.340  0.00  0.00    -0.031 A 
ATOM      3  C3  DEN d   1      -5.250  -2.388  -0.777  0.00  0.00     0.027 A 
ATOM      4  C4  DEN d   1      -4.074  -4.681  -0.885  0.00  0.00     0.027 A 
ATOM      5  C5  DEN d   1      -3.777  -5.825  -0.176  0.00  0.00    -0.003 A 
ATOM      6  C6  DEN d   1      -4.161  -5.997   1.127  0.00  0.00     0.001 A 
ATOM      7  C7  DEN d   1      -4.904  -5.029   1.749  0.00  0.00     0.017 A 
ATOM      8  C8  DEN d   1      -5.202  -3.870   1.044  0.00  0.00    -0.094 A 
ATOM      9  C9  DEN d   1      -4.814  -3.720  -0.277  0.00  0.00    -0.072 A 
ENDROOT
TORSDOF 0
ENDMDL
