MODEL 1
REMARK minimizedAffinity 13.7966194
REMARK minimizedRMSD -1
REMARK  0 active torsions:
REMARK  status: ('A' for Active; 'I' for Inactive)
ROOT
ATOM      1  C1  DEN d   1       2.246   1.753  -2.773  0.00  0.00     0.130 A 
ATOM      2  C2  DEN d   1       1.373   2.104  -1.656  0.00  0.00    -0.031 A 
ATOM      3  C3  DEN d   1       1.055   3.542  -1.760  0.00  0.00     0.027 A 
ATOM      4  C4  DEN d   1       1.823   5.250  -3.534  0.00  0.00     0.027 A 
ATOM      5  C5  DEN d   1       2.582   5.423  -4.671  0.00  0.00    -0.003 A 
ATOM      6  C6  DEN d   1       3.303   4.402  -5.230  0.00  0.00     0.001 A 
ATOM      7  C7  DEN d   1       3.245   3.149  -4.680  0.00  0.00     0.017 A 
ATOM      8  C8  DEN d   1       2.488   2.968  -3.530  0.00  0.00    -0.094 A 
ATOM      9  C9  DEN d   1       1.756   4.010  -2.986  0.00  0.00    -0.072 A 
ENDROOT
TORSDOF 0
ENDMDL
