MODEL 1
REMARK minimizedAffinity 15.4886589
REMARK minimizedRMSD -1
REMARK  0 active torsions:
REMARK  status: ('A' for Active; 'I' for Inactive)
ROOT
ATOM      1  C1  DEN d   1       3.341   0.031  -3.756  0.00  0.00     0.130 A 
ATOM      2  C2  DEN d   1       3.368   1.450  -4.099  0.00  0.00    -0.031 A 
ATOM      3  C3  DEN d   1       2.261   1.713  -5.041  0.00  0.00     0.027 A 
ATOM      4  C4  DEN d   1       0.515   0.070  -5.992  0.00  0.00     0.027 A 
ATOM      5  C5  DEN d   1       0.096  -1.243  -6.000  0.00  0.00    -0.003 A 
ATOM      6  C6  DEN d   1       0.745  -2.220  -5.293  0.00  0.00     0.001 A 
ATOM      7  C7  DEN d   1       1.821  -1.893  -4.512  0.00  0.00     0.017 A 
ATOM      8  C8  DEN d   1       2.254  -0.573  -4.505  0.00  0.00    -0.094 A 
ATOM      9  C9  DEN d   1       1.578   0.403  -5.216  0.00  0.00    -0.072 A 
ENDROOT
TORSDOF 0
ENDMDL
