MODEL 1
REMARK minimizedAffinity 17.3580685
REMARK minimizedRMSD -1
REMARK  0 active torsions:
REMARK  status: ('A' for Active; 'I' for Inactive)
ROOT
ATOM      1  C1  DEN d   1       3.692   2.878  -6.000  0.00  0.00     0.130 A 
ATOM      2  C2  DEN d   1       3.710   4.128  -5.246  0.00  0.00    -0.031 A 
ATOM      3  C3  DEN d   1       3.399   3.816  -3.836  0.00  0.00     0.027 A 
ATOM      4  C4  DEN d   1       2.901   1.529  -2.753  0.00  0.00     0.027 A 
ATOM      5  C5  DEN d   1       2.761   0.180  -2.993  0.00  0.00    -0.003 A 
ATOM      6  C6  DEN d   1       2.887  -0.356  -4.248  0.00  0.00     0.001 A 
ATOM      7  C7  DEN d   1       3.206   0.457  -5.304  0.00  0.00     0.017 A 
ATOM      8  C8  DEN d   1       3.341   1.819  -5.071  0.00  0.00    -0.094 A 
ATOM      9  C9  DEN d   1       3.222   2.339  -3.793  0.00  0.00    -0.072 A 
ENDROOT
TORSDOF 0
ENDMDL
