MODEL 1
REMARK minimizedAffinity 7.42348766
REMARK minimizedRMSD -1
REMARK  0 active torsions:
REMARK  status: ('A' for Active; 'I' for Inactive)
ROOT
ATOM      1  C1  DEN d   1      -3.754  -1.735  -4.507  0.00  0.00     0.130 A 
ATOM      2  C2  DEN d   1      -4.880  -1.174  -3.766  0.00  0.00    -0.031 A 
ATOM      3  C3  DEN d   1      -5.961  -2.180  -3.747  0.00  0.00     0.027 A 
ATOM      4  C4  DEN d   1      -5.999  -4.541  -4.785  0.00  0.00     0.027 A 
ATOM      5  C5  DEN d   1      -5.278  -5.455  -5.522  0.00  0.00    -0.003 A 
ATOM      6  C6  DEN d   1      -4.023  -5.182  -5.997  0.00  0.00     0.001 A 
ATOM      7  C7  DEN d   1      -3.431  -3.983  -5.702  0.00  0.00     0.017 A 
ATOM      8  C8  DEN d   1      -4.154  -3.053  -4.966  0.00  0.00    -0.094 A 
ATOM      9  C9  DEN d   1      -5.418  -3.352  -4.485  0.00  0.00    -0.072 A 
ENDROOT
TORSDOF 0
ENDMDL
