MODEL 1
REMARK minimizedAffinity 9.29874229
REMARK minimizedRMSD -1
REMARK  0 active torsions:
REMARK  status: ('A' for Active; 'I' for Inactive)
ROOT
ATOM      1  C1  DEN d   1       4.306  -6.000   4.541  0.00  0.00     0.130 A 
ATOM      2  C2  DEN d   1       5.425  -6.000   3.602  0.00  0.00    -0.031 A 
ATOM      3  C3  DEN d   1       4.889  -5.733   2.252  0.00  0.00     0.027 A 
ATOM      4  C4  DEN d   1       2.448  -5.318   1.529  0.00  0.00     0.027 A 
ATOM      5  C5  DEN d   1       1.146  -5.232   1.970  0.00  0.00    -0.003 A 
ATOM      6  C6  DEN d   1       0.804  -5.429   3.282  0.00  0.00     0.001 A 
ATOM      7  C7  DEN d   1       1.783  -5.676   4.208  0.00  0.00     0.017 A 
ATOM      8  C8  DEN d   1       3.097  -5.771   3.770  0.00  0.00    -0.094 A 
ATOM      9  C9  DEN d   1       3.424  -5.557   2.442  0.00  0.00    -0.072 A 
ENDROOT
TORSDOF 0
ENDMDL
