MODEL 1
REMARK minimizedAffinity 13.551158
REMARK minimizedRMSD -1
REMARK  0 active torsions:
REMARK  status: ('A' for Active; 'I' for Inactive)
ROOT
ATOM      1  C1  DEN d   1      -5.025  -0.757   0.458  0.00  0.00     0.130 A 
ATOM      2  C2  DEN d   1      -4.481  -2.112   0.438  0.00  0.00    -0.031 A 
ATOM      3  C3  DEN d   1      -3.044  -2.033   0.767  0.00  0.00     0.027 A 
ATOM      4  C4  DEN d   1      -1.615   0.046   1.307  0.00  0.00     0.027 A 
ATOM      5  C5  DEN d   1      -1.632   1.417   1.434  0.00  0.00    -0.003 A 
ATOM      6  C6  DEN d   1      -2.764   2.157   1.214  0.00  0.00     0.001 A 
ATOM      7  C7  DEN d   1      -3.937   1.525   0.898  0.00  0.00     0.017 A 
ATOM      8  C8  DEN d   1      -3.927   0.143   0.760  0.00  0.00    -0.094 A 
ATOM      9  C9  DEN d   1      -2.775  -0.588   0.999  0.00  0.00    -0.072 A 
ENDROOT
TORSDOF 0
ENDMDL
