MODEL 1
REMARK minimizedAffinity 15.3870077
REMARK minimizedRMSD -1
REMARK  0 active torsions:
REMARK  status: ('A' for Active; 'I' for Inactive)
ROOT
ATOM      1  C1  DEN d   1      -1.622  -0.495   1.517  0.00  0.00     0.130 A 
ATOM      2  C2  DEN d   1      -2.989  -0.367   1.019  0.00  0.00    -0.031 A 
ATOM      3  C3  DEN d   1      -3.419   1.031   1.223  0.00  0.00     0.027 A 
ATOM      4  C4  DEN d   1      -2.108   3.000   2.250  0.00  0.00     0.027 A 
ATOM      5  C5  DEN d   1      -0.914   3.375   2.826  0.00  0.00    -0.003 A 
ATOM      6  C6  DEN d   1       0.106   2.486   3.036  0.00  0.00     0.001 A 
ATOM      7  C7  DEN d   1      -0.031   1.186   2.625  0.00  0.00     0.017 A 
ATOM      8  C8  DEN d   1      -1.234   0.799   2.050  0.00  0.00    -0.094 A 
ATOM      9  C9  DEN d   1      -2.249   1.716   1.836  0.00  0.00    -0.072 A 
ENDROOT
TORSDOF 0
ENDMDL
