MODEL 1
REMARK minimizedAffinity 10.7721024
REMARK minimizedRMSD -1
REMARK  0 active torsions:
REMARK  status: ('A' for Active; 'I' for Inactive)
ROOT
ATOM      1  C1  DEN d   1       0.859   1.024   3.145  0.00  0.00     0.130 A 
ATOM      2  C2  DEN d   1       0.920   2.482   3.188  0.00  0.00    -0.031 A 
ATOM      3  C3  DEN d   1      -0.366   3.008   2.687  0.00  0.00     0.027 A 
ATOM      4  C4  DEN d   1      -2.437   1.712   1.859  0.00  0.00     0.027 A 
ATOM      5  C5  DEN d   1      -2.957   0.458   1.626  0.00  0.00    -0.003 A 
ATOM      6  C6  DEN d   1      -2.236  -0.685   1.850  0.00  0.00     0.001 A 
ATOM      7  C7  DEN d   1      -0.969  -0.599   2.363  0.00  0.00     0.017 A 
ATOM      8  C8  DEN d   1      -0.435   0.662   2.593  0.00  0.00    -0.094 A 
ATOM      9  C9  DEN d   1      -1.184   1.805   2.372  0.00  0.00    -0.072 A 
ENDROOT
TORSDOF 0
ENDMDL
