MODEL 1
REMARK minimizedAffinity 14.3640575
REMARK minimizedRMSD -1
REMARK  0 active torsions:
REMARK  status: ('A' for Active; 'I' for Inactive)
ROOT
ATOM      1  C1  DEN d   1       1.518   3.642  -1.281  0.00  0.00     0.130 A 
ATOM      2  C2  DEN d   1       1.783   2.211  -1.155  0.00  0.00    -0.031 A 
ATOM      3  C3  DEN d   1       2.777   1.839  -2.182  0.00  0.00     0.027 A 
ATOM      4  C4  DEN d   1       3.927   3.332  -3.943  0.00  0.00     0.027 A 
ATOM      5  C5  DEN d   1       4.015   4.611  -4.445  0.00  0.00    -0.003 A 
ATOM      6  C6  DEN d   1       3.258   5.642  -3.954  0.00  0.00     0.001 A 
ATOM      7  C7  DEN d   1       2.412   5.420  -2.900  0.00  0.00     0.017 A 
ATOM      8  C8  DEN d   1       2.313   4.131  -2.393  0.00  0.00    -0.094 A 
ATOM      9  C9  DEN d   1       3.095   3.105  -2.895  0.00  0.00    -0.072 A 
ENDROOT
TORSDOF 0
ENDMDL
