MODEL 1
REMARK minimizedAffinity 14.6969004
REMARK minimizedRMSD -1
REMARK  0 active torsions:
REMARK  status: ('A' for Active; 'I' for Inactive)
ROOT
ATOM      1  C1  DEN d   1      -1.956   0.739   2.664  0.00  0.00     0.130 A 
ATOM      2  C2  DEN d   1      -2.006   0.921   1.216  0.00  0.00    -0.031 A 
ATOM      3  C3  DEN d   1      -3.422   0.883   0.799  0.00  0.00     0.027 A 
ATOM      4  C4  DEN d   1      -5.532   0.568   2.248  0.00  0.00     0.027 A 
ATOM      5  C5  DEN d   1      -5.993   0.364   3.530  0.00  0.00    -0.003 A 
ATOM      6  C6  DEN d   1      -5.147   0.237   4.599  0.00  0.00     0.001 A 
ATOM      7  C7  DEN d   1      -3.795   0.359   4.413  0.00  0.00     0.017 A 
ATOM      8  C8  DEN d   1      -3.322   0.557   3.123  0.00  0.00    -0.094 A 
ATOM      9  C9  DEN d   1      -4.195   0.695   2.056  0.00  0.00    -0.072 A 
ENDROOT
TORSDOF 0
ENDMDL
