MODEL 1
REMARK minimizedAffinity 4.66092634
REMARK minimizedRMSD -1
REMARK  0 active torsions:
REMARK  status: ('A' for Active; 'I' for Inactive)
ROOT
ATOM      1  C1  DEN d   1      -0.703   0.133   3.580  0.00  0.00     0.130 A 
ATOM      2  C2  DEN d   1       0.336   0.363   2.579  0.00  0.00    -0.031 A 
ATOM      3  C3  DEN d   1      -0.321   0.796   1.330  0.00  0.00     0.027 A 
ATOM      4  C4  DEN d   1      -2.833   1.136   0.851  0.00  0.00     0.027 A 
ATOM      5  C5  DEN d   1      -4.099   1.055   1.387  0.00  0.00    -0.003 A 
ATOM      6  C6  DEN d   1      -4.322   0.632   2.670  0.00  0.00     0.001 A 
ATOM      7  C7  DEN d   1      -3.260   0.317   3.476  0.00  0.00     0.017 A 
ATOM      8  C8  DEN d   1      -1.981   0.389   2.940  0.00  0.00    -0.094 A 
ATOM      9  C9  DEN d   1      -1.775   0.831   1.644  0.00  0.00    -0.072 A 
ENDROOT
TORSDOF 0
ENDMDL
