MODEL 1
REMARK minimizedAffinity 1.78988719
REMARK minimizedRMSD -1
REMARK  1 active torsions:
REMARK  status: ('A' for Active; 'I' for Inactive)
REMARK    1  A    between atoms: C1_2  and  C2_3 
ROOT
ATOM      1  C2  UNL d   1       0.853  -3.341   2.211  0.00  0.00    -0.081 A 
ATOM      2  C3  UNL d   1       0.344  -2.353   1.359  0.00  0.00     0.006 A 
ATOM      3  C4  UNL d   1       0.183  -2.608  -0.005  0.00  0.00     0.002 A 
ATOM      4  C5  UNL d   1       0.522  -3.856  -0.539  0.00  0.00    -0.080 A 
ATOM      5  C6  UNL d   1       0.326  -4.152  -1.996  0.00  0.00     0.076 C 
ATOM      6  C7  UNL d   1       1.048  -4.837   0.308  0.00  0.00     0.002 A 
ATOM      7  C8  UNL d   1       1.209  -4.583   1.672  0.00  0.00     0.006 A 
ENDROOT
BRANCH   1   8
ATOM      8  C1  UNL d   1       0.967  -3.092   3.693  0.00  0.00     0.054 C 
ATOM      9  C   UNL d   1       1.588  -1.732   3.979  0.00  0.00     0.018 C 
ENDBRANCH   1   8
TORSDOF 1
ENDMDL
