MODEL 1
REMARK minimizedAffinity -1.04820859
REMARK minimizedRMSD -1
REMARK  1 active torsions:
REMARK  status: ('A' for Active; 'I' for Inactive)
REMARK    1  A    between atoms: C1_2  and  C2_3 
ROOT
ATOM      1  C2  UNL d   1       1.295  -0.739   2.078  0.00  0.00    -0.081 A 
ATOM      2  C3  UNL d   1       2.118  -0.717   3.211  0.00  0.00     0.006 A 
ATOM      3  C4  UNL d   1       2.208  -1.836   4.042  0.00  0.00     0.002 A 
ATOM      4  C5  UNL d   1       1.482  -2.996   3.752  0.00  0.00    -0.080 A 
ATOM      5  C6  UNL d   1       1.592  -4.215   4.620  0.00  0.00     0.076 C 
ATOM      6  C7  UNL d   1       0.645  -3.011   2.631  0.00  0.00     0.002 A 
ATOM      7  C8  UNL d   1       0.555  -1.893   1.799  0.00  0.00     0.006 A 
ENDROOT
BRANCH   1   8
ATOM      8  C1  UNL d   1       1.246   0.443   1.144  0.00  0.00     0.054 C 
ATOM      9  C   UNL d   1       2.530   1.257   1.214  0.00  0.00     0.018 C 
ENDBRANCH   1   8
TORSDOF 1
ENDMDL
