MODEL 1
REMARK minimizedAffinity 7.24466038
REMARK minimizedRMSD -1
REMARK  1 active torsions:
REMARK  status: ('A' for Active; 'I' for Inactive)
REMARK    1  A    between atoms: C1_2  and  C2_3 
ROOT
ATOM      1  C2  UNL d   1      -0.741  -0.549   0.240  0.00  0.00    -0.081 A 
ATOM      2  C3  UNL d   1      -1.122  -0.850  -1.074  0.00  0.00     0.006 A 
ATOM      3  C4  UNL d   1      -1.244  -2.177  -1.490  0.00  0.00     0.002 A 
ATOM      4  C5  UNL d   1      -0.996  -3.226  -0.599  0.00  0.00    -0.080 A 
ATOM      5  C6  UNL d   1      -1.153  -4.656  -1.024  0.00  0.00     0.076 C 
ATOM      6  C7  UNL d   1      -0.599  -2.927   0.709  0.00  0.00     0.002 A 
ATOM      7  C8  UNL d   1      -0.476  -1.599   1.125  0.00  0.00     0.006 A 
ENDROOT
BRANCH   1   8
ATOM      8  C1  UNL d   1      -0.671   0.881   0.709  0.00  0.00     0.054 C 
ATOM      9  C   UNL d   1      -0.862   1.853  -0.446  0.00  0.00     0.018 C 
ENDBRANCH   1   8
TORSDOF 1
ENDMDL
