MODEL 1
REMARK minimizedAffinity 0.783427417
REMARK minimizedRMSD -1
REMARK  1 active torsions:
REMARK  status: ('A' for Active; 'I' for Inactive)
REMARK    1  A    between atoms: C1_2  and  C2_3 
ROOT
ATOM      1  C2  UNL d   1       1.863   0.352   1.713  0.00  0.00    -0.081 A 
ATOM      2  C3  UNL d   1       2.478   0.234   2.965  0.00  0.00     0.006 A 
ATOM      3  C4  UNL d   1       2.212  -0.867   3.783  0.00  0.00     0.002 A 
ATOM      4  C5  UNL d   1       1.335  -1.871   3.360  0.00  0.00    -0.080 A 
ATOM      5  C6  UNL d   1       1.064  -3.072   4.215  0.00  0.00     0.076 C 
ATOM      6  C7  UNL d   1       0.707  -1.744   2.116  0.00  0.00     0.002 A 
ATOM      7  C8  UNL d   1       0.972  -0.643   1.298  0.00  0.00     0.006 A 
ENDROOT
BRANCH   1   8
ATOM      8  C1  UNL d   1       2.197   1.505   0.801  0.00  0.00     0.054 C 
ATOM      9  C   UNL d   1       0.950   2.053   0.122  0.00  0.00     0.018 C 
ENDBRANCH   1   8
TORSDOF 1
ENDMDL
