MODEL 1
REMARK minimizedAffinity 3.92127752
REMARK minimizedRMSD -1
REMARK  1 active torsions:
REMARK  status: ('A' for Active; 'I' for Inactive)
REMARK    1  A    between atoms: C1_2  and  C2_3 
ROOT
ATOM      1  C2  UNL d   1       0.950  -0.802   1.848  0.00  0.00    -0.081 A 
ATOM      2  C3  UNL d   1      -0.063  -0.435   0.954  0.00  0.00     0.006 A 
ATOM      3  C4  UNL d   1       0.045   0.738   0.204  0.00  0.00     0.002 A 
ATOM      4  C5  UNL d   1       1.171   1.559   0.329  0.00  0.00    -0.080 A 
ATOM      5  C6  UNL d   1       1.313   2.806  -0.493  0.00  0.00     0.076 C 
ATOM      6  C7  UNL d   1       2.175   1.202   1.235  0.00  0.00     0.002 A 
ATOM      7  C8  UNL d   1       2.067   0.030   1.986  0.00  0.00     0.006 A 
ENDROOT
BRANCH   1   8
ATOM      8  C1  UNL d   1       0.866  -2.099   2.611  0.00  0.00     0.054 C 
ATOM      9  C   UNL d   1       1.718  -2.056   3.872  0.00  0.00     0.018 C 
ENDBRANCH   1   8
TORSDOF 1
ENDMDL
