MODEL 1
REMARK minimizedAffinity 0.402235001
REMARK minimizedRMSD -1
REMARK  0 active torsions:
REMARK  status: ('A' for Active; 'I' for Inactive)
ROOT
ATOM      1  C1  BNZ d   1      -2.562   0.220   1.107  0.00  0.00     0.000 A 
ATOM      2  C2  BNZ d   1      -2.978  -0.235  -0.116  0.00  0.00     0.000 A 
ATOM      3  C3  BNZ d   1      -2.115  -0.893  -0.948  0.00  0.00     0.000 A 
ATOM      4  C4  BNZ d   1      -0.830  -1.058  -0.574  0.00  0.00     0.000 A 
ATOM      5  C5  BNZ d   1      -0.393  -0.596   0.651  0.00  0.00     0.000 A 
ATOM      6  C6  BNZ d   1      -1.274   0.031   1.503  0.00  0.00     0.000 A 
ENDROOT
TORSDOF 0
ENDMDL
