MODEL 1
REMARK minimizedAffinity 1.93279922
REMARK minimizedRMSD -1
REMARK  0 active torsions:
REMARK  status: ('A' for Active; 'I' for Inactive)
ROOT
ATOM      1  C1  BNZ d   1       0.353  -0.868  -0.113  0.00  0.00     0.000 A 
ATOM      2  C2  BNZ d   1      -0.952  -0.752  -0.511  0.00  0.00     0.000 A 
ATOM      3  C3  BNZ d   1      -1.873  -0.129   0.284  0.00  0.00     0.000 A 
ATOM      4  C4  BNZ d   1      -1.498   0.340   1.491  0.00  0.00     0.000 A 
ATOM      5  C5  BNZ d   1      -0.188   0.222   1.911  0.00  0.00     0.000 A 
ATOM      6  C6  BNZ d   1       0.745  -0.370   1.091  0.00  0.00     0.000 A 
ENDROOT
TORSDOF 0
ENDMDL
