MODEL 1
REMARK minimizedAffinity -1.27159607
REMARK minimizedRMSD -1
REMARK  0 active torsions:
REMARK  status: ('A' for Active; 'I' for Inactive)
ROOT
ATOM      1  C1  BNZ d   1      -0.498  -1.213   3.742  0.00  0.00     0.000 A 
ATOM      2  C2  BNZ d   1       0.405  -1.729   4.633  0.00  0.00     0.000 A 
ATOM      3  C3  BNZ d   1       1.739  -1.762   4.338  0.00  0.00     0.000 A 
ATOM      4  C4  BNZ d   1       2.163  -1.316   3.138  0.00  0.00     0.000 A 
ATOM      5  C5  BNZ d   1       1.264  -0.802   2.225  0.00  0.00     0.000 A 
ATOM      6  C6  BNZ d   1      -0.073  -0.735   2.541  0.00  0.00     0.000 A 
ENDROOT
TORSDOF 0
ENDMDL
