MODEL 1
REMARK minimizedAffinity 0.591848373
REMARK minimizedRMSD -1
REMARK  0 active torsions:
REMARK  status: ('A' for Active; 'I' for Inactive)
ROOT
ATOM      1  C1  BNZ d   1      -1.131  -1.121  -1.124  0.00  0.00     0.000 A 
ATOM      2  C2  BNZ d   1      -2.400  -0.732  -0.785  0.00  0.00     0.000 A 
ATOM      3  C3  BNZ d   1      -2.647  -0.114   0.408  0.00  0.00     0.000 A 
ATOM      4  C4  BNZ d   1      -1.634   0.079   1.277  0.00  0.00     0.000 A 
ATOM      5  C5  BNZ d   1      -0.351  -0.315   0.954  0.00  0.00     0.000 A 
ATOM      6  C6  BNZ d   1      -0.099  -0.902  -0.265  0.00  0.00     0.000 A 
ENDROOT
TORSDOF 0
ENDMDL
