MODEL 1
REMARK minimizedAffinity -1.88632119
REMARK minimizedRMSD -1
REMARK  0 active torsions:
REMARK  status: ('A' for Active; 'I' for Inactive)
ROOT
ATOM      1  C1  BNZ d   1      -0.043  -0.932   0.393  0.00  0.00     0.000 A 
ATOM      2  C2  BNZ d   1      -0.154  -0.521   1.695  0.00  0.00     0.000 A 
ATOM      3  C3  BNZ d   1      -1.368  -0.174   2.218  0.00  0.00     0.000 A 
ATOM      4  C4  BNZ d   1      -2.462  -0.198   1.429  0.00  0.00     0.000 A 
ATOM      5  C5  BNZ d   1      -2.365  -0.601   0.112  0.00  0.00     0.000 A 
ATOM      6  C6  BNZ d   1      -1.148  -0.987  -0.401  0.00  0.00     0.000 A 
ENDROOT
TORSDOF 0
ENDMDL
