MODEL 1
REMARK minimizedAffinity 1.49796033
REMARK minimizedRMSD -1
REMARK  0 active torsions:
REMARK  status: ('A' for Active; 'I' for Inactive)
ROOT
ATOM      1  C1  BNZ d   1       2.840  -0.848   2.880  0.00  0.00     0.000 A 
ATOM      2  C2  BNZ d   1       3.179  -1.361   4.103  0.00  0.00     0.000 A 
ATOM      3  C3  BNZ d   1       2.220  -1.835   4.954  0.00  0.00     0.000 A 
ATOM      4  C4  BNZ d   1       0.921  -1.758   4.597  0.00  0.00     0.000 A 
ATOM      5  C5  BNZ d   1       0.563  -1.235   3.371  0.00  0.00     0.000 A 
ATOM      6  C6  BNZ d   1       1.534  -0.795   2.501  0.00  0.00     0.000 A 
ENDROOT
TORSDOF 0
ENDMDL
