MODEL 1
REMARK minimizedAffinity 1.23322606
REMARK minimizedRMSD -1
REMARK  0 active torsions:
REMARK  status: ('A' for Active; 'I' for Inactive)
ROOT
ATOM      1  C1  BNZ d   1      -1.748   0.148   2.160  0.00  0.00     0.000 A 
ATOM      2  C2  BNZ d   1      -0.585   0.508   1.534  0.00  0.00     0.000 A 
ATOM      3  C3  BNZ d   1      -0.427   0.321   0.189  0.00  0.00     0.000 A 
ATOM      4  C4  BNZ d   1      -1.415  -0.261  -0.520  0.00  0.00     0.000 A 
ATOM      5  C5  BNZ d   1      -2.591  -0.638   0.099  0.00  0.00     0.000 A 
ATOM      6  C6  BNZ d   1      -2.761  -0.413   1.445  0.00  0.00     0.000 A 
ENDROOT
TORSDOF 0
ENDMDL
