MODEL 1
REMARK minimizedAffinity 4.24126291
REMARK minimizedRMSD -1
REMARK  0 active torsions:
REMARK  status: ('A' for Active; 'I' for Inactive)
ROOT
ATOM      1  C1  BNZ d   1      -1.366  -1.139   0.064  0.00  0.00     0.000 A 
ATOM      2  C2  BNZ d   1      -1.051  -0.464   1.213  0.00  0.00     0.000 A 
ATOM      3  C3  BNZ d   1      -1.889   0.492   1.716  0.00  0.00     0.000 A 
ATOM      4  C4  BNZ d   1      -3.021   0.799   1.049  0.00  0.00     0.000 A 
ATOM      5  C5  BNZ d   1      -3.348   0.134  -0.116  0.00  0.00     0.000 A 
ATOM      6  C6  BNZ d   1      -2.521  -0.854  -0.598  0.00  0.00     0.000 A 
ENDROOT
TORSDOF 0
ENDMDL
