MODEL 1
REMARK minimizedAffinity 3.43168783
REMARK minimizedRMSD -1
REMARK  0 active torsions:
REMARK  status: ('A' for Active; 'I' for Inactive)
ROOT
ATOM      1  C1  BNZ d   1      -1.372  -1.113  -0.304  0.00  0.00     0.000 A 
ATOM      2  C2  BNZ d   1      -1.180  -0.789   1.013  0.00  0.00     0.000 A 
ATOM      3  C3  BNZ d   1      -1.913   0.201   1.604  0.00  0.00     0.000 A 
ATOM      4  C4  BNZ d   1      -2.808   0.892   0.870  0.00  0.00     0.000 A 
ATOM      5  C5  BNZ d   1      -3.007   0.584  -0.461  0.00  0.00     0.000 A 
ATOM      6  C6  BNZ d   1      -2.295  -0.440  -1.043  0.00  0.00     0.000 A 
ENDROOT
TORSDOF 0
ENDMDL
