MODEL 1
REMARK minimizedAffinity 2.61787558
REMARK minimizedRMSD -1
REMARK  0 active torsions:
REMARK  status: ('A' for Active; 'I' for Inactive)
ROOT
ATOM      1  C1  BNZ d   1       2.005  -0.847   2.685  0.00  0.00     0.000 A 
ATOM      2  C2  BNZ d   1       2.714  -1.234   3.791  0.00  0.00     0.000 A 
ATOM      3  C3  BNZ d   1       2.072  -1.615   4.936  0.00  0.00     0.000 A 
ATOM      4  C4  BNZ d   1       0.725  -1.569   4.987  0.00  0.00     0.000 A 
ATOM      5  C5  BNZ d   1      -0.003  -1.172   3.884  0.00  0.00     0.000 A 
ATOM      6  C6  BNZ d   1       0.645  -0.828   2.720  0.00  0.00     0.000 A 
ENDROOT
TORSDOF 0
ENDMDL
