MODEL 1
REMARK minimizedAffinity -1.60463631
REMARK minimizedRMSD -1
REMARK  0 active torsions:
REMARK  status: ('A' for Active; 'I' for Inactive)
ROOT
ATOM      1  C1  BNZ d   1      -2.492  -1.449   4.188  0.00  0.00     0.000 A 
ATOM      2  C2  BNZ d   1      -1.935  -2.327   5.079  0.00  0.00     0.000 A 
ATOM      3  C3  BNZ d   1      -0.579  -2.386   5.248  0.00  0.00     0.000 A 
ATOM      4  C4  BNZ d   1       0.217  -1.597   4.499  0.00  0.00     0.000 A 
ATOM      5  C5  BNZ d   1      -0.329  -0.713   3.590  0.00  0.00     0.000 A 
ATOM      6  C6  BNZ d   1      -1.696  -0.629   3.450  0.00  0.00     0.000 A 
ENDROOT
TORSDOF 0
ENDMDL
