MODEL 1
REMARK minimizedAffinity -2.80197859
REMARK minimizedRMSD -1
REMARK  0 active torsions:
REMARK  status: ('A' for Active; 'I' for Inactive)
ROOT
ATOM      1  C1  BNZ d   1       1.574  -0.458   2.180  0.00  0.00     0.000 A 
ATOM      2  C2  BNZ d   1       2.615  -0.952   2.920  0.00  0.00     0.000 A 
ATOM      3  C3  BNZ d   1       2.416  -1.396   4.197  0.00  0.00     0.000 A 
ATOM      4  C4  BNZ d   1       1.188  -1.307   4.747  0.00  0.00     0.000 A 
ATOM      5  C5  BNZ d   1       0.131  -0.802   4.017  0.00  0.00     0.000 A 
ATOM      6  C6  BNZ d   1       0.326  -0.393   2.718  0.00  0.00     0.000 A 
ENDROOT
TORSDOF 0
ENDMDL
