MODEL 1
REMARK minimizedAffinity -4.47486496
REMARK minimizedRMSD -1
REMARK  0 active torsions:
REMARK  status: ('A' for Active; 'I' for Inactive)
ROOT
ATOM      1  C1  BNZ d   1      -0.588  -0.047  -0.655  0.00  0.00     0.000 A 
ATOM      2  C2  BNZ d   1       0.053  -0.238  -1.850  0.00  0.00     0.000 A 
ATOM      3  C3  BNZ d   1      -0.656  -0.441  -3.001  0.00  0.00     0.000 A 
ATOM      4  C4  BNZ d   1      -2.003  -0.491  -2.949  0.00  0.00     0.000 A 
ATOM      5  C5  BNZ d   1      -2.664  -0.309  -1.751  0.00  0.00     0.000 A 
ATOM      6  C6  BNZ d   1      -1.948  -0.067  -0.601  0.00  0.00     0.000 A 
ENDROOT
TORSDOF 0
ENDMDL
