MODEL 1
REMARK minimizedAffinity -5.09218359
REMARK minimizedRMSD -1
REMARK  0 active torsions:
REMARK  status: ('A' for Active; 'I' for Inactive)
ROOT
ATOM      1  C1  BNZ d   1       1.744  -2.183   2.124  0.00  0.00     0.000 A 
ATOM      2  C2  BNZ d   1       0.564  -2.013   1.449  0.00  0.00     0.000 A 
ATOM      3  C3  BNZ d   1       0.374  -0.931   0.636  0.00  0.00     0.000 A 
ATOM      4  C4  BNZ d   1       1.345  -0.002   0.530  0.00  0.00     0.000 A 
ATOM      5  C5  BNZ d   1       2.536  -0.155   1.211  0.00  0.00     0.000 A 
ATOM      6  C6  BNZ d   1       2.740  -1.264   1.999  0.00  0.00     0.000 A 
ENDROOT
TORSDOF 0
ENDMDL
