MODEL 1
REMARK minimizedAffinity -4.94509649
REMARK minimizedRMSD -1
REMARK  0 active torsions:
REMARK  status: ('A' for Active; 'I' for Inactive)
ROOT
ATOM      1  C1  BNZ d   1       1.161   1.287   0.075  0.00  0.00     0.000 A 
ATOM      2  C2  BNZ d   1      -0.023   0.598   0.053  0.00  0.00     0.000 A 
ATOM      3  C3  BNZ d   1      -0.088  -0.696   0.490  0.00  0.00     0.000 A 
ATOM      4  C4  BNZ d   1       1.037  -1.312   0.908  0.00  0.00     0.000 A 
ATOM      5  C5  BNZ d   1       2.239  -0.634   0.927  0.00  0.00     0.000 A 
ATOM      6  C6  BNZ d   1       2.294   0.681   0.524  0.00  0.00     0.000 A 
ENDROOT
TORSDOF 0
ENDMDL
