MODEL 1
REMARK minimizedAffinity -4.43463278
REMARK minimizedRMSD -1
REMARK  0 active torsions:
REMARK  status: ('A' for Active; 'I' for Inactive)
ROOT
ATOM      1  C1  BNZ d   1       1.903   0.677   0.690  0.00  0.00     0.000 A 
ATOM      2  C2  BNZ d   1       0.828   1.402   0.248  0.00  0.00     0.000 A 
ATOM      3  C3  BNZ d   1      -0.417   0.842   0.188  0.00  0.00     0.000 A 
ATOM      4  C4  BNZ d   1      -0.579  -0.453   0.531  0.00  0.00     0.000 A 
ATOM      5  C5  BNZ d   1       0.496  -1.200   0.970  0.00  0.00     0.000 A 
ATOM      6  C6  BNZ d   1       1.741  -0.621   1.066  0.00  0.00     0.000 A 
ENDROOT
TORSDOF 0
ENDMDL
