MODEL 1
REMARK minimizedAffinity -4.17763424
REMARK minimizedRMSD -1
REMARK  0 active torsions:
REMARK  status: ('A' for Active; 'I' for Inactive)
ROOT
ATOM      1  C1  BNZ d   1       0.932   1.169   0.381  0.00  0.00     0.000 A 
ATOM      2  C2  BNZ d   1       2.296   1.224   0.490  0.00  0.00     0.000 A 
ATOM      3  C3  BNZ d   1       3.045   0.081   0.498  0.00  0.00     0.000 A 
ATOM      4  C4  BNZ d   1       2.427  -1.117   0.438  0.00  0.00     0.000 A 
ATOM      5  C5  BNZ d   1       1.052  -1.190   0.338  0.00  0.00     0.000 A 
ATOM      6  C6  BNZ d   1       0.304  -0.035   0.291  0.00  0.00     0.000 A 
ENDROOT
TORSDOF 0
ENDMDL
