MODEL 1
REMARK minimizedAffinity -4.38820362
REMARK minimizedRMSD -1
REMARK  0 active torsions:
REMARK  status: ('A' for Active; 'I' for Inactive)
ROOT
ATOM      1  C1  BNZ d   1       0.435   0.093   0.352  0.00  0.00     0.000 A 
ATOM      2  C2  BNZ d   1       0.992  -1.065   0.825  0.00  0.00     0.000 A 
ATOM      3  C3  BNZ d   1       2.335  -1.147   1.068  0.00  0.00     0.000 A 
ATOM      4  C4  BNZ d   1       3.124  -0.087   0.800  0.00  0.00     0.000 A 
ATOM      5  C5  BNZ d   1       2.578   1.085   0.314  0.00  0.00     0.000 A 
ATOM      6  C6  BNZ d   1       1.221   1.177   0.107  0.00  0.00     0.000 A 
ENDROOT
TORSDOF 0
ENDMDL
