MODEL 1
REMARK minimizedAffinity -2.53659463
REMARK minimizedRMSD -1
REMARK  0 active torsions:
REMARK  status: ('A' for Active; 'I' for Inactive)
ROOT
ATOM      1  O1  BZF d   1      -2.185   1.193  -2.056  0.00  0.00    -0.204 OA
ATOM      2  C2  BZF d   1      -3.217   0.864  -2.913  0.00  0.00     0.174 A 
ATOM      3  C3  BZF d   1      -3.108   1.541  -4.075  0.00  0.00    -0.012 A 
ATOM      4  C3A BZF d   1      -1.884   2.274  -3.970  0.00  0.00    -0.107 A 
ATOM      5  C4  BZF d   1      -1.221   3.121  -4.811  0.00  0.00     0.055 A 
ATOM      6  C5  BZF d   1      -0.086   3.729  -4.378  0.00  0.00    -0.016 A 
ATOM      7  C6  BZF d   1       0.412   3.517  -3.109  0.00  0.00     0.022 A 
ATOM      8  C7  BZF d   1      -0.207   2.682  -2.240  0.00  0.00     0.029 A 
ATOM      9  C7A BZF d   1      -1.337   2.041  -2.687  0.00  0.00     0.058 A 
ENDROOT
TORSDOF 0
ENDMDL
