MODEL 1
REMARK minimizedAffinity -1.96991897
REMARK minimizedRMSD -1
REMARK  0 active torsions:
REMARK  status: ('A' for Active; 'I' for Inactive)
ROOT
ATOM      1  O1  BZF d   1      -0.210   0.038   1.117  0.00  0.00    -0.204 OA
ATOM      2  C2  BZF d   1       0.286   0.290  -0.148  0.00  0.00     0.174 A 
ATOM      3  C3  BZF d   1       1.497  -0.283  -0.309  0.00  0.00    -0.012 A 
ATOM      4  C3A BZF d   1       1.733  -1.011   0.900  0.00  0.00    -0.107 A 
ATOM      5  C4  BZF d   1       2.759  -1.799   1.337  0.00  0.00     0.055 A 
ATOM      6  C5  BZF d   1       2.714  -2.303   2.598  0.00  0.00    -0.016 A 
ATOM      7  C6  BZF d   1       1.663  -2.034   3.451  0.00  0.00     0.022 A 
ATOM      8  C7  BZF d   1       0.620  -1.262   3.061  0.00  0.00     0.029 A 
ATOM      9  C7A BZF d   1       0.646  -0.778   1.776  0.00  0.00     0.058 A 
ENDROOT
TORSDOF 0
ENDMDL
