MODEL 1
REMARK minimizedAffinity -2.0546031
REMARK minimizedRMSD -1
REMARK  0 active torsions:
REMARK  status: ('A' for Active; 'I' for Inactive)
ROOT
ATOM      1  O1  BZF d   1       4.418  -0.983   2.165  0.00  0.00    -0.204 OA
ATOM      2  C2  BZF d   1       4.799  -0.825   3.483  0.00  0.00     0.174 A 
ATOM      3  C3  BZF d   1       3.724  -0.838   4.297  0.00  0.00    -0.012 A 
ATOM      4  C3A BZF d   1       2.608  -1.107   3.443  0.00  0.00    -0.107 A 
ATOM      5  C4  BZF d   1       1.269  -1.257   3.666  0.00  0.00     0.055 A 
ATOM      6  C5  BZF d   1       0.439  -1.440   2.606  0.00  0.00    -0.016 A 
ATOM      7  C6  BZF d   1       0.912  -1.473   1.311  0.00  0.00     0.022 A 
ATOM      8  C7  BZF d   1       2.233  -1.334   1.040  0.00  0.00     0.029 A 
ATOM      9  C7A BZF d   1       3.079  -1.182   2.112  0.00  0.00     0.058 A 
ENDROOT
TORSDOF 0
ENDMDL
