MODEL 1
REMARK minimizedAffinity 2.20496535
REMARK minimizedRMSD -1
REMARK  0 active torsions:
REMARK  status: ('A' for Active; 'I' for Inactive)
ROOT
ATOM      1  O1  BZF d   1       1.249  -4.854  -3.961  0.00  0.00    -0.204 OA
ATOM      2  C2  BZF d   1       1.997  -5.254  -5.052  0.00  0.00     0.174 A 
ATOM      3  C3  BZF d   1       1.208  -5.805  -5.997  0.00  0.00    -0.012 A 
ATOM      4  C3A BZF d   1      -0.127  -5.661  -5.503  0.00  0.00    -0.107 A 
ATOM      5  C4  BZF d   1      -1.353  -6.000  -6.000  0.00  0.00     0.055 A 
ATOM      6  C5  BZF d   1      -2.457  -5.788  -5.236  0.00  0.00    -0.016 A 
ATOM      7  C6  BZF d   1      -2.371  -5.245  -3.971  0.00  0.00     0.022 A 
ATOM      8  C7  BZF d   1      -1.177  -4.888  -3.437  0.00  0.00     0.029 A 
ATOM      9  C7A BZF d   1      -0.063  -5.070  -4.220  0.00  0.00     0.058 A 
ENDROOT
TORSDOF 0
ENDMDL
