MODEL 1
REMARK minimizedAffinity 4.77804804
REMARK minimizedRMSD -1
REMARK  0 active torsions:
REMARK  status: ('A' for Active; 'I' for Inactive)
ROOT
ATOM      1  O1  BZF d   1      -2.696  -5.039  -3.622  0.00  0.00    -0.204 OA
ATOM      2  C2  BZF d   1      -3.545  -5.584  -4.566  0.00  0.00     0.174 A 
ATOM      3  C3  BZF d   1      -2.855  -5.996  -5.649  0.00  0.00    -0.012 A 
ATOM      4  C3A BZF d   1      -1.479  -5.773  -5.325  0.00  0.00    -0.107 A 
ATOM      5  C4  BZF d   1      -0.309  -5.996  -5.994  0.00  0.00     0.055 A 
ATOM      6  C5  BZF d   1       0.861  -5.598  -5.429  0.00  0.00    -0.016 A 
ATOM      7  C6  BZF d   1       0.897  -4.970  -4.201  0.00  0.00     0.022 A 
ATOM      8  C7  BZF d   1      -0.237  -4.731  -3.498  0.00  0.00     0.029 A 
ATOM      9  C7A BZF d   1      -1.417  -5.162  -4.051  0.00  0.00     0.058 A 
ENDROOT
TORSDOF 0
ENDMDL
