MODEL 1
REMARK minimizedAffinity -0.290158063
REMARK minimizedRMSD -1
REMARK  0 active torsions:
REMARK  status: ('A' for Active; 'I' for Inactive)
ROOT
ATOM      1  O1  BZF d   1      -0.991  -4.232  -2.368  0.00  0.00    -0.204 OA
ATOM      2  C2  BZF d   1      -2.260  -4.520  -1.906  0.00  0.00     0.174 A 
ATOM      3  C3  BZF d   1      -2.973  -5.176  -2.844  0.00  0.00    -0.012 A 
ATOM      4  C3A BZF d   1      -2.064  -5.388  -3.928  0.00  0.00    -0.107 A 
ATOM      5  C4  BZF d   1      -2.178  -6.000  -5.144  0.00  0.00     0.055 A 
ATOM      6  C5  BZF d   1      -1.123  -5.970  -6.000  0.00  0.00    -0.016 A 
ATOM      7  C6  BZF d   1       0.057  -5.334  -5.676  0.00  0.00     0.022 A 
ATOM      8  C7  BZF d   1       0.220  -4.717  -4.480  0.00  0.00     0.029 A 
ATOM      9  C7A BZF d   1      -0.833  -4.774  -3.599  0.00  0.00     0.058 A 
ENDROOT
TORSDOF 0
ENDMDL
