MODEL 1
REMARK minimizedAffinity 8.93506813
REMARK minimizedRMSD -1
REMARK  0 active torsions:
REMARK  status: ('A' for Active; 'I' for Inactive)
ROOT
ATOM      1  O1  BZF d   1       4.080  -2.754   2.809  0.00  0.00    -0.204 OA
ATOM      2  C2  BZF d   1       4.036  -1.591   3.553  0.00  0.00     0.174 A 
ATOM      3  C3  BZF d   1       3.888  -1.868   4.865  0.00  0.00    -0.012 A 
ATOM      4  C3A BZF d   1       3.928  -3.295   4.955  0.00  0.00    -0.107 A 
ATOM      5  C4  BZF d   1       3.848  -4.173   5.999  0.00  0.00     0.055 A 
ATOM      6  C5  BZF d   1       3.847  -5.507   5.741  0.00  0.00    -0.016 A 
ATOM      7  C6  BZF d   1       3.920  -5.998   4.454  0.00  0.00     0.022 A 
ATOM      8  C7  BZF d   1       4.005  -5.167   3.387  0.00  0.00     0.029 A 
ATOM      9  C7A BZF d   1       4.040  -3.818   3.646  0.00  0.00     0.058 A 
ENDROOT
TORSDOF 0
ENDMDL
