MODEL 1
REMARK minimizedAffinity 6.15623093
REMARK minimizedRMSD -1
REMARK  0 active torsions:
REMARK  status: ('A' for Active; 'I' for Inactive)
ROOT
ATOM      1  O1  BZF d   1      -1.138  -3.876  -0.078  0.00  0.00    -0.204 OA
ATOM      2  C2  BZF d   1      -2.519  -3.896  -0.052  0.00  0.00     0.174 A 
ATOM      3  C3  BZF d   1      -3.009  -2.677   0.254  0.00  0.00    -0.012 A 
ATOM      4  C3A BZF d   1      -1.866  -1.822   0.339  0.00  0.00    -0.107 A 
ATOM      5  C4  BZF d   1      -1.706  -0.490   0.597  0.00  0.00     0.055 A 
ATOM      6  C5  BZF d   1      -0.450   0.021   0.680  0.00  0.00    -0.016 A 
ATOM      7  C6  BZF d   1       0.668  -0.771   0.515  0.00  0.00     0.022 A 
ATOM      8  C7  BZF d   1       0.560  -2.096   0.252  0.00  0.00     0.029 A 
ATOM      9  C7A BZF d   1      -0.709  -2.609   0.135  0.00  0.00     0.058 A 
ENDROOT
TORSDOF 0
ENDMDL
