MODEL 1
REMARK minimizedAffinity 5.71768808
REMARK minimizedRMSD -1
REMARK  0 active torsions:
REMARK  status: ('A' for Active; 'I' for Inactive)
ROOT
ATOM      1  O1  BZF d   1      -2.775   1.771  -1.814  0.00  0.00    -0.204 OA
ATOM      2  C2  BZF d   1      -2.859   1.810  -3.192  0.00  0.00     0.174 A 
ATOM      3  C3  BZF d   1      -3.766   0.920  -3.642  0.00  0.00    -0.012 A 
ATOM      4  C3A BZF d   1      -4.348   0.349  -2.466  0.00  0.00    -0.107 A 
ATOM      5  C4  BZF d   1      -5.322  -0.586  -2.260  0.00  0.00     0.055 A 
ATOM      6  C5  BZF d   1      -5.606  -0.974  -0.989  0.00  0.00    -0.016 A 
ATOM      7  C6  BZF d   1      -4.933  -0.454   0.097  0.00  0.00     0.022 A 
ATOM      8  C7  BZF d   1      -3.963   0.479  -0.058  0.00  0.00     0.029 A 
ATOM      9  C7A BZF d   1      -3.696   0.899  -1.338  0.00  0.00     0.058 A 
ENDROOT
TORSDOF 0
ENDMDL
