MODEL 1
REMARK minimizedAffinity 4.09093285
REMARK minimizedRMSD -1
REMARK  0 active torsions:
REMARK  status: ('A' for Active; 'I' for Inactive)
ROOT
ATOM      1  O1  BZF d   1      -3.444  -5.354  -4.445  0.00  0.00    -0.204 OA
ATOM      2  C2  BZF d   1      -3.607  -5.175  -3.085  0.00  0.00     0.174 A 
ATOM      3  C3  BZF d   1      -2.412  -5.121  -2.463  0.00  0.00    -0.012 A 
ATOM      4  C3A BZF d   1      -1.439  -5.183  -3.511  0.00  0.00    -0.107 A 
ATOM      5  C4  BZF d   1      -0.074  -5.156  -3.527  0.00  0.00     0.055 A 
ATOM      6  C5  BZF d   1       0.575  -5.311  -4.711  0.00  0.00    -0.016 A 
ATOM      7  C6  BZF d   1      -0.107  -5.499  -5.894  0.00  0.00     0.022 A 
ATOM      8  C7  BZF d   1      -1.462  -5.528  -5.929  0.00  0.00     0.029 A 
ATOM      9  C7A BZF d   1      -2.122  -5.339  -4.739  0.00  0.00     0.058 A 
ENDROOT
TORSDOF 0
ENDMDL
