MODEL 1
REMARK minimizedAffinity 6.17639542
REMARK minimizedRMSD -1
REMARK  0 active torsions:
REMARK  status: ('A' for Active; 'I' for Inactive)
ROOT
ATOM      1  O1  BZF d   1       0.115  -3.978  -2.731  0.00  0.00    -0.204 OA
ATOM      2  C2  BZF d   1      -1.055  -3.967  -1.996  0.00  0.00     0.174 A 
ATOM      3  C3  BZF d   1      -2.055  -4.558  -2.681  0.00  0.00    -0.012 A 
ATOM      4  C3A BZF d   1      -1.451  -5.047  -3.882  0.00  0.00    -0.107 A 
ATOM      5  C4  BZF d   1      -1.929  -5.739  -4.958  0.00  0.00     0.055 A 
ATOM      6  C5  BZF d   1      -1.095  -5.999  -5.999  0.00  0.00    -0.016 A 
ATOM      7  C6  BZF d   1       0.219  -5.577  -6.000  0.00  0.00     0.022 A 
ATOM      8  C7  BZF d   1       0.739  -4.892  -4.953  0.00  0.00     0.029 A 
ATOM      9  C7A BZF d   1      -0.092  -4.657  -3.885  0.00  0.00     0.058 A 
ENDROOT
TORSDOF 0
ENDMDL
