MODEL 1
REMARK minimizedAffinity 0.330542386
REMARK minimizedRMSD -1
REMARK  0 active torsions:
REMARK  status: ('A' for Active; 'I' for Inactive)
ROOT
ATOM      1  O1  BZF d   1       1.662  -0.242  -0.779  0.00  0.00    -0.204 OA
ATOM      2  C2  BZF d   1       0.310  -0.008  -0.618  0.00  0.00     0.174 A 
ATOM      3  C3  BZF d   1      -0.109  -0.440   0.589  0.00  0.00    -0.012 A 
ATOM      4  C3A BZF d   1       1.072  -0.893   1.258  0.00  0.00    -0.107 A 
ATOM      5  C4  BZF d   1       1.307  -1.419   2.496  0.00  0.00     0.055 A 
ATOM      6  C5  BZF d   1       2.564  -1.826   2.813  0.00  0.00    -0.016 A 
ATOM      7  C6  BZF d   1       3.607  -1.726   1.917  0.00  0.00     0.022 A 
ATOM      8  C7  BZF d   1       3.425  -1.206   0.679  0.00  0.00     0.029 A 
ATOM      9  C7A BZF d   1       2.162  -0.763   0.367  0.00  0.00     0.058 A 
ENDROOT
TORSDOF 0
ENDMDL
