MODEL 1
REMARK minimizedAffinity 0.854850948
REMARK minimizedRMSD -1
REMARK  0 active torsions:
REMARK  status: ('A' for Active; 'I' for Inactive)
ROOT
ATOM      1  O1  BZF d   1       1.147  -4.668  -4.018  0.00  0.00    -0.204 OA
ATOM      2  C2  BZF d   1       1.924  -5.313  -4.961  0.00  0.00     0.174 A 
ATOM      3  C3  BZF d   1       1.152  -5.974  -5.846  0.00  0.00    -0.012 A 
ATOM      4  C3A BZF d   1      -0.195  -5.653  -5.485  0.00  0.00    -0.107 A 
ATOM      5  C4  BZF d   1      -1.412  -5.995  -6.000  0.00  0.00     0.055 A 
ATOM      6  C5  BZF d   1      -2.539  -5.572  -5.369  0.00  0.00    -0.016 A 
ATOM      7  C6  BZF d   1      -2.485  -4.810  -4.220  0.00  0.00     0.022 A 
ATOM      8  C7  BZF d   1      -1.300  -4.442  -3.674  0.00  0.00     0.029 A 
ATOM      9  C7A BZF d   1      -0.160  -4.840  -4.328  0.00  0.00     0.058 A 
ENDROOT
TORSDOF 0
ENDMDL
