MODEL 1
REMARK minimizedAffinity 5.30095387
REMARK minimizedRMSD -1
REMARK  0 active torsions:
REMARK  status: ('A' for Active; 'I' for Inactive)
ROOT
ATOM      1  O1  BZF d   1       2.171  -0.298  -0.011  0.00  0.00    -0.204 OA
ATOM      2  C2  BZF d   1       0.921  -0.728   0.389  0.00  0.00     0.174 A 
ATOM      3  C3  BZF d   1       0.969  -1.251   1.631  0.00  0.00    -0.012 A 
ATOM      4  C3A BZF d   1       2.317  -1.057   2.069  0.00  0.00    -0.107 A 
ATOM      5  C4  BZF d   1       2.981  -1.351   3.226  0.00  0.00     0.055 A 
ATOM      6  C5  BZF d   1       4.313  -1.097   3.306  0.00  0.00    -0.016 A 
ATOM      7  C6  BZF d   1       5.014  -0.554   2.249  0.00  0.00     0.022 A 
ATOM      8  C7  BZF d   1       4.398  -0.241   1.083  0.00  0.00     0.029 A 
ATOM      9  C7A BZF d   1       3.045  -0.466   1.010  0.00  0.00     0.058 A 
ENDROOT
TORSDOF 0
ENDMDL
