MODEL 1
REMARK minimizedAffinity 7.42311144
REMARK minimizedRMSD -1
REMARK  0 active torsions:
REMARK  status: ('A' for Active; 'I' for Inactive)
ROOT
ATOM      1  O1  BZF d   1      -1.098  -3.743  -0.180  0.00  0.00    -0.204 OA
ATOM      2  C2  BZF d   1      -2.394  -3.744   0.297  0.00  0.00     0.174 A 
ATOM      3  C3  BZF d   1      -2.686  -2.570   0.893  0.00  0.00    -0.012 A 
ATOM      4  C3A BZF d   1      -1.528  -1.752   0.700  0.00  0.00    -0.107 A 
ATOM      5  C4  BZF d   1      -1.215  -0.470   1.051  0.00  0.00     0.055 A 
ATOM      6  C5  BZF d   1       0.028   0.005   0.776  0.00  0.00    -0.016 A 
ATOM      7  C6  BZF d   1       0.983  -0.775   0.158  0.00  0.00     0.022 A 
ATOM      8  C7  BZF d   1       0.718  -2.051  -0.214  0.00  0.00     0.029 A 
ATOM      9  C7A BZF d   1      -0.548  -2.523   0.032  0.00  0.00     0.058 A 
ENDROOT
TORSDOF 0
ENDMDL
