MODEL 1
REMARK minimizedAffinity 4.75410509
REMARK minimizedRMSD -1
REMARK  0 active torsions:
REMARK  status: ('A' for Active; 'I' for Inactive)
ROOT
ATOM      1  O1  BZF d   1      -2.960   1.824  -2.435  0.00  0.00    -0.204 OA
ATOM      2  C2  BZF d   1      -3.380   1.901  -3.749  0.00  0.00     0.174 A 
ATOM      3  C3  BZF d   1      -4.538   1.231  -3.921  0.00  0.00    -0.012 A 
ATOM      4  C3A BZF d   1      -4.909   0.780  -2.615  0.00  0.00    -0.107 A 
ATOM      5  C4  BZF d   1      -5.972   0.071  -2.134  0.00  0.00     0.055 A 
ATOM      6  C5  BZF d   1      -5.999  -0.268  -0.818  0.00  0.00    -0.016 A 
ATOM      7  C6  BZF d   1      -4.979   0.081   0.042  0.00  0.00     0.022 A 
ATOM      8  C7  BZF d   1      -3.906   0.789  -0.388  0.00  0.00     0.029 A 
ATOM      9  C7A BZF d   1      -3.892   1.161  -1.710  0.00  0.00     0.058 A 
ENDROOT
TORSDOF 0
ENDMDL
