MODEL 1
REMARK minimizedAffinity 9.40793324
REMARK minimizedRMSD -1
REMARK  0 active torsions:
REMARK  status: ('A' for Active; 'I' for Inactive)
ROOT
ATOM      1  O1  BZF d   1      -2.949   0.967  -3.258  0.00  0.00    -0.204 OA
ATOM      2  C2  BZF d   1      -4.169   1.342  -3.788  0.00  0.00     0.174 A 
ATOM      3  C3  BZF d   1      -4.105   2.586  -4.304  0.00  0.00    -0.012 A 
ATOM      4  C3A BZF d   1      -2.736   2.981  -4.165  0.00  0.00    -0.107 A 
ATOM      5  C4  BZF d   1      -2.045   4.108  -4.507  0.00  0.00     0.055 A 
ATOM      6  C5  BZF d   1      -0.733   4.207  -4.167  0.00  0.00    -0.016 A 
ATOM      7  C6  BZF d   1      -0.083   3.202  -3.482  0.00  0.00     0.022 A 
ATOM      8  C7  BZF d   1      -0.726   2.063  -3.126  0.00  0.00     0.029 A 
ATOM      9  C7A BZF d   1      -2.043   1.946  -3.497  0.00  0.00     0.058 A 
ENDROOT
TORSDOF 0
ENDMDL
