MODEL 1
REMARK minimizedAffinity 6.0689702
REMARK minimizedRMSD -1
REMARK  0 active torsions:
REMARK  status: ('A' for Active; 'I' for Inactive)
ROOT
ATOM      1  O1  BZF d   1      -2.059   1.212  -2.955  0.00  0.00    -0.204 OA
ATOM      2  C2  BZF d   1      -2.599   2.114  -3.851  0.00  0.00     0.174 A 
ATOM      3  C3  BZF d   1      -3.944   2.009  -3.885  0.00  0.00    -0.012 A 
ATOM      4  C3A BZF d   1      -4.270   1.041  -2.883  0.00  0.00    -0.107 A 
ATOM      5  C4  BZF d   1      -5.448   0.519  -2.430  0.00  0.00     0.055 A 
ATOM      6  C5  BZF d   1      -5.418  -0.463  -1.491  0.00  0.00    -0.016 A 
ATOM      7  C6  BZF d   1      -4.230  -0.950  -0.988  0.00  0.00     0.022 A 
ATOM      8  C7  BZF d   1      -3.036  -0.460  -1.402  0.00  0.00     0.029 A 
ATOM      9  C7A BZF d   1      -3.064   0.555  -2.327  0.00  0.00     0.058 A 
ENDROOT
TORSDOF 0
ENDMDL
