MODEL 1
REMARK minimizedAffinity 5.63164473
REMARK minimizedRMSD -1
REMARK  0 active torsions:
REMARK  status: ('A' for Active; 'I' for Inactive)
ROOT
ATOM      1  O1  BZF d   1      -0.839  -2.827   1.516  0.00  0.00    -0.204 OA
ATOM      2  C2  BZF d   1      -0.811  -3.878   0.619  0.00  0.00     0.174 A 
ATOM      3  C3  BZF d   1      -0.371  -3.465  -0.587  0.00  0.00    -0.012 A 
ATOM      4  C3A BZF d   1      -0.020  -2.089  -0.409  0.00  0.00    -0.107 A 
ATOM      5  C4  BZF d   1       0.494  -1.136  -1.241  0.00  0.00     0.055 A 
ATOM      6  C5  BZF d   1       0.651   0.131  -0.777  0.00  0.00    -0.016 A 
ATOM      7  C6  BZF d   1       0.302   0.481   0.511  0.00  0.00     0.022 A 
ATOM      8  C7  BZF d   1      -0.207  -0.431   1.375  0.00  0.00     0.029 A 
ATOM      9  C7A BZF d   1      -0.336  -1.720   0.919  0.00  0.00     0.058 A 
ENDROOT
TORSDOF 0
ENDMDL
