MODEL 1
REMARK minimizedAffinity -1.9502672
REMARK minimizedRMSD -1
REMARK  1 active torsions:
REMARK  status: ('A' for Active; 'I' for Inactive)
REMARK    1  A    between atoms: N_2  and  C1_3 
ROOT
ATOM      1  C1  UNL d   1       1.770   4.166   5.835  0.00  0.00     0.143 A 
ATOM      2  C2  UNL d   1       1.544   2.795   5.998  0.00  0.00    -0.057 A 
ATOM      3  C3  UNL d   1       2.545   1.856   5.722  0.00  0.00     0.033 A 
ATOM      4  C4  UNL d   1       3.785   2.272   5.248  0.00  0.00    -0.042 A 
ATOM      5  C5  UNL d   1       4.024   3.628   5.055  0.00  0.00     0.033 A 
ATOM      6  C6  UNL d   1       3.022   4.561   5.339  0.00  0.00    -0.057 A 
ENDROOT
BRANCH   1   7
ATOM      7  N   UNL d   1       0.784   5.142   5.999  0.00  0.00    -0.732 N 
ATOM      8  C   UNL d   1       0.335   5.933   4.873  0.00  0.00     0.284 C 
ATOM      9  H3  UNL d   1       0.036   4.838   6.618  0.00  0.00     0.395 HD
ENDBRANCH   1   7
TORSDOF 1
ENDMDL
