MODEL 1
REMARK minimizedAffinity 1.54684269
REMARK minimizedRMSD -1
REMARK  1 active torsions:
REMARK  status: ('A' for Active; 'I' for Inactive)
REMARK    1  A    between atoms: N_2  and  C1_3 
ROOT
ATOM      1  C1  UNL d   1       2.603   3.973   5.363  0.00  0.00     0.143 A 
ATOM      2  C2  UNL d   1       3.357   4.142   4.196  0.00  0.00    -0.057 A 
ATOM      3  C3  UNL d   1       4.110   3.092   3.660  0.00  0.00     0.033 A 
ATOM      4  C4  UNL d   1       4.146   1.857   4.298  0.00  0.00    -0.042 A 
ATOM      5  C5  UNL d   1       3.425   1.673   5.473  0.00  0.00     0.033 A 
ATOM      6  C6  UNL d   1       2.669   2.724   6.000  0.00  0.00    -0.057 A 
ENDROOT
BRANCH   1   7
ATOM      7  N   UNL d   1       1.912   5.007   5.999  0.00  0.00    -0.732 N 
ATOM      8  C   UNL d   1       0.961   5.817   5.269  0.00  0.00     0.284 C 
ATOM      9  H3  UNL d   1       1.608   4.751   6.936  0.00  0.00     0.395 HD
ENDBRANCH   1   7
TORSDOF 1
ENDMDL
