MODEL 1
REMARK minimizedAffinity 5.99994516
REMARK minimizedRMSD -1
REMARK  1 active torsions:
REMARK  status: ('A' for Active; 'I' for Inactive)
REMARK    1  A    between atoms: N_2  and  C1_3 
ROOT
ATOM      1  C1  UNL d   1       3.318   2.128   6.000  0.00  0.00     0.143 A 
ATOM      2  C2  UNL d   1       4.649   2.551   5.910  0.00  0.00    -0.057 A 
ATOM      3  C3  UNL d   1       4.977   3.911   5.866  0.00  0.00     0.033 A 
ATOM      4  C4  UNL d   1       3.975   4.875   5.882  0.00  0.00    -0.042 A 
ATOM      5  C5  UNL d   1       2.644   4.478   5.945  0.00  0.00     0.033 A 
ATOM      6  C6  UNL d   1       2.323   3.118   5.996  0.00  0.00    -0.057 A 
ENDROOT
BRANCH   1   7
ATOM      7  N   UNL d   1       2.922   0.789   5.948  0.00  0.00    -0.732 N 
ATOM      8  C   UNL d   1       3.141   0.002   4.753  0.00  0.00     0.284 C 
ATOM      9  H3  UNL d   1       3.117   0.292   6.814  0.00  0.00     0.395 HD
ENDBRANCH   1   7
TORSDOF 1
ENDMDL
