MODEL 1
REMARK minimizedAffinity -0.416525513
REMARK minimizedRMSD -1
REMARK  1 active torsions:
REMARK  status: ('A' for Active; 'I' for Inactive)
REMARK    1  A    between atoms: N_2  and  C1_3 
ROOT
ATOM      1  C1  UNL d   1       4.299   1.582   6.000  0.00  0.00     0.143 A 
ATOM      2  C2  UNL d   1       5.490   2.316   5.964  0.00  0.00    -0.057 A 
ATOM      3  C3  UNL d   1       5.480   3.716   5.974  0.00  0.00     0.033 A 
ATOM      4  C4  UNL d   1       4.274   4.409   5.989  0.00  0.00    -0.042 A 
ATOM      5  C5  UNL d   1       3.078   3.701   6.000  0.00  0.00     0.033 A 
ATOM      6  C6  UNL d   1       3.094   2.302   5.997  0.00  0.00    -0.057 A 
ENDROOT
BRANCH   1   7
ATOM      7  N   UNL d   1       4.240   0.190   5.893  0.00  0.00    -0.732 N 
ATOM      8  C   UNL d   1       2.965  -0.492   5.848  0.00  0.00     0.284 C 
ATOM      9  H3  UNL d   1       4.932  -0.179   5.246  0.00  0.00     0.395 HD
ENDBRANCH   1   7
TORSDOF 1
ENDMDL
