MODEL 1
REMARK minimizedAffinity 3.36518478
REMARK minimizedRMSD -1
REMARK  1 active torsions:
REMARK  status: ('A' for Active; 'I' for Inactive)
REMARK    1  A    between atoms: N_2  and  C1_3 
ROOT
ATOM      1  C1  UNL d   1       2.106   4.489   5.915  0.00  0.00     0.143 A 
ATOM      2  C2  UNL d   1       3.341   5.146   5.941  0.00  0.00    -0.057 A 
ATOM      3  C3  UNL d   1       4.544   4.429   5.968  0.00  0.00     0.033 A 
ATOM      4  C4  UNL d   1       4.531   3.038   6.000  0.00  0.00    -0.042 A 
ATOM      5  C5  UNL d   1       3.315   2.365   6.000  0.00  0.00     0.033 A 
ATOM      6  C6  UNL d   1       2.117   3.087   5.966  0.00  0.00    -0.057 A 
ENDROOT
BRANCH   1   7
ATOM      7  N   UNL d   1       0.875   5.146   5.988  0.00  0.00    -0.732 N 
ATOM      8  C   UNL d   1       0.129   5.448   4.785  0.00  0.00     0.284 C 
ATOM      9  H3  UNL d   1       0.302   4.813   6.759  0.00  0.00     0.395 HD
ENDBRANCH   1   7
TORSDOF 1
ENDMDL
