MODEL 1
REMARK minimizedAffinity 8.50394249
REMARK minimizedRMSD -1
REMARK  1 active torsions:
REMARK  status: ('A' for Active; 'I' for Inactive)
REMARK    1  A    between atoms: N_2  and  C1_3 
ROOT
ATOM      1  C1  UNL d   1       2.044   2.937   5.986  0.00  0.00     0.143 A 
ATOM      2  C2  UNL d   1       2.916   4.028   5.918  0.00  0.00    -0.057 A 
ATOM      3  C3  UNL d   1       2.435   5.343   5.911  0.00  0.00     0.033 A 
ATOM      4  C4  UNL d   1       1.066   5.589   5.943  0.00  0.00    -0.042 A 
ATOM      5  C5  UNL d   1       0.180   4.519   5.986  0.00  0.00     0.033 A 
ATOM      6  C6  UNL d   1       0.667   3.209   6.000  0.00  0.00    -0.057 A 
ENDROOT
BRANCH   1   7
ATOM      7  N   UNL d   1       2.456   1.605   5.897  0.00  0.00    -0.732 N 
ATOM      8  C   UNL d   1       3.858   1.259   5.996  0.00  0.00     0.284 C 
ATOM      9  H3  UNL d   1       1.835   0.972   6.397  0.00  0.00     0.395 HD
ENDBRANCH   1   7
TORSDOF 1
ENDMDL
