MODEL 1
REMARK minimizedAffinity 1.65778422
REMARK minimizedRMSD -1
REMARK  1 active torsions:
REMARK  status: ('A' for Active; 'I' for Inactive)
REMARK    1  A    between atoms: N_2  and  C1_3 
ROOT
ATOM      1  C1  UNL d   1       3.017   3.837   5.573  0.00  0.00     0.143 A 
ATOM      2  C2  UNL d   1       3.379   2.555   6.000  0.00  0.00    -0.057 A 
ATOM      3  C3  UNL d   1       4.490   1.897   5.460  0.00  0.00     0.033 A 
ATOM      4  C4  UNL d   1       5.245   2.500   4.459  0.00  0.00    -0.042 A 
ATOM      5  C5  UNL d   1       4.889   3.763   4.001  0.00  0.00     0.033 A 
ATOM      6  C6  UNL d   1       3.782   4.418   4.549  0.00  0.00    -0.057 A 
ENDROOT
BRANCH   1   7
ATOM      7  N   UNL d   1       1.865   4.503   6.000  0.00  0.00    -0.732 N 
ATOM      8  C   UNL d   1       1.343   5.626   5.252  0.00  0.00     0.284 C 
ATOM      9  H3  UNL d   1       1.152   3.864   6.343  0.00  0.00     0.395 HD
ENDBRANCH   1   7
TORSDOF 1
ENDMDL
