MODEL 1
REMARK minimizedAffinity 4.27277803
REMARK minimizedRMSD -1
REMARK  0 active torsions:
REMARK  status: ('A' for Active; 'I' for Inactive)
ROOT
ATOM      1  C   UNL d   1       5.515  -1.905  -2.656  0.00  0.00     0.023 A 
ATOM      2  C1  UNL d   1       6.000  -2.999  -3.373  0.00  0.00     0.003 A 
ATOM      3  C2  UNL d   1       5.196  -3.618  -4.333  0.00  0.00     0.048 A 
ATOM      4  C3  UNL d   1       3.909  -3.137  -4.571  0.00  0.00     0.023 A 
ATOM      5  C4  UNL d   1       3.420  -2.042  -3.857  0.00  0.00     0.048 A 
ATOM      6  C5  UNL d   1       4.227  -1.427  -2.897  0.00  0.00     0.003 A 
ATOM      7  I   UNL d   1       2.711  -4.056  -5.999  0.00  0.00    -0.146 I 
ENDROOT
TORSDOF 0
ENDMDL
