MODEL 1
REMARK minimizedAffinity 7.91564369
REMARK minimizedRMSD -1
REMARK  0 active torsions:
REMARK  status: ('A' for Active; 'I' for Inactive)
ROOT
ATOM      1  C   UNL d   1      -0.378   3.754  -2.059  0.00  0.00     0.023 A 
ATOM      2  C1  UNL d   1       0.964   4.137  -2.040  0.00  0.00     0.003 A 
ATOM      3  C2  UNL d   1       1.829   3.605  -1.081  0.00  0.00     0.048 A 
ATOM      4  C3  UNL d   1       1.347   2.691  -0.146  0.00  0.00     0.023 A 
ATOM      5  C4  UNL d   1       0.005   2.304  -0.162  0.00  0.00     0.048 A 
ATOM      6  C5  UNL d   1      -0.856   2.839  -1.121  0.00  0.00     0.003 A 
ATOM      7  I   UNL d   1       2.633   1.898   1.282  0.00  0.00    -0.146 I 
ENDROOT
TORSDOF 0
ENDMDL
