MODEL 1
REMARK minimizedAffinity -2.30827761
REMARK minimizedRMSD -1
REMARK  0 active torsions:
REMARK  status: ('A' for Active; 'I' for Inactive)
ROOT
ATOM      1  C   UNL d   1       2.075   4.033   0.328  0.00  0.00     0.023 A 
ATOM      2  C1  UNL d   1       1.510   4.329  -0.912  0.00  0.00     0.003 A 
ATOM      3  C2  UNL d   1       0.421   3.591  -1.379  0.00  0.00     0.048 A 
ATOM      4  C3  UNL d   1      -0.100   2.559  -0.599  0.00  0.00     0.023 A 
ATOM      5  C4  UNL d   1       0.461   2.260   0.643  0.00  0.00     0.048 A 
ATOM      6  C5  UNL d   1       1.551   3.000   1.105  0.00  0.00     0.003 A 
ATOM      7  I   UNL d   1      -1.722   1.459  -1.291  0.00  0.00    -0.146 I 
ENDROOT
TORSDOF 0
ENDMDL
