MODEL 1
REMARK minimizedAffinity -0.834610343
REMARK minimizedRMSD -1
REMARK  0 active torsions:
REMARK  status: ('A' for Active; 'I' for Inactive)
ROOT
ATOM      1  C   UNL d   1       5.347  -2.025  -2.857  0.00  0.00     0.023 A 
ATOM      2  C1  UNL d   1       5.498  -3.397  -2.652  0.00  0.00     0.003 A 
ATOM      3  C2  UNL d   1       4.513  -4.115  -1.971  0.00  0.00     0.048 A 
ATOM      4  C3  UNL d   1       3.379  -3.456  -1.498  0.00  0.00     0.023 A 
ATOM      5  C4  UNL d   1       3.222  -2.084  -1.702  0.00  0.00     0.048 A 
ATOM      6  C5  UNL d   1       4.210  -1.369  -2.383  0.00  0.00     0.003 A 
ATOM      7  I   UNL d   1       1.911  -4.523  -0.485  0.00  0.00    -0.146 I 
ENDROOT
TORSDOF 0
ENDMDL
