MODEL 1
REMARK minimizedAffinity 0.423486561
REMARK minimizedRMSD -1
REMARK  0 active torsions:
REMARK  status: ('A' for Active; 'I' for Inactive)
ROOT
ATOM      1  C   UNL d   1      -4.015   1.188  -2.590  0.00  0.00     0.023 A 
ATOM      2  C1  UNL d   1      -3.873   2.521  -2.976  0.00  0.00     0.003 A 
ATOM      3  C2  UNL d   1      -2.784   3.268  -2.523  0.00  0.00     0.048 A 
ATOM      4  C3  UNL d   1      -1.840   2.676  -1.685  0.00  0.00     0.023 A 
ATOM      5  C4  UNL d   1      -1.977   1.342  -1.297  0.00  0.00     0.048 A 
ATOM      6  C5  UNL d   1      -3.068   0.599  -1.751  0.00  0.00     0.003 A 
ATOM      7  I   UNL d   1      -0.218   3.786  -1.010  0.00  0.00    -0.146 I 
ENDROOT
TORSDOF 0
ENDMDL
