MODEL 1
REMARK minimizedAffinity 6.11373425
REMARK minimizedRMSD -1
REMARK  0 active torsions:
REMARK  status: ('A' for Active; 'I' for Inactive)
ROOT
ATOM      1  C   UNL d   1       5.663  -3.525  -0.938  0.00  0.00     0.023 A 
ATOM      2  C1  UNL d   1       4.645  -2.651  -0.556  0.00  0.00     0.003 A 
ATOM      3  C2  UNL d   1       3.315  -3.073  -0.583  0.00  0.00     0.048 A 
ATOM      4  C3  UNL d   1       3.009  -4.370  -0.991  0.00  0.00     0.023 A 
ATOM      5  C4  UNL d   1       4.024  -5.249  -1.374  0.00  0.00     0.048 A 
ATOM      6  C5  UNL d   1       5.353  -4.822  -1.346  0.00  0.00     0.003 A 
ATOM      7  I   UNL d   1       1.029  -5.001  -1.031  0.00  0.00    -0.146 I 
ENDROOT
TORSDOF 0
ENDMDL
