MODEL 1
REMARK minimizedAffinity 1.95755267
REMARK minimizedRMSD -1
REMARK  0 active torsions:
REMARK  status: ('A' for Active; 'I' for Inactive)
ROOT
ATOM      1  C   UNL d   1       4.819  -3.007  -0.053  0.00  0.00     0.023 A 
ATOM      2  C1  UNL d   1       4.118  -2.660  -1.208  0.00  0.00     0.003 A 
ATOM      3  C2  UNL d   1       4.118  -3.518  -2.310  0.00  0.00     0.048 A 
ATOM      4  C3  UNL d   1       4.821  -4.720  -2.250  0.00  0.00     0.023 A 
ATOM      5  C4  UNL d   1       5.524  -5.072  -1.096  0.00  0.00     0.048 A 
ATOM      6  C5  UNL d   1       5.521  -4.211   0.003  0.00  0.00     0.003 A 
ATOM      7  I   UNL d   1       4.824  -5.998  -3.889  0.00  0.00    -0.146 I 
ENDROOT
TORSDOF 0
ENDMDL
