MODEL 1
REMARK minimizedAffinity 6.13608885
REMARK minimizedRMSD -1
REMARK  0 active torsions:
REMARK  status: ('A' for Active; 'I' for Inactive)
ROOT
ATOM      1  C   UNL d   1       1.505  -4.511   0.160  0.00  0.00     0.023 A 
ATOM      2  C1  UNL d   1       2.695  -3.784   0.134  0.00  0.00     0.003 A 
ATOM      3  C2  UNL d   1       3.571  -3.914  -0.945  0.00  0.00     0.048 A 
ATOM      4  C3  UNL d   1       3.251  -4.774  -1.996  0.00  0.00     0.023 A 
ATOM      5  C4  UNL d   1       2.062  -5.503  -1.975  0.00  0.00     0.048 A 
ATOM      6  C5  UNL d   1       1.189  -5.370  -0.893  0.00  0.00     0.003 A 
ATOM      7  I   UNL d   1       4.555  -4.970  -3.603  0.00  0.00    -0.146 I 
ENDROOT
TORSDOF 0
ENDMDL
