MODEL 1
REMARK minimizedAffinity 7.60102272
REMARK minimizedRMSD -1
REMARK  0 active torsions:
REMARK  status: ('A' for Active; 'I' for Inactive)
ROOT
ATOM      1  C   UNL d   1       4.507  -3.370   4.184  0.00  0.00     0.023 A 
ATOM      2  C1  UNL d   1       4.144  -3.734   5.481  0.00  0.00     0.003 A 
ATOM      3  C2  UNL d   1       2.911  -3.336   6.000  0.00  0.00     0.048 A 
ATOM      4  C3  UNL d   1       2.045  -2.574   5.216  0.00  0.00     0.023 A 
ATOM      5  C4  UNL d   1       2.403  -2.208   3.918  0.00  0.00     0.048 A 
ATOM      6  C5  UNL d   1       3.638  -2.607   3.404  0.00  0.00     0.003 A 
ATOM      7  I   UNL d   1       0.208  -1.980   5.987  0.00  0.00    -0.146 I 
ENDROOT
TORSDOF 0
ENDMDL
