MODEL 1
REMARK minimizedAffinity 0.294458449
REMARK minimizedRMSD -1
REMARK  0 active torsions:
REMARK  status: ('A' for Active; 'I' for Inactive)
ROOT
ATOM      1  C   UNL d   1      -2.858  -0.547  -5.910  0.00  0.00     0.077 C 
ATOM      2  C1  UNL d   1      -2.987   0.948  -5.933  0.00  0.00    -0.074 A 
ATOM      3  C2  UNL d   1      -1.853   1.767  -5.954  0.00  0.00    -0.005 A 
ATOM      4  C3  UNL d   1      -1.989   3.155  -5.985  0.00  0.00     0.006 A 
ATOM      5  C4  UNL d   1      -3.258   3.736  -5.996  0.00  0.00    -0.005 A 
ATOM      6  C5  UNL d   1      -4.402   2.933  -5.976  0.00  0.00    -0.074 A 
ATOM      7  C6  UNL d   1      -5.773   3.542  -5.997  0.00  0.00     0.077 C 
ATOM      8  C7  UNL d   1      -4.258   1.539  -5.952  0.00  0.00    -0.001 A 
ENDROOT
TORSDOF 0
ENDMDL
