MODEL 1
REMARK minimizedAffinity -0.293273121
REMARK minimizedRMSD -1
REMARK  0 active torsions:
REMARK  status: ('A' for Active; 'I' for Inactive)
ROOT
ATOM      1  C   UNL d   1      -1.116  -1.523  -1.050  0.00  0.00     0.077 C 
ATOM      2  C1  UNL d   1       0.109  -0.657  -1.032  0.00  0.00    -0.074 A 
ATOM      3  C2  UNL d   1       1.082  -0.768  -2.030  0.00  0.00    -0.005 A 
ATOM      4  C3  UNL d   1       2.211   0.051  -2.006  0.00  0.00     0.006 A 
ATOM      5  C4  UNL d   1       2.378   0.987  -0.984  0.00  0.00    -0.005 A 
ATOM      6  C5  UNL d   1       1.415   1.112   0.022  0.00  0.00    -0.074 A 
ATOM      7  C6  UNL d   1       1.574   2.120   1.122  0.00  0.00     0.077 C 
ATOM      8  C7  UNL d   1       0.280   0.291  -0.014  0.00  0.00    -0.001 A 
ENDROOT
TORSDOF 0
ENDMDL
