MODEL 1
REMARK minimizedAffinity -1.73403883
REMARK minimizedRMSD -1
REMARK  0 active torsions:
REMARK  status: ('A' for Active; 'I' for Inactive)
ROOT
ATOM      1  C   UNL d   1       2.048  -2.779  -2.089  0.00  0.00     0.077 C 
ATOM      2  C1  UNL d   1       1.462  -1.481  -1.619  0.00  0.00    -0.074 A 
ATOM      3  C2  UNL d   1       0.105  -1.381  -1.295  0.00  0.00    -0.005 A 
ATOM      4  C3  UNL d   1      -0.424  -0.169  -0.851  0.00  0.00     0.006 A 
ATOM      5  C4  UNL d   1       0.397   0.952  -0.725  0.00  0.00    -0.005 A 
ATOM      6  C5  UNL d   1       1.757   0.871  -1.044  0.00  0.00    -0.074 A 
ATOM      7  C6  UNL d   1       2.655   2.064  -0.905  0.00  0.00     0.077 C 
ATOM      8  C7  UNL d   1       2.282  -0.352  -1.483  0.00  0.00    -0.001 A 
ENDROOT
TORSDOF 0
ENDMDL
