MODEL 1
REMARK minimizedAffinity 0.551885486
REMARK minimizedRMSD -1
REMARK  0 active torsions:
REMARK  status: ('A' for Active; 'I' for Inactive)
ROOT
ATOM      1  C   UNL d   1       1.722   2.443   0.740  0.00  0.00     0.077 C 
ATOM      2  C1  UNL d   1       1.482   1.343  -0.251  0.00  0.00    -0.074 A 
ATOM      3  C2  UNL d   1       2.286   1.212  -1.388  0.00  0.00    -0.005 A 
ATOM      4  C3  UNL d   1       2.056   0.178  -2.296  0.00  0.00     0.006 A 
ATOM      5  C4  UNL d   1       1.023  -0.734  -2.076  0.00  0.00    -0.005 A 
ATOM      6  C5  UNL d   1       0.211  -0.620  -0.944  0.00  0.00    -0.074 A 
ATOM      7  C6  UNL d   1      -0.898  -1.597  -0.687  0.00  0.00     0.077 C 
ATOM      8  C7  UNL d   1       0.452   0.418  -0.033  0.00  0.00    -0.001 A 
ENDROOT
TORSDOF 0
ENDMDL
