MODEL 1
REMARK minimizedAffinity -2.06863117
REMARK minimizedRMSD -1
REMARK  0 active torsions:
REMARK  status: ('A' for Active; 'I' for Inactive)
ROOT
ATOM      1  C   UNL d   1      -4.894   4.552  -5.987  0.00  0.00     0.077 C 
ATOM      2  C1  UNL d   1      -4.421   3.129  -5.998  0.00  0.00    -0.074 A 
ATOM      3  C2  UNL d   1      -3.056   2.825  -5.997  0.00  0.00    -0.005 A 
ATOM      4  C3  UNL d   1      -2.631   1.497  -5.997  0.00  0.00     0.006 A 
ATOM      5  C4  UNL d   1      -3.565   0.460  -6.000  0.00  0.00    -0.005 A 
ATOM      6  C5  UNL d   1      -4.934   0.745  -6.000  0.00  0.00    -0.074 A 
ATOM      7  C6  UNL d   1      -5.952  -0.357  -5.992  0.00  0.00     0.077 C 
ATOM      8  C7  UNL d   1      -5.354   2.082  -5.992  0.00  0.00    -0.001 A 
ENDROOT
TORSDOF 0
ENDMDL
