MODEL 1
REMARK minimizedAffinity -1.6808871
REMARK minimizedRMSD -1
REMARK  0 active torsions:
REMARK  status: ('A' for Active; 'I' for Inactive)
ROOT
ATOM      1  C   UNL d   1      -1.595  -5.999  -5.236  0.00  0.00     0.077 C 
ATOM      2  C1  UNL d   1      -2.908  -5.295  -5.408  0.00  0.00    -0.074 A 
ATOM      3  C2  UNL d   1      -4.041  -5.984  -5.853  0.00  0.00    -0.005 A 
ATOM      4  C3  UNL d   1      -5.257  -5.318  -5.999  0.00  0.00     0.006 A 
ATOM      5  C4  UNL d   1      -5.353  -3.958  -5.702  0.00  0.00    -0.005 A 
ATOM      6  C5  UNL d   1      -4.232  -3.252  -5.255  0.00  0.00    -0.074 A 
ATOM      7  C6  UNL d   1      -4.320  -1.792  -4.922  0.00  0.00     0.077 C 
ATOM      8  C7  UNL d   1      -3.014  -3.930  -5.104  0.00  0.00    -0.001 A 
ENDROOT
TORSDOF 0
ENDMDL
