MODEL 1
REMARK minimizedAffinity 6.13294172
REMARK minimizedRMSD -1
REMARK  0 active torsions:
REMARK  status: ('A' for Active; 'I' for Inactive)
ROOT
ATOM      1  C   UNL d   1      -3.407  -2.898   2.464  0.00  0.00     0.077 C 
ATOM      2  C1  UNL d   1      -4.076  -1.713   1.835  0.00  0.00    -0.074 A 
ATOM      3  C2  UNL d   1      -5.339  -1.830   1.245  0.00  0.00    -0.005 A 
ATOM      4  C3  UNL d   1      -5.953  -0.717   0.671  0.00  0.00     0.006 A 
ATOM      5  C4  UNL d   1      -5.313   0.522   0.682  0.00  0.00    -0.005 A 
ATOM      6  C5  UNL d   1      -4.050   0.659   1.268  0.00  0.00    -0.074 A 
ATOM      7  C6  UNL d   1      -3.352   1.986   1.297  0.00  0.00     0.077 C 
ATOM      8  C7  UNL d   1      -3.443  -0.463   1.848  0.00  0.00    -0.001 A 
ENDROOT
TORSDOF 0
ENDMDL
