MODEL 1
REMARK minimizedAffinity -1.72778285
REMARK minimizedRMSD -1
REMARK  0 active torsions:
REMARK  status: ('A' for Active; 'I' for Inactive)
ROOT
ATOM      1  C   UNL d   1      -5.271   2.983  -5.983  0.00  0.00     0.077 C 
ATOM      2  C1  UNL d   1      -4.358   1.794  -5.995  0.00  0.00    -0.074 A 
ATOM      3  C2  UNL d   1      -2.968   1.955  -5.995  0.00  0.00    -0.005 A 
ATOM      4  C3  UNL d   1      -2.131   0.839  -5.997  0.00  0.00     0.006 A 
ATOM      5  C4  UNL d   1      -2.674  -0.447  -5.998  0.00  0.00    -0.005 A 
ATOM      6  C5  UNL d   1      -4.061  -0.627  -5.996  0.00  0.00    -0.074 A 
ATOM      7  C6  UNL d   1      -4.660  -2.002  -5.987  0.00  0.00     0.077 C 
ATOM      8  C7  UNL d   1      -4.895   0.499  -5.988  0.00  0.00    -0.001 A 
ENDROOT
TORSDOF 0
ENDMDL
