MODEL 1
REMARK minimizedAffinity 1.53684783
REMARK minimizedRMSD -1
REMARK  0 active torsions:
REMARK  status: ('A' for Active; 'I' for Inactive)
ROOT
ATOM      1  C   UNL d   1       1.859  -0.212  -3.039  0.00  0.00     0.077 C 
ATOM      2  C1  UNL d   1       1.442   0.028  -1.619  0.00  0.00    -0.074 A 
ATOM      3  C2  UNL d   1       0.603  -0.873  -0.954  0.00  0.00    -0.005 A 
ATOM      4  C3  UNL d   1       0.232  -0.642   0.371  0.00  0.00     0.006 A 
ATOM      5  C4  UNL d   1       0.694   0.491   1.042  0.00  0.00    -0.005 A 
ATOM      6  C5  UNL d   1       1.533   1.402   0.394  0.00  0.00    -0.074 A 
ATOM      7  C6  UNL d   1       2.047   2.619   1.105  0.00  0.00     0.077 C 
ATOM      8  C7  UNL d   1       1.908   1.159  -0.934  0.00  0.00    -0.001 A 
ENDROOT
TORSDOF 0
ENDMDL
