MODEL 1
REMARK minimizedAffinity -1.45528483
REMARK minimizedRMSD -1
REMARK  0 active torsions:
REMARK  status: ('A' for Active; 'I' for Inactive)
ROOT
ATOM      1  C   UNL d   1      -5.870   3.566  -6.000  0.00  0.00     0.077 C 
ATOM      2  C1  UNL d   1      -4.721   2.603  -5.999  0.00  0.00    -0.074 A 
ATOM      3  C2  UNL d   1      -3.399   3.060  -5.986  0.00  0.00    -0.005 A 
ATOM      4  C3  UNL d   1      -2.341   2.152  -5.975  0.00  0.00     0.006 A 
ATOM      5  C4  UNL d   1      -2.593   0.779  -5.978  0.00  0.00    -0.005 A 
ATOM      6  C5  UNL d   1      -3.908   0.303  -5.990  0.00  0.00    -0.074 A 
ATOM      7  C6  UNL d   1      -4.196  -1.169  -5.984  0.00  0.00     0.077 C 
ATOM      8  C7  UNL d   1      -4.966   1.222  -5.994  0.00  0.00    -0.001 A 
ENDROOT
TORSDOF 0
ENDMDL
