MODEL 1
REMARK minimizedAffinity -3.09211731
REMARK minimizedRMSD -1
REMARK  0 active torsions:
REMARK  status: ('A' for Active; 'I' for Inactive)
ROOT
ATOM      1  C   UNL d   1       0.960   0.697   1.153  0.00  0.00     0.077 C 
ATOM      2  C1  UNL d   1       0.956   0.262  -0.282  0.00  0.00    -0.074 A 
ATOM      3  C2  UNL d   1       1.984   0.643  -1.151  0.00  0.00    -0.005 A 
ATOM      4  C3  UNL d   1       1.971   0.223  -2.481  0.00  0.00     0.006 A 
ATOM      5  C4  UNL d   1       0.933  -0.580  -2.955  0.00  0.00    -0.005 A 
ATOM      6  C5  UNL d   1      -0.103  -0.971  -2.101  0.00  0.00    -0.074 A 
ATOM      7  C6  UNL d   1      -1.221  -1.841  -2.591  0.00  0.00     0.077 C 
ATOM      8  C7  UNL d   1      -0.080  -0.551  -0.764  0.00  0.00    -0.001 A 
ENDROOT
TORSDOF 0
ENDMDL
