MODEL 1
REMARK minimizedAffinity -1.42749393
REMARK minimizedRMSD -1
REMARK  0 active torsions:
REMARK  status: ('A' for Active; 'I' for Inactive)
ROOT
ATOM      1  C   UNL d   1      -3.855   5.994  -5.999  0.00  0.00     0.077 C 
ATOM      2  C1  UNL d   1      -4.138   4.522  -5.991  0.00  0.00    -0.074 A 
ATOM      3  C2  UNL d   1      -5.452   4.043  -5.996  0.00  0.00    -0.005 A 
ATOM      4  C3  UNL d   1      -5.701   2.670  -5.999  0.00  0.00     0.006 A 
ATOM      5  C4  UNL d   1      -4.639   1.764  -5.996  0.00  0.00    -0.005 A 
ATOM      6  C5  UNL d   1      -3.319   2.225  -5.992  0.00  0.00    -0.074 A 
ATOM      7  C6  UNL d   1      -2.167   1.264  -6.000  0.00  0.00     0.077 C 
ATOM      8  C7  UNL d   1      -3.078   3.605  -5.997  0.00  0.00    -0.001 A 
ENDROOT
TORSDOF 0
ENDMDL
