MODEL 1
REMARK minimizedAffinity -3.89371586
REMARK minimizedRMSD -1
REMARK  0 active torsions:
REMARK  status: ('A' for Active; 'I' for Inactive)
ROOT
ATOM      1  C   UNL d   1      -3.492   0.451  -5.999  0.00  0.00     0.077 C 
ATOM      2  C1  UNL d   1      -3.477   1.945  -5.868  0.00  0.00    -0.074 A 
ATOM      3  C2  UNL d   1      -2.281   2.636  -5.649  0.00  0.00    -0.005 A 
ATOM      4  C3  UNL d   1      -2.282   4.026  -5.539  0.00  0.00     0.006 A 
ATOM      5  C4  UNL d   1      -3.477   4.739  -5.647  0.00  0.00    -0.005 A 
ATOM      6  C5  UNL d   1      -4.683   4.065  -5.867  0.00  0.00    -0.074 A 
ATOM      7  C6  UNL d   1      -5.974   4.817  -5.996  0.00  0.00     0.077 C 
ATOM      8  C7  UNL d   1      -4.673   2.668  -5.984  0.00  0.00    -0.001 A 
ENDROOT
TORSDOF 0
ENDMDL
