MODEL 1
REMARK minimizedAffinity 5.31391287
REMARK minimizedRMSD -1
REMARK  0 active torsions:
REMARK  status: ('A' for Active; 'I' for Inactive)
ROOT
ATOM      1  C   UNL d   1      -5.626  -0.175  -5.994  0.00  0.00     0.077 C 
ATOM      2  C1  UNL d   1      -4.793   1.070  -5.928  0.00  0.00    -0.074 A 
ATOM      3  C2  UNL d   1      -5.385   2.335  -5.997  0.00  0.00    -0.005 A 
ATOM      4  C3  UNL d   1      -4.598   3.485  -5.925  0.00  0.00     0.006 A 
ATOM      5  C4  UNL d   1      -3.213   3.380  -5.784  0.00  0.00    -0.005 A 
ATOM      6  C5  UNL d   1      -2.604   2.124  -5.713  0.00  0.00    -0.074 A 
ATOM      7  C6  UNL d   1      -1.118   1.994  -5.552  0.00  0.00     0.077 C 
ATOM      8  C7  UNL d   1      -3.402   0.974  -5.779  0.00  0.00    -0.001 A 
ENDROOT
TORSDOF 0
ENDMDL
