MODEL 1
REMARK minimizedAffinity 0.630191267
REMARK minimizedRMSD -1
REMARK  0 active torsions:
REMARK  status: ('A' for Active; 'I' for Inactive)
ROOT
ATOM      1  C   UNL d   1      -3.077  -1.298  -5.599  0.00  0.00     0.077 C 
ATOM      2  C1  UNL d   1      -3.330  -2.773  -5.697  0.00  0.00    -0.074 A 
ATOM      3  C2  UNL d   1      -4.621  -3.269  -5.901  0.00  0.00    -0.005 A 
ATOM      4  C3  UNL d   1      -4.839  -4.643  -5.999  0.00  0.00     0.006 A 
ATOM      5  C4  UNL d   1      -3.770  -5.533  -5.895  0.00  0.00    -0.005 A 
ATOM      6  C5  UNL d   1      -2.472  -5.056  -5.692  0.00  0.00    -0.074 A 
ATOM      7  C6  UNL d   1      -1.310  -5.999  -5.588  0.00  0.00     0.077 C 
ATOM      8  C7  UNL d   1      -2.259  -3.673  -5.601  0.00  0.00    -0.001 A 
ENDROOT
TORSDOF 0
ENDMDL
