MODEL 1
REMARK minimizedAffinity -1.010028
REMARK minimizedRMSD -1
REMARK  0 active torsions:
REMARK  status: ('A' for Active; 'I' for Inactive)
ROOT
ATOM      1  C   UNL d   1       1.813   0.057  -3.252  0.00  0.00     0.077 C 
ATOM      2  C1  UNL d   1       1.327   0.071  -1.833  0.00  0.00    -0.074 A 
ATOM      3  C2  UNL d   1       1.565   1.171  -1.002  0.00  0.00    -0.005 A 
ATOM      4  C3  UNL d   1       1.100   1.173   0.313  0.00  0.00     0.006 A 
ATOM      5  C4  UNL d   1       0.393   0.077   0.810  0.00  0.00    -0.005 A 
ATOM      6  C5  UNL d   1       0.145  -1.031  -0.006  0.00  0.00    -0.074 A 
ATOM      7  C6  UNL d   1      -0.622  -2.213   0.509  0.00  0.00     0.077 C 
ATOM      8  C7  UNL d   1       0.610  -1.023  -1.328  0.00  0.00    -0.001 A 
ENDROOT
TORSDOF 0
ENDMDL
