MODEL 1
REMARK minimizedAffinity -3.44027781
REMARK minimizedRMSD -1
REMARK  0 active torsions:
REMARK  status: ('A' for Active; 'I' for Inactive)
ROOT
ATOM      1  C   UNL d   1      -2.095   6.000  -5.976  0.00  0.00     0.077 C 
ATOM      2  C1  UNL d   1      -2.949   4.768  -5.977  0.00  0.00    -0.074 A 
ATOM      3  C2  UNL d   1      -4.345   4.861  -5.990  0.00  0.00    -0.005 A 
ATOM      4  C3  UNL d   1      -5.127   3.705  -5.999  0.00  0.00     0.006 A 
ATOM      5  C4  UNL d   1      -4.522   2.448  -5.996  0.00  0.00    -0.005 A 
ATOM      6  C5  UNL d   1      -3.128   2.335  -5.984  0.00  0.00    -0.074 A 
ATOM      7  C6  UNL d   1      -2.462   0.991  -5.991  0.00  0.00     0.077 C 
ATOM      8  C7  UNL d   1      -2.349   3.500  -5.982  0.00  0.00    -0.001 A 
ENDROOT
TORSDOF 0
ENDMDL
