MODEL 1
REMARK minimizedAffinity -5.91709518
REMARK minimizedRMSD -1
REMARK  2 active torsions:
REMARK  status: ('A' for Active; 'I' for Inactive)
REMARK    1  A    between atoms: C1_2  and  C2_3 
REMARK    2  A    between atoms: C2_3  and  C3_4 
ROOT
ATOM      1  C3  UNL d   1       0.031   0.052   0.148  0.00  0.00    -0.075 A 
ATOM      2  C4  UNL d   1      -0.832   0.774  -0.688  0.00  0.00     0.002 A 
ATOM      3  C5  UNL d   1      -1.732   1.695  -0.151  0.00  0.00     0.002 A 
ATOM      4  C6  UNL d   1      -1.788   1.897   1.227  0.00  0.00    -0.004 A 
ATOM      5  C7  UNL d   1      -0.947   1.173   2.068  0.00  0.00     0.002 A 
ATOM      6  C8  UNL d   1      -0.042   0.254   1.533  0.00  0.00     0.002 A 
ENDROOT
BRANCH   1   7
ATOM      7  C2  UNL d   1       1.028  -0.924  -0.429  0.00  0.00     0.056 C 
BRANCH   7   8
ATOM      8  C1  UNL d   1       0.490  -1.742  -1.607  0.00  0.00     0.007 C 
ATOM      9  C   UNL d   1       0.624  -3.246  -1.406  0.00  0.00     0.009 C 
ENDBRANCH   7   8
ENDBRANCH   1   7
TORSDOF 2
ENDMDL
