MODEL 1
REMARK minimizedAffinity -4.32521391
REMARK minimizedRMSD -1
REMARK  2 active torsions:
REMARK  status: ('A' for Active; 'I' for Inactive)
REMARK    1  A    between atoms: C1_2  and  C2_3 
REMARK    2  A    between atoms: C2_3  and  C3_4 
ROOT
ATOM      1  C3  UNL d   1       0.622  -1.703  -1.030  0.00  0.00    -0.075 A 
ATOM      2  C4  UNL d   1       0.406  -1.519  -2.404  0.00  0.00     0.002 A 
ATOM      3  C5  UNL d   1       0.155  -2.611  -3.234  0.00  0.00     0.002 A 
ATOM      4  C6  UNL d   1       0.127  -3.900  -2.705  0.00  0.00    -0.004 A 
ATOM      5  C7  UNL d   1       0.357  -4.096  -1.345  0.00  0.00     0.002 A 
ATOM      6  C8  UNL d   1       0.604  -3.004  -0.511  0.00  0.00     0.002 A 
ENDROOT
BRANCH   1   7
ATOM      7  C2  UNL d   1       0.865  -0.522  -0.121  0.00  0.00     0.056 C 
BRANCH   7   8
ATOM      8  C1  UNL d   1      -0.412   0.213   0.301  0.00  0.00     0.007 C 
ATOM      9  C   UNL d   1      -0.552   0.354   1.811  0.00  0.00     0.009 C 
ENDBRANCH   7   8
ENDBRANCH   1   7
TORSDOF 2
ENDMDL
