MODEL 1
REMARK minimizedAffinity -4.23654127
REMARK minimizedRMSD -1
REMARK  2 active torsions:
REMARK  status: ('A' for Active; 'I' for Inactive)
REMARK    1  A    between atoms: C1_2  and  C2_3 
REMARK    2  A    between atoms: C2_3  and  C3_4 
ROOT
ATOM      1  C3  UNL d   1       0.496  -0.994  -1.021  0.00  0.00    -0.075 A 
ATOM      2  C4  UNL d   1       0.072  -1.273  -2.329  0.00  0.00     0.002 A 
ATOM      3  C5  UNL d   1       0.415  -2.479  -2.942  0.00  0.00     0.002 A 
ATOM      4  C6  UNL d   1       1.192  -3.414  -2.263  0.00  0.00    -0.004 A 
ATOM      5  C7  UNL d   1       1.632  -3.140  -0.970  0.00  0.00     0.002 A 
ATOM      6  C8  UNL d   1       1.288  -1.937  -0.352  0.00  0.00     0.002 A 
ENDROOT
BRANCH   1   7
ATOM      7  C2  UNL d   1       0.105   0.295  -0.341  0.00  0.00     0.056 C 
BRANCH   7   8
ATOM      8  C1  UNL d   1      -0.633   0.101   0.988  0.00  0.00     0.007 C 
ATOM      9  C   UNL d   1      -1.006   1.412   1.666  0.00  0.00     0.009 C 
ENDBRANCH   7   8
ENDBRANCH   1   7
TORSDOF 2
ENDMDL
