MODEL 1
REMARK minimizedAffinity -2.35026646
REMARK minimizedRMSD -1
REMARK  2 active torsions:
REMARK  status: ('A' for Active; 'I' for Inactive)
REMARK    1  A    between atoms: C1_2  and  C2_3 
REMARK    2  A    between atoms: C2_3  and  C3_4 
ROOT
ATOM      1  C3  UNL d   1       0.757  -3.929  -1.374  0.00  0.00    -0.075 A 
ATOM      2  C4  UNL d   1       1.095  -2.915  -0.466  0.00  0.00     0.002 A 
ATOM      3  C5  UNL d   1       0.761  -1.587  -0.731  0.00  0.00     0.002 A 
ATOM      4  C6  UNL d   1       0.094  -1.254  -1.908  0.00  0.00    -0.004 A 
ATOM      5  C7  UNL d   1      -0.233  -2.251  -2.824  0.00  0.00     0.002 A 
ATOM      6  C8  UNL d   1       0.097  -3.582  -2.560  0.00  0.00     0.002 A 
ENDROOT
BRANCH   1   7
ATOM      7  C2  UNL d   1       1.090  -5.372  -1.079  0.00  0.00     0.056 C 
BRANCH   7   8
ATOM      8  C1  UNL d   1       1.335  -5.666   0.404  0.00  0.00     0.007 C 
ATOM      9  C   UNL d   1       2.787  -6.000   0.719  0.00  0.00     0.009 C 
ENDBRANCH   7   8
ENDBRANCH   1   7
TORSDOF 2
ENDMDL
