MODEL 1
REMARK minimizedAffinity -6.199862
REMARK minimizedRMSD -1
REMARK  2 active torsions:
REMARK  status: ('A' for Active; 'I' for Inactive)
REMARK    1  A    between atoms: C1_2  and  C2_3 
REMARK    2  A    between atoms: C2_3  and  C3_4 
ROOT
ATOM      1  C3  UNL d   1      -0.029   1.177   0.006  0.00  0.00    -0.075 A 
ATOM      2  C4  UNL d   1      -0.369   2.457  -0.455  0.00  0.00     0.002 A 
ATOM      3  C5  UNL d   1      -1.196   3.287   0.303  0.00  0.00     0.002 A 
ATOM      4  C6  UNL d   1      -1.700   2.845   1.524  0.00  0.00    -0.004 A 
ATOM      5  C7  UNL d   1      -1.381   1.569   1.984  0.00  0.00     0.002 A 
ATOM      6  C8  UNL d   1      -0.551   0.738   1.230  0.00  0.00     0.002 A 
ENDROOT
BRANCH   1   7
ATOM      7  C2  UNL d   1       0.889   0.286  -0.796  0.00  0.00     0.056 C 
BRANCH   7   8
ATOM      8  C1  UNL d   1       1.211  -1.050  -0.118  0.00  0.00     0.007 C 
ATOM      9  C   UNL d   1       1.097  -2.243  -1.058  0.00  0.00     0.009 C 
ENDBRANCH   7   8
ENDBRANCH   1   7
TORSDOF 2
ENDMDL
