MODEL 1
REMARK minimizedAffinity -4.6079669
REMARK minimizedRMSD -1
REMARK  2 active torsions:
REMARK  status: ('A' for Active; 'I' for Inactive)
REMARK    1  A    between atoms: C1_2  and  C2_3 
REMARK    2  A    between atoms: C2_3  and  C3_4 
ROOT
ATOM      1  C3  UNL d   1      -0.040   0.205   0.427  0.00  0.00    -0.075 A 
ATOM      2  C4  UNL d   1      -1.109   0.423  -0.455  0.00  0.00     0.002 A 
ATOM      3  C5  UNL d   1      -2.188   1.223  -0.077  0.00  0.00     0.002 A 
ATOM      4  C6  UNL d   1      -2.218   1.805   1.188  0.00  0.00    -0.004 A 
ATOM      5  C7  UNL d   1      -1.170   1.582   2.079  0.00  0.00     0.002 A 
ATOM      6  C8  UNL d   1      -0.087   0.786   1.701  0.00  0.00     0.002 A 
ENDROOT
BRANCH   1   7
ATOM      7  C2  UNL d   1       1.144  -0.635   0.013  0.00  0.00     0.056 C 
BRANCH   7   8
ATOM      8  C1  UNL d   1       0.986  -1.303  -1.357  0.00  0.00     0.007 C 
ATOM      9  C   UNL d   1       1.297  -2.794  -1.337  0.00  0.00     0.009 C 
ENDBRANCH   7   8
ENDBRANCH   1   7
TORSDOF 2
ENDMDL
