MODEL 1
REMARK minimizedAffinity -3.67132163
REMARK minimizedRMSD -1
REMARK  2 active torsions:
REMARK  status: ('A' for Active; 'I' for Inactive)
REMARK    1  A    between atoms: C1_2  and  C2_3 
REMARK    2  A    between atoms: C2_3  and  C3_4 
ROOT
ATOM      1  C3  UNL d   1      -0.614   0.389   0.250  0.00  0.00    -0.075 A 
ATOM      2  C4  UNL d   1      -1.721   1.183  -0.086  0.00  0.00     0.002 A 
ATOM      3  C5  UNL d   1      -2.282   2.049   0.852  0.00  0.00     0.002 A 
ATOM      4  C6  UNL d   1      -1.754   2.125   2.139  0.00  0.00    -0.004 A 
ATOM      5  C7  UNL d   1      -0.665   1.329   2.489  0.00  0.00     0.002 A 
ATOM      6  C8  UNL d   1      -0.098   0.465   1.551  0.00  0.00     0.002 A 
ENDROOT
BRANCH   1   7
ATOM      7  C2  UNL d   1       0.017  -0.529  -0.769  0.00  0.00     0.056 C 
BRANCH   7   8
ATOM      8  C1  UNL d   1       1.515  -0.765  -0.553  0.00  0.00     0.007 C 
ATOM      9  C   UNL d   1       2.001  -2.094  -1.116  0.00  0.00     0.009 C 
ENDBRANCH   7   8
ENDBRANCH   1   7
TORSDOF 2
ENDMDL
