MODEL 1
REMARK minimizedAffinity -4.99168491
REMARK minimizedRMSD -1
REMARK  2 active torsions:
REMARK  status: ('A' for Active; 'I' for Inactive)
REMARK    1  A    between atoms: C1_2  and  C2_3 
REMARK    2  A    between atoms: C2_3  and  C3_4 
ROOT
ATOM      1  C3  UNL d   1       0.080   0.702   0.146  0.00  0.00    -0.075 A 
ATOM      2  C4  UNL d   1       0.087   1.871  -0.628  0.00  0.00     0.002 A 
ATOM      3  C5  UNL d   1      -0.657   2.985  -0.236  0.00  0.00     0.002 A 
ATOM      4  C6  UNL d   1      -1.423   2.940   0.926  0.00  0.00    -0.004 A 
ATOM      5  C7  UNL d   1      -1.451   1.778   1.694  0.00  0.00     0.002 A 
ATOM      6  C8  UNL d   1      -0.704   0.664   1.307  0.00  0.00     0.002 A 
ENDROOT
BRANCH   1   7
ATOM      7  C2  UNL d   1       0.906  -0.496  -0.256  0.00  0.00     0.056 C 
BRANCH   7   8
ATOM      8  C1  UNL d   1       0.356  -1.254  -1.469  0.00  0.00     0.007 C 
ATOM      9  C   UNL d   1       0.686  -2.740  -1.449  0.00  0.00     0.009 C 
ENDBRANCH   7   8
ENDBRANCH   1   7
TORSDOF 2
ENDMDL
