MODEL 1
REMARK minimizedAffinity 0.510079265
REMARK minimizedRMSD -1
REMARK  2 active torsions:
REMARK  status: ('A' for Active; 'I' for Inactive)
REMARK    1  A    between atoms: C1_2  and  C2_3 
REMARK    2  A    between atoms: C2_3  and  C3_4 
ROOT
ATOM      1  C3  UNL d   1       0.546   1.301   0.594  0.00  0.00    -0.075 A 
ATOM      2  C4  UNL d   1       0.338  -0.079   0.731  0.00  0.00     0.002 A 
ATOM      3  C5  UNL d   1      -0.355  -0.586   1.831  0.00  0.00     0.002 A 
ATOM      4  C6  UNL d   1      -0.839   0.278   2.811  0.00  0.00    -0.004 A 
ATOM      5  C7  UNL d   1      -0.624   1.650   2.694  0.00  0.00     0.002 A 
ATOM      6  C8  UNL d   1       0.065   2.159   1.592  0.00  0.00     0.002 A 
ENDROOT
BRANCH   1   7
ATOM      7  C2  UNL d   1       1.269   1.858  -0.609  0.00  0.00     0.056 C 
BRANCH   7   8
ATOM      8  C1  UNL d   1       0.397   1.971  -1.863  0.00  0.00     0.007 C 
ATOM      9  C   UNL d   1      -0.590   0.822  -2.015  0.00  0.00     0.009 C 
ENDBRANCH   7   8
ENDBRANCH   1   7
TORSDOF 2
ENDMDL
