MODEL 1
REMARK minimizedAffinity -4.15581608
REMARK minimizedRMSD -1
REMARK  2 active torsions:
REMARK  status: ('A' for Active; 'I' for Inactive)
REMARK    1  A    between atoms: C1_2  and  C2_3 
REMARK    2  A    between atoms: C2_3  and  C3_4 
ROOT
ATOM      1  C3  UNL d   1      -0.523   0.666   0.632  0.00  0.00    -0.075 A 
ATOM      2  C4  UNL d   1      -1.548   1.315  -0.072  0.00  0.00     0.002 A 
ATOM      3  C5  UNL d   1      -2.285   2.335   0.531  0.00  0.00     0.002 A 
ATOM      4  C6  UNL d   1      -2.014   2.712   1.844  0.00  0.00    -0.004 A 
ATOM      5  C7  UNL d   1      -1.009   2.063   2.558  0.00  0.00     0.002 A 
ATOM      6  C8  UNL d   1      -0.268   1.045   1.957  0.00  0.00     0.002 A 
ENDROOT
BRANCH   1   7
ATOM      7  C2  UNL d   1       0.297  -0.419  -0.024  0.00  0.00     0.056 C 
BRANCH   7   8
ATOM      8  C1  UNL d   1       1.385   0.106  -0.967  0.00  0.00     0.007 C 
ATOM      9  C   UNL d   1       0.825   0.813  -2.194  0.00  0.00     0.009 C 
ENDBRANCH   7   8
ENDBRANCH   1   7
TORSDOF 2
ENDMDL
