MODEL 1
REMARK minimizedAffinity 5.30910063
REMARK minimizedRMSD -1
REMARK  2 active torsions:
REMARK  status: ('A' for Active; 'I' for Inactive)
REMARK    1  A    between atoms: C1_2  and  C2_3 
REMARK    2  A    between atoms: C2_3  and  C3_4 
ROOT
ATOM      1  C3  UNL d   1       2.343  -5.152   0.616  0.00  0.00    -0.075 A 
ATOM      2  C4  UNL d   1       2.353  -3.780   0.325  0.00  0.00     0.002 A 
ATOM      3  C5  UNL d   1       1.548  -3.265  -0.691  0.00  0.00     0.002 A 
ATOM      4  C6  UNL d   1       0.732  -4.115  -1.435  0.00  0.00    -0.004 A 
ATOM      5  C7  UNL d   1       0.726  -5.482  -1.166  0.00  0.00     0.002 A 
ATOM      6  C8  UNL d   1       1.527  -5.999  -0.147  0.00  0.00     0.002 A 
ENDROOT
BRANCH   1   7
ATOM      7  C2  UNL d   1       3.190  -5.711   1.734  0.00  0.00     0.056 C 
BRANCH   7   8
ATOM      8  C1  UNL d   1       2.456  -5.825   3.075  0.00  0.00     0.007 C 
ATOM      9  C   UNL d   1       3.396  -6.000   4.260  0.00  0.00     0.009 C 
ENDBRANCH   7   8
ENDBRANCH   1   7
TORSDOF 2
ENDMDL
