MODEL 1
REMARK minimizedAffinity -0.509609401
REMARK minimizedRMSD -1
REMARK  2 active torsions:
REMARK  status: ('A' for Active; 'I' for Inactive)
REMARK    1  A    between atoms: C1_2  and  C2_3 
REMARK    2  A    between atoms: C2_3  and  C3_4 
ROOT
ATOM      1  C3  UNL d   1      -1.436   0.907   0.387  0.00  0.00    -0.075 A 
ATOM      2  C4  UNL d   1      -2.510   1.767   0.662  0.00  0.00     0.002 A 
ATOM      3  C5  UNL d   1      -2.605   2.408   1.898  0.00  0.00     0.002 A 
ATOM      4  C6  UNL d   1      -1.638   2.190   2.876  0.00  0.00    -0.004 A 
ATOM      5  C7  UNL d   1      -0.576   1.325   2.619  0.00  0.00     0.002 A 
ATOM      6  C8  UNL d   1      -0.475   0.686   1.382  0.00  0.00     0.002 A 
ENDROOT
BRANCH   1   7
ATOM      7  C2  UNL d   1      -1.311   0.234  -0.959  0.00  0.00     0.056 C 
BRANCH   7   8
ATOM      8  C1  UNL d   1      -1.014   1.197  -2.113  0.00  0.00     0.007 C 
ATOM      9  C   UNL d   1       0.002   2.272  -1.751  0.00  0.00     0.009 C 
ENDBRANCH   7   8
ENDBRANCH   1   7
TORSDOF 2
ENDMDL
