MODEL 1
REMARK minimizedAffinity 0.26300925
REMARK minimizedRMSD -1
REMARK  2 active torsions:
REMARK  status: ('A' for Active; 'I' for Inactive)
REMARK    1  A    between atoms: C1_2  and  C2_3 
REMARK    2  A    between atoms: C2_3  and  C3_4 
ROOT
ATOM      1  C3  UNL d   1       0.209   0.027  -2.487  0.00  0.00    -0.075 A 
ATOM      2  C4  UNL d   1      -0.714   0.790  -3.217  0.00  0.00     0.002 A 
ATOM      3  C5  UNL d   1      -1.096   0.402  -4.502  0.00  0.00     0.002 A 
ATOM      4  C6  UNL d   1      -0.553  -0.745  -5.076  0.00  0.00    -0.004 A 
ATOM      5  C7  UNL d   1       0.377  -1.502  -4.367  0.00  0.00     0.002 A 
ATOM      6  C8  UNL d   1       0.757  -1.119  -3.080  0.00  0.00     0.002 A 
ENDROOT
BRANCH   1   7
ATOM      7  C2  UNL d   1       0.603   0.425  -1.085  0.00  0.00     0.056 C 
BRANCH   7   8
ATOM      8  C1  UNL d   1      -0.575   0.848  -0.202  0.00  0.00     0.007 C 
ATOM      9  C   UNL d   1      -0.633   0.098   1.122  0.00  0.00     0.009 C 
ENDBRANCH   7   8
ENDBRANCH   1   7
TORSDOF 2
ENDMDL
