MODEL 1
REMARK minimizedAffinity -1.65811813
REMARK minimizedRMSD -1
REMARK  2 active torsions:
REMARK  status: ('A' for Active; 'I' for Inactive)
REMARK    1  A    between atoms: C1_2  and  C2_3 
REMARK    2  A    between atoms: C2_3  and  C3_4 
ROOT
ATOM      1  C3  UNL d   1      -0.480  -0.016   0.730  0.00  0.00    -0.075 A 
ATOM      2  C4  UNL d   1      -0.444   0.655   1.961  0.00  0.00     0.002 A 
ATOM      3  C5  UNL d   1      -1.121   1.864   2.128  0.00  0.00     0.002 A 
ATOM      4  C6  UNL d   1      -1.832   2.420   1.067  0.00  0.00    -0.004 A 
ATOM      5  C7  UNL d   1      -1.861   1.771  -0.165  0.00  0.00     0.002 A 
ATOM      6  C8  UNL d   1      -1.188   0.559  -0.334  0.00  0.00     0.002 A 
ENDROOT
BRANCH   1   7
ATOM      7  C2  UNL d   1       0.226  -1.339   0.550  0.00  0.00     0.056 C 
BRANCH   7   8
ATOM      8  C1  UNL d   1      -0.672  -2.458   0.013  0.00  0.00     0.007 C 
ATOM      9  C   UNL d   1       0.106  -3.681  -0.452  0.00  0.00     0.009 C 
ENDBRANCH   7   8
ENDBRANCH   1   7
TORSDOF 2
ENDMDL
