MODEL 1
REMARK minimizedAffinity -1.2312299
REMARK minimizedRMSD -1
REMARK  2 active torsions:
REMARK  status: ('A' for Active; 'I' for Inactive)
REMARK    1  A    between atoms: C1_2  and  C2_3 
REMARK    2  A    between atoms: C2_3  and  C3_4 
ROOT
ATOM      1  C3  UNL d   1       0.138   0.094   0.257  0.00  0.00    -0.075 A 
ATOM      2  C4  UNL d   1      -0.073   0.043   1.642  0.00  0.00     0.002 A 
ATOM      3  C5  UNL d   1      -0.984   0.906   2.252  0.00  0.00     0.002 A 
ATOM      4  C6  UNL d   1      -1.687   1.835   1.488  0.00  0.00    -0.004 A 
ATOM      5  C7  UNL d   1      -1.473   1.906   0.113  0.00  0.00     0.002 A 
ATOM      6  C8  UNL d   1      -0.565   1.040  -0.500  0.00  0.00     0.002 A 
ENDROOT
BRANCH   1   7
ATOM      7  C2  UNL d   1       1.101  -0.857  -0.413  0.00  0.00     0.056 C 
BRANCH   7   8
ATOM      8  C1  UNL d   1       0.421  -2.013  -1.155  0.00  0.00     0.007 C 
ATOM      9  C   UNL d   1       1.052  -3.368  -0.863  0.00  0.00     0.009 C 
ENDBRANCH   7   8
ENDBRANCH   1   7
TORSDOF 2
ENDMDL
