MODEL 1
REMARK minimizedAffinity -1.14189041
REMARK minimizedRMSD -1
REMARK  0 active torsions:
REMARK  status: ('A' for Active; 'I' for Inactive)
ROOT
ATOM      1  C1  DEN d   1      -3.290  -0.615   1.106  0.00  0.00     0.130 A 
ATOM      2  C2  DEN d   1      -3.519   0.575   1.921  0.00  0.00    -0.031 A 
ATOM      3  C3  DEN d   1      -2.304   1.412   1.859  0.00  0.00     0.027 A 
ATOM      4  C4  DEN d   1      -0.103   0.985   0.583  0.00  0.00     0.027 A 
ATOM      5  C5  DEN d   1       0.566   0.104  -0.237  0.00  0.00    -0.003 A 
ATOM      6  C6  DEN d   1       0.015  -1.085  -0.636  0.00  0.00     0.001 A 
ATOM      7  C7  DEN d   1      -1.261  -1.404  -0.252  0.00  0.00     0.017 A 
ATOM      8  C8  DEN d   1      -1.939  -0.524   0.581  0.00  0.00    -0.094 A 
ATOM      9  C9  DEN d   1      -1.369   0.678   0.964  0.00  0.00    -0.072 A 
ENDROOT
TORSDOF 0
ENDMDL
