MODEL 1
REMARK minimizedAffinity -2.79015088
REMARK minimizedRMSD -1
REMARK  0 active torsions:
REMARK  status: ('A' for Active; 'I' for Inactive)
ROOT
ATOM      1  C1  DEN d   1       0.790  -1.312  -2.094  0.00  0.00     0.130 A 
ATOM      2  C2  DEN d   1       1.450  -0.223  -2.810  0.00  0.00    -0.031 A 
ATOM      3  C3  DEN d   1       1.378   0.987  -1.968  0.00  0.00     0.027 A 
ATOM      4  C4  DEN d   1       0.320   1.279   0.366  0.00  0.00     0.027 A 
ATOM      5  C5  DEN d   1      -0.368   0.641   1.374  0.00  0.00    -0.003 A 
ATOM      6  C6  DEN d   1      -0.746  -0.672   1.283  0.00  0.00     0.001 A 
ATOM      7  C7  DEN d   1      -0.397  -1.403   0.179  0.00  0.00     0.017 A 
ATOM      8  C8  DEN d   1       0.291  -0.765  -0.845  0.00  0.00    -0.094 A 
ATOM      9  C9  DEN d   1       0.674   0.560  -0.729  0.00  0.00    -0.072 A 
ENDROOT
TORSDOF 0
ENDMDL
