MODEL 1
REMARK minimizedAffinity -3.10304546
REMARK minimizedRMSD -1
REMARK  0 active torsions:
REMARK  status: ('A' for Active; 'I' for Inactive)
ROOT
ATOM      1  C1  DEN d   1      -2.189   1.872   3.220  0.00  0.00     0.130 A 
ATOM      2  C2  DEN d   1      -3.641   1.877   3.381  0.00  0.00    -0.031 A 
ATOM      3  C3  DEN d   1      -4.188   0.734   2.624  0.00  0.00     0.027 A 
ATOM      4  C4  DEN d   1      -2.936  -1.037   1.228  0.00  0.00     0.027 A 
ATOM      5  C5  DEN d   1      -1.697  -1.448   0.787  0.00  0.00    -0.003 A 
ATOM      6  C6  DEN d   1      -0.549  -0.768   1.095  0.00  0.00     0.001 A 
ATOM      7  C7  DEN d   1      -0.611   0.336   1.904  0.00  0.00     0.017 A 
ATOM      8  C8  DEN d   1      -1.856   0.761   2.347  0.00  0.00    -0.094 A 
ATOM      9  C9  DEN d   1      -3.004   0.052   2.035  0.00  0.00    -0.072 A 
ENDROOT
TORSDOF 0
ENDMDL
