MODEL 1
REMARK minimizedAffinity 5.06896687
REMARK minimizedRMSD -1
REMARK  0 active torsions:
REMARK  status: ('A' for Active; 'I' for Inactive)
ROOT
ATOM      1  C1  DEN d   1      -0.601  -1.752   0.624  0.00  0.00     0.130 A 
ATOM      2  C2  DEN d   1       0.155  -2.795  -0.064  0.00  0.00    -0.031 A 
ATOM      3  C3  DEN d   1       1.254  -2.148  -0.808  0.00  0.00     0.027 A 
ATOM      4  C4  DEN d   1       1.859   0.355  -0.956  0.00  0.00     0.027 A 
ATOM      5  C5  DEN d   1       1.502   1.622  -0.552  0.00  0.00    -0.003 A 
ATOM      6  C6  DEN d   1       0.407   1.855   0.237  0.00  0.00     0.001 A 
ATOM      7  C7  DEN d   1      -0.343   0.800   0.686  0.00  0.00     0.017 A 
ATOM      8  C8  DEN d   1       0.007  -0.480   0.277  0.00  0.00    -0.094 A 
ATOM      9  C9  DEN d   1       1.125  -0.696  -0.511  0.00  0.00    -0.072 A 
ENDROOT
TORSDOF 0
ENDMDL
