MODEL 1
REMARK minimizedAffinity -3.13042831
REMARK minimizedRMSD -1
REMARK  0 active torsions:
REMARK  status: ('A' for Active; 'I' for Inactive)
ROOT
ATOM      1  C1  DEN d   1      -3.026  -0.839   1.228  0.00  0.00     0.130 A 
ATOM      2  C2  DEN d   1      -3.278  -0.156   2.494  0.00  0.00    -0.031 A 
ATOM      3  C3  DEN d   1      -2.054   0.583   2.865  0.00  0.00     0.027 A 
ATOM      4  C4  DEN d   1       0.192   0.739   1.606  0.00  0.00     0.027 A 
ATOM      5  C5  DEN d   1       0.885   0.321   0.492  0.00  0.00    -0.003 A 
ATOM      6  C6  DEN d   1       0.340  -0.533  -0.430  0.00  0.00     0.001 A 
ATOM      7  C7  DEN d   1      -0.952  -0.961  -0.277  0.00  0.00     0.017 A 
ATOM      8  C8  DEN d   1      -1.656  -0.550   0.847  0.00  0.00    -0.094 A 
ATOM      9  C9  DEN d   1      -1.091   0.323   1.761  0.00  0.00    -0.072 A 
ENDROOT
TORSDOF 0
ENDMDL
