MODEL 1
REMARK minimizedAffinity -5.56404924
REMARK minimizedRMSD -1
REMARK  0 active torsions:
REMARK  status: ('A' for Active; 'I' for Inactive)
ROOT
ATOM      1  C1  DEN d   1      -0.092   0.269   1.733  0.00  0.00     0.130 A 
ATOM      2  C2  DEN d   1      -0.362  -0.999   2.404  0.00  0.00    -0.031 A 
ATOM      3  C3  DEN d   1      -0.212  -2.082   1.411  0.00  0.00     0.027 A 
ATOM      4  C4  DEN d   1       0.415  -1.919  -1.085  0.00  0.00     0.027 A 
ATOM      5  C5  DEN d   1       0.726  -1.052  -2.110  0.00  0.00    -0.003 A 
ATOM      6  C6  DEN d   1       0.753   0.306  -1.935  0.00  0.00     0.001 A 
ATOM      7  C7  DEN d   1       0.508   0.836  -0.696  0.00  0.00     0.017 A 
ATOM      8  C8  DEN d   1       0.186  -0.031   0.340  0.00  0.00    -0.094 A 
ATOM      9  C9  DEN d   1       0.176  -1.401   0.147  0.00  0.00    -0.072 A 
ENDROOT
TORSDOF 0
ENDMDL
