MODEL 1
REMARK minimizedAffinity -3.92374086
REMARK minimizedRMSD -1
REMARK  0 active torsions:
REMARK  status: ('A' for Active; 'I' for Inactive)
ROOT
ATOM      1  C1  DEN d   1      -3.628   1.410  -5.624  0.00  0.00     0.130 A 
ATOM      2  C2  DEN d   1      -4.852   0.614  -5.638  0.00  0.00    -0.031 A 
ATOM      3  C3  DEN d   1      -6.000   1.544  -5.660  0.00  0.00     0.027 A 
ATOM      4  C4  DEN d   1      -5.999   4.123  -5.679  0.00  0.00     0.027 A 
ATOM      5  C5  DEN d   1      -5.200   5.245  -5.663  0.00  0.00    -0.003 A 
ATOM      6  C6  DEN d   1      -3.834   5.169  -5.599  0.00  0.00     0.001 A 
ATOM      7  C7  DEN d   1      -3.223   3.943  -5.594  0.00  0.00     0.017 A 
ATOM      8  C8  DEN d   1      -4.021   2.807  -5.603  0.00  0.00    -0.094 A 
ATOM      9  C9  DEN d   1      -5.400   2.905  -5.680  0.00  0.00    -0.072 A 
ENDROOT
TORSDOF 0
ENDMDL
