MODEL 1
REMARK minimizedAffinity -0.250408202
REMARK minimizedRMSD -1
REMARK  0 active torsions:
REMARK  status: ('A' for Active; 'I' for Inactive)
ROOT
ATOM      1  C1  DEN d   1      -1.903   4.531  -5.934  0.00  0.00     0.130 A 
ATOM      2  C2  DEN d   1      -1.281   3.211  -5.876  0.00  0.00    -0.031 A 
ATOM      3  C3  DEN d   1      -2.357   2.199  -5.872  0.00  0.00     0.027 A 
ATOM      4  C4  DEN d   1      -4.912   2.547  -5.955  0.00  0.00     0.027 A 
ATOM      5  C5  DEN d   1      -5.915   3.490  -6.000  0.00  0.00    -0.003 A 
ATOM      6  C6  DEN d   1      -5.655   4.834  -5.991  0.00  0.00     0.001 A 
ATOM      7  C7  DEN d   1      -4.358   5.275  -5.983  0.00  0.00     0.017 A 
ATOM      8  C8  DEN d   1      -3.341   4.331  -5.930  0.00  0.00    -0.094 A 
ATOM      9  C9  DEN d   1      -3.624   2.976  -5.951  0.00  0.00    -0.072 A 
ENDROOT
TORSDOF 0
ENDMDL
