MODEL 1
REMARK minimizedAffinity -5.65628958
REMARK minimizedRMSD -1
REMARK  0 active torsions:
REMARK  status: ('A' for Active; 'I' for Inactive)
ROOT
ATOM      1  C1  DEN d   1       1.065  -1.141  -2.245  0.00  0.00     0.130 A 
ATOM      2  C2  DEN d   1       1.874  -0.054  -2.790  0.00  0.00    -0.031 A 
ATOM      3  C3  DEN d   1       1.793   1.088  -1.858  0.00  0.00     0.027 A 
ATOM      4  C4  DEN d   1       0.505   1.276   0.369  0.00  0.00     0.027 A 
ATOM      5  C5  DEN d   1      -0.333   0.616   1.240  0.00  0.00    -0.003 A 
ATOM      6  C6  DEN d   1      -0.787  -0.653   0.996  0.00  0.00     0.001 A 
ATOM      7  C7  DEN d   1      -0.369  -1.320  -0.125  0.00  0.00     0.017 A 
ATOM      8  C8  DEN d   1       0.470  -0.658  -1.012  0.00  0.00    -0.094 A 
ATOM      9  C9  DEN d   1       0.927   0.621  -0.741  0.00  0.00    -0.072 A 
ENDROOT
TORSDOF 0
ENDMDL
