MODEL 1
REMARK minimizedAffinity -1.39487934
REMARK minimizedRMSD -1
REMARK  0 active torsions:
REMARK  status: ('A' for Active; 'I' for Inactive)
ROOT
ATOM      1  C1  DEN d   1       0.232  -1.630  -1.121  0.00  0.00     0.130 A 
ATOM      2  C2  DEN d   1       1.217  -0.987  -1.986  0.00  0.00    -0.031 A 
ATOM      3  C3  DEN d   1       1.461   0.374  -1.466  0.00  0.00     0.027 A 
ATOM      4  C4  DEN d   1       0.421   1.537   0.588  0.00  0.00     0.027 A 
ATOM      5  C5  DEN d   1      -0.473   1.394   1.626  0.00  0.00    -0.003 A 
ATOM      6  C6  DEN d   1      -1.213   0.255   1.800  0.00  0.00     0.001 A 
ATOM      7  C7  DEN d   1      -1.040  -0.804   0.949  0.00  0.00     0.017 A 
ATOM      8  C8  DEN d   1      -0.146  -0.665  -0.105  0.00  0.00    -0.094 A 
ATOM      9  C9  DEN d   1       0.602   0.490  -0.257  0.00  0.00    -0.072 A 
ENDROOT
TORSDOF 0
ENDMDL
