MODEL 1
REMARK minimizedAffinity -2.74376178
REMARK minimizedRMSD -1
REMARK  0 active torsions:
REMARK  status: ('A' for Active; 'I' for Inactive)
ROOT
ATOM      1  C1  DEN d   1      -3.319   0.928  -5.652  0.00  0.00     0.130 A 
ATOM      2  C2  DEN d   1      -4.631   0.312  -5.835  0.00  0.00    -0.031 A 
ATOM      3  C3  DEN d   1      -5.623   1.393  -6.000  0.00  0.00     0.027 A 
ATOM      4  C4  DEN d   1      -5.258   3.946  -5.994  0.00  0.00     0.027 A 
ATOM      5  C5  DEN d   1      -4.319   4.946  -5.861  0.00  0.00    -0.003 A 
ATOM      6  C6  DEN d   1      -2.998   4.679  -5.617  0.00  0.00     0.001 A 
ATOM      7  C7  DEN d   1      -2.571   3.379  -5.543  0.00  0.00     0.017 A 
ATOM      8  C8  DEN d   1      -3.512   2.366  -5.669  0.00  0.00    -0.094 A 
ATOM      9  C9  DEN d   1      -4.841   2.656  -5.927  0.00  0.00    -0.072 A 
ENDROOT
TORSDOF 0
ENDMDL
