MODEL 1
REMARK minimizedAffinity -5.6233778
REMARK minimizedRMSD -1
REMARK  0 active torsions:
REMARK  status: ('A' for Active; 'I' for Inactive)
ROOT
ATOM      1  C1  DEN d   1       0.752  -0.676  -2.583  0.00  0.00     0.130 A 
ATOM      2  C2  DEN d   1       1.875   0.193  -2.923  0.00  0.00    -0.031 A 
ATOM      3  C3  DEN d   1       2.067   1.148  -1.813  0.00  0.00     0.027 A 
ATOM      4  C4  DEN d   1       0.742   1.360   0.391  0.00  0.00     0.027 A 
ATOM      5  C5  DEN d   1      -0.307   0.851   1.123  0.00  0.00    -0.003 A 
ATOM      6  C6  DEN d   1      -1.093  -0.172   0.660  0.00  0.00     0.001 A 
ATOM      7  C7  DEN d   1      -0.812  -0.749  -0.551  0.00  0.00     0.017 A 
ATOM      8  C8  DEN d   1       0.241  -0.236  -1.298  0.00  0.00    -0.094 A 
ATOM      9  C9  DEN d   1       1.030   0.790  -0.807  0.00  0.00    -0.072 A 
ENDROOT
TORSDOF 0
ENDMDL
