MODEL 1
REMARK minimizedAffinity -4.88797474
REMARK minimizedRMSD -1
REMARK  0 active torsions:
REMARK  status: ('A' for Active; 'I' for Inactive)
ROOT
ATOM      1  C1  DEN d   1       0.899  -1.133  -2.130  0.00  0.00     0.130 A 
ATOM      2  C2  DEN d   1       1.702  -0.058  -2.704  0.00  0.00    -0.031 A 
ATOM      3  C3  DEN d   1       1.693   1.075  -1.757  0.00  0.00     0.027 A 
ATOM      4  C4  DEN d   1       0.522   1.265   0.533  0.00  0.00     0.027 A 
ATOM      5  C5  DEN d   1      -0.285   0.613   1.439  0.00  0.00    -0.003 A 
ATOM      6  C6  DEN d   1      -0.779  -0.644   1.205  0.00  0.00     0.001 A 
ATOM      7  C7  DEN d   1      -0.432  -1.306   0.057  0.00  0.00     0.017 A 
ATOM      8  C8  DEN d   1       0.376  -0.652  -0.864  0.00  0.00    -0.094 A 
ATOM      9  C9  DEN d   1       0.874   0.613  -0.604  0.00  0.00    -0.072 A 
ENDROOT
TORSDOF 0
ENDMDL
