MODEL 1
REMARK minimizedAffinity -6.8173604
REMARK minimizedRMSD -1
REMARK  0 active torsions:
REMARK  status: ('A' for Active; 'I' for Inactive)
ROOT
ATOM      1  C1  DEN d   1       0.457   1.215   0.118  0.00  0.00     0.130 A 
ATOM      2  C2  DEN d   1      -0.427   0.482   1.020  0.00  0.00    -0.031 A 
ATOM      3  C3  DEN d   1      -0.408  -0.940   0.622  0.00  0.00     0.027 A 
ATOM      4  C4  DEN d   1       0.902  -2.073  -1.290  0.00  0.00     0.027 A 
ATOM      5  C5  DEN d   1       1.776  -1.859  -2.332  0.00  0.00    -0.003 A 
ATOM      6  C6  DEN d   1       2.241  -0.610  -2.650  0.00  0.00     0.001 A 
ATOM      7  C7  DEN d   1       1.870   0.467  -1.889  0.00  0.00     0.017 A 
ATOM      8  C8  DEN d   1       0.983   0.260  -0.841  0.00  0.00    -0.094 A 
ATOM      9  C9  DEN d   1       0.534  -1.012  -0.528  0.00  0.00    -0.072 A 
ENDROOT
TORSDOF 0
ENDMDL
