MODEL 1
REMARK minimizedAffinity 10.2843733
REMARK minimizedRMSD -1
REMARK  2 active torsions:
REMARK  status: ('A' for Active; 'I' for Inactive)
REMARK    1  A    between atoms: C1_2  and  C2_3 
REMARK    2  A    between atoms: C2_3  and  C3_4 
ROOT
ATOM      1  C3  UNL d   1       2.769   0.912  -0.243  0.00  0.00    -0.075 A 
ATOM      2  C4  UNL d   1       2.872   0.169   0.942  0.00  0.00     0.002 A 
ATOM      3  C5  UNL d   1       2.237   0.602   2.106  0.00  0.00     0.002 A 
ATOM      4  C6  UNL d   1       1.501   1.785   2.104  0.00  0.00    -0.004 A 
ATOM      5  C7  UNL d   1       1.406   2.540   0.936  0.00  0.00     0.002 A 
ATOM      6  C8  UNL d   1       2.037   2.107  -0.231  0.00  0.00     0.002 A 
ENDROOT
BRANCH   1   7
ATOM      7  C2  UNL d   1       3.429   0.434  -1.514  0.00  0.00     0.056 C 
BRANCH   7   8
ATOM      8  C1  UNL d   1       3.949   1.563  -2.410  0.00  0.00     0.007 C 
ATOM      9  C   UNL d   1       3.317   1.570  -3.796  0.00  0.00     0.009 C 
ENDBRANCH   7   8
ENDBRANCH   1   7
TORSDOF 2
ENDMDL
