MODEL 1
REMARK minimizedAffinity 10.7723904
REMARK minimizedRMSD -1
REMARK  2 active torsions:
REMARK  status: ('A' for Active; 'I' for Inactive)
REMARK    1  A    between atoms: C1_2  and  C2_3 
REMARK    2  A    between atoms: C2_3  and  C3_4 
ROOT
ATOM      1  C3  UNL d   1      -5.224   2.357   5.326  0.00  0.00    -0.075 A 
ATOM      2  C4  UNL d   1      -4.517   2.215   4.123  0.00  0.00     0.002 A 
ATOM      3  C5  UNL d   1      -4.436   0.974   3.491  0.00  0.00     0.002 A 
ATOM      4  C6  UNL d   1      -5.049  -0.141   4.057  0.00  0.00    -0.004 A 
ATOM      5  C7  UNL d   1      -5.739  -0.016   5.261  0.00  0.00     0.002 A 
ATOM      6  C8  UNL d   1      -5.827   1.226   5.893  0.00  0.00     0.002 A 
ENDROOT
BRANCH   1   7
ATOM      7  C2  UNL d   1      -5.341   3.703   6.000  0.00  0.00     0.056 C 
BRANCH   7   8
ATOM      8  C1  UNL d   1      -4.044   4.518   5.995  0.00  0.00     0.007 C 
ATOM      9  C   UNL d   1      -4.257   5.983   5.637  0.00  0.00     0.009 C 
ENDBRANCH   7   8
ENDBRANCH   1   7
TORSDOF 2
ENDMDL
