MODEL 1
REMARK minimizedAffinity 16.0362759
REMARK minimizedRMSD -1
REMARK  2 active torsions:
REMARK  status: ('A' for Active; 'I' for Inactive)
REMARK    1  A    between atoms: C1_2  and  C2_3 
REMARK    2  A    between atoms: C2_3  and  C3_4 
ROOT
ATOM      1  C3  UNL d   1      -1.943  -4.736  -3.711  0.00  0.00    -0.075 A 
ATOM      2  C4  UNL d   1      -2.093  -4.125  -4.964  0.00  0.00     0.002 A 
ATOM      3  C5  UNL d   1      -1.201  -4.405  -6.000  0.00  0.00     0.002 A 
ATOM      4  C6  UNL d   1      -0.144  -5.289  -5.793  0.00  0.00    -0.004 A 
ATOM      5  C7  UNL d   1       0.024  -5.889  -4.547  0.00  0.00     0.002 A 
ATOM      6  C8  UNL d   1      -0.870  -5.615  -3.511  0.00  0.00     0.002 A 
ENDROOT
BRANCH   1   7
ATOM      7  C2  UNL d   1      -2.922  -4.460  -2.595  0.00  0.00     0.056 C 
BRANCH   7   8
ATOM      8  C1  UNL d   1      -3.907  -3.325  -2.896  0.00  0.00     0.007 C 
ATOM      9  C   UNL d   1      -5.315  -3.817  -3.202  0.00  0.00     0.009 C 
ENDBRANCH   7   8
ENDBRANCH   1   7
TORSDOF 2
ENDMDL
