MODEL 1
REMARK minimizedAffinity 4.55359268
REMARK minimizedRMSD -1
REMARK  2 active torsions:
REMARK  status: ('A' for Active; 'I' for Inactive)
REMARK    1  A    between atoms: C1_2  and  C2_3 
REMARK    2  A    between atoms: C2_3  and  C3_4 
ROOT
ATOM      1  C3  UNL d   1       5.113   3.343  -4.463  0.00  0.00    -0.075 A 
ATOM      2  C4  UNL d   1       5.999   4.349  -4.878  0.00  0.00     0.002 A 
ATOM      3  C5  UNL d   1       5.541   5.427  -5.637  0.00  0.00     0.002 A 
ATOM      4  C6  UNL d   1       4.198   5.508  -5.999  0.00  0.00    -0.004 A 
ATOM      5  C7  UNL d   1       3.313   4.506  -5.606  0.00  0.00     0.002 A 
ATOM      6  C8  UNL d   1       3.767   3.428  -4.843  0.00  0.00     0.002 A 
ENDROOT
BRANCH   1   7
ATOM      7  C2  UNL d   1       5.596   2.189  -3.617  0.00  0.00     0.056 C 
BRANCH   7   8
ATOM      8  C1  UNL d   1       4.470   1.359  -2.994  0.00  0.00     0.007 C 
ATOM      9  C   UNL d   1       3.902   1.975  -1.722  0.00  0.00     0.009 C 
ENDBRANCH   7   8
ENDBRANCH   1   7
TORSDOF 2
ENDMDL
