MODEL 1
REMARK minimizedAffinity 12.2131042
REMARK minimizedRMSD -1
REMARK  2 active torsions:
REMARK  status: ('A' for Active; 'I' for Inactive)
REMARK    1  A    between atoms: C1_2  and  C2_3 
REMARK    2  A    between atoms: C2_3  and  C3_4 
ROOT
ATOM      1  C3  UNL d   1       2.992   2.959  -4.503  0.00  0.00    -0.075 A 
ATOM      2  C4  UNL d   1       2.249   3.700  -3.572  0.00  0.00     0.002 A 
ATOM      3  C5  UNL d   1       1.855   5.007  -3.860  0.00  0.00     0.002 A 
ATOM      4  C6  UNL d   1       2.207   5.592  -5.074  0.00  0.00    -0.004 A 
ATOM      5  C7  UNL d   1       2.960   4.872  -5.999  0.00  0.00     0.002 A 
ATOM      6  C8  UNL d   1       3.351   3.562  -5.715  0.00  0.00     0.002 A 
ENDROOT
BRANCH   1   7
ATOM      7  C2  UNL d   1       3.396   1.534  -4.210  0.00  0.00     0.056 C 
BRANCH   7   8
ATOM      8  C1  UNL d   1       4.212   0.875  -5.327  0.00  0.00     0.007 C 
ATOM      9  C   UNL d   1       3.752  -0.540  -5.652  0.00  0.00     0.009 C 
ENDBRANCH   7   8
ENDBRANCH   1   7
TORSDOF 2
ENDMDL
