MODEL 1
REMARK minimizedAffinity 4.9159236
REMARK minimizedRMSD -1
REMARK  2 active torsions:
REMARK  status: ('A' for Active; 'I' for Inactive)
REMARK    1  A    between atoms: C1_2  and  C2_3 
REMARK    2  A    between atoms: C2_3  and  C3_4 
ROOT
ATOM      1  C3  UNL d   1      -3.025  -5.988  -0.456  0.00  0.00    -0.075 A 
ATOM      2  C4  UNL d   1      -4.076  -6.000   0.473  0.00  0.00     0.002 A 
ATOM      3  C5  UNL d   1      -3.810  -5.997   1.843  0.00  0.00     0.002 A 
ATOM      4  C6  UNL d   1      -2.494  -5.992   2.300  0.00  0.00    -0.004 A 
ATOM      5  C7  UNL d   1      -1.443  -5.997   1.387  0.00  0.00     0.002 A 
ATOM      6  C8  UNL d   1      -1.705  -5.996   0.015  0.00  0.00     0.002 A 
ENDROOT
BRANCH   1   7
ATOM      7  C2  UNL d   1      -3.306  -5.962  -1.939  0.00  0.00     0.056 C 
BRANCH   7   8
ATOM      8  C1  UNL d   1      -4.776  -5.712  -2.291  0.00  0.00     0.007 C 
ATOM      9  C   UNL d   1      -5.010  -4.373  -2.979  0.00  0.00     0.009 C 
ENDBRANCH   7   8
ENDBRANCH   1   7
TORSDOF 2
ENDMDL
