MODEL 1
REMARK minimizedAffinity 12.2554836
REMARK minimizedRMSD -1
REMARK  2 active torsions:
REMARK  status: ('A' for Active; 'I' for Inactive)
REMARK    1  A    between atoms: C1_2  and  C2_3 
REMARK    2  A    between atoms: C2_3  and  C3_4 
ROOT
ATOM      1  C3  UNL d   1      -4.683  -3.721  -3.206  0.00  0.00    -0.075 A 
ATOM      2  C4  UNL d   1      -3.436  -3.095  -3.353  0.00  0.00     0.002 A 
ATOM      3  C5  UNL d   1      -2.261  -3.769  -3.018  0.00  0.00     0.002 A 
ATOM      4  C6  UNL d   1      -2.318  -5.070  -2.523  0.00  0.00    -0.004 A 
ATOM      5  C7  UNL d   1      -3.552  -5.695  -2.357  0.00  0.00     0.002 A 
ATOM      6  C8  UNL d   1      -4.729  -5.025  -2.695  0.00  0.00     0.002 A 
ENDROOT
BRANCH   1   7
ATOM      7  C2  UNL d   1      -5.956  -3.008  -3.594  0.00  0.00     0.056 C 
BRANCH   7   8
ATOM      8  C1  UNL d   1      -5.999  -2.563  -5.060  0.00  0.00     0.007 C 
ATOM      9  C   UNL d   1      -5.267  -3.514  -5.998  0.00  0.00     0.009 C 
ENDBRANCH   7   8
ENDBRANCH   1   7
TORSDOF 2
ENDMDL
