MODEL 1
REMARK minimizedAffinity 11.0608025
REMARK minimizedRMSD -1
REMARK  2 active torsions:
REMARK  status: ('A' for Active; 'I' for Inactive)
REMARK    1  A    between atoms: C1_2  and  C2_3 
REMARK    2  A    between atoms: C2_3  and  C3_4 
ROOT
ATOM      1  C3  UNL d   1      -1.626  -2.271  -1.048  0.00  0.00    -0.075 A 
ATOM      2  C4  UNL d   1      -0.470  -2.899  -0.562  0.00  0.00     0.002 A 
ATOM      3  C5  UNL d   1      -0.402  -3.330   0.764  0.00  0.00     0.002 A 
ATOM      4  C6  UNL d   1      -1.481  -3.129   1.621  0.00  0.00    -0.004 A 
ATOM      5  C7  UNL d   1      -2.628  -2.491   1.153  0.00  0.00     0.002 A 
ATOM      6  C8  UNL d   1      -2.701  -2.063  -0.173  0.00  0.00     0.002 A 
ENDROOT
BRANCH   1   7
ATOM      7  C2  UNL d   1      -1.717  -1.829  -2.489  0.00  0.00     0.056 C 
BRANCH   7   8
ATOM      8  C1  UNL d   1      -2.227  -2.915  -3.443  0.00  0.00     0.007 C 
ATOM      9  C   UNL d   1      -3.591  -3.466  -3.050  0.00  0.00     0.009 C 
ENDBRANCH   7   8
ENDBRANCH   1   7
TORSDOF 2
ENDMDL
