MODEL 1
REMARK minimizedAffinity 22.8963509
REMARK minimizedRMSD -1
REMARK  2 active torsions:
REMARK  status: ('A' for Active; 'I' for Inactive)
REMARK    1  A    between atoms: C1_2  and  C2_3 
REMARK    2  A    between atoms: C2_3  and  C3_4 
ROOT
ATOM      1  C3  UNL d   1      -4.076  -5.381  -1.116  0.00  0.00    -0.075 A 
ATOM      2  C4  UNL d   1      -5.229  -5.868  -1.748  0.00  0.00     0.002 A 
ATOM      3  C5  UNL d   1      -5.667  -5.311  -2.950  0.00  0.00     0.002 A 
ATOM      4  C6  UNL d   1      -4.966  -4.255  -3.528  0.00  0.00    -0.004 A 
ATOM      5  C7  UNL d   1      -3.829  -3.752  -2.900  0.00  0.00     0.002 A 
ATOM      6  C8  UNL d   1      -3.385  -4.310  -1.700  0.00  0.00     0.002 A 
ENDROOT
BRANCH   1   7
ATOM      7  C2  UNL d   1      -3.579  -5.999   0.169  0.00  0.00     0.056 C 
BRANCH   7   8
ATOM      8  C1  UNL d   1      -2.488  -5.185   0.872  0.00  0.00     0.007 C 
ATOM      9  C   UNL d   1      -1.684  -6.000   1.876  0.00  0.00     0.009 C 
ENDBRANCH   7   8
ENDBRANCH   1   7
TORSDOF 2
ENDMDL
