MODEL 1
REMARK minimizedAffinity 19.6396332
REMARK minimizedRMSD -1
REMARK  2 active torsions:
REMARK  status: ('A' for Active; 'I' for Inactive)
REMARK    1  A    between atoms: C1_2  and  C2_3 
REMARK    2  A    between atoms: C2_3  and  C3_4 
ROOT
ATOM      1  C3  UNL d   1      -2.469  -3.851   0.772  0.00  0.00    -0.075 A 
ATOM      2  C4  UNL d   1      -1.490  -3.856   1.776  0.00  0.00     0.002 A 
ATOM      3  C5  UNL d   1      -1.391  -4.927   2.664  0.00  0.00     0.002 A 
ATOM      4  C6  UNL d   1      -2.275  -6.000   2.568  0.00  0.00    -0.004 A 
ATOM      5  C7  UNL d   1      -3.262  -5.998   1.585  0.00  0.00     0.002 A 
ATOM      6  C8  UNL d   1      -3.361  -4.930   0.692  0.00  0.00     0.002 A 
ENDROOT
BRANCH   1   7
ATOM      7  C2  UNL d   1      -2.563  -2.709  -0.211  0.00  0.00     0.056 C 
BRANCH   7   8
ATOM      8  C1  UNL d   1      -2.140  -3.077  -1.637  0.00  0.00     0.007 C 
ATOM      9  C   UNL d   1      -3.309  -3.491  -2.522  0.00  0.00     0.009 C 
ENDBRANCH   7   8
ENDBRANCH   1   7
TORSDOF 2
ENDMDL
