MODEL 1
REMARK minimizedAffinity 15.8883562
REMARK minimizedRMSD -1
REMARK  2 active torsions:
REMARK  status: ('A' for Active; 'I' for Inactive)
REMARK    1  A    between atoms: C1_2  and  C2_3 
REMARK    2  A    between atoms: C2_3  and  C3_4 
ROOT
ATOM      1  C3  UNL d   1       3.657   1.563  -4.497  0.00  0.00    -0.075 A 
ATOM      2  C4  UNL d   1       3.606   1.827  -3.120  0.00  0.00     0.002 A 
ATOM      3  C5  UNL d   1       2.832   2.878  -2.628  0.00  0.00     0.002 A 
ATOM      4  C6  UNL d   1       2.108   3.684  -3.505  0.00  0.00    -0.004 A 
ATOM      5  C7  UNL d   1       2.164   3.441  -4.875  0.00  0.00     0.002 A 
ATOM      6  C8  UNL d   1       2.935   2.388  -5.370  0.00  0.00     0.002 A 
ENDROOT
BRANCH   1   7
ATOM      7  C2  UNL d   1       4.469   0.409  -5.033  0.00  0.00     0.056 C 
BRANCH   7   8
ATOM      8  C1  UNL d   1       3.687  -0.527  -5.961  0.00  0.00     0.007 C 
ATOM      9  C   UNL d   1       3.392  -1.884  -5.335  0.00  0.00     0.009 C 
ENDBRANCH   7   8
ENDBRANCH   1   7
TORSDOF 2
ENDMDL
