MODEL 1
REMARK minimizedAffinity 5.73692083
REMARK minimizedRMSD -1
REMARK  2 active torsions:
REMARK  status: ('A' for Active; 'I' for Inactive)
REMARK    1  A    between atoms: C1_2  and  C2_3 
REMARK    2  A    between atoms: C2_3  and  C3_4 
ROOT
ATOM      1  C3  UNL d   1       3.336   1.390   1.486  0.00  0.00    -0.075 A 
ATOM      2  C4  UNL d   1       3.841   0.082   1.519  0.00  0.00     0.002 A 
ATOM      3  C5  UNL d   1       5.165  -0.175   1.162  0.00  0.00     0.002 A 
ATOM      4  C6  UNL d   1       5.996   0.868   0.759  0.00  0.00    -0.004 A 
ATOM      5  C7  UNL d   1       5.501   2.169   0.707  0.00  0.00     0.002 A 
ATOM      6  C8  UNL d   1       4.178   2.430   1.068  0.00  0.00     0.002 A 
ENDROOT
BRANCH   1   7
ATOM      7  C2  UNL d   1       1.913   1.679   1.899  0.00  0.00     0.056 C 
BRANCH   7   8
ATOM      8  C1  UNL d   1       1.124   0.439   2.331  0.00  0.00     0.007 C 
ATOM      9  C   UNL d   1       1.126   0.220   3.838  0.00  0.00     0.009 C 
ENDBRANCH   7   8
ENDBRANCH   1   7
TORSDOF 2
ENDMDL
