MODEL 1
REMARK minimizedAffinity 12.8822927
REMARK minimizedRMSD -1
REMARK  2 active torsions:
REMARK  status: ('A' for Active; 'I' for Inactive)
REMARK    1  A    between atoms: C1_2  and  C2_3 
REMARK    2  A    between atoms: C2_3  and  C3_4 
ROOT
ATOM      1  C3  UNL d   1       1.720   1.648   2.290  0.00  0.00    -0.075 A 
ATOM      2  C4  UNL d   1       0.512   2.187   2.758  0.00  0.00     0.002 A 
ATOM      3  C5  UNL d   1      -0.025   1.770   3.976  0.00  0.00     0.002 A 
ATOM      4  C6  UNL d   1       0.631   0.804   4.736  0.00  0.00    -0.004 A 
ATOM      5  C7  UNL d   1       1.823   0.250   4.274  0.00  0.00     0.002 A 
ATOM      6  C8  UNL d   1       2.365   0.669   3.057  0.00  0.00     0.002 A 
ENDROOT
BRANCH   1   7
ATOM      7  C2  UNL d   1       2.321   2.117   0.987  0.00  0.00     0.056 C 
BRANCH   7   8
ATOM      8  C1  UNL d   1       3.098   1.032   0.233  0.00  0.00     0.007 C 
ATOM      9  C   UNL d   1       3.886   1.572  -0.953  0.00  0.00     0.009 C 
ENDBRANCH   7   8
ENDBRANCH   1   7
TORSDOF 2
ENDMDL
