MODEL 1
REMARK minimizedAffinity 18.5980225
REMARK minimizedRMSD -1
REMARK  2 active torsions:
REMARK  status: ('A' for Active; 'I' for Inactive)
REMARK    1  A    between atoms: C1_2  and  C2_3 
REMARK    2  A    between atoms: C2_3  and  C3_4 
ROOT
ATOM      1  C3  UNL d   1       1.460   1.505   2.893  0.00  0.00    -0.075 A 
ATOM      2  C4  UNL d   1       0.512   2.136   3.712  0.00  0.00     0.002 A 
ATOM      3  C5  UNL d   1       0.034   1.503   4.859  0.00  0.00     0.002 A 
ATOM      4  C6  UNL d   1       0.488   0.230   5.197  0.00  0.00    -0.004 A 
ATOM      5  C7  UNL d   1       1.418  -0.413   4.382  0.00  0.00     0.002 A 
ATOM      6  C8  UNL d   1       1.901   0.220   3.235  0.00  0.00     0.002 A 
ENDROOT
BRANCH   1   7
ATOM      7  C2  UNL d   1       2.004   2.197   1.666  0.00  0.00     0.056 C 
BRANCH   7   8
ATOM      8  C1  UNL d   1       1.601   3.672   1.552  0.00  0.00     0.007 C 
ATOM      9  C   UNL d   1       2.771   4.629   1.735  0.00  0.00     0.009 C 
ENDBRANCH   7   8
ENDBRANCH   1   7
TORSDOF 2
ENDMDL
