MODEL 1
REMARK minimizedAffinity -4.64067173
REMARK minimizedRMSD -1
REMARK  0 active torsions:
REMARK  status: ('A' for Active; 'I' for Inactive)
ROOT
ATOM      1  C4' PXY d   1       1.032   2.725   0.047  0.00  0.00     0.077 C 
ATOM      2  C1' PXY d   1      -1.180  -2.613   0.220  0.00  0.00     0.077 C 
ATOM      3  C1  PXY d   1      -0.597  -1.214   0.162  0.00  0.00    -0.082 A 
ATOM      4  C2  PXY d   1      -0.186  -0.630   1.276  0.00  0.00     0.003 A 
ATOM      5  C3  PXY d   1       0.314   0.646   1.246  0.00  0.00     0.003 A 
ATOM      6  C4  PXY d   1       0.445   1.311   0.057  0.00  0.00    -0.082 A 
ATOM      7  C5  PXY d   1       0.038   0.718  -1.086  0.00  0.00     0.003 A 
ATOM      8  C6  PXY d   1      -0.505  -0.562  -1.029  0.00  0.00     0.003 A 
ENDROOT
TORSDOF 0
ENDMDL
