MODEL 1
REMARK minimizedAffinity -2.75394607
REMARK minimizedRMSD -1
REMARK  0 active torsions:
REMARK  status: ('A' for Active; 'I' for Inactive)
ROOT
ATOM      1  C4' PXY d   1       1.238   3.524   0.239  0.00  0.00     0.077 C 
ATOM      2  C1' PXY d   1      -0.999  -1.777   0.798  0.00  0.00     0.077 C 
ATOM      3  C1  PXY d   1      -0.416  -0.386   0.638  0.00  0.00    -0.082 A 
ATOM      4  C2  PXY d   1       0.545   0.018   1.454  0.00  0.00     0.003 A 
ATOM      5  C3  PXY d   1       1.061   1.283   1.345  0.00  0.00     0.003 A 
ATOM      6  C4  PXY d   1       0.627   2.125   0.356  0.00  0.00    -0.082 A 
ATOM      7  C5  PXY d   1      -0.346   1.717  -0.486  0.00  0.00     0.003 A 
ATOM      8  C6  PXY d   1      -0.885   0.443  -0.333  0.00  0.00     0.003 A 
ENDROOT
TORSDOF 0
ENDMDL
