MODEL 1
REMARK minimizedAffinity -2.83049941
REMARK minimizedRMSD -1
REMARK  0 active torsions:
REMARK  status: ('A' for Active; 'I' for Inactive)
ROOT
ATOM      1  C4' PXY d   1      -2.251   5.999   3.003  0.00  0.00     0.077 C 
ATOM      2  C1' PXY d   1       2.023   3.004   0.518  0.00  0.00     0.077 C 
ATOM      3  C1  PXY d   1       0.909   3.789   1.181  0.00  0.00    -0.082 A 
ATOM      4  C2  PXY d   1      -0.310   3.756   0.667  0.00  0.00     0.003 A 
ATOM      5  C3  PXY d   1      -1.322   4.486   1.235  0.00  0.00     0.003 A 
ATOM      6  C4  PXY d   1      -1.097   5.215   2.372  0.00  0.00    -0.082 A 
ATOM      7  C5  PXY d   1       0.141   5.245   2.909  0.00  0.00     0.003 A 
ATOM      8  C6  PXY d   1       1.165   4.530   2.293  0.00  0.00     0.003 A 
ENDROOT
TORSDOF 0
ENDMDL
