MODEL 1
REMARK minimizedAffinity -4.01742411
REMARK minimizedRMSD -1
REMARK  0 active torsions:
REMARK  status: ('A' for Active; 'I' for Inactive)
ROOT
ATOM      1  C4' PXY d   1       0.253  -1.467  -1.419  0.00  0.00     0.077 C 
ATOM      2  C1' PXY d   1      -1.950  -0.442   3.826  0.00  0.00     0.077 C 
ATOM      3  C1  PXY d   1      -1.375  -0.698   2.447  0.00  0.00    -0.082 A 
ATOM      4  C2  PXY d   1      -1.317  -1.936   1.982  0.00  0.00     0.003 A 
ATOM      5  C3  PXY d   1      -0.771  -2.190   0.750  0.00  0.00     0.003 A 
ATOM      6  C4  PXY d   1      -0.328  -1.160  -0.036  0.00  0.00    -0.082 A 
ATOM      7  C5  PXY d   1      -0.394   0.106   0.426  0.00  0.00     0.003 A 
ATOM      8  C6  PXY d   1      -0.914   0.339   1.696  0.00  0.00     0.003 A 
ENDROOT
TORSDOF 0
ENDMDL
