MODEL 1
REMARK minimizedAffinity -3.74494672
REMARK minimizedRMSD -1
REMARK  0 active torsions:
REMARK  status: ('A' for Active; 'I' for Inactive)
ROOT
ATOM      1  C4' PXY d   1       0.526   2.972   0.039  0.00  0.00     0.077 C 
ATOM      2  C1' PXY d   1      -0.947  -2.618   0.069  0.00  0.00     0.077 C 
ATOM      3  C1  PXY d   1      -0.555  -1.154   0.050  0.00  0.00    -0.082 A 
ATOM      4  C2  PXY d   1      -0.501  -0.476   1.185  0.00  0.00     0.003 A 
ATOM      5  C3  PXY d   1      -0.179   0.857   1.182  0.00  0.00     0.003 A 
ATOM      6  C4  PXY d   1       0.144   1.489   0.012  0.00  0.00    -0.082 A 
ATOM      7  C5  PXY d   1       0.102   0.802  -1.149  0.00  0.00     0.003 A 
ATOM      8  C6  PXY d   1      -0.268  -0.540  -1.130  0.00  0.00     0.003 A 
ENDROOT
TORSDOF 0
ENDMDL
