MODEL 1
REMARK minimizedAffinity -1.56729126
REMARK minimizedRMSD -1
REMARK  0 active torsions:
REMARK  status: ('A' for Active; 'I' for Inactive)
ROOT
ATOM      1  C4' PXY d   1       0.055   2.855   0.023  0.00  0.00     0.077 C 
ATOM      2  C1' PXY d   1       0.464  -2.911  -0.049  0.00  0.00     0.077 C 
ATOM      3  C1  PXY d   1       0.346  -1.400  -0.022  0.00  0.00    -0.082 A 
ATOM      4  C2  PXY d   1       0.834  -0.688  -1.025  0.00  0.00     0.003 A 
ATOM      5  C3  PXY d   1       0.765   0.682  -1.002  0.00  0.00     0.003 A 
ATOM      6  C4  PXY d   1       0.143   1.326   0.034  0.00  0.00    -0.082 A 
ATOM      7  C5  PXY d   1      -0.367   0.606   1.056  0.00  0.00     0.003 A 
ATOM      8  C6  PXY d   1      -0.250  -0.780   1.033  0.00  0.00     0.003 A 
ENDROOT
TORSDOF 0
ENDMDL
