MODEL 1
REMARK minimizedAffinity -3.6591351
REMARK minimizedRMSD -1
REMARK  0 active torsions:
REMARK  status: ('A' for Active; 'I' for Inactive)
ROOT
ATOM      1  C4' PXY d   1       0.051   2.259   0.078  0.00  0.00     0.077 C 
ATOM      2  C1' PXY d   1       0.142  -3.480   0.758  0.00  0.00     0.077 C 
ATOM      3  C1  PXY d   1       0.106  -1.975   0.584  0.00  0.00    -0.082 A 
ATOM      4  C2  PXY d   1       0.916  -1.397  -0.289  0.00  0.00     0.003 A 
ATOM      5  C3  PXY d   1       0.919  -0.034  -0.436  0.00  0.00     0.003 A 
ATOM      6  C4  PXY d   1       0.047   0.742   0.280  0.00  0.00    -0.082 A 
ATOM      7  C5  PXY d   1      -0.791   0.159   1.164  0.00  0.00     0.003 A 
ATOM      8  C6  PXY d   1      -0.749  -1.222   1.328  0.00  0.00     0.003 A 
ENDROOT
TORSDOF 0
ENDMDL
