MODEL 1
REMARK minimizedAffinity -4.6133008
REMARK minimizedRMSD -1
REMARK  0 active torsions:
REMARK  status: ('A' for Active; 'I' for Inactive)
ROOT
ATOM      1  C4' PXY d   1       0.120  -4.076  -0.770  0.00  0.00     0.077 C 
ATOM      2  C1' PXY d   1      -0.299   1.642  -0.035  0.00  0.00     0.077 C 
ATOM      3  C1  PXY d   1      -0.188   0.141  -0.215  0.00  0.00    -0.082 A 
ATOM      4  C2  PXY d   1       0.203  -0.351  -1.379  0.00  0.00     0.003 A 
ATOM      5  C3  PXY d   1       0.278  -1.707  -1.569  0.00  0.00     0.003 A 
ATOM      6  C4  PXY d   1       0.002  -2.567  -0.540  0.00  0.00    -0.082 A 
ATOM      7  C5  PXY d   1      -0.386  -2.072   0.654  0.00  0.00     0.003 A 
ATOM      8  C6  PXY d   1      -0.497  -0.694   0.814  0.00  0.00     0.003 A 
ENDROOT
TORSDOF 0
ENDMDL
