MODEL 1
REMARK minimizedAffinity -2.78416586
REMARK minimizedRMSD -1
REMARK  0 active torsions:
REMARK  status: ('A' for Active; 'I' for Inactive)
ROOT
ATOM      1  C4' PXY d   1      -1.438  -2.767   0.599  0.00  0.00     0.077 C 
ATOM      2  C1' PXY d   1       0.798   2.534   0.034  0.00  0.00     0.077 C 
ATOM      3  C1  PXY d   1       0.219   1.140   0.172  0.00  0.00    -0.082 A 
ATOM      4  C2  PXY d   1      -0.967   0.977   0.736  0.00  0.00     0.003 A 
ATOM      5  C3  PXY d   1      -1.491  -0.280   0.898  0.00  0.00     0.003 A 
ATOM      6  C4  PXY d   1      -0.818  -1.376   0.430  0.00  0.00    -0.082 A 
ATOM      7  C5  PXY d   1       0.387  -1.218  -0.156  0.00  0.00     0.003 A 
ATOM      8  C6  PXY d   1       0.921   0.063  -0.274  0.00  0.00     0.003 A 
ENDROOT
TORSDOF 0
ENDMDL
