MODEL 1
REMARK minimizedAffinity -5.03561735
REMARK minimizedRMSD -1
REMARK  0 active torsions:
REMARK  status: ('A' for Active; 'I' for Inactive)
ROOT
ATOM      1  C4' PXY d   1      -1.122  -0.097   1.868  0.00  0.00     0.077 C 
ATOM      2  C1' PXY d   1       0.522  -3.316  -2.644  0.00  0.00     0.077 C 
ATOM      3  C1  PXY d   1       0.100  -2.462  -1.464  0.00  0.00    -0.082 A 
ATOM      4  C2  PXY d   1      -0.432  -3.038  -0.398  0.00  0.00     0.003 A 
ATOM      5  C3  PXY d   1      -0.850  -2.278   0.665  0.00  0.00     0.003 A 
ATOM      6  C4  PXY d   1      -0.672  -0.920   0.658  0.00  0.00    -0.082 A 
ATOM      7  C5  PXY d   1      -0.120  -0.327  -0.422  0.00  0.00     0.003 A 
ATOM      8  C6  PXY d   1       0.259  -1.112  -1.507  0.00  0.00     0.003 A 
ENDROOT
TORSDOF 0
ENDMDL
