MODEL 1
REMARK minimizedAffinity -4.97234297
REMARK minimizedRMSD -1
REMARK  0 active torsions:
REMARK  status: ('A' for Active; 'I' for Inactive)
ROOT
ATOM      1  C4' PXY d   1       1.236  -2.068  -1.285  0.00  0.00     0.077 C 
ATOM      2  C1' PXY d   1      -2.307   1.035   2.067  0.00  0.00     0.077 C 
ATOM      3  C1  PXY d   1      -1.379   0.211   1.196  0.00  0.00    -0.082 A 
ATOM      4  C2  PXY d   1      -0.517   0.821   0.399  0.00  0.00     0.003 A 
ATOM      5  C3  PXY d   1       0.307   0.092  -0.419  0.00  0.00     0.003 A 
ATOM      6  C4  PXY d   1       0.286  -1.277  -0.381  0.00  0.00    -0.082 A 
ATOM      7  C5  PXY d   1      -0.583  -1.907   0.438  0.00  0.00     0.003 A 
ATOM      8  C6  PXY d   1      -1.440  -1.148   1.230  0.00  0.00     0.003 A 
ENDROOT
TORSDOF 0
ENDMDL
