MODEL 1
REMARK minimizedAffinity -2.82911706
REMARK minimizedRMSD -1
REMARK  0 active torsions:
REMARK  status: ('A' for Active; 'I' for Inactive)
ROOT
ATOM      1  C4' PXY d   1       0.707   2.138   0.427  0.00  0.00     0.077 C 
ATOM      2  C1' PXY d   1      -0.396  -3.535   0.552  0.00  0.00     0.077 C 
ATOM      3  C1  PXY d   1      -0.120  -2.045   0.522  0.00  0.00    -0.082 A 
ATOM      4  C2  PXY d   1       0.947  -1.591  -0.117  0.00  0.00     0.003 A 
ATOM      5  C3  PXY d   1       1.229  -0.249  -0.128  0.00  0.00     0.003 A 
ATOM      6  C4  PXY d   1       0.383   0.642   0.476  0.00  0.00    -0.082 A 
ATOM      7  C5  PXY d   1      -0.712   0.187   1.120  0.00  0.00     0.003 A 
ATOM      8  C6  PXY d   1      -0.960  -1.182   1.155  0.00  0.00     0.003 A 
ENDROOT
TORSDOF 0
ENDMDL
