MODEL 1
REMARK minimizedAffinity -3.71609926
REMARK minimizedRMSD -1
REMARK  0 active torsions:
REMARK  status: ('A' for Active; 'I' for Inactive)
ROOT
ATOM      1  C4' PXY d   1       0.744  -2.588  -3.114  0.00  0.00     0.077 C 
ATOM      2  C1' PXY d   1      -1.117  -1.135   2.162  0.00  0.00     0.077 C 
ATOM      3  C1  PXY d   1      -0.630  -1.504   0.775  0.00  0.00    -0.082 A 
ATOM      4  C2  PXY d   1      -0.754  -2.750   0.348  0.00  0.00     0.003 A 
ATOM      5  C3  PXY d   1      -0.290  -3.108  -0.892  0.00  0.00     0.003 A 
ATOM      6  C4  PXY d   1       0.258  -2.169  -1.724  0.00  0.00    -0.082 A 
ATOM      7  C5  PXY d   1       0.377  -0.893  -1.300  0.00  0.00     0.003 A 
ATOM      8  C6  PXY d   1      -0.063  -0.558  -0.023  0.00  0.00     0.003 A 
ENDROOT
TORSDOF 0
ENDMDL
