MODEL 1
REMARK minimizedAffinity -5.06247139
REMARK minimizedRMSD -1
REMARK  0 active torsions:
REMARK  status: ('A' for Active; 'I' for Inactive)
ROOT
ATOM      1  C4' PXY d   1       0.550  -3.109  -2.670  0.00  0.00     0.077 C 
ATOM      2  C1' PXY d   1      -1.195  -0.093   1.941  0.00  0.00     0.077 C 
ATOM      3  C1  PXY d   1      -0.736  -0.895   0.739  0.00  0.00    -0.082 A 
ATOM      4  C2  PXY d   1      -0.192  -0.272  -0.293  0.00  0.00     0.003 A 
ATOM      5  C3  PXY d   1       0.200  -0.978  -1.401  0.00  0.00     0.003 A 
ATOM      6  C4  PXY d   1       0.081  -2.341  -1.432  0.00  0.00    -0.082 A 
ATOM      7  C5  PXY d   1      -0.464  -2.985  -0.378  0.00  0.00     0.003 A 
ATOM      8  C6  PXY d   1      -0.893  -2.246   0.721  0.00  0.00     0.003 A 
ENDROOT
TORSDOF 0
ENDMDL
