MODEL 1
REMARK minimizedAffinity -4.32732296
REMARK minimizedRMSD -1
REMARK  0 active torsions:
REMARK  status: ('A' for Active; 'I' for Inactive)
ROOT
ATOM      1  C4' PXY d   1       1.415   3.387   0.050  0.00  0.00     0.077 C 
ATOM      2  C1' PXY d   1      -0.812  -1.893   0.806  0.00  0.00     0.077 C 
ATOM      3  C1  PXY d   1      -0.231  -0.509   0.595  0.00  0.00    -0.082 A 
ATOM      4  C2  PXY d   1       0.672  -0.043   1.442  0.00  0.00     0.003 A 
ATOM      5  C3  PXY d   1       1.184   1.219   1.285  0.00  0.00     0.003 A 
ATOM      6  C4  PXY d   1       0.808   1.992   0.219  0.00  0.00    -0.082 A 
ATOM      7  C5  PXY d   1      -0.105   1.519  -0.656  0.00  0.00     0.003 A 
ATOM      8  C6  PXY d   1      -0.644   0.251  -0.455  0.00  0.00     0.003 A 
ENDROOT
TORSDOF 0
ENDMDL
