MODEL 1
REMARK minimizedAffinity -5.08257008
REMARK minimizedRMSD -1
REMARK  0 active torsions:
REMARK  status: ('A' for Active; 'I' for Inactive)
ROOT
ATOM      1  C4' PXY d   1       0.254   1.952   0.049  0.00  0.00     0.077 C 
ATOM      2  C1' PXY d   1      -0.410  -3.786  -0.176  0.00  0.00     0.077 C 
ATOM      3  C1  PXY d   1      -0.247  -2.280  -0.110  0.00  0.00    -0.082 A 
ATOM      4  C2  PXY d   1       0.449  -1.656  -1.047  0.00  0.00     0.003 A 
ATOM      5  C3  PXY d   1       0.633  -0.298  -0.985  0.00  0.00     0.003 A 
ATOM      6  C4  PXY d   1       0.055   0.434   0.017  0.00  0.00    -0.082 A 
ATOM      7  C5  PXY d   1      -0.665  -0.194   0.970  0.00  0.00     0.003 A 
ATOM      8  C6  PXY d   1      -0.806  -1.577   0.912  0.00  0.00     0.003 A 
ENDROOT
TORSDOF 0
ENDMDL
