MODEL 1
REMARK minimizedAffinity -2.15238309
REMARK minimizedRMSD -1
REMARK  0 active torsions:
REMARK  status: ('A' for Active; 'I' for Inactive)
ROOT
ATOM      1  C4' PXY d   1       2.640   2.840  -0.335  0.00  0.00     0.077 C 
ATOM      2  C1' PXY d   1      -1.177   5.997   2.646  0.00  0.00     0.077 C 
ATOM      3  C1  PXY d   1      -0.168   5.180   1.864  0.00  0.00    -0.082 A 
ATOM      4  C2  PXY d   1      -0.576   4.136   1.161  0.00  0.00     0.003 A 
ATOM      5  C3  PXY d   1       0.327   3.366   0.474  0.00  0.00     0.003 A 
ATOM      6  C4  PXY d   1       1.655   3.700   0.463  0.00  0.00    -0.082 A 
ATOM      7  C5  PXY d   1       2.078   4.770   1.169  0.00  0.00     0.003 A 
ATOM      8  C6  PXY d   1       1.151   5.514   1.894  0.00  0.00     0.003 A 
ENDROOT
TORSDOF 0
ENDMDL
