MODEL 1
REMARK minimizedAffinity -2.61636138
REMARK minimizedRMSD -1
REMARK  0 active torsions:
REMARK  status: ('A' for Active; 'I' for Inactive)
ROOT
ATOM      1  C4' PXY d   1      -0.588   5.245   3.112  0.00  0.00     0.077 C 
ATOM      2  C1' PXY d   1       2.278   2.848  -1.299  0.00  0.00     0.077 C 
ATOM      3  C1  PXY d   1       1.538   3.477  -0.135  0.00  0.00    -0.082 A 
ATOM      4  C2  PXY d   1       0.228   3.319  -0.031  0.00  0.00     0.003 A 
ATOM      5  C3  PXY d   1      -0.462   3.907   0.997  0.00  0.00     0.003 A 
ATOM      6  C4  PXY d   1       0.202   4.620   1.959  0.00  0.00    -0.082 A 
ATOM      7  C5  PXY d   1       1.540   4.777   1.865  0.00  0.00     0.003 A 
ATOM      8  C6  PXY d   1       2.216   4.207   0.791  0.00  0.00     0.003 A 
ENDROOT
TORSDOF 0
ENDMDL
