MODEL 1
REMARK minimizedAffinity -4.68925333
REMARK minimizedRMSD -1
REMARK  0 active torsions:
REMARK  status: ('A' for Active; 'I' for Inactive)
ROOT
ATOM      1  C4' PXY d   1       1.775   3.289   0.130  0.00  0.00     0.077 C 
ATOM      2  C1' PXY d   1      -0.967  -1.746   0.867  0.00  0.00     0.077 C 
ATOM      3  C1  PXY d   1      -0.250  -0.427   0.661  0.00  0.00    -0.082 A 
ATOM      4  C2  PXY d   1       0.598   0.008   1.580  0.00  0.00     0.003 A 
ATOM      5  C3  PXY d   1       1.231   1.214   1.424  0.00  0.00     0.003 A 
ATOM      6  C4  PXY d   1       1.035   1.958   0.292  0.00  0.00    -0.082 A 
ATOM      7  C5  PXY d   1       0.180   1.517  -0.655  0.00  0.00     0.003 A 
ATOM      8  C6  PXY d   1      -0.484   0.309  -0.459  0.00  0.00     0.003 A 
ENDROOT
TORSDOF 0
ENDMDL
