MODEL 1
REMARK minimizedAffinity -1.02974474
REMARK minimizedRMSD -1
REMARK  0 active torsions:
REMARK  status: ('A' for Active; 'I' for Inactive)
ROOT
ATOM      1  C1  BNZ d   1      -2.892   2.736   1.509  0.00  0.00     0.000 A 
ATOM      2  C2  BNZ d   1      -2.480   2.378   0.253  0.00  0.00     0.000 A 
ATOM      3  C3  BNZ d   1      -2.458   3.291  -0.764  0.00  0.00     0.000 A 
ATOM      4  C4  BNZ d   1      -2.884   4.550  -0.533  0.00  0.00     0.000 A 
ATOM      5  C5  BNZ d   1      -3.311   4.924   0.726  0.00  0.00     0.000 A 
ATOM      6  C6  BNZ d   1      -3.295   4.012   1.756  0.00  0.00     0.000 A 
ENDROOT
TORSDOF 0
ENDMDL
