MODEL 1
REMARK minimizedAffinity -1.64710367
REMARK minimizedRMSD -1
REMARK  0 active torsions:
REMARK  status: ('A' for Active; 'I' for Inactive)
ROOT
ATOM      1  C1  BNZ d   1      -2.165   0.351   3.352  0.00  0.00     0.000 A 
ATOM      2  C2  BNZ d   1      -2.982  -0.518   4.025  0.00  0.00     0.000 A 
ATOM      3  C3  BNZ d   1      -4.073  -1.069   3.414  0.00  0.00     0.000 A 
ATOM      4  C4  BNZ d   1      -4.369  -0.720   2.146  0.00  0.00     0.000 A 
ATOM      5  C5  BNZ d   1      -3.561   0.161   1.456  0.00  0.00     0.000 A 
ATOM      6  C6  BNZ d   1      -2.441   0.684   2.062  0.00  0.00     0.000 A 
ENDROOT
TORSDOF 0
ENDMDL
