MODEL 1
REMARK minimizedAffinity 2.6215961
REMARK minimizedRMSD -1
REMARK  0 active torsions:
REMARK  status: ('A' for Active; 'I' for Inactive)
ROOT
ATOM      1  C1  BNZ d   1       0.764   1.951  -4.601  0.00  0.00     0.000 A 
ATOM      2  C2  BNZ d   1       0.281   3.232  -4.634  0.00  0.00     0.000 A 
ATOM      3  C3  BNZ d   1       0.932   4.207  -5.336  0.00  0.00     0.000 A 
ATOM      4  C4  BNZ d   1       2.085   3.911  -5.970  0.00  0.00     0.000 A 
ATOM      5  C5  BNZ d   1       2.589   2.626  -5.938  0.00  0.00     0.000 A 
ATOM      6  C6  BNZ d   1       1.911   1.638  -5.263  0.00  0.00     0.000 A 
ENDROOT
TORSDOF 0
ENDMDL
