MODEL 1
REMARK minimizedAffinity 0.0425329134
REMARK minimizedRMSD -1
REMARK  0 active torsions:
REMARK  status: ('A' for Active; 'I' for Inactive)
ROOT
ATOM      1  C1  BNZ d   1      -4.389  -0.659   3.763  0.00  0.00     0.000 A 
ATOM      2  C2  BNZ d   1      -3.840  -0.314   2.557  0.00  0.00     0.000 A 
ATOM      3  C3  BNZ d   1      -3.160   0.862   2.408  0.00  0.00     0.000 A 
ATOM      4  C4  BNZ d   1      -3.065   1.710   3.452  0.00  0.00     0.000 A 
ATOM      5  C5  BNZ d   1      -3.622   1.381   4.672  0.00  0.00     0.000 A 
ATOM      6  C6  BNZ d   1      -4.272   0.179   4.829  0.00  0.00     0.000 A 
ENDROOT
TORSDOF 0
ENDMDL
