MODEL 1
REMARK minimizedAffinity -2.86754799
REMARK minimizedRMSD -1
REMARK  0 active torsions:
REMARK  status: ('A' for Active; 'I' for Inactive)
ROOT
ATOM      1  C1  BNZ d   1      -3.490   0.728  -0.329  0.00  0.00     0.000 A 
ATOM      2  C2  BNZ d   1      -3.595   2.092  -0.390  0.00  0.00     0.000 A 
ATOM      3  C3  BNZ d   1      -2.960   2.884   0.525  0.00  0.00     0.000 A 
ATOM      4  C4  BNZ d   1      -2.255   2.311   1.522  0.00  0.00     0.000 A 
ATOM      5  C5  BNZ d   1      -2.147   0.937   1.602  0.00  0.00     0.000 A 
ATOM      6  C6  BNZ d   1      -2.756   0.144   0.657  0.00  0.00     0.000 A 
ENDROOT
TORSDOF 0
ENDMDL
