MODEL 1
REMARK minimizedAffinity -3.83385611
REMARK minimizedRMSD -1
REMARK  0 active torsions:
REMARK  status: ('A' for Active; 'I' for Inactive)
ROOT
ATOM      1  C1  BNZ d   1      -4.602  -0.241   3.868  0.00  0.00     0.000 A 
ATOM      2  C2  BNZ d   1      -3.631  -0.852   3.121  0.00  0.00     0.000 A 
ATOM      3  C3  BNZ d   1      -2.535  -0.157   2.694  0.00  0.00     0.000 A 
ATOM      4  C4  BNZ d   1      -2.431   1.158   2.979  0.00  0.00     0.000 A 
ATOM      5  C5  BNZ d   1      -3.406   1.791   3.723  0.00  0.00     0.000 A 
ATOM      6  C6  BNZ d   1      -4.489   1.078   4.185  0.00  0.00     0.000 A 
ENDROOT
TORSDOF 0
ENDMDL
