MODEL 1
REMARK minimizedAffinity -0.0836320817
REMARK minimizedRMSD -1
REMARK  0 active torsions:
REMARK  status: ('A' for Active; 'I' for Inactive)
ROOT
ATOM      1  C1  BNZ d   1       5.465   0.745   4.971  0.00  0.00     0.000 A 
ATOM      2  C2  BNZ d   1       4.674  -0.249   4.461  0.00  0.00     0.000 A 
ATOM      3  C3  BNZ d   1       3.965  -0.058   3.307  0.00  0.00     0.000 A 
ATOM      4  C4  BNZ d   1       4.017   1.140   2.689  0.00  0.00     0.000 A 
ATOM      5  C5  BNZ d   1       4.802   2.155   3.196  0.00  0.00     0.000 A 
ATOM      6  C6  BNZ d   1       5.545   1.946   4.336  0.00  0.00     0.000 A 
ENDROOT
TORSDOF 0
ENDMDL
