MODEL 1
REMARK minimizedAffinity -2.84469414
REMARK minimizedRMSD -1
REMARK  0 active torsions:
REMARK  status: ('A' for Active; 'I' for Inactive)
ROOT
ATOM      1  C1  BNZ d   1      -2.519   1.699   1.273  0.00  0.00     0.000 A 
ATOM      2  C2  BNZ d   1      -2.518   1.065   2.487  0.00  0.00     0.000 A 
ATOM      3  C3  BNZ d   1      -2.502  -0.300   2.564  0.00  0.00     0.000 A 
ATOM      4  C4  BNZ d   1      -2.527  -1.028   1.429  0.00  0.00     0.000 A 
ATOM      5  C5  BNZ d   1      -2.538  -0.404   0.197  0.00  0.00     0.000 A 
ATOM      6  C6  BNZ d   1      -2.515   0.970   0.124  0.00  0.00     0.000 A 
ENDROOT
TORSDOF 0
ENDMDL
