MODEL 1
REMARK minimizedAffinity -0.739703417
REMARK minimizedRMSD -1
REMARK  0 active torsions:
REMARK  status: ('A' for Active; 'I' for Inactive)
ROOT
ATOM      1  C1  BNZ d   1      -3.113  -1.038   1.846  0.00  0.00     0.000 A 
ATOM      2  C2  BNZ d   1      -3.316  -0.691   0.536  0.00  0.00     0.000 A 
ATOM      3  C3  BNZ d   1      -3.197   0.609   0.130  0.00  0.00     0.000 A 
ATOM      4  C4  BNZ d   1      -2.916   1.564   1.039  0.00  0.00     0.000 A 
ATOM      5  C5  BNZ d   1      -2.718   1.232   2.365  0.00  0.00     0.000 A 
ATOM      6  C6  BNZ d   1      -2.799  -0.083   2.763  0.00  0.00     0.000 A 
ENDROOT
TORSDOF 0
ENDMDL
