MODEL 1
REMARK minimizedAffinity 3.34153724
REMARK minimizedRMSD -1
REMARK  0 active torsions:
REMARK  status: ('A' for Active; 'I' for Inactive)
ROOT
ATOM      1  C1  BNZ d   1      -2.903  -0.075   1.137  0.00  0.00     0.000 A 
ATOM      2  C2  BNZ d   1      -3.051  -1.135   1.992  0.00  0.00     0.000 A 
ATOM      3  C3  BNZ d   1      -3.114  -0.940   3.343  0.00  0.00     0.000 A 
ATOM      4  C4  BNZ d   1      -2.989   0.307   3.840  0.00  0.00     0.000 A 
ATOM      5  C5  BNZ d   1      -2.829   1.385   2.992  0.00  0.00     0.000 A 
ATOM      6  C6  BNZ d   1      -2.806   1.190   1.630  0.00  0.00     0.000 A 
ENDROOT
TORSDOF 0
ENDMDL
