MODEL 1
REMARK minimizedAffinity -3.45433235
REMARK minimizedRMSD -1
REMARK  0 active torsions:
REMARK  status: ('A' for Active; 'I' for Inactive)
ROOT
ATOM      1  C1  BNZ d   1      -2.787  -0.939   1.593  0.00  0.00     0.000 A 
ATOM      2  C2  BNZ d   1      -2.881  -0.318   0.376  0.00  0.00     0.000 A 
ATOM      3  C3  BNZ d   1      -2.722   1.035   0.266  0.00  0.00     0.000 A 
ATOM      4  C4  BNZ d   1      -2.508   1.770   1.377  0.00  0.00     0.000 A 
ATOM      5  C5  BNZ d   1      -2.419   1.159   2.612  0.00  0.00     0.000 A 
ATOM      6  C6  BNZ d   1      -2.542  -0.208   2.714  0.00  0.00     0.000 A 
ENDROOT
TORSDOF 0
ENDMDL
