MODEL 1
REMARK minimizedAffinity -3.39549947
REMARK minimizedRMSD -1
REMARK  0 active torsions:
REMARK  status: ('A' for Active; 'I' for Inactive)
ROOT
ATOM      1  C1  BNZ d   1      -2.815   1.763   1.660  0.00  0.00     0.000 A 
ATOM      2  C2  BNZ d   1      -2.647   1.074   2.832  0.00  0.00     0.000 A 
ATOM      3  C3  BNZ d   1      -2.747  -0.289   2.863  0.00  0.00     0.000 A 
ATOM      4  C4  BNZ d   1      -3.054  -0.957   1.732  0.00  0.00     0.000 A 
ATOM      5  C5  BNZ d   1      -3.236  -0.276   0.545  0.00  0.00     0.000 A 
ATOM      6  C6  BNZ d   1      -3.096   1.092   0.510  0.00  0.00     0.000 A 
ENDROOT
TORSDOF 0
ENDMDL
