MODEL 1
REMARK minimizedAffinity 9.51304054
REMARK minimizedRMSD -1
REMARK  2 active torsions:
REMARK  status: ('A' for Active; 'I' for Inactive)
REMARK    1  A    between atoms: C2'_3  and  C1'_4 
REMARK    2  A    between atoms: C1'_4  and  C1_5 
ROOT
ATOM      1  C1  I4B d   1       2.560   0.010   0.101  0.00  0.00    -0.075 A 
ATOM      2  C2  I4B d   1       2.455  -1.235   0.669  0.00  0.00     0.003 A 
ATOM      3  C3  I4B d   1       2.114  -2.355  -0.127  0.00  0.00     0.002 A 
ATOM      4  C4  I4B d   1       1.838  -2.177  -1.467  0.00  0.00    -0.004 A 
ATOM      5  C5  I4B d   1       1.967  -0.918  -2.046  0.00  0.00     0.002 A 
ATOM      6  C6  I4B d   1       2.343   0.181  -1.260  0.00  0.00     0.003 A 
ENDROOT
BRANCH   1   7
ATOM      7  C1' I4B d   1       2.891   1.177   0.978  0.00  0.00     0.060 C 
BRANCH   7   8
ATOM      8  C2' I4B d   1       4.400   1.288   1.058  0.00  0.00    -0.013 C 
ATOM      9  C4' I4B d   1       5.029   1.153  -0.303  0.00  0.00     0.013 C 
ATOM     10  C3' I4B d   1       4.734   2.610   1.681  0.00  0.00     0.013 C 
ENDBRANCH   7   8
ENDBRANCH   1   7
TORSDOF 2
ENDMDL
