MODEL 1
REMARK minimizedAffinity 13.4878082
REMARK minimizedRMSD -1
REMARK  2 active torsions:
REMARK  status: ('A' for Active; 'I' for Inactive)
REMARK    1  A    between atoms: C2'_3  and  C1'_4 
REMARK    2  A    between atoms: C1'_4  and  C1_5 
ROOT
ATOM      1  C1  I4B d   1       2.616  -0.794   1.262  0.00  0.00    -0.075 A 
ATOM      2  C2  I4B d   1       3.474   0.241   1.539  0.00  0.00     0.003 A 
ATOM      3  C3  I4B d   1       3.634   1.301   0.615  0.00  0.00     0.002 A 
ATOM      4  C4  I4B d   1       2.959   1.262  -0.588  0.00  0.00    -0.004 A 
ATOM      5  C5  I4B d   1       2.072   0.224  -0.857  0.00  0.00     0.002 A 
ATOM      6  C6  I4B d   1       1.889  -0.805   0.079  0.00  0.00     0.003 A 
ENDROOT
BRANCH   1   7
ATOM      7  C1' I4B d   1       2.497  -1.915   2.246  0.00  0.00     0.060 C 
BRANCH   7   8
ATOM      8  C2' I4B d   1       1.060  -1.965   2.724  0.00  0.00    -0.013 C 
ATOM      9  C4' I4B d   1       0.958  -2.618   4.077  0.00  0.00     0.013 C 
ATOM     10  C3' I4B d   1       0.534  -0.561   2.760  0.00  0.00     0.013 C 
ENDBRANCH   7   8
ENDBRANCH   1   7
TORSDOF 2
ENDMDL
