MODEL 1
REMARK minimizedAffinity 10.5880718
REMARK minimizedRMSD -1
REMARK  2 active torsions:
REMARK  status: ('A' for Active; 'I' for Inactive)
REMARK    1  A    between atoms: C2'_3  and  C1'_4 
REMARK    2  A    between atoms: C1'_4  and  C1_5 
ROOT
ATOM      1  C1  I4B d   1       3.592   1.300   0.901  0.00  0.00    -0.075 A 
ATOM      2  C2  I4B d   1       2.853   0.366   1.582  0.00  0.00     0.003 A 
ATOM      3  C3  I4B d   1       2.167  -0.653   0.877  0.00  0.00     0.002 A 
ATOM      4  C4  I4B d   1       2.206  -0.669  -0.502  0.00  0.00    -0.004 A 
ATOM      5  C5  I4B d   1       2.975   0.265  -1.190  0.00  0.00     0.002 A 
ATOM      6  C6  I4B d   1       3.683   1.249  -0.484  0.00  0.00     0.003 A 
ENDROOT
BRANCH   1   7
ATOM      7  C1' I4B d   1       4.277   2.381   1.675  0.00  0.00     0.060 C 
BRANCH   7   8
ATOM      8  C2' I4B d   1       3.267   2.982   2.632  0.00  0.00    -0.013 C 
ATOM      9  C4' I4B d   1       3.842   3.118   4.017  0.00  0.00     0.013 C 
ATOM     10  C3' I4B d   1       2.849   4.315   2.086  0.00  0.00     0.013 C 
ENDBRANCH   7   8
ENDBRANCH   1   7
TORSDOF 2
ENDMDL
