MODEL 1
REMARK minimizedAffinity 11.4685602
REMARK minimizedRMSD -1
REMARK  2 active torsions:
REMARK  status: ('A' for Active; 'I' for Inactive)
REMARK    1  A    between atoms: C2'_3  and  C1'_4 
REMARK    2  A    between atoms: C1'_4  and  C1_5 
ROOT
ATOM      1  C1  I4B d   1      -5.624   0.828  -2.695  0.00  0.00    -0.075 A 
ATOM      2  C2  I4B d   1      -5.490   2.181  -2.888  0.00  0.00     0.003 A 
ATOM      3  C3  I4B d   1      -5.623   2.733  -4.185  0.00  0.00     0.002 A 
ATOM      4  C4  I4B d   1      -5.839   1.896  -5.261  0.00  0.00    -0.004 A 
ATOM      5  C5  I4B d   1      -5.998   0.528  -5.060  0.00  0.00     0.002 A 
ATOM      6  C6  I4B d   1      -5.902  -0.009  -3.768  0.00  0.00     0.003 A 
ENDROOT
BRANCH   1   7
ATOM      7  C1' I4B d   1      -5.445   0.275  -1.317  0.00  0.00     0.060 C 
BRANCH   7   8
ATOM      8  C2' I4B d   1      -4.138   0.809  -0.766  0.00  0.00    -0.013 C 
ATOM      9  C4' I4B d   1      -4.116   0.749   0.738  0.00  0.00     0.013 C 
ATOM     10  C3' I4B d   1      -3.022   0.002  -1.357  0.00  0.00     0.013 C 
ENDBRANCH   7   8
ENDBRANCH   1   7
TORSDOF 2
ENDMDL
