MODEL 1
REMARK minimizedAffinity 7.28613186
REMARK minimizedRMSD -1
REMARK  2 active torsions:
REMARK  status: ('A' for Active; 'I' for Inactive)
REMARK    1  A    between atoms: C2'_3  and  C1'_4 
REMARK    2  A    between atoms: C1'_4  and  C1_5 
ROOT
ATOM      1  C1  I4B d   1      -5.454   3.813   3.524  0.00  0.00    -0.075 A 
ATOM      2  C2  I4B d   1      -6.000   3.766   4.782  0.00  0.00     0.003 A 
ATOM      3  C3  I4B d   1      -5.836   4.855   5.671  0.00  0.00     0.002 A 
ATOM      4  C4  I4B d   1      -5.082   5.943   5.282  0.00  0.00    -0.004 A 
ATOM      5  C5  I4B d   1      -4.549   6.000   3.997  0.00  0.00     0.002 A 
ATOM      6  C6  I4B d   1      -4.746   4.933   3.108  0.00  0.00     0.003 A 
ENDROOT
BRANCH   1   7
ATOM      7  C1' I4B d   1      -5.618   2.631   2.622  0.00  0.00     0.060 C 
BRANCH   7   8
ATOM      8  C2' I4B d   1      -4.433   2.594   1.679  0.00  0.00    -0.013 C 
ATOM      9  C4' I4B d   1      -4.104   1.183   1.271  0.00  0.00     0.013 C 
ATOM     10  C3' I4B d   1      -4.764   3.440   0.486  0.00  0.00     0.013 C 
ENDBRANCH   7   8
ENDBRANCH   1   7
TORSDOF 2
ENDMDL
