MODEL 1
REMARK minimizedAffinity 9.77458572
REMARK minimizedRMSD -1
REMARK  2 active torsions:
REMARK  status: ('A' for Active; 'I' for Inactive)
REMARK    1  A    between atoms: C2'_3  and  C1'_4 
REMARK    2  A    between atoms: C1'_4  and  C1_5 
ROOT
ATOM      1  C1  I4B d   1      -5.268   4.148   3.698  0.00  0.00    -0.075 A 
ATOM      2  C2  I4B d   1      -5.998   4.201   4.859  0.00  0.00     0.003 A 
ATOM      3  C3  I4B d   1      -5.682   5.154   5.857  0.00  0.00     0.002 A 
ATOM      4  C4  I4B d   1      -4.603   5.995   5.676  0.00  0.00    -0.004 A 
ATOM      5  C5  I4B d   1      -3.878   5.955   4.488  0.00  0.00     0.002 A 
ATOM      6  C6  I4B d   1      -4.220   5.034   3.488  0.00  0.00     0.003 A 
ENDROOT
BRANCH   1   7
ATOM      7  C1' I4B d   1      -5.609   3.107   2.679  0.00  0.00     0.060 C 
BRANCH   7   8
ATOM      8  C2' I4B d   1      -4.444   2.997   1.716  0.00  0.00    -0.013 C 
ATOM      9  C4' I4B d   1      -4.209   1.567   1.305  0.00  0.00     0.013 C 
ATOM     10  C3' I4B d   1      -4.743   3.860   0.527  0.00  0.00     0.013 C 
ENDBRANCH   7   8
ENDBRANCH   1   7
TORSDOF 2
ENDMDL
