MODEL 1
REMARK minimizedAffinity 0.334017634
REMARK minimizedRMSD -1
REMARK  0 active torsions:
REMARK  status: ('A' for Active; 'I' for Inactive)
ROOT
ATOM      1  C2' OXE d   1      -0.954  -4.400  -0.597  0.00  0.00     0.078 C 
ATOM      2  C1' OXE d   1      -2.022  -1.804  -0.665  0.00  0.00     0.078 C 
ATOM      3  C1  OXE d   1      -1.530  -2.328   0.661  0.00  0.00    -0.078 A 
ATOM      4  C2  OXE d   1      -1.052  -3.616   0.694  0.00  0.00    -0.078 A 
ATOM      5  C3  OXE d   1      -0.535  -4.129   1.880  0.00  0.00     0.003 A 
ATOM      6  C4  OXE d   1      -0.639  -3.402   3.072  0.00  0.00    -0.002 A 
ATOM      7  C5  OXE d   1      -1.158  -2.103   3.068  0.00  0.00    -0.002 A 
ATOM      8  C6  OXE d   1      -1.568  -1.537   1.866  0.00  0.00     0.003 A 
ENDROOT
TORSDOF 0
ENDMDL
