MODEL 1
REMARK minimizedAffinity 16.2748604
REMARK minimizedRMSD -1
REMARK  0 active torsions:
REMARK  status: ('A' for Active; 'I' for Inactive)
ROOT
ATOM      1  C2' OXE d   1       0.348  -4.509   3.283  0.00  0.00     0.078 C 
ATOM      2  C1' OXE d   1      -0.614  -2.000   4.095  0.00  0.00     0.078 C 
ATOM      3  C1  OXE d   1      -0.916  -2.447   2.686  0.00  0.00    -0.078 A 
ATOM      4  C2  OXE d   1      -0.401  -3.655   2.283  0.00  0.00    -0.078 A 
ATOM      5  C3  OXE d   1      -0.695  -4.140   1.012  0.00  0.00     0.003 A 
ATOM      6  C4  OXE d   1      -1.381  -3.340   0.089  0.00  0.00    -0.002 A 
ATOM      7  C5  OXE d   1      -1.879  -2.089   0.467  0.00  0.00    -0.002 A 
ATOM      8  C6  OXE d   1      -1.692  -1.647   1.772  0.00  0.00     0.003 A 
ENDROOT
TORSDOF 0
ENDMDL
