MODEL 1
REMARK minimizedAffinity 10.0911036
REMARK minimizedRMSD -1
REMARK  0 active torsions:
REMARK  status: ('A' for Active; 'I' for Inactive)
ROOT
ATOM      1  C2' OXE d   1       5.668  -0.027   5.998  0.00  0.00     0.078 C 
ATOM      2  C1' OXE d   1       3.988   2.222   5.966  0.00  0.00     0.078 C 
ATOM      3  C1  OXE d   1       4.591   1.775   4.657  0.00  0.00    -0.078 A 
ATOM      4  C2  OXE d   1       5.449   0.703   4.690  0.00  0.00    -0.078 A 
ATOM      5  C3  OXE d   1       5.990   0.216   3.503  0.00  0.00     0.003 A 
ATOM      6  C4  OXE d   1       5.790   0.902   2.299  0.00  0.00    -0.002 A 
ATOM      7  C5  OXE d   1       4.951   2.021   2.251  0.00  0.00    -0.002 A 
ATOM      8  C6  OXE d   1       4.312   2.444   3.411  0.00  0.00     0.003 A 
ENDROOT
TORSDOF 0
ENDMDL
