MODEL 1
REMARK minimizedAffinity 14.7656612
REMARK minimizedRMSD -1
REMARK  0 active torsions:
REMARK  status: ('A' for Active; 'I' for Inactive)
ROOT
ATOM      1  C2' OXE d   1      -2.607   3.048  -4.134  0.00  0.00     0.078 C 
ATOM      2  C1' OXE d   1      -4.631   2.497  -5.999  0.00  0.00     0.078 C 
ATOM      3  C1  OXE d   1      -4.767   3.745  -5.162  0.00  0.00    -0.078 A 
ATOM      4  C2  OXE d   1      -3.795   3.982  -4.220  0.00  0.00    -0.078 A 
ATOM      5  C3  OXE d   1      -3.843   5.147  -3.459  0.00  0.00     0.003 A 
ATOM      6  C4  OXE d   1      -4.950   6.000  -3.538  0.00  0.00    -0.002 A 
ATOM      7  C5  OXE d   1      -5.970   5.756  -4.463  0.00  0.00    -0.002 A 
ATOM      8  C6  OXE d   1      -5.873   4.658  -5.311  0.00  0.00     0.003 A 
ENDROOT
TORSDOF 0
ENDMDL
