MODEL 1
REMARK minimizedAffinity 5.69714355
REMARK minimizedRMSD -1
REMARK  0 active torsions:
REMARK  status: ('A' for Active; 'I' for Inactive)
ROOT
ATOM      1  C2' OXE d   1      -3.840   4.919  -1.969  0.00  0.00     0.078 C 
ATOM      2  C1' OXE d   1      -3.860   2.543  -0.474  0.00  0.00     0.078 C 
ATOM      3  C1  OXE d   1      -4.624   3.724   0.072  0.00  0.00    -0.078 A 
ATOM      4  C2  OXE d   1      -4.570   4.896  -0.643  0.00  0.00    -0.078 A 
ATOM      5  C3  OXE d   1      -5.301   6.000  -0.213  0.00  0.00     0.003 A 
ATOM      6  C4  OXE d   1      -5.966   5.974   1.019  0.00  0.00    -0.002 A 
ATOM      7  C5  OXE d   1      -6.000   4.802   1.782  0.00  0.00    -0.002 A 
ATOM      8  C6  OXE d   1      -5.371   3.658   1.303  0.00  0.00     0.003 A 
ENDROOT
TORSDOF 0
ENDMDL
