MODEL 1
REMARK minimizedAffinity 19.6785526
REMARK minimizedRMSD -1
REMARK  0 active torsions:
REMARK  status: ('A' for Active; 'I' for Inactive)
ROOT
ATOM      1  C2' OXE d   1      -1.256  -2.442   3.139  0.00  0.00     0.078 C 
ATOM      2  C1' OXE d   1      -0.151  -2.625   5.713  0.00  0.00     0.078 C 
ATOM      3  C1  OXE d   1      -0.965  -3.792   5.212  0.00  0.00    -0.078 A 
ATOM      4  C2  OXE d   1      -1.541  -3.675   3.970  0.00  0.00    -0.078 A 
ATOM      5  C3  OXE d   1      -2.255  -4.744   3.437  0.00  0.00     0.003 A 
ATOM      6  C4  OXE d   1      -2.522  -5.876   4.216  0.00  0.00    -0.002 A 
ATOM      7  C5  OXE d   1      -1.978  -6.000   5.499  0.00  0.00    -0.002 A 
ATOM      8  C6  OXE d   1      -1.164  -4.987   5.994  0.00  0.00     0.003 A 
ENDROOT
TORSDOF 0
ENDMDL
