MODEL 1
REMARK minimizedAffinity 14.8361902
REMARK minimizedRMSD -1
REMARK  0 active torsions:
REMARK  status: ('A' for Active; 'I' for Inactive)
ROOT
ATOM      1  C2' OXE d   1      -0.622  -1.716  -3.230  0.00  0.00     0.078 C 
ATOM      2  C1' OXE d   1       1.307  -0.853  -1.381  0.00  0.00     0.078 C 
ATOM      3  C1  OXE d   1      -0.093  -1.096  -0.876  0.00  0.00    -0.078 A 
ATOM      4  C2  OXE d   1      -1.042  -1.473  -1.796  0.00  0.00    -0.078 A 
ATOM      5  C3  OXE d   1      -2.336  -1.763  -1.373  0.00  0.00     0.003 A 
ATOM      6  C4  OXE d   1      -2.718  -1.526  -0.048  0.00  0.00    -0.002 A 
ATOM      7  C5  OXE d   1      -1.778  -1.104   0.898  0.00  0.00    -0.002 A 
ATOM      8  C6  OXE d   1      -0.454  -0.925   0.510  0.00  0.00     0.003 A 
ENDROOT
TORSDOF 0
ENDMDL
