MODEL 1
REMARK minimizedAffinity 15.1335001
REMARK minimizedRMSD -1
REMARK  0 active torsions:
REMARK  status: ('A' for Active; 'I' for Inactive)
ROOT
ATOM      1  C2' OXE d   1      -5.775   3.618   2.096  0.00  0.00     0.078 C 
ATOM      2  C1' OXE d   1      -3.232   2.953   1.111  0.00  0.00     0.078 C 
ATOM      3  C1  OXE d   1      -3.999   4.039   0.400  0.00  0.00    -0.078 A 
ATOM      4  C2  OXE d   1      -5.262   4.326   0.860  0.00  0.00    -0.078 A 
ATOM      5  C3  OXE d   1      -5.991   5.357   0.275  0.00  0.00     0.003 A 
ATOM      6  C4  OXE d   1      -5.514   6.000  -0.874  0.00  0.00    -0.002 A 
ATOM      7  C5  OXE d   1      -4.247   5.695  -1.383  0.00  0.00    -0.002 A 
ATOM      8  C6  OXE d   1      -3.461   4.750  -0.734  0.00  0.00     0.003 A 
ENDROOT
TORSDOF 0
ENDMDL
