MODEL 1
REMARK minimizedAffinity 10.115551
REMARK minimizedRMSD -1
REMARK  0 active torsions:
REMARK  status: ('A' for Active; 'I' for Inactive)
ROOT
ATOM      1  C2' OXE d   1      -3.644  -2.280   0.230  0.00  0.00     0.078 C 
ATOM      2  C1' OXE d   1      -0.866  -2.675   0.329  0.00  0.00     0.078 C 
ATOM      3  C1  OXE d   1      -1.410  -1.766  -0.745  0.00  0.00    -0.078 A 
ATOM      4  C2  OXE d   1      -2.774  -1.615  -0.815  0.00  0.00    -0.078 A 
ATOM      5  C3  OXE d   1      -3.325  -0.746  -1.752  0.00  0.00     0.003 A 
ATOM      6  C4  OXE d   1      -2.514  -0.142  -2.721  0.00  0.00    -0.002 A 
ATOM      7  C5  OXE d   1      -1.126  -0.314  -2.693  0.00  0.00    -0.002 A 
ATOM      8  C6  OXE d   1      -0.555  -1.086  -1.688  0.00  0.00     0.003 A 
ENDROOT
TORSDOF 0
ENDMDL
