MODEL 1
REMARK minimizedAffinity 6.00316763
REMARK minimizedRMSD -1
REMARK  0 active torsions:
REMARK  status: ('A' for Active; 'I' for Inactive)
ROOT
ATOM      1  C2' OXE d   1      -5.990   4.968   2.412  0.00  0.00     0.078 C 
ATOM      2  C1' OXE d   1      -3.373   4.008   2.083  0.00  0.00     0.078 C 
ATOM      3  C1  OXE d   1      -4.026   4.688   0.906  0.00  0.00    -0.078 A 
ATOM      4  C2  OXE d   1      -5.324   5.113   1.061  0.00  0.00    -0.078 A 
ATOM      5  C3  OXE d   1      -5.954   5.796   0.024  0.00  0.00     0.003 A 
ATOM      6  C4  OXE d   1      -5.334   5.917  -1.225  0.00  0.00    -0.002 A 
ATOM      7  C5  OXE d   1      -4.027   5.455  -1.417  0.00  0.00    -0.002 A 
ATOM      8  C6  OXE d   1      -3.345   4.878  -0.351  0.00  0.00     0.003 A 
ENDROOT
TORSDOF 0
ENDMDL
