MODEL 1
REMARK minimizedAffinity 19.2044792
REMARK minimizedRMSD -1
REMARK  0 active torsions:
REMARK  status: ('A' for Active; 'I' for Inactive)
ROOT
ATOM      1  C2' OXE d   1      -1.158  -2.619   0.165  0.00  0.00     0.078 C 
ATOM      2  C1' OXE d   1      -0.885  -5.003  -1.293  0.00  0.00     0.078 C 
ATOM      3  C1  OXE d   1      -0.924  -3.707  -2.064  0.00  0.00    -0.078 A 
ATOM      4  C2  OXE d   1      -1.104  -2.549  -1.346  0.00  0.00    -0.078 A 
ATOM      5  C3  OXE d   1      -1.093  -1.322  -2.003  0.00  0.00     0.003 A 
ATOM      6  C4  OXE d   1      -1.053  -1.267  -3.402  0.00  0.00    -0.002 A 
ATOM      7  C5  OXE d   1      -0.909  -2.438  -4.154  0.00  0.00    -0.002 A 
ATOM      8  C6  OXE d   1      -0.800  -3.660  -3.500  0.00  0.00     0.003 A 
ENDROOT
TORSDOF 0
ENDMDL
