MODEL 1
REMARK minimizedAffinity 9.48028183
REMARK minimizedRMSD -1
REMARK  0 active torsions:
REMARK  status: ('A' for Active; 'I' for Inactive)
ROOT
ATOM      1  C2' OXE d   1       5.994   5.355  -1.610  0.00  0.00     0.078 C 
ATOM      2  C1' OXE d   1       4.556   5.990   0.716  0.00  0.00     0.078 C 
ATOM      3  C1  OXE d   1       4.566   4.551   0.266  0.00  0.00    -0.078 A 
ATOM      4  C2  OXE d   1       5.233   4.257  -0.899  0.00  0.00    -0.078 A 
ATOM      5  C3  OXE d   1       5.319   2.936  -1.329  0.00  0.00     0.003 A 
ATOM      6  C4  OXE d   1       4.604   1.928  -0.672  0.00  0.00    -0.002 A 
ATOM      7  C5  OXE d   1       3.885   2.213   0.494  0.00  0.00    -0.002 A 
ATOM      8  C6  OXE d   1       3.891   3.508   0.999  0.00  0.00     0.003 A 
ENDROOT
TORSDOF 0
ENDMDL
