MODEL 1
REMARK minimizedAffinity 12.8899813
REMARK minimizedRMSD -1
REMARK  0 active torsions:
REMARK  status: ('A' for Active; 'I' for Inactive)
ROOT
ATOM      1  C2' OXE d   1      -3.488  -0.351   0.064  0.00  0.00     0.078 C 
ATOM      2  C1' OXE d   1      -2.028  -1.866  -1.793  0.00  0.00     0.078 C 
ATOM      3  C1  OXE d   1      -1.857  -2.191  -0.330  0.00  0.00    -0.078 A 
ATOM      4  C2  OXE d   1      -2.540  -1.414   0.574  0.00  0.00    -0.078 A 
ATOM      5  C3  OXE d   1      -2.460  -1.707   1.933  0.00  0.00     0.003 A 
ATOM      6  C4  OXE d   1      -1.573  -2.685   2.396  0.00  0.00    -0.002 A 
ATOM      7  C5  OXE d   1      -0.838  -3.462   1.494  0.00  0.00    -0.002 A 
ATOM      8  C6  OXE d   1      -1.000  -3.257   0.129  0.00  0.00     0.003 A 
ENDROOT
TORSDOF 0
ENDMDL
