MODEL 1
REMARK minimizedAffinity 6.61860514
REMARK minimizedRMSD -1
REMARK  0 active torsions:
REMARK  status: ('A' for Active; 'I' for Inactive)
ROOT
ATOM      1  C2' OXE d   1      -3.674  -0.521   0.454  0.00  0.00     0.078 C 
ATOM      2  C1' OXE d   1      -1.918  -1.534  -1.489  0.00  0.00     0.078 C 
ATOM      3  C1  OXE d   1      -1.659  -1.898  -0.048  0.00  0.00    -0.078 A 
ATOM      4  C2  OXE d   1      -2.496  -1.360   0.900  0.00  0.00    -0.078 A 
ATOM      5  C3  OXE d   1      -2.334  -1.707   2.239  0.00  0.00     0.003 A 
ATOM      6  C4  OXE d   1      -1.236  -2.475   2.644  0.00  0.00    -0.002 A 
ATOM      7  C5  OXE d   1      -0.349  -3.000   1.699  0.00  0.00    -0.002 A 
ATOM      8  C6  OXE d   1      -0.571  -2.757   0.348  0.00  0.00     0.003 A 
ENDROOT
TORSDOF 0
ENDMDL
