MODEL 1
REMARK minimizedAffinity 9.10497665
REMARK minimizedRMSD -1
REMARK  0 active torsions:
REMARK  status: ('A' for Active; 'I' for Inactive)
ROOT
ATOM      1  C2' OXE d   1      -3.282   1.575   5.933  0.00  0.00     0.078 C 
ATOM      2  C1' OXE d   1      -5.187  -0.485   6.000  0.00  0.00     0.078 C 
ATOM      3  C1  OXE d   1      -3.730  -0.875   5.969  0.00  0.00    -0.078 A 
ATOM      4  C2  OXE d   1      -2.806   0.139   5.889  0.00  0.00    -0.078 A 
ATOM      5  C3  OXE d   1      -1.448  -0.163   5.914  0.00  0.00     0.003 A 
ATOM      6  C4  OXE d   1      -1.017  -1.494   5.864  0.00  0.00    -0.002 A 
ATOM      7  C5  OXE d   1      -1.942  -2.542   5.904  0.00  0.00    -0.002 A 
ATOM      8  C6  OXE d   1      -3.298  -2.250   6.000  0.00  0.00     0.003 A 
ENDROOT
TORSDOF 0
ENDMDL
