MODEL 1
REMARK minimizedAffinity 11.6737537
REMARK minimizedRMSD -1
REMARK  0 active torsions:
REMARK  status: ('A' for Active; 'I' for Inactive)
ROOT
ATOM      1  C2' OXE d   1      -2.406  -2.244   2.711  0.00  0.00     0.078 C 
ATOM      2  C1' OXE d   1      -0.292  -3.728   1.612  0.00  0.00     0.078 C 
ATOM      3  C1  OXE d   1      -1.036  -2.784   0.702  0.00  0.00    -0.078 A 
ATOM      4  C2  OXE d   1      -2.099  -2.097   1.237  0.00  0.00    -0.078 A 
ATOM      5  C3  OXE d   1      -2.786  -1.172   0.455  0.00  0.00     0.003 A 
ATOM      6  C4  OXE d   1      -2.502  -1.049  -0.911  0.00  0.00    -0.002 A 
ATOM      7  C5  OXE d   1      -1.449  -1.769  -1.485  0.00  0.00    -0.002 A 
ATOM      8  C6  OXE d   1      -0.681  -2.607  -0.685  0.00  0.00     0.003 A 
ENDROOT
TORSDOF 0
ENDMDL
