MODEL 1
REMARK minimizedAffinity -3.40642142
REMARK minimizedRMSD -1
REMARK  3 active torsions:
REMARK  status: ('A' for Active; 'I' for Inactive)
REMARK    1  A    between atoms: C3'_2  and  C2'_3 
REMARK    2  A    between atoms: C2'_3  and  C1'_4 
REMARK    3  A    between atoms: C1'_4  and  C1_5 
ROOT
ATOM      1  C1  N4B d   1      -4.700  -0.314  -5.868  0.00  0.00    -0.075 A 
ATOM      2  C2  N4B d   1      -5.233   0.984  -5.709  0.00  0.00     0.002 A 
ATOM      3  C3  N4B d   1      -4.391   2.062  -5.590  0.00  0.00     0.002 A 
ATOM      4  C4  N4B d   1      -3.018   1.866  -5.608  0.00  0.00    -0.004 A 
ATOM      5  C5  N4B d   1      -2.511   0.612  -5.787  0.00  0.00     0.002 A 
ATOM      6  C6  N4B d   1      -3.346  -0.481  -5.911  0.00  0.00     0.002 A 
ENDROOT
BRANCH   1   7
ATOM      7  C1' N4B d   1      -5.579  -1.533  -5.915  0.00  0.00     0.057 C 
BRANCH   7   8
ATOM      8  C2' N4B d   1      -4.703  -2.780  -5.994  0.00  0.00     0.009 C 
BRANCH   8   9
ATOM      9  C3' N4B d   1      -5.529  -4.055  -6.000  0.00  0.00     0.004 C 
ATOM     10  C4' N4B d   1      -4.684  -5.294  -5.969  0.00  0.00     0.003 C 
ENDBRANCH   8   9
ENDBRANCH   7   8
ENDBRANCH   1   7
TORSDOF 3
ENDMDL
