MODEL 1
REMARK minimizedAffinity -0.386384487
REMARK minimizedRMSD -1
REMARK  3 active torsions:
REMARK  status: ('A' for Active; 'I' for Inactive)
REMARK    1  A    between atoms: C3'_2  and  C2'_3 
REMARK    2  A    between atoms: C2'_3  and  C1'_4 
REMARK    3  A    between atoms: C1'_4  and  C1_5 
ROOT
ATOM      1  C1  N4B d   1      -3.574   0.610  -5.998  0.00  0.00    -0.075 A 
ATOM      2  C2  N4B d   1      -4.563   1.619  -6.000  0.00  0.00     0.002 A 
ATOM      3  C3  N4B d   1      -4.195   2.940  -5.926  0.00  0.00     0.002 A 
ATOM      4  C4  N4B d   1      -2.853   3.274  -5.832  0.00  0.00    -0.004 A 
ATOM      5  C5  N4B d   1      -1.903   2.295  -5.857  0.00  0.00     0.002 A 
ATOM      6  C6  N4B d   1      -2.258   0.963  -5.935  0.00  0.00     0.002 A 
ENDROOT
BRANCH   1   7
ATOM      7  C1' N4B d   1      -3.931  -0.851  -5.991  0.00  0.00     0.057 C 
BRANCH   7   8
ATOM      8  C2' N4B d   1      -5.043  -1.090  -4.973  0.00  0.00     0.009 C 
BRANCH   8   9
ATOM      9  C3' N4B d   1      -5.896  -2.294  -5.336  0.00  0.00     0.004 C 
ATOM     10  C4' N4B d   1      -5.109  -3.385  -5.999  0.00  0.00     0.003 C 
ENDBRANCH   8   9
ENDBRANCH   7   8
ENDBRANCH   1   7
TORSDOF 3
ENDMDL
