MODEL 1
REMARK minimizedAffinity 8.0897541
REMARK minimizedRMSD -1
REMARK  3 active torsions:
REMARK  status: ('A' for Active; 'I' for Inactive)
REMARK    1  A    between atoms: C3'_2  and  C2'_3 
REMARK    2  A    between atoms: C2'_3  and  C1'_4 
REMARK    3  A    between atoms: C1'_4  and  C1_5 
ROOT
ATOM      1  C1  N4B d   1       0.360  -0.101   0.602  0.00  0.00    -0.075 A 
ATOM      2  C2  N4B d   1      -0.344  -1.169   0.003  0.00  0.00     0.002 A 
ATOM      3  C3  N4B d   1      -0.094  -1.510  -1.303  0.00  0.00     0.002 A 
ATOM      4  C4  N4B d   1       0.838  -0.787  -2.034  0.00  0.00    -0.004 A 
ATOM      5  C5  N4B d   1       1.532   0.227  -1.441  0.00  0.00     0.002 A 
ATOM      6  C6  N4B d   1       1.293   0.577  -0.128  0.00  0.00     0.002 A 
ENDROOT
BRANCH   1   7
ATOM      7  C1' N4B d   1       0.060   0.363   2.001  0.00  0.00     0.057 C 
BRANCH   7   8
ATOM      8  C2' N4B d   1      -1.321   1.013   2.027  0.00  0.00     0.009 C 
BRANCH   8   9
ATOM      9  C3' N4B d   1      -1.677   1.535   3.409  0.00  0.00     0.004 C 
ATOM     10  C4' N4B d   1      -2.959   2.313   3.423  0.00  0.00     0.003 C 
ENDBRANCH   8   9
ENDBRANCH   7   8
ENDBRANCH   1   7
TORSDOF 3
ENDMDL
