MODEL 1
REMARK minimizedAffinity -2.05825663
REMARK minimizedRMSD -1
REMARK  3 active torsions:
REMARK  status: ('A' for Active; 'I' for Inactive)
REMARK    1  A    between atoms: C3'_2  and  C2'_3 
REMARK    2  A    between atoms: C2'_3  and  C1'_4 
REMARK    3  A    between atoms: C1'_4  and  C1_5 
ROOT
ATOM      1  C1  N4B d   1      -4.416   2.038  -5.995  0.00  0.00    -0.075 A 
ATOM      2  C2  N4B d   1      -4.906   3.363  -5.999  0.00  0.00     0.002 A 
ATOM      3  C3  N4B d   1      -4.029   4.419  -5.992  0.00  0.00     0.002 A 
ATOM      4  C4  N4B d   1      -2.664   4.177  -5.961  0.00  0.00    -0.004 A 
ATOM      5  C5  N4B d   1      -2.198   2.895  -5.983  0.00  0.00     0.002 A 
ATOM      6  C6  N4B d   1      -3.068   1.823  -5.994  0.00  0.00     0.002 A 
ENDROOT
BRANCH   1   7
ATOM      7  C1' N4B d   1      -5.337   0.851  -5.916  0.00  0.00     0.057 C 
BRANCH   7   8
ATOM      8  C2' N4B d   1      -4.511  -0.429  -6.000  0.00  0.00     0.009 C 
BRANCH   8   9
ATOM      9  C3' N4B d   1      -5.377  -1.672  -5.887  0.00  0.00     0.004 C 
ATOM     10  C4' N4B d   1      -4.573  -2.927  -5.722  0.00  0.00     0.003 C 
ENDBRANCH   8   9
ENDBRANCH   7   8
ENDBRANCH   1   7
TORSDOF 3
ENDMDL
