MODEL 1
REMARK minimizedAffinity 5.8816309
REMARK minimizedRMSD -1
REMARK  3 active torsions:
REMARK  status: ('A' for Active; 'I' for Inactive)
REMARK    1  A    between atoms: C3'_2  and  C2'_3 
REMARK    2  A    between atoms: C2'_3  and  C1'_4 
REMARK    3  A    between atoms: C1'_4  and  C1_5 
ROOT
ATOM      1  C1  N4B d   1      -3.111   2.305  -5.931  0.00  0.00    -0.075 A 
ATOM      2  C2  N4B d   1      -2.365   3.504  -5.935  0.00  0.00     0.002 A 
ATOM      3  C3  N4B d   1      -3.012   4.715  -5.959  0.00  0.00     0.002 A 
ATOM      4  C4  N4B d   1      -4.397   4.753  -5.999  0.00  0.00    -0.004 A 
ATOM      5  C5  N4B d   1      -5.111   3.590  -5.970  0.00  0.00     0.002 A 
ATOM      6  C6  N4B d   1      -4.475   2.366  -5.941  0.00  0.00     0.002 A 
ENDROOT
BRANCH   1   7
ATOM      7  C1' N4B d   1      -2.448   0.957  -5.992  0.00  0.00     0.057 C 
BRANCH   7   8
ATOM      8  C2' N4B d   1      -1.076   1.043  -5.329  0.00  0.00     0.009 C 
BRANCH   8   9
ATOM      9  C3' N4B d   1      -1.018   0.246  -4.037  0.00  0.00     0.004 C 
ATOM     10  C4' N4B d   1       0.375  -0.173  -3.675  0.00  0.00     0.003 C 
ENDBRANCH   8   9
ENDBRANCH   7   8
ENDBRANCH   1   7
TORSDOF 3
ENDMDL
