MODEL 1
REMARK minimizedAffinity 0.682942986
REMARK minimizedRMSD -1
REMARK  3 active torsions:
REMARK  status: ('A' for Active; 'I' for Inactive)
REMARK    1  A    between atoms: C3'_2  and  C2'_3 
REMARK    2  A    between atoms: C2'_3  and  C1'_4 
REMARK    3  A    between atoms: C1'_4  and  C1_5 
ROOT
ATOM      1  C1  N4B d   1      -4.438  -1.557  -5.099  0.00  0.00    -0.075 A 
ATOM      2  C2  N4B d   1      -3.461  -2.316  -4.418  0.00  0.00     0.002 A 
ATOM      3  C3  N4B d   1      -3.445  -3.684  -4.541  0.00  0.00     0.002 A 
ATOM      4  C4  N4B d   1      -4.403  -4.313  -5.322  0.00  0.00    -0.004 A 
ATOM      5  C5  N4B d   1      -5.328  -3.571  -5.997  0.00  0.00     0.002 A 
ATOM      6  C6  N4B d   1      -5.353  -2.195  -5.886  0.00  0.00     0.002 A 
ENDROOT
BRANCH   1   7
ATOM      7  C1' N4B d   1      -4.548  -0.067  -4.927  0.00  0.00     0.057 C 
BRANCH   7   8
ATOM      8  C2' N4B d   1      -3.683   0.624  -5.977  0.00  0.00     0.009 C 
BRANCH   8   9
ATOM      9  C3' N4B d   1      -3.907   2.127  -5.999  0.00  0.00     0.004 C 
ATOM     10  C4' N4B d   1      -2.682   2.902  -5.615  0.00  0.00     0.003 C 
ENDBRANCH   8   9
ENDBRANCH   7   8
ENDBRANCH   1   7
TORSDOF 3
ENDMDL
