MODEL 1
REMARK minimizedAffinity 0.842276573
REMARK minimizedRMSD -1
REMARK  3 active torsions:
REMARK  status: ('A' for Active; 'I' for Inactive)
REMARK    1  A    between atoms: C3'_2  and  C2'_3 
REMARK    2  A    between atoms: C2'_3  and  C1'_4 
REMARK    3  A    between atoms: C1'_4  and  C1_5 
ROOT
ATOM      1  C1  N4B d   1      -3.453  -5.290  -5.999  0.00  0.00    -0.075 A 
ATOM      2  C2  N4B d   1      -4.674  -5.998  -5.967  0.00  0.00     0.002 A 
ATOM      3  C3  N4B d   1      -5.863  -5.313  -5.913  0.00  0.00     0.002 A 
ATOM      4  C4  N4B d   1      -5.855  -3.927  -5.870  0.00  0.00    -0.004 A 
ATOM      5  C5  N4B d   1      -4.671  -3.250  -5.927  0.00  0.00     0.002 A 
ATOM      6  C6  N4B d   1      -3.469  -3.926  -5.985  0.00  0.00     0.002 A 
ENDROOT
BRANCH   1   7
ATOM      7  C1' N4B d   1      -2.125  -5.997  -5.972  0.00  0.00     0.057 C 
BRANCH   7   8
ATOM      8  C2' N4B d   1      -1.557  -5.942  -4.557  0.00  0.00     0.009 C 
BRANCH   8   9
ATOM      9  C3' N4B d   1      -2.451  -5.153  -3.616  0.00  0.00     0.004 C 
ATOM     10  C4' N4B d   1      -1.981  -3.743  -3.413  0.00  0.00     0.003 C 
ENDBRANCH   8   9
ENDBRANCH   7   8
ENDBRANCH   1   7
TORSDOF 3
ENDMDL
