MODEL 1
REMARK minimizedAffinity 7.20159817
REMARK minimizedRMSD -1
REMARK  1 active torsions:
REMARK  status: ('A' for Active; 'I' for Inactive)
REMARK    1  A    between atoms: C1_2  and  C2_3 
ROOT
ATOM      1  C2  UNL d   1      -2.202  -2.639   0.231  0.00  0.00    -0.081 A 
ATOM      2  C3  UNL d   1      -1.464  -3.196  -0.820  0.00  0.00     0.006 A 
ATOM      3  C4  UNL d   1      -0.519  -4.194  -0.571  0.00  0.00     0.002 A 
ATOM      4  C5  UNL d   1      -0.303  -4.658   0.731  0.00  0.00    -0.080 A 
ATOM      5  C6  UNL d   1       0.686  -5.751   1.008  0.00  0.00     0.076 C 
ATOM      6  C7  UNL d   1      -1.029  -4.090   1.783  0.00  0.00     0.002 A 
ATOM      7  C8  UNL d   1      -1.973  -3.091   1.535  0.00  0.00     0.006 A 
ENDROOT
BRANCH   1   8
ATOM      8  C1  UNL d   1      -3.268  -1.608  -0.042  0.00  0.00     0.054 C 
ATOM      9  C   UNL d   1      -4.641  -2.251  -0.170  0.00  0.00     0.018 C 
ENDBRANCH   1   8
TORSDOF 1
ENDMDL
