MODEL 1
REMARK minimizedAffinity 8.89278603
REMARK minimizedRMSD -1
REMARK  1 active torsions:
REMARK  status: ('A' for Active; 'I' for Inactive)
REMARK    1  A    between atoms: C1_2  and  C2_3 
ROOT
ATOM      1  C2  UNL d   1      -2.625  -2.864   0.152  0.00  0.00    -0.081 A 
ATOM      2  C3  UNL d   1      -1.852  -3.253  -0.949  0.00  0.00     0.006 A 
ATOM      3  C4  UNL d   1      -0.742  -4.084  -0.777  0.00  0.00     0.002 A 
ATOM      4  C5  UNL d   1      -0.392  -4.545   0.497  0.00  0.00    -0.080 A 
ATOM      5  C6  UNL d   1       0.780  -5.461   0.691  0.00  0.00     0.076 C 
ATOM      6  C7  UNL d   1      -1.154  -4.142   1.599  0.00  0.00     0.002 A 
ATOM      7  C8  UNL d   1      -2.263  -3.312   1.427  0.00  0.00     0.006 A 
ENDROOT
BRANCH   1   8
ATOM      8  C1  UNL d   1      -3.861  -2.022  -0.039  0.00  0.00     0.054 C 
ATOM      9  C   UNL d   1      -5.113  -2.884  -0.105  0.00  0.00     0.018 C 
ENDBRANCH   1   8
TORSDOF 1
ENDMDL
