MODEL 1
REMARK minimizedAffinity 0.0845333934
REMARK minimizedRMSD -1
REMARK  1 active torsions:
REMARK  status: ('A' for Active; 'I' for Inactive)
REMARK    1  A    between atoms: C1_2  and  C2_3 
ROOT
ATOM      1  C2  UNL d   1      -5.947  -0.269   3.948  0.00  0.00    -0.081 A 
ATOM      2  C3  UNL d   1      -5.942  -1.106   2.825  0.00  0.00     0.006 A 
ATOM      3  C4  UNL d   1      -5.960  -0.564   1.538  0.00  0.00     0.002 A 
ATOM      4  C5  UNL d   1      -5.975   0.823   1.351  0.00  0.00    -0.080 A 
ATOM      5  C6  UNL d   1      -5.964   1.418  -0.025  0.00  0.00     0.076 C 
ATOM      6  C7  UNL d   1      -5.998   1.659   2.473  0.00  0.00     0.002 A 
ATOM      7  C8  UNL d   1      -5.981   1.117   3.760  0.00  0.00     0.006 A 
ENDROOT
BRANCH   1   8
ATOM      8  C1  UNL d   1      -5.862  -0.849   5.336  0.00  0.00     0.054 C 
ATOM      9  C   UNL d   1      -4.453  -0.734   5.899  0.00  0.00     0.018 C 
ENDBRANCH   1   8
TORSDOF 1
ENDMDL
