MODEL 1
REMARK minimizedAffinity 3.15623093
REMARK minimizedRMSD -1
REMARK  1 active torsions:
REMARK  status: ('A' for Active; 'I' for Inactive)
REMARK    1  A    between atoms: C1_2  and  C2_3 
ROOT
ATOM      1  C2  UNL d   1      -3.447   0.145  -1.595  0.00  0.00    -0.081 A 
ATOM      2  C3  UNL d   1      -2.096   0.513  -1.634  0.00  0.00     0.006 A 
ATOM      3  C4  UNL d   1      -1.251   0.002  -2.621  0.00  0.00     0.002 A 
ATOM      4  C5  UNL d   1      -1.743  -0.879  -3.591  0.00  0.00    -0.080 A 
ATOM      5  C6  UNL d   1      -0.853  -1.412  -4.674  0.00  0.00     0.076 C 
ATOM      6  C7  UNL d   1      -3.088  -1.260  -3.542  0.00  0.00     0.002 A 
ATOM      7  C8  UNL d   1      -3.933  -0.750  -2.554  0.00  0.00     0.006 A 
ENDROOT
BRANCH   1   8
ATOM      8  C1  UNL d   1      -4.375   0.745  -0.571  0.00  0.00     0.054 C 
ATOM      9  C   UNL d   1      -4.232   2.260  -0.514  0.00  0.00     0.018 C 
ENDBRANCH   1   8
TORSDOF 1
ENDMDL
