MODEL 1
REMARK minimizedAffinity -0.491081119
REMARK minimizedRMSD -1
REMARK  1 active torsions:
REMARK  status: ('A' for Active; 'I' for Inactive)
REMARK    1  A    between atoms: C1_2  and  C2_3 
ROOT
ATOM      1  C2  UNL d   1       0.998   0.037   1.776  0.00  0.00    -0.081 A 
ATOM      2  C3  UNL d   1       1.096  -0.152   0.392  0.00  0.00     0.006 A 
ATOM      3  C4  UNL d   1       0.388   0.671  -0.487  0.00  0.00     0.002 A 
ATOM      4  C5  UNL d   1      -0.423   1.700   0.002  0.00  0.00    -0.080 A 
ATOM      5  C6  UNL d   1      -1.164   2.610  -0.932  0.00  0.00     0.076 C 
ATOM      6  C7  UNL d   1      -0.535   1.878   1.385  0.00  0.00     0.002 A 
ATOM      7  C8  UNL d   1       0.173   1.056   2.264  0.00  0.00     0.006 A 
ENDROOT
BRANCH   1   8
ATOM      8  C1  UNL d   1       1.811  -0.807   2.724  0.00  0.00     0.054 C 
ATOM      9  C   UNL d   1       1.055  -1.068   4.019  0.00  0.00     0.018 C 
ENDBRANCH   1   8
TORSDOF 1
ENDMDL
