MODEL 1
REMARK minimizedAffinity 11.2935991
REMARK minimizedRMSD -1
REMARK  0 active torsions:
REMARK  status: ('A' for Active; 'I' for Inactive)
ROOT
ATOM      1  C2' OXE d   1      -0.671  -5.726   4.194  0.00  0.00     0.078 C 
ATOM      2  C1' OXE d   1      -3.172  -5.658   5.467  0.00  0.00     0.078 C 
ATOM      3  C1  OXE d   1      -3.151  -5.794   3.965  0.00  0.00    -0.078 A 
ATOM      4  C2  OXE d   1      -1.924  -5.779   3.346  0.00  0.00    -0.078 A 
ATOM      5  C3  OXE d   1      -1.846  -5.957   1.968  0.00  0.00     0.003 A 
ATOM      6  C4  OXE d   1      -3.009  -5.996   1.191  0.00  0.00    -0.002 A 
ATOM      7  C5  OXE d   1      -4.270  -5.972   1.798  0.00  0.00    -0.002 A 
ATOM      8  C6  OXE d   1      -4.357  -5.914   3.184  0.00  0.00     0.003 A 
ENDROOT
TORSDOF 0
ENDMDL
