MODEL 1
REMARK minimizedAffinity 8.52626801
REMARK minimizedRMSD -1
REMARK  0 active torsions:
REMARK  status: ('A' for Active; 'I' for Inactive)
ROOT
ATOM      1  C2' OXE d   1       2.734   4.934  -4.954  0.00  0.00     0.078 C 
ATOM      2  C1' OXE d   1       1.514   3.375  -2.964  0.00  0.00     0.078 C 
ATOM      3  C1  OXE d   1       0.628   3.983  -4.023  0.00  0.00    -0.078 A 
ATOM      4  C2  OXE d   1       1.228   4.783  -4.966  0.00  0.00    -0.078 A 
ATOM      5  C3  OXE d   1       0.466   5.323  -5.997  0.00  0.00     0.003 A 
ATOM      6  C4  OXE d   1      -0.928   5.187  -5.996  0.00  0.00    -0.002 A 
ATOM      7  C5  OXE d   1      -1.563   4.409  -5.022  0.00  0.00    -0.002 A 
ATOM      8  C6  OXE d   1      -0.797   3.767  -4.055  0.00  0.00     0.003 A 
ENDROOT
TORSDOF 0
ENDMDL
