MODEL 1
REMARK minimizedAffinity 12.7973413
REMARK minimizedRMSD -1
REMARK  0 active torsions:
REMARK  status: ('A' for Active; 'I' for Inactive)
ROOT
ATOM      1  C2' OXE d   1       2.602  -3.525  -0.931  0.00  0.00     0.078 C 
ATOM      2  C1' OXE d   1       0.439  -2.638  -2.484  0.00  0.00     0.078 C 
ATOM      3  C1  OXE d   1       1.217  -3.832  -2.978  0.00  0.00    -0.078 A 
ATOM      4  C2  OXE d   1       2.302  -4.230  -2.236  0.00  0.00    -0.078 A 
ATOM      5  C3  OXE d   1       3.021  -5.359  -2.617  0.00  0.00     0.003 A 
ATOM      6  C4  OXE d   1       2.743  -6.000  -3.831  0.00  0.00    -0.002 A 
ATOM      7  C5  OXE d   1       1.667  -5.586  -4.622  0.00  0.00    -0.002 A 
ATOM      8  C6  OXE d   1       0.869  -4.532  -4.190  0.00  0.00     0.003 A 
ENDROOT
TORSDOF 0
ENDMDL
