MODEL 1
REMARK minimizedAffinity 9.12478828
REMARK minimizedRMSD -1
REMARK  0 active torsions:
REMARK  status: ('A' for Active; 'I' for Inactive)
ROOT
ATOM      1  C2' OXE d   1      -0.741   1.199   2.066  0.00  0.00     0.078 C 
ATOM      2  C1' OXE d   1      -1.526  -1.483   2.327  0.00  0.00     0.078 C 
ATOM      3  C1  OXE d   1      -2.573  -0.481   1.908  0.00  0.00    -0.078 A 
ATOM      4  C2  OXE d   1      -2.191   0.837   1.828  0.00  0.00    -0.078 A 
ATOM      5  C3  OXE d   1      -3.103   1.794   1.393  0.00  0.00     0.003 A 
ATOM      6  C4  OXE d   1      -4.444   1.451   1.185  0.00  0.00    -0.002 A 
ATOM      7  C5  OXE d   1      -4.864   0.122   1.299  0.00  0.00    -0.002 A 
ATOM      8  C6  OXE d   1      -3.933  -0.861   1.618  0.00  0.00     0.003 A 
ENDROOT
TORSDOF 0
ENDMDL
