MODEL 1
REMARK minimizedAffinity 0.336937249
REMARK minimizedRMSD -1
REMARK  0 active torsions:
REMARK  status: ('A' for Active; 'I' for Inactive)
ROOT
ATOM      1  C2' OXE d   1      -0.175  -0.393  -0.108  0.00  0.00     0.078 C 
ATOM      2  C1' OXE d   1      -2.012  -0.162   2.002  0.00  0.00     0.078 C 
ATOM      3  C1  OXE d   1      -0.846   0.794   1.976  0.00  0.00    -0.078 A 
ATOM      4  C2  OXE d   1       0.074   0.644   0.966  0.00  0.00    -0.078 A 
ATOM      5  C3  OXE d   1       1.139   1.534   0.865  0.00  0.00     0.003 A 
ATOM      6  C4  OXE d   1       1.367   2.483   1.869  0.00  0.00    -0.002 A 
ATOM      7  C5  OXE d   1       0.465   2.628   2.928  0.00  0.00    -0.002 A 
ATOM      8  C6  OXE d   1      -0.667   1.821   2.973  0.00  0.00     0.003 A 
ENDROOT
TORSDOF 0
ENDMDL
