MODEL 1
REMARK minimizedAffinity 6.7960825
REMARK minimizedRMSD -1
REMARK  0 active torsions:
REMARK  status: ('A' for Active; 'I' for Inactive)
ROOT
ATOM      1  C2' OXE d   1      -1.426  -3.025   3.172  0.00  0.00     0.078 C 
ATOM      2  C1' OXE d   1      -1.512  -0.720   1.573  0.00  0.00     0.078 C 
ATOM      3  C1  OXE d   1      -2.740  -1.064   2.378  0.00  0.00    -0.078 A 
ATOM      4  C2  OXE d   1      -2.706  -2.219   3.121  0.00  0.00    -0.078 A 
ATOM      5  C3  OXE d   1      -3.792  -2.554   3.925  0.00  0.00     0.003 A 
ATOM      6  C4  OXE d   1      -4.976  -1.808   3.864  0.00  0.00    -0.002 A 
ATOM      7  C5  OXE d   1      -5.046  -0.650   3.083  0.00  0.00    -0.002 A 
ATOM      8  C6  OXE d   1      -3.925  -0.241   2.368  0.00  0.00     0.003 A 
ENDROOT
TORSDOF 0
ENDMDL
