MODEL 1
REMARK minimizedAffinity 3.6793859
REMARK minimizedRMSD -1
REMARK  0 active torsions:
REMARK  status: ('A' for Active; 'I' for Inactive)
ROOT
ATOM      1  C2' OXE d   1      -1.912   4.088  -3.004  0.00  0.00     0.078 C 
ATOM      2  C1' OXE d   1      -1.876   3.763  -5.793  0.00  0.00     0.078 C 
ATOM      3  C1  OXE d   1      -3.003   4.566  -5.192  0.00  0.00    -0.078 A 
ATOM      4  C2  OXE d   1      -3.038   4.680  -3.823  0.00  0.00    -0.078 A 
ATOM      5  C3  OXE d   1      -4.026   5.455  -3.221  0.00  0.00     0.003 A 
ATOM      6  C4  OXE d   1      -5.070   5.991  -3.985  0.00  0.00    -0.002 A 
ATOM      7  C5  OXE d   1      -5.075   5.853  -5.377  0.00  0.00    -0.002 A 
ATOM      8  C6  OXE d   1      -4.028   5.181  -5.999  0.00  0.00     0.003 A 
ENDROOT
TORSDOF 0
ENDMDL
