MODEL 1
REMARK minimizedAffinity 3.70658612
REMARK minimizedRMSD -1
REMARK  0 active torsions:
REMARK  status: ('A' for Active; 'I' for Inactive)
ROOT
ATOM      1  C2' OXE d   1      -4.073  -1.191   3.673  0.00  0.00     0.078 C 
ATOM      2  C1' OXE d   1      -1.639  -2.490   3.154  0.00  0.00     0.078 C 
ATOM      3  C1  OXE d   1      -1.832  -1.106   2.587  0.00  0.00    -0.078 A 
ATOM      4  C2  OXE d   1      -3.045  -0.497   2.806  0.00  0.00    -0.078 A 
ATOM      5  C3  OXE d   1      -3.256   0.802   2.351  0.00  0.00     0.003 A 
ATOM      6  C4  OXE d   1      -2.303   1.433   1.542  0.00  0.00    -0.002 A 
ATOM      7  C5  OXE d   1      -1.078   0.814   1.273  0.00  0.00    -0.002 A 
ATOM      8  C6  OXE d   1      -0.810  -0.435   1.822  0.00  0.00     0.003 A 
ENDROOT
TORSDOF 0
ENDMDL
