MODEL 1
REMARK minimizedAffinity 1.69302225
REMARK minimizedRMSD -1
REMARK  0 active torsions:
REMARK  status: ('A' for Active; 'I' for Inactive)
ROOT
ATOM      1  C2' OXE d   1      -3.644  -4.503  -0.766  0.00  0.00     0.078 C 
ATOM      2  C1' OXE d   1      -2.162  -2.680   0.771  0.00  0.00     0.078 C 
ATOM      3  C1  OXE d   1      -1.641  -3.031  -0.600  0.00  0.00    -0.078 A 
ATOM      4  C2  OXE d   1      -2.347  -3.959  -1.326  0.00  0.00    -0.078 A 
ATOM      5  C3  OXE d   1      -1.941  -4.278  -2.619  0.00  0.00     0.003 A 
ATOM      6  C4  OXE d   1      -0.735  -3.778  -3.126  0.00  0.00    -0.002 A 
ATOM      7  C5  OXE d   1       0.021  -2.862  -2.387  0.00  0.00    -0.002 A 
ATOM      8  C6  OXE d   1      -0.439  -2.446  -1.142  0.00  0.00     0.003 A 
ENDROOT
TORSDOF 0
ENDMDL
