MODEL 1
REMARK minimizedAffinity 7.01771259
REMARK minimizedRMSD -1
REMARK  0 active torsions:
REMARK  status: ('A' for Active; 'I' for Inactive)
ROOT
ATOM      1  C2' OXE d   1       5.827   6.000  -5.999  0.00  0.00     0.078 C 
ATOM      2  C1' OXE d   1       3.039   5.885  -5.695  0.00  0.00     0.078 C 
ATOM      3  C1  OXE d   1       3.792   4.581  -5.775  0.00  0.00    -0.078 A 
ATOM      4  C2  OXE d   1       5.151   4.646  -5.971  0.00  0.00    -0.078 A 
ATOM      5  C3  OXE d   1       5.901   3.474  -5.998  0.00  0.00     0.003 A 
ATOM      6  C4  OXE d   1       5.266   2.226  -5.981  0.00  0.00    -0.002 A 
ATOM      7  C5  OXE d   1       3.879   2.137  -5.822  0.00  0.00    -0.002 A 
ATOM      8  C6  OXE d   1       3.134   3.302  -5.675  0.00  0.00     0.003 A 
ENDROOT
TORSDOF 0
ENDMDL
