MODEL 1
REMARK minimizedAffinity 15.16535
REMARK minimizedRMSD -1
REMARK  0 active torsions:
REMARK  status: ('A' for Active; 'I' for Inactive)
ROOT
ATOM      1  C2' OXE d   1       2.340   3.081   3.917  0.00  0.00     0.078 C 
ATOM      2  C1' OXE d   1       2.299   5.371   5.540  0.00  0.00     0.078 C 
ATOM      3  C1  OXE d   1       3.612   4.647   5.377  0.00  0.00    -0.078 A 
ATOM      4  C2  OXE d   1       3.613   3.501   4.619  0.00  0.00    -0.078 A 
ATOM      5  C3  OXE d   1       4.809   2.826   4.392  0.00  0.00     0.003 A 
ATOM      6  C4  OXE d   1       5.980   3.215   5.053  0.00  0.00    -0.002 A 
ATOM      7  C5  OXE d   1       5.992   4.357   5.862  0.00  0.00    -0.002 A 
ATOM      8  C6  OXE d   1       4.829   5.107   6.000  0.00  0.00     0.003 A 
ENDROOT
TORSDOF 0
ENDMDL
