MODEL 1
REMARK minimizedAffinity 11.800703
REMARK minimizedRMSD -1
REMARK  0 active torsions:
REMARK  status: ('A' for Active; 'I' for Inactive)
ROOT
ATOM      1  C2' OXE d   1       0.866   0.554   1.967  0.00  0.00     0.078 C 
ATOM      2  C1' OXE d   1       0.876   2.325  -0.211  0.00  0.00     0.078 C 
ATOM      3  C1  OXE d   1      -0.458   1.816   0.276  0.00  0.00    -0.078 A 
ATOM      4  C2  OXE d   1      -0.450   0.914   1.312  0.00  0.00    -0.078 A 
ATOM      5  C3  OXE d   1      -1.655   0.455   1.836  0.00  0.00     0.003 A 
ATOM      6  C4  OXE d   1      -2.868   0.785   1.218  0.00  0.00    -0.002 A 
ATOM      7  C5  OXE d   1      -2.895   1.671   0.136  0.00  0.00    -0.002 A 
ATOM      8  C6  OXE d   1      -1.705   2.228  -0.319  0.00  0.00     0.003 A 
ENDROOT
TORSDOF 0
ENDMDL
