MODEL 1
REMARK minimizedAffinity 0.957429588
REMARK minimizedRMSD -1
REMARK  0 active torsions:
REMARK  status: ('A' for Active; 'I' for Inactive)
ROOT
ATOM      1  C2' OXE d   1       2.456   3.022  -4.864  0.00  0.00     0.078 C 
ATOM      2  C1' OXE d   1       4.734   1.740  -5.888  0.00  0.00     0.078 C 
ATOM      3  C1  OXE d   1       4.794   3.235  -5.699  0.00  0.00    -0.078 A 
ATOM      4  C2  OXE d   1       3.659   3.860  -5.242  0.00  0.00    -0.078 A 
ATOM      5  C3  OXE d   1       3.678   5.231  -4.998  0.00  0.00     0.003 A 
ATOM      6  C4  OXE d   1       4.791   6.000  -5.359  0.00  0.00    -0.002 A 
ATOM      7  C5  OXE d   1       5.943   5.388  -5.864  0.00  0.00    -0.002 A 
ATOM      8  C6  OXE d   1       5.976   4.004  -6.000  0.00  0.00     0.003 A 
ENDROOT
TORSDOF 0
ENDMDL
