MODEL 1
REMARK minimizedAffinity 8.78729534
REMARK minimizedRMSD -1
REMARK  0 active torsions:
REMARK  status: ('A' for Active; 'I' for Inactive)
ROOT
ATOM      1  C2' OXE d   1      -3.301   1.575   0.377  0.00  0.00     0.078 C 
ATOM      2  C1' OXE d   1      -1.438  -0.011   1.754  0.00  0.00     0.078 C 
ATOM      3  C1  OXE d   1      -2.868  -0.029   2.234  0.00  0.00    -0.078 A 
ATOM      4  C2  OXE d   1      -3.763   0.786   1.583  0.00  0.00    -0.078 A 
ATOM      5  C3  OXE d   1      -5.106   0.766   1.950  0.00  0.00     0.003 A 
ATOM      6  C4  OXE d   1      -5.523   0.041   3.073  0.00  0.00    -0.002 A 
ATOM      7  C5  OXE d   1      -4.620  -0.764   3.774  0.00  0.00    -0.002 A 
ATOM      8  C6  OXE d   1      -3.300  -0.843   3.342  0.00  0.00     0.003 A 
ENDROOT
TORSDOF 0
ENDMDL
