MODEL 1
REMARK minimizedAffinity 4.82256269
REMARK minimizedRMSD -1
REMARK  0 active torsions:
REMARK  status: ('A' for Active; 'I' for Inactive)
ROOT
ATOM      1  C2' OXE d   1      -4.961  -2.128   3.870  0.00  0.00     0.078 C 
ATOM      2  C1' OXE d   1      -2.379  -2.779   2.982  0.00  0.00     0.078 C 
ATOM      3  C1  OXE d   1      -2.960  -1.458   2.545  0.00  0.00    -0.078 A 
ATOM      4  C2  OXE d   1      -4.242  -1.168   2.946  0.00  0.00    -0.078 A 
ATOM      5  C3  OXE d   1      -4.806   0.061   2.615  0.00  0.00     0.003 A 
ATOM      6  C4  OXE d   1      -4.139   0.938   1.752  0.00  0.00    -0.002 A 
ATOM      7  C5  OXE d   1      -2.848   0.644   1.300  0.00  0.00    -0.002 A 
ATOM      8  C6  OXE d   1      -2.229  -0.528   1.721  0.00  0.00     0.003 A 
ENDROOT
TORSDOF 0
ENDMDL
