MODEL 1
REMARK minimizedAffinity 12.0855141
REMARK minimizedRMSD -1
REMARK  0 active torsions:
REMARK  status: ('A' for Active; 'I' for Inactive)
ROOT
ATOM      1  C2' OXE d   1       4.632   4.370   4.573  0.00  0.00     0.078 C 
ATOM      2  C1' OXE d   1       4.861   5.071   1.865  0.00  0.00     0.078 C 
ATOM      3  C1  OXE d   1       3.794   4.076   2.246  0.00  0.00    -0.078 A 
ATOM      4  C2  OXE d   1       3.719   3.704   3.567  0.00  0.00    -0.078 A 
ATOM      5  C3  OXE d   1       2.717   2.831   3.981  0.00  0.00     0.003 A 
ATOM      6  C4  OXE d   1       1.883   2.212   3.042  0.00  0.00    -0.002 A 
ATOM      7  C5  OXE d   1       1.968   2.547   1.687  0.00  0.00    -0.002 A 
ATOM      8  C6  OXE d   1       2.888   3.507   1.279  0.00  0.00     0.003 A 
ENDROOT
TORSDOF 0
ENDMDL
