MODEL 1
REMARK minimizedAffinity 5.63847971
REMARK minimizedRMSD -1
REMARK  0 active torsions:
REMARK  status: ('A' for Active; 'I' for Inactive)
ROOT
ATOM      1  C2' OXE d   1       1.535  -4.166  -3.730  0.00  0.00     0.078 C 
ATOM      2  C1' OXE d   1       0.180  -1.835  -2.948  0.00  0.00     0.078 C 
ATOM      3  C1  OXE d   1       1.380  -2.258  -2.137  0.00  0.00    -0.078 A 
ATOM      4  C2  OXE d   1       2.008  -3.425  -2.499  0.00  0.00    -0.078 A 
ATOM      5  C3  OXE d   1       3.152  -3.831  -1.818  0.00  0.00     0.003 A 
ATOM      6  C4  OXE d   1       3.578  -3.146  -0.674  0.00  0.00    -0.002 A 
ATOM      7  C5  OXE d   1       2.928  -1.976  -0.265  0.00  0.00    -0.002 A 
ATOM      8  C6  OXE d   1       1.856  -1.496  -1.009  0.00  0.00     0.003 A 
ENDROOT
TORSDOF 0
ENDMDL
