MODEL 1
REMARK minimizedAffinity 5.28111553
REMARK minimizedRMSD -1
REMARK  0 active torsions:
REMARK  status: ('A' for Active; 'I' for Inactive)
ROOT
ATOM      1  C2' OXE d   1      -2.601   2.843   0.758  0.00  0.00     0.078 C 
ATOM      2  C1' OXE d   1      -0.181   3.959  -0.126  0.00  0.00     0.078 C 
ATOM      3  C1  OXE d   1      -0.186   3.258   1.210  0.00  0.00    -0.078 A 
ATOM      4  C2  OXE d   1      -1.385   2.756   1.655  0.00  0.00    -0.078 A 
ATOM      5  C3  OXE d   1      -1.435   2.052   2.855  0.00  0.00     0.003 A 
ATOM      6  C4  OXE d   1      -0.308   1.984   3.684  0.00  0.00    -0.002 A 
ATOM      7  C5  OXE d   1       0.913   2.523   3.267  0.00  0.00    -0.002 A 
ATOM      8  C6  OXE d   1       1.001   3.125   2.017  0.00  0.00     0.003 A 
ENDROOT
TORSDOF 0
ENDMDL
