MODEL 1
REMARK minimizedAffinity 7.24592686
REMARK minimizedRMSD -1
REMARK  0 active torsions:
REMARK  status: ('A' for Active; 'I' for Inactive)
ROOT
ATOM      1  C2' OXE d   1      -1.456  -2.974   2.743  0.00  0.00     0.078 C 
ATOM      2  C1' OXE d   1      -1.023  -0.296   2.021  0.00  0.00     0.078 C 
ATOM      3  C1  OXE d   1      -2.348  -0.650   2.648  0.00  0.00    -0.078 A 
ATOM      4  C2  OXE d   1      -2.569  -1.971   2.956  0.00  0.00    -0.078 A 
ATOM      5  C3  OXE d   1      -3.753  -2.343   3.586  0.00  0.00     0.003 A 
ATOM      6  C4  OXE d   1      -4.782  -1.411   3.770  0.00  0.00    -0.002 A 
ATOM      7  C5  OXE d   1      -4.593  -0.068   3.427  0.00  0.00    -0.002 A 
ATOM      8  C6  OXE d   1      -3.369   0.336   2.906  0.00  0.00     0.003 A 
ENDROOT
TORSDOF 0
ENDMDL
