MODEL 1
REMARK minimizedAffinity 1.63985527
REMARK minimizedRMSD -1
REMARK  1 active torsions:
REMARK  status: ('A' for Active; 'I' for Inactive)
REMARK    1  A    between atoms: N_2  and  C1_3 
ROOT
ATOM      1  C1  UNL d   1       0.440   0.450  -0.395  0.00  0.00     0.143 A 
ATOM      2  C2  UNL d   1      -0.028   0.986   0.809  0.00  0.00    -0.057 A 
ATOM      3  C3  UNL d   1       0.417   0.498   2.043  0.00  0.00     0.033 A 
ATOM      4  C4  UNL d   1       1.320  -0.559   2.095  0.00  0.00    -0.042 A 
ATOM      5  C5  UNL d   1       1.780  -1.124   0.911  0.00  0.00     0.033 A 
ATOM      6  C6  UNL d   1       1.336  -0.627  -0.319  0.00  0.00    -0.057 A 
ENDROOT
BRANCH   1   7
ATOM      7  N   UNL d   1      -0.039   0.826  -1.652  0.00  0.00    -0.732 N 
ATOM      8  C   UNL d   1      -1.266   0.262  -2.173  0.00  0.00     0.284 C 
ATOM      9  H3  UNL d   1       0.066   1.824  -1.826  0.00  0.00     0.395 HD
ENDBRANCH   1   7
TORSDOF 1
ENDMDL
