MODEL 1
REMARK minimizedAffinity 6.19737196
REMARK minimizedRMSD -1
REMARK  1 active torsions:
REMARK  status: ('A' for Active; 'I' for Inactive)
REMARK    1  A    between atoms: N_2  and  C1_3 
ROOT
ATOM      1  C1  UNL d   1       0.051   0.600  -0.316  0.00  0.00     0.143 A 
ATOM      2  C2  UNL d   1       1.148  -0.267  -0.280  0.00  0.00    -0.057 A 
ATOM      3  C3  UNL d   1       1.633  -0.777   0.930  0.00  0.00     0.033 A 
ATOM      4  C4  UNL d   1       1.044  -0.403   2.134  0.00  0.00    -0.042 A 
ATOM      5  C5  UNL d   1      -0.032   0.477   2.125  0.00  0.00     0.033 A 
ATOM      6  C6  UNL d   1      -0.515   0.977   0.912  0.00  0.00    -0.057 A 
ENDROOT
BRANCH   1   7
ATOM      7  N   UNL d   1      -0.416   1.217  -1.479  0.00  0.00    -0.732 N 
ATOM      8  C   UNL d   1      -1.831   1.443  -1.676  0.00  0.00     0.284 C 
ATOM      9  H3  UNL d   1       0.174   1.993  -1.770  0.00  0.00     0.395 HD
ENDBRANCH   1   7
TORSDOF 1
ENDMDL
