MODEL 1
REMARK minimizedAffinity -0.436790794
REMARK minimizedRMSD -1
REMARK  0 active torsions:
REMARK  status: ('A' for Active; 'I' for Inactive)
ROOT
ATOM      1  C   UNL d   1       2.130  -2.236  -3.815  0.00  0.00     0.172 C 
ATOM      2  N   UNL d   1       2.705  -1.538  -2.688  0.00  0.00    -0.070 N 
ATOM      3  C1  UNL d   1       3.897  -0.864  -2.690  0.00  0.00    -0.004 A 
ATOM      4  C2  UNL d   1       4.087  -0.339  -1.430  0.00  0.00    -0.047 A 
ATOM      5  C3  UNL d   1       2.970  -0.711  -0.644  0.00  0.00    -0.047 A 
ATOM      6  C4  UNL d   1       2.130  -1.452  -1.447  0.00  0.00    -0.004 A 
ENDROOT
TORSDOF 0
ENDMDL
