MODEL 1
REMARK minimizedAffinity -2.54656577
REMARK minimizedRMSD -1
REMARK  0 active torsions:
REMARK  status: ('A' for Active; 'I' for Inactive)
ROOT
ATOM      1  C   UNL d   1      -0.766   0.848   2.124  0.00  0.00     0.172 C 
ATOM      2  N   UNL d   1      -0.214   0.387   0.872  0.00  0.00    -0.070 N 
ATOM      3  C1  UNL d   1       0.344  -0.844   0.651  0.00  0.00    -0.004 A 
ATOM      4  C2  UNL d   1       0.750  -0.893  -0.665  0.00  0.00    -0.047 A 
ATOM      5  C3  UNL d   1       0.425   0.351  -1.255  0.00  0.00    -0.047 A 
ATOM      6  C4  UNL d   1      -0.170   1.125  -0.281  0.00  0.00    -0.004 A 
ENDROOT
TORSDOF 0
ENDMDL
