MODEL 1
REMARK minimizedAffinity 1.52252913
REMARK minimizedRMSD -1
REMARK  0 active torsions:
REMARK  status: ('A' for Active; 'I' for Inactive)
ROOT
ATOM      1  C   UNL d   1       2.666  -0.658  -1.154  0.00  0.00     0.172 C 
ATOM      2  N   UNL d   1       2.269   0.566  -1.809  0.00  0.00    -0.070 N 
ATOM      3  C1  UNL d   1       2.806   1.063  -2.966  0.00  0.00    -0.004 A 
ATOM      4  C2  UNL d   1       2.157   2.242  -3.261  0.00  0.00    -0.047 A 
ATOM      5  C3  UNL d   1       1.197   2.462  -2.245  0.00  0.00    -0.047 A 
ATOM      6  C4  UNL d   1       1.287   1.409  -1.359  0.00  0.00    -0.004 A 
ENDROOT
TORSDOF 0
ENDMDL
