MODEL 1
REMARK minimizedAffinity 3.46078658
REMARK minimizedRMSD -1
REMARK  0 active torsions:
REMARK  status: ('A' for Active; 'I' for Inactive)
ROOT
ATOM      1  C   UNL d   1      -4.916  -3.917  -1.503  0.00  0.00     0.172 C 
ATOM      2  N   UNL d   1      -3.833  -2.994  -1.258  0.00  0.00    -0.070 N 
ATOM      3  C1  UNL d   1      -2.570  -3.334  -0.852  0.00  0.00    -0.004 A 
ATOM      4  C2  UNL d   1      -1.838  -2.173  -0.733  0.00  0.00    -0.047 A 
ATOM      5  C3  UNL d   1      -2.690  -1.097  -1.078  0.00  0.00    -0.047 A 
ATOM      6  C4  UNL d   1      -3.919  -1.634  -1.399  0.00  0.00    -0.004 A 
ENDROOT
TORSDOF 0
ENDMDL
