MODEL 1
REMARK minimizedAffinity 2.59827757
REMARK minimizedRMSD -1
REMARK  0 active torsions:
REMARK  status: ('A' for Active; 'I' for Inactive)
ROOT
ATOM      1  C   UNL d   1      -0.794   0.826  -0.547  0.00  0.00     0.172 C 
ATOM      2  N   UNL d   1       0.334   1.088  -1.410  0.00  0.00    -0.070 N 
ATOM      3  C1  UNL d   1       0.455   2.150  -2.266  0.00  0.00    -0.004 A 
ATOM      4  C2  UNL d   1       1.670   2.041  -2.906  0.00  0.00    -0.047 A 
ATOM      5  C3  UNL d   1       2.302   0.872  -2.419  0.00  0.00    -0.047 A 
ATOM      6  C4  UNL d   1       1.453   0.302  -1.494  0.00  0.00    -0.004 A 
ENDROOT
TORSDOF 0
ENDMDL
