MODEL 1
REMARK minimizedAffinity 2.99358821
REMARK minimizedRMSD -1
REMARK  0 active torsions:
REMARK  status: ('A' for Active; 'I' for Inactive)
ROOT
ATOM      1  C   UNL d   1      -2.304  -3.705   0.116  0.00  0.00     0.172 C 
ATOM      2  N   UNL d   1      -2.239  -2.263   0.154  0.00  0.00    -0.070 N 
ATOM      3  C1  UNL d   1      -2.071  -1.501   1.280  0.00  0.00    -0.004 A 
ATOM      4  C2  UNL d   1      -2.061  -0.178   0.896  0.00  0.00    -0.047 A 
ATOM      5  C3  UNL d   1      -2.229  -0.143  -0.509  0.00  0.00    -0.047 A 
ATOM      6  C4  UNL d   1      -2.337  -1.448  -0.942  0.00  0.00    -0.004 A 
ENDROOT
TORSDOF 0
ENDMDL
