MODEL 1
REMARK minimizedAffinity 0.138627619
REMARK minimizedRMSD -1
REMARK  0 active torsions:
REMARK  status: ('A' for Active; 'I' for Inactive)
ROOT
ATOM      1  C   UNL d   1       1.745   2.491  -3.367  0.00  0.00     0.172 C 
ATOM      2  N   UNL d   1       1.775   1.462  -2.354  0.00  0.00    -0.070 N 
ATOM      3  C1  UNL d   1       2.681   0.438  -2.283  0.00  0.00    -0.004 A 
ATOM      4  C2  UNL d   1       2.371  -0.324  -1.176  0.00  0.00    -0.047 A 
ATOM      5  C3  UNL d   1       1.239   0.263  -0.562  0.00  0.00    -0.047 A 
ATOM      6  C4  UNL d   1       0.891   1.367  -1.311  0.00  0.00    -0.004 A 
ENDROOT
TORSDOF 0
ENDMDL
