MODEL 1
REMARK minimizedAffinity -0.985983133
REMARK minimizedRMSD -1
REMARK  0 active torsions:
REMARK  status: ('A' for Active; 'I' for Inactive)
ROOT
ATOM      1  C   UNL d   1      -1.177  -2.862  -1.103  0.00  0.00     0.172 C 
ATOM      2  N   UNL d   1       0.214  -2.727  -1.467  0.00  0.00    -0.070 N 
ATOM      3  C1  UNL d   1       0.854  -3.431  -2.451  0.00  0.00    -0.004 A 
ATOM      4  C2  UNL d   1       2.167  -3.013  -2.484  0.00  0.00    -0.047 A 
ATOM      5  C3  UNL d   1       2.321  -2.024  -1.485  0.00  0.00    -0.047 A 
ATOM      6  C4  UNL d   1       1.097  -1.866  -0.870  0.00  0.00    -0.004 A 
ENDROOT
TORSDOF 0
ENDMDL
