MODEL 1
REMARK minimizedAffinity 7.01349115
REMARK minimizedRMSD -1
REMARK  0 active torsions:
REMARK  status: ('A' for Active; 'I' for Inactive)
ROOT
ATOM      1  C   UNL d   1       1.400   1.965   2.266  0.00  0.00     0.172 C 
ATOM      2  N   UNL d   1       0.695   1.686   1.037  0.00  0.00    -0.070 N 
ATOM      3  C1  UNL d   1      -0.663   1.575   0.903  0.00  0.00    -0.004 A 
ATOM      4  C2  UNL d   1      -0.936   1.306  -0.421  0.00  0.00    -0.047 A 
ATOM      5  C3  UNL d   1       0.301   1.251  -1.106  0.00  0.00    -0.047 A 
ATOM      6  C4  UNL d   1       1.294   1.490  -0.180  0.00  0.00    -0.004 A 
ENDROOT
TORSDOF 0
ENDMDL
