MODEL 1
REMARK minimizedAffinity 2.24714303
REMARK minimizedRMSD -1
REMARK  0 active torsions:
REMARK  status: ('A' for Active; 'I' for Inactive)
ROOT
ATOM      1  C   UNL d   1      -0.805   0.274  -0.562  0.00  0.00     0.172 C 
ATOM      2  N   UNL d   1      -1.388  -1.044  -0.653  0.00  0.00    -0.070 N 
ATOM      3  C1  UNL d   1      -2.725  -1.320  -0.759  0.00  0.00    -0.004 A 
ATOM      4  C2  UNL d   1      -2.869  -2.689  -0.821  0.00  0.00    -0.047 A 
ATOM      5  C3  UNL d   1      -1.574  -3.255  -0.750  0.00  0.00    -0.047 A 
ATOM      6  C4  UNL d   1      -0.676  -2.214  -0.647  0.00  0.00    -0.004 A 
ENDROOT
TORSDOF 0
ENDMDL
