MODEL 1
REMARK minimizedAffinity 5.99509668
REMARK minimizedRMSD -1
REMARK  0 active torsions:
REMARK  status: ('A' for Active; 'I' for Inactive)
ROOT
ATOM      1  C   UNL d   1      -2.240   4.288   2.052  0.00  0.00     0.172 C 
ATOM      2  N   UNL d   1      -2.682   4.895   3.285  0.00  0.00    -0.070 N 
ATOM      3  C1  UNL d   1      -1.889   5.579   4.168  0.00  0.00    -0.004 A 
ATOM      4  C2  UNL d   1      -2.685   5.999   5.212  0.00  0.00    -0.047 A 
ATOM      5  C3  UNL d   1      -4.001   5.552   4.948  0.00  0.00    -0.047 A 
ATOM      6  C4  UNL d   1      -3.971   4.871   3.749  0.00  0.00    -0.004 A 
ENDROOT
TORSDOF 0
ENDMDL
