MODEL 1
REMARK minimizedAffinity 1.68161607
REMARK minimizedRMSD -1
REMARK  0 active torsions:
REMARK  status: ('A' for Active; 'I' for Inactive)
ROOT
ATOM      1  C   UNL d   1      -1.243   1.180   0.086  0.00  0.00     0.172 C 
ATOM      2  N   UNL d   1       0.187   1.220  -0.108  0.00  0.00    -0.070 N 
ATOM      3  C1  UNL d   1       1.109   1.603   0.829  0.00  0.00    -0.004 A 
ATOM      4  C2  UNL d   1       2.359   1.502   0.258  0.00  0.00    -0.047 A 
ATOM      5  C3  UNL d   1       2.182   1.043  -1.069  0.00  0.00    -0.047 A 
ATOM      6  C4  UNL d   1       0.828   0.876  -1.269  0.00  0.00    -0.004 A 
ENDROOT
TORSDOF 0
ENDMDL
