MODEL 1
REMARK minimizedAffinity -3.29878974
REMARK minimizedRMSD -1
REMARK  0 active torsions:
REMARK  status: ('A' for Active; 'I' for Inactive)
ROOT
ATOM      1  C   UNL d   1       2.355   0.462  -0.027  0.00  0.00     0.172 C 
ATOM      2  N   UNL d   1       0.932   0.588  -0.238  0.00  0.00    -0.070 N 
ATOM      3  C1  UNL d   1       0.296   1.686  -0.754  0.00  0.00    -0.004 A 
ATOM      4  C2  UNL d   1      -1.054   1.410  -0.795  0.00  0.00    -0.047 A 
ATOM      5  C3  UNL d   1      -1.235   0.102  -0.286  0.00  0.00    -0.047 A 
ATOM      6  C4  UNL d   1       0.011  -0.383   0.052  0.00  0.00    -0.004 A 
ENDROOT
TORSDOF 0
ENDMDL
