MODEL 1
REMARK minimizedAffinity 0.793731928
REMARK minimizedRMSD -1
REMARK  0 active torsions:
REMARK  status: ('A' for Active; 'I' for Inactive)
ROOT
ATOM      1  C   UNL d   1       1.976   1.676  -3.684  0.00  0.00     0.172 C 
ATOM      2  N   UNL d   1       2.081   0.665  -2.659  0.00  0.00    -0.070 N 
ATOM      3  C1  UNL d   1       2.983  -0.365  -2.642  0.00  0.00    -0.004 A 
ATOM      4  C2  UNL d   1       2.758  -1.105  -1.501  0.00  0.00    -0.047 A 
ATOM      5  C3  UNL d   1       1.683  -0.499  -0.809  0.00  0.00    -0.047 A 
ATOM      6  C4  UNL d   1       1.282   0.594  -1.548  0.00  0.00    -0.004 A 
ENDROOT
TORSDOF 0
ENDMDL
