MODEL 1
REMARK minimizedAffinity 2.42810035
REMARK minimizedRMSD -1
REMARK  0 active torsions:
REMARK  status: ('A' for Active; 'I' for Inactive)
ROOT
ATOM      1  C   UNL d   1       1.635  -3.488   0.764  0.00  0.00     0.172 C 
ATOM      2  N   UNL d   1       1.777  -2.349  -0.113  0.00  0.00    -0.070 N 
ATOM      3  C1  UNL d   1       2.956  -1.732  -0.435  0.00  0.00    -0.004 A 
ATOM      4  C2  UNL d   1       2.668  -0.693  -1.294  0.00  0.00    -0.047 A 
ATOM      5  C3  UNL d   1       1.267  -0.686  -1.494  0.00  0.00    -0.047 A 
ATOM      6  C4  UNL d   1       0.740  -1.721  -0.751  0.00  0.00    -0.004 A 
ENDROOT
TORSDOF 0
ENDMDL
