MODEL 1
REMARK minimizedAffinity 0.717411339
REMARK minimizedRMSD -1
REMARK  0 active torsions:
REMARK  status: ('A' for Active; 'I' for Inactive)
ROOT
ATOM      1  O1  BZF d   1       0.725  -2.643   4.293  0.00  0.00    -0.204 OA
ATOM      2  C2  BZF d   1       1.823  -1.831   4.083  0.00  0.00     0.174 A 
ATOM      3  C3  BZF d   1       1.506  -0.798   3.275  0.00  0.00    -0.012 A 
ATOM      4  C3A BZF d   1       0.101  -0.925   3.035  0.00  0.00    -0.107 A 
ATOM      5  C4  BZF d   1      -0.799  -0.189   2.319  0.00  0.00     0.055 A 
ATOM      6  C5  BZF d   1      -2.083  -0.624   2.227  0.00  0.00    -0.016 A 
ATOM      7  C6  BZF d   1      -2.500  -1.791   2.833  0.00  0.00     0.022 A 
ATOM      8  C7  BZF d   1      -1.644  -2.552   3.558  0.00  0.00     0.029 A 
ATOM      9  C7A BZF d   1      -0.353  -2.098   3.680  0.00  0.00     0.058 A 
ENDROOT
TORSDOF 0
ENDMDL
