MODEL 1
REMARK minimizedAffinity -2.08032608
REMARK minimizedRMSD -1
REMARK  0 active torsions:
REMARK  status: ('A' for Active; 'I' for Inactive)
ROOT
ATOM      1  O1  BZF d   1       0.198  -2.682   3.884  0.00  0.00    -0.204 OA
ATOM      2  C2  BZF d   1       1.448  -2.095   3.931  0.00  0.00     0.174 A 
ATOM      3  C3  BZF d   1       1.500  -1.014   3.127  0.00  0.00    -0.012 A 
ATOM      4  C3A BZF d   1       0.174  -0.865   2.611  0.00  0.00    -0.107 A 
ATOM      5  C4  BZF d   1      -0.410   0.037   1.768  0.00  0.00     0.055 A 
ATOM      6  C5  BZF d   1      -1.707  -0.140   1.406  0.00  0.00    -0.016 A 
ATOM      7  C6  BZF d   1      -2.449  -1.210   1.863  0.00  0.00     0.022 A 
ATOM      8  C7  BZF d   1      -1.915  -2.129   2.704  0.00  0.00     0.029 A 
ATOM      9  C7A BZF d   1      -0.613  -1.934   3.098  0.00  0.00     0.058 A 
ENDROOT
TORSDOF 0
ENDMDL
