MODEL 1
REMARK minimizedAffinity -2.87058568
REMARK minimizedRMSD -1
REMARK  0 active torsions:
REMARK  status: ('A' for Active; 'I' for Inactive)
ROOT
ATOM      1  O1  BZF d   1      -0.731  -2.410   4.236  0.00  0.00    -0.204 OA
ATOM      2  C2  BZF d   1       0.501  -2.760   4.754  0.00  0.00     0.174 A 
ATOM      3  C3  BZF d   1       1.494  -2.124   4.100  0.00  0.00    -0.012 A 
ATOM      4  C3A BZF d   1       0.837  -1.256   3.171  0.00  0.00    -0.107 A 
ATOM      5  C4  BZF d   1       1.287  -0.355   2.249  0.00  0.00     0.055 A 
ATOM      6  C5  BZF d   1       0.387   0.277   1.450  0.00  0.00    -0.016 A 
ATOM      7  C6  BZF d   1      -0.967   0.028   1.542  0.00  0.00     0.022 A 
ATOM      8  C7  BZF d   1      -1.461  -0.853   2.446  0.00  0.00     0.029 A 
ATOM      9  C7A BZF d   1      -0.557  -1.469   3.277  0.00  0.00     0.058 A 
ENDROOT
TORSDOF 0
ENDMDL
