MODEL 1
REMARK minimizedAffinity 1.59833682
REMARK minimizedRMSD -1
REMARK  0 active torsions:
REMARK  status: ('A' for Active; 'I' for Inactive)
ROOT
ATOM      1  O1  BZF d   1       1.553  -1.600   3.774  0.00  0.00    -0.204 OA
ATOM      2  C2  BZF d   1       2.679  -1.299   3.033  0.00  0.00     0.174 A 
ATOM      3  C3  BZF d   1       2.346  -0.644   1.902  0.00  0.00    -0.012 A 
ATOM      4  C3A BZF d   1       0.931  -0.447   1.984  0.00  0.00    -0.107 A 
ATOM      5  C4  BZF d   1       0.018   0.156   1.167  0.00  0.00     0.055 A 
ATOM      6  C5  BZF d   1      -1.298   0.111   1.500  0.00  0.00    -0.016 A 
ATOM      7  C6  BZF d   1      -1.737  -0.532   2.639  0.00  0.00     0.022 A 
ATOM      8  C7  BZF d   1      -0.869  -1.141   3.483  0.00  0.00     0.029 A 
ATOM      9  C7A BZF d   1       0.466  -1.069   3.165  0.00  0.00     0.058 A 
ENDROOT
TORSDOF 0
ENDMDL
