MODEL 1
REMARK minimizedAffinity -1.0702213
REMARK minimizedRMSD -1
REMARK  0 active torsions:
REMARK  status: ('A' for Active; 'I' for Inactive)
ROOT
ATOM      1  O1  BZF d   1      -1.543  -0.436   2.858  0.00  0.00    -0.204 OA
ATOM      2  C2  BZF d   1      -1.469   0.292   1.686  0.00  0.00     0.174 A 
ATOM      3  C3  BZF d   1      -0.194   0.374   1.254  0.00  0.00    -0.012 A 
ATOM      4  C3A BZF d   1       0.565  -0.425   2.166  0.00  0.00    -0.107 A 
ATOM      5  C4  BZF d   1       1.889  -0.748   2.254  0.00  0.00     0.055 A 
ATOM      6  C5  BZF d   1       2.319  -1.491   3.307  0.00  0.00    -0.016 A 
ATOM      7  C6  BZF d   1       1.455  -1.923   4.292  0.00  0.00     0.022 A 
ATOM      8  C7  BZF d   1       0.132  -1.632   4.245  0.00  0.00     0.029 A 
ATOM      9  C7A BZF d   1      -0.312  -0.909   3.165  0.00  0.00     0.058 A 
ENDROOT
TORSDOF 0
ENDMDL
