MODEL 1
REMARK minimizedAffinity 3.18699431
REMARK minimizedRMSD -1
REMARK  0 active torsions:
REMARK  status: ('A' for Active; 'I' for Inactive)
ROOT
ATOM      1  O1  BZF d   1      -0.736  -4.487  -2.789  0.00  0.00    -0.204 OA
ATOM      2  C2  BZF d   1       0.260  -4.160  -1.889  0.00  0.00     0.174 A 
ATOM      3  C3  BZF d   1       1.470  -4.521  -2.363  0.00  0.00    -0.012 A 
ATOM      4  C3A BZF d   1       1.223  -5.026  -3.679  0.00  0.00    -0.107 A 
ATOM      5  C4  BZF d   1       2.032  -5.523  -4.661  0.00  0.00     0.055 A 
ATOM      6  C5  BZF d   1       1.469  -5.999  -5.802  0.00  0.00    -0.016 A 
ATOM      7  C6  BZF d   1       0.103  -5.999  -5.992  0.00  0.00     0.022 A 
ATOM      8  C7  BZF d   1      -0.740  -5.511  -5.049  0.00  0.00     0.029 A 
ATOM      9  C7A BZF d   1      -0.172  -4.999  -3.909  0.00  0.00     0.058 A 
ENDROOT
TORSDOF 0
ENDMDL
