MODEL 1
REMARK minimizedAffinity 7.83285999
REMARK minimizedRMSD -1
REMARK  0 active torsions:
REMARK  status: ('A' for Active; 'I' for Inactive)
ROOT
ATOM      1  O1  BZF d   1      -1.413   0.678   2.945  0.00  0.00    -0.204 OA
ATOM      2  C2  BZF d   1      -1.542   0.846   1.580  0.00  0.00     0.174 A 
ATOM      3  C3  BZF d   1      -0.506   0.281   0.928  0.00  0.00    -0.012 A 
ATOM      4  C3A BZF d   1       0.276  -0.356   1.943  0.00  0.00    -0.107 A 
ATOM      5  C4  BZF d   1       1.423  -1.097   1.919  0.00  0.00     0.055 A 
ATOM      6  C5  BZF d   1       1.967  -1.510   3.094  0.00  0.00    -0.016 A 
ATOM      7  C6  BZF d   1       1.394  -1.198   4.309  0.00  0.00     0.022 A 
ATOM      8  C7  BZF d   1       0.253  -0.469   4.384  0.00  0.00     0.029 A 
ATOM      9  C7A BZF d   1      -0.317  -0.078   3.197  0.00  0.00     0.058 A 
ENDROOT
TORSDOF 0
ENDMDL
