MODEL 1
REMARK minimizedAffinity 6.50197315
REMARK minimizedRMSD -1
REMARK  0 active torsions:
REMARK  status: ('A' for Active; 'I' for Inactive)
ROOT
ATOM      1  O1  BZF d   1      -2.950  -4.982  -1.205  0.00  0.00    -0.204 OA
ATOM      2  C2  BZF d   1      -3.701  -5.996  -1.768  0.00  0.00     0.174 A 
ATOM      3  C3  BZF d   1      -4.791  -5.498  -2.386  0.00  0.00    -0.012 A 
ATOM      4  C3A BZF d   1      -4.668  -4.076  -2.277  0.00  0.00    -0.107 A 
ATOM      5  C4  BZF d   1      -5.434  -3.032  -2.710  0.00  0.00     0.055 A 
ATOM      6  C5  BZF d   1      -5.073  -1.765  -2.375  0.00  0.00    -0.016 A 
ATOM      7  C6  BZF d   1      -3.958  -1.507  -1.606  0.00  0.00     0.022 A 
ATOM      8  C7  BZF d   1      -3.164  -2.510  -1.157  0.00  0.00     0.029 A 
ATOM      9  C7A BZF d   1      -3.508  -3.789  -1.522  0.00  0.00     0.058 A 
ENDROOT
TORSDOF 0
ENDMDL
