MODEL 1
REMARK minimizedAffinity 7.30233526
REMARK minimizedRMSD -1
REMARK  0 active torsions:
REMARK  status: ('A' for Active; 'I' for Inactive)
ROOT
ATOM      1  O1  BZF d   1       1.696  -4.164  -2.645  0.00  0.00    -0.204 OA
ATOM      2  C2  BZF d   1       0.685  -4.272  -1.710  0.00  0.00     0.174 A 
ATOM      3  C3  BZF d   1      -0.401  -4.865  -2.246  0.00  0.00    -0.012 A 
ATOM      4  C3A BZF d   1      -0.014  -5.229  -3.575  0.00  0.00    -0.107 A 
ATOM      5  C4  BZF d   1      -0.656  -5.864  -4.599  0.00  0.00     0.055 A 
ATOM      6  C5  BZF d   1      -0.022  -5.999  -5.793  0.00  0.00    -0.016 A 
ATOM      7  C6  BZF d   1       1.249  -5.506  -6.000  0.00  0.00     0.022 A 
ATOM      8  C7  BZF d   1       1.928  -4.873  -5.012  0.00  0.00     0.029 A 
ATOM      9  C7A BZF d   1       1.303  -4.765  -3.794  0.00  0.00     0.058 A 
ENDROOT
TORSDOF 0
ENDMDL
