MODEL 1
REMARK minimizedAffinity 6.76446962
REMARK minimizedRMSD -1
REMARK  0 active torsions:
REMARK  status: ('A' for Active; 'I' for Inactive)
ROOT
ATOM      1  O1  BZF d   1      -1.008  -1.400   1.221  0.00  0.00    -0.204 OA
ATOM      2  C2  BZF d   1      -0.568  -0.517   2.188  0.00  0.00     0.174 A 
ATOM      3  C3  BZF d   1      -0.936   0.745   1.887  0.00  0.00    -0.012 A 
ATOM      4  C3A BZF d   1      -1.731   0.633   0.702  0.00  0.00    -0.107 A 
ATOM      5  C4  BZF d   1      -2.395   1.541  -0.072  0.00  0.00     0.055 A 
ATOM      6  C5  BZF d   1      -3.016   1.115  -1.203  0.00  0.00    -0.016 A 
ATOM      7  C6  BZF d   1      -2.988  -0.208  -1.593  0.00  0.00     0.022 A 
ATOM      8  C7  BZF d   1      -2.347  -1.146  -0.854  0.00  0.00     0.029 A 
ATOM      9  C7A BZF d   1      -1.746  -0.725   0.307  0.00  0.00     0.058 A 
ENDROOT
TORSDOF 0
ENDMDL
