MODEL 1
REMARK minimizedAffinity 3.52988696
REMARK minimizedRMSD -1
REMARK  0 active torsions:
REMARK  status: ('A' for Active; 'I' for Inactive)
ROOT
ATOM      1  C   UNL d   1       1.664   2.777   2.470  0.00  0.00    -0.002 A 
ATOM      2  C1  UNL d   1       2.752   3.357   1.834  0.00  0.00     0.010 A 
ATOM      3  C2  UNL d   1       2.595   4.007   0.609  0.00  0.00     0.041 A 
ATOM      4  C3  UNL d   1       1.312   4.068   0.029  0.00  0.00    -0.075 A 
ATOM      5  S   UNL d   1       0.881   4.813  -1.465  0.00  0.00     0.015 SA
ATOM      6  C4  UNL d   1      -0.759   4.381  -1.293  0.00  0.00     0.022 A 
ATOM      7  C5  UNL d   1      -0.989   3.684  -0.130  0.00  0.00     0.026 A 
ATOM      8  C6  UNL d   1       0.201   3.493   0.651  0.00  0.00    -0.082 A 
ATOM      9  C7  UNL d   1       0.393   2.839   1.892  0.00  0.00     0.045 A 
ENDROOT
TORSDOF 0
ENDMDL
