MODEL 1
REMARK minimizedAffinity 15.3580694
REMARK minimizedRMSD -1
REMARK  0 active torsions:
REMARK  status: ('A' for Active; 'I' for Inactive)
ROOT
ATOM      1  C   UNL d   1       0.781   5.055  -1.784  0.00  0.00    -0.002 A 
ATOM      2  C1  UNL d   1      -0.158   4.320  -2.495  0.00  0.00     0.010 A 
ATOM      3  C2  UNL d   1      -0.835   3.260  -1.890  0.00  0.00     0.041 A 
ATOM      4  C3  UNL d   1      -0.552   2.948  -0.545  0.00  0.00    -0.075 A 
ATOM      5  S   UNL d   1      -1.260   1.694   0.402  0.00  0.00     0.015 SA
ATOM      6  C4  UNL d   1      -0.334   2.105   1.773  0.00  0.00     0.022 A 
ATOM      7  C5  UNL d   1       0.500   3.170   1.531  0.00  0.00     0.026 A 
ATOM      8  C6  UNL d   1       0.388   3.675   0.191  0.00  0.00    -0.082 A 
ATOM      9  C7  UNL d   1       1.059   4.743  -0.451  0.00  0.00     0.045 A 
ENDROOT
TORSDOF 0
ENDMDL
