MODEL 1
REMARK minimizedAffinity 18.3896599
REMARK minimizedRMSD -1
REMARK  0 active torsions:
REMARK  status: ('A' for Active; 'I' for Inactive)
ROOT
ATOM      1  C   UNL d   1       4.357  -5.407  -0.886  0.00  0.00    -0.002 A 
ATOM      2  C1  UNL d   1       5.263  -4.375  -1.084  0.00  0.00     0.010 A 
ATOM      3  C2  UNL d   1       5.546  -3.915  -2.371  0.00  0.00     0.041 A 
ATOM      4  C3  UNL d   1       4.896  -4.514  -3.467  0.00  0.00    -0.075 A 
ATOM      5  S   UNL d   1       5.085  -4.115  -5.134  0.00  0.00     0.015 SA
ATOM      6  C4  UNL d   1       3.967  -5.304  -5.623  0.00  0.00     0.022 A 
ATOM      7  C5  UNL d   1       3.452  -5.999  -4.554  0.00  0.00     0.026 A 
ATOM      8  C6  UNL d   1       3.978  -5.555  -3.294  0.00  0.00    -0.082 A 
ATOM      9  C7  UNL d   1       3.713  -5.999  -1.976  0.00  0.00     0.045 A 
ENDROOT
TORSDOF 0
ENDMDL
