MODEL 1
REMARK minimizedAffinity 9.73861504
REMARK minimizedRMSD -1
REMARK  0 active torsions:
REMARK  status: ('A' for Active; 'I' for Inactive)
ROOT
ATOM      1  C   UNL d   1      -5.253  -2.686   6.000  0.00  0.00    -0.002 A 
ATOM      2  C1  UNL d   1      -4.017  -2.970   5.437  0.00  0.00     0.010 A 
ATOM      3  C2  UNL d   1      -3.477  -2.140   4.452  0.00  0.00     0.041 A 
ATOM      4  C3  UNL d   1      -4.208  -1.008   4.040  0.00  0.00    -0.075 A 
ATOM      5  S   UNL d   1      -3.745   0.150   2.850  0.00  0.00     0.015 SA
ATOM      6  C4  UNL d   1      -5.177   1.050   3.061  0.00  0.00     0.022 A 
ATOM      7  C5  UNL d   1      -5.999   0.494   4.012  0.00  0.00     0.026 A 
ATOM      8  C6  UNL d   1      -5.454  -0.701   4.592  0.00  0.00    -0.082 A 
ATOM      9  C7  UNL d   1      -5.974  -1.562   5.588  0.00  0.00     0.045 A 
ENDROOT
TORSDOF 0
ENDMDL
