MODEL 1
REMARK minimizedAffinity 12.8217058
REMARK minimizedRMSD -1
REMARK  0 active torsions:
REMARK  status: ('A' for Active; 'I' for Inactive)
ROOT
ATOM      1  C   UNL d   1      -3.765  -5.999  -5.884  0.00  0.00    -0.002 A 
ATOM      2  C1  UNL d   1      -4.440  -4.833  -5.553  0.00  0.00     0.010 A 
ATOM      3  C2  UNL d   1      -3.740  -3.646  -5.330  0.00  0.00     0.041 A 
ATOM      4  C3  UNL d   1      -2.336  -3.650  -5.448  0.00  0.00    -0.075 A 
ATOM      5  S   UNL d   1      -1.270  -2.315  -5.221  0.00  0.00     0.015 SA
ATOM      6  C4  UNL d   1       0.107  -3.261  -5.559  0.00  0.00     0.022 A 
ATOM      7  C5  UNL d   1      -0.220  -4.566  -5.839  0.00  0.00     0.026 A 
ATOM      8  C6  UNL d   1      -1.634  -4.812  -5.781  0.00  0.00    -0.082 A 
ATOM      9  C7  UNL d   1      -2.372  -6.000  -6.000  0.00  0.00     0.045 A 
ENDROOT
TORSDOF 0
ENDMDL
