MODEL 1
REMARK minimizedAffinity 7.66061926
REMARK minimizedRMSD -1
REMARK  0 active torsions:
REMARK  status: ('A' for Active; 'I' for Inactive)
ROOT
ATOM      1  C   UNL d   1      -5.126   4.861  -5.878  0.00  0.00    -0.002 A 
ATOM      2  C1  UNL d   1      -5.716   5.975  -5.298  0.00  0.00     0.010 A 
ATOM      3  C2  UNL d   1      -5.994   6.000  -3.929  0.00  0.00     0.041 A 
ATOM      4  C3  UNL d   1      -5.664   4.876  -3.147  0.00  0.00    -0.075 A 
ATOM      5  S   UNL d   1      -5.910   4.681  -1.451  0.00  0.00     0.015 SA
ATOM      6  C4  UNL d   1      -5.238   3.115  -1.458  0.00  0.00     0.022 A 
ATOM      7  C5  UNL d   1      -4.830   2.734  -2.714  0.00  0.00     0.026 A 
ATOM      8  C6  UNL d   1      -5.068   3.743  -3.708  0.00  0.00    -0.082 A 
ATOM      9  C7  UNL d   1      -4.800   3.748  -5.098  0.00  0.00     0.045 A 
ENDROOT
TORSDOF 0
ENDMDL
