MODEL 1
REMARK minimizedAffinity 11.4912148
REMARK minimizedRMSD -1
REMARK  0 active torsions:
REMARK  status: ('A' for Active; 'I' for Inactive)
ROOT
ATOM      1  C   UNL d   1      -1.636  -5.243  -4.466  0.00  0.00    -0.002 A 
ATOM      2  C1  UNL d   1      -1.900  -3.926  -4.118  0.00  0.00     0.010 A 
ATOM      3  C2  UNL d   1      -1.262  -3.339  -3.023  0.00  0.00     0.041 A 
ATOM      4  C3  UNL d   1      -0.344  -4.105  -2.278  0.00  0.00    -0.075 A 
ATOM      5  S   UNL d   1       0.556  -3.595  -0.899  0.00  0.00     0.015 SA
ATOM      6  C4  UNL d   1       1.313  -5.114  -0.740  0.00  0.00     0.022 A 
ATOM      7  C5  UNL d   1       0.901  -6.000  -1.707  0.00  0.00     0.026 A 
ATOM      8  C6  UNL d   1      -0.061  -5.433  -2.610  0.00  0.00    -0.082 A 
ATOM      9  C7  UNL d   1      -0.725  -6.000  -3.724  0.00  0.00     0.045 A 
ENDROOT
TORSDOF 0
ENDMDL
