MODEL 1
REMARK minimizedAffinity 15.3426991
REMARK minimizedRMSD -1
REMARK  0 active torsions:
REMARK  status: ('A' for Active; 'I' for Inactive)
ROOT
ATOM      1  C   UNL d   1      -1.209   2.256   2.965  0.00  0.00    -0.002 A 
ATOM      2  C1  UNL d   1      -0.010   2.676   2.407  0.00  0.00     0.010 A 
ATOM      3  C2  UNL d   1       1.179   1.998   2.684  0.00  0.00     0.041 A 
ATOM      4  C3  UNL d   1       1.142   0.878   3.538  0.00  0.00    -0.075 A 
ATOM      5  S   UNL d   1       2.472  -0.107   4.019  0.00  0.00     0.015 SA
ATOM      6  C4  UNL d   1       1.480  -1.110   4.976  0.00  0.00     0.022 A 
ATOM      7  C5  UNL d   1       0.163  -0.716   4.942  0.00  0.00     0.026 A 
ATOM      8  C6  UNL d   1      -0.054   0.436   4.112  0.00  0.00    -0.082 A 
ATOM      9  C7  UNL d   1      -1.242   1.145   3.812  0.00  0.00     0.045 A 
ENDROOT
TORSDOF 0
ENDMDL
