MODEL 1
REMARK minimizedAffinity -2.18174767
REMARK minimizedRMSD -1
REMARK  0 active torsions:
REMARK  status: ('A' for Active; 'I' for Inactive)
ROOT
ATOM      1  C   UNL d   1      -0.293  -0.807   1.306  0.00  0.00     0.172 C 
ATOM      2  N   UNL d   1       0.705  -1.689   0.750  0.00  0.00    -0.070 N 
ATOM      3  C1  UNL d   1       0.636  -3.056   0.721  0.00  0.00    -0.004 A 
ATOM      4  C2  UNL d   1       1.779  -3.524   0.109  0.00  0.00    -0.047 A 
ATOM      5  C3  UNL d   1       2.562  -2.399  -0.242  0.00  0.00    -0.047 A 
ATOM      6  C4  UNL d   1       1.874  -1.276   0.167  0.00  0.00    -0.004 A 
ENDROOT
TORSDOF 0
ENDMDL
