MODEL 1
REMARK minimizedAffinity -3.64404225
REMARK minimizedRMSD -1
REMARK  0 active torsions:
REMARK  status: ('A' for Active; 'I' for Inactive)
ROOT
ATOM      1  C   UNL d   1       3.437  -4.158  -0.162  0.00  0.00     0.172 C 
ATOM      2  N   UNL d   1       2.243  -3.352  -0.068  0.00  0.00    -0.070 N 
ATOM      3  C1  UNL d   1       2.206  -2.005   0.177  0.00  0.00    -0.004 A 
ATOM      4  C2  UNL d   1       0.884  -1.614   0.189  0.00  0.00    -0.047 A 
ATOM      5  C3  UNL d   1       0.100  -2.766  -0.056  0.00  0.00    -0.047 A 
ATOM      6  C4  UNL d   1       0.966  -3.828  -0.212  0.00  0.00    -0.004 A 
ENDROOT
TORSDOF 0
ENDMDL
