MODEL 1
REMARK minimizedAffinity 0.790663302
REMARK minimizedRMSD -1
REMARK  0 active torsions:
REMARK  status: ('A' for Active; 'I' for Inactive)
ROOT
ATOM      1  C   UNL d   1       2.669  -4.127   0.125  0.00  0.00     0.172 C 
ATOM      2  N   UNL d   1       1.637  -3.119   0.053  0.00  0.00    -0.070 N 
ATOM      3  C1  UNL d   1       1.733  -1.843   0.540  0.00  0.00    -0.004 A 
ATOM      4  C2  UNL d   1       0.543  -1.200   0.275  0.00  0.00    -0.047 A 
ATOM      5  C3  UNL d   1      -0.297  -2.122  -0.394  0.00  0.00    -0.047 A 
ATOM      6  C4  UNL d   1       0.406  -3.302  -0.518  0.00  0.00    -0.004 A 
ENDROOT
TORSDOF 0
ENDMDL
