MODEL 1
REMARK minimizedAffinity -2.30753946
REMARK minimizedRMSD -1
REMARK  0 active torsions:
REMARK  status: ('A' for Active; 'I' for Inactive)
ROOT
ATOM      1  C   UNL d   1       4.188  -4.842  -0.048  0.00  0.00     0.172 C 
ATOM      2  N   UNL d   1       3.197  -3.794   0.016  0.00  0.00    -0.070 N 
ATOM      3  C1  UNL d   1       3.452  -2.449  -0.031  0.00  0.00    -0.004 A 
ATOM      4  C2  UNL d   1       2.247  -1.787   0.057  0.00  0.00    -0.047 A 
ATOM      5  C3  UNL d   1       1.232  -2.767   0.161  0.00  0.00    -0.047 A 
ATOM      6  C4  UNL d   1       1.848  -4.001   0.133  0.00  0.00    -0.004 A 
ENDROOT
TORSDOF 0
ENDMDL
