MODEL 1
REMARK minimizedAffinity -1.72249901
REMARK minimizedRMSD -1
REMARK  0 active torsions:
REMARK  status: ('A' for Active; 'I' for Inactive)
ROOT
ATOM      1  C   UNL d   1       2.062  -3.614   0.838  0.00  0.00     0.172 C 
ATOM      2  N   UNL d   1       1.042  -2.591   0.821  0.00  0.00    -0.070 N 
ATOM      3  C1  UNL d   1       1.154  -1.343   1.373  0.00  0.00    -0.004 A 
ATOM      4  C2  UNL d   1      -0.028  -0.673   1.144  0.00  0.00    -0.047 A 
ATOM      5  C3  UNL d   1      -0.880  -1.549   0.431  0.00  0.00    -0.047 A 
ATOM      6  C4  UNL d   1      -0.193  -2.730   0.244  0.00  0.00    -0.004 A 
ENDROOT
TORSDOF 0
ENDMDL
