MODEL 1
REMARK minimizedAffinity 0.675393462
REMARK minimizedRMSD -1
REMARK  0 active torsions:
REMARK  status: ('A' for Active; 'I' for Inactive)
ROOT
ATOM      1  C   UNL d   1       2.961  -0.385   1.840  0.00  0.00     0.172 C 
ATOM      2  N   UNL d   1       1.641  -0.663   1.325  0.00  0.00    -0.070 N 
ATOM      3  C1  UNL d   1       0.473  -0.114   1.784  0.00  0.00    -0.004 A 
ATOM      4  C2  UNL d   1      -0.560  -0.632   1.033  0.00  0.00    -0.047 A 
ATOM      5  C3  UNL d   1       0.006  -1.524   0.092  0.00  0.00    -0.047 A 
ATOM      6  C4  UNL d   1       1.370  -1.524   0.295  0.00  0.00    -0.004 A 
ENDROOT
TORSDOF 0
ENDMDL
