MODEL 1
REMARK minimizedAffinity -4.04396772
REMARK minimizedRMSD -1
REMARK  0 active torsions:
REMARK  status: ('A' for Active; 'I' for Inactive)
ROOT
ATOM      1  C   UNL d   1      -0.648  -0.861   1.473  0.00  0.00     0.172 C 
ATOM      2  N   UNL d   1       0.622  -1.321   0.962  0.00  0.00    -0.070 N 
ATOM      3  C1  UNL d   1       1.802  -0.628   1.016  0.00  0.00    -0.004 A 
ATOM      4  C2  UNL d   1       2.775  -1.405   0.425  0.00  0.00    -0.047 A 
ATOM      5  C3  UNL d   1       2.157  -2.605  -0.001  0.00  0.00    -0.047 A 
ATOM      6  C4  UNL d   1       0.825  -2.526   0.344  0.00  0.00    -0.004 A 
ENDROOT
TORSDOF 0
ENDMDL
