MODEL 1
REMARK minimizedAffinity -2.13083768
REMARK minimizedRMSD -1
REMARK  0 active torsions:
REMARK  status: ('A' for Active; 'I' for Inactive)
ROOT
ATOM      1  C   UNL d   1       1.416  -4.135   0.098  0.00  0.00     0.172 C 
ATOM      2  N   UNL d   1       0.950  -2.792   0.354  0.00  0.00    -0.070 N 
ATOM      3  C1  UNL d   1      -0.359  -2.388   0.354  0.00  0.00    -0.004 A 
ATOM      4  C2  UNL d   1      -0.384  -1.041   0.641  0.00  0.00    -0.047 A 
ATOM      5  C3  UNL d   1       0.955  -0.620   0.820  0.00  0.00    -0.047 A 
ATOM      6  C4  UNL d   1       1.760  -1.725   0.637  0.00  0.00    -0.004 A 
ENDROOT
TORSDOF 0
ENDMDL
