MODEL 1
REMARK minimizedAffinity -3.50684237
REMARK minimizedRMSD -1
REMARK  0 active torsions:
REMARK  status: ('A' for Active; 'I' for Inactive)
ROOT
ATOM      1  C   UNL d   1       2.273  -3.934  -0.046  0.00  0.00     0.172 C 
ATOM      2  N   UNL d   1       1.225  -2.985   0.249  0.00  0.00    -0.070 N 
ATOM      3  C1  UNL d   1       1.372  -1.624   0.297  0.00  0.00    -0.004 A 
ATOM      4  C2  UNL d   1       0.145  -1.078   0.607  0.00  0.00    -0.047 A 
ATOM      5  C3  UNL d   1      -0.770  -2.148   0.752  0.00  0.00    -0.047 A 
ATOM      6  C4  UNL d   1      -0.075  -3.317   0.525  0.00  0.00    -0.004 A 
ENDROOT
TORSDOF 0
ENDMDL
