MODEL 1
REMARK minimizedAffinity -0.933795691
REMARK minimizedRMSD -1
REMARK  0 active torsions:
REMARK  status: ('A' for Active; 'I' for Inactive)
ROOT
ATOM      1  C   UNL d   1      -0.194  -0.517   1.172  0.00  0.00     0.172 C 
ATOM      2  N   UNL d   1       0.748  -1.553   0.821  0.00  0.00    -0.070 N 
ATOM      3  C1  UNL d   1       0.475  -2.894   0.762  0.00  0.00    -0.004 A 
ATOM      4  C2  UNL d   1       1.632  -3.544   0.391  0.00  0.00    -0.047 A 
ATOM      5  C3  UNL d   1       2.635  -2.560   0.222  0.00  0.00    -0.047 A 
ATOM      6  C4  UNL d   1       2.061  -1.337   0.494  0.00  0.00    -0.004 A 
ENDROOT
TORSDOF 0
ENDMDL
