MODEL 1
REMARK minimizedAffinity -1.73355043
REMARK minimizedRMSD -1
REMARK  0 active torsions:
REMARK  status: ('A' for Active; 'I' for Inactive)
ROOT
ATOM      1  C   UNL d   1       2.597  -4.136   0.027  0.00  0.00     0.172 C 
ATOM      2  N   UNL d   1       1.469  -3.276   0.294  0.00  0.00    -0.070 N 
ATOM      3  C1  UNL d   1       0.151  -3.624   0.164  0.00  0.00    -0.004 A 
ATOM      4  C2  UNL d   1      -0.611  -2.529   0.512  0.00  0.00    -0.047 A 
ATOM      5  C3  UNL d   1       0.280  -1.487   0.861  0.00  0.00    -0.047 A 
ATOM      6  C4  UNL d   1       1.561  -1.976   0.717  0.00  0.00    -0.004 A 
ENDROOT
TORSDOF 0
ENDMDL
