MODEL 1
REMARK minimizedAffinity -3.40386868
REMARK minimizedRMSD -1
REMARK  0 active torsions:
REMARK  status: ('A' for Active; 'I' for Inactive)
ROOT
ATOM      1  C   UNL d   1       1.942  -3.853   0.091  0.00  0.00     0.172 C 
ATOM      2  N   UNL d   1       1.200  -2.619   0.199  0.00  0.00    -0.070 N 
ATOM      3  C1  UNL d   1      -0.118  -2.449  -0.129  0.00  0.00    -0.004 A 
ATOM      4  C2  UNL d   1      -0.448  -1.134   0.116  0.00  0.00    -0.047 A 
ATOM      5  C3  UNL d   1       0.712  -0.491   0.607  0.00  0.00    -0.047 A 
ATOM      6  C4  UNL d   1       1.718  -1.433   0.648  0.00  0.00    -0.004 A 
ENDROOT
TORSDOF 0
ENDMDL
