MODEL 1
REMARK minimizedAffinity -1.67239094
REMARK minimizedRMSD -1
REMARK  0 active torsions:
REMARK  status: ('A' for Active; 'I' for Inactive)
ROOT
ATOM      1  C   UNL d   1      -0.582  -1.154   1.188  0.00  0.00     0.172 C 
ATOM      2  N   UNL d   1       0.407  -2.038   0.617  0.00  0.00    -0.070 N 
ATOM      3  C1  UNL d   1       0.296  -3.399   0.513  0.00  0.00    -0.004 A 
ATOM      4  C2  UNL d   1       1.444  -3.871  -0.086  0.00  0.00    -0.047 A 
ATOM      5  C3  UNL d   1       2.274  -2.756  -0.350  0.00  0.00    -0.047 A 
ATOM      6  C4  UNL d   1       1.608  -1.634   0.095  0.00  0.00    -0.004 A 
ENDROOT
TORSDOF 0
ENDMDL
