MODEL 1
REMARK minimizedAffinity 0.699402988
REMARK minimizedRMSD -1
REMARK  0 active torsions:
REMARK  status: ('A' for Active; 'I' for Inactive)
ROOT
ATOM      1  C   UNL d   1       2.603   1.250  -3.051  0.00  0.00     0.172 C 
ATOM      2  N   UNL d   1       2.853   2.223  -2.014  0.00  0.00    -0.070 N 
ATOM      3  C1  UNL d   1       3.863   2.165  -1.091  0.00  0.00    -0.004 A 
ATOM      4  C2  UNL d   1       3.760   3.276  -0.282  0.00  0.00    -0.047 A 
ATOM      5  C3  UNL d   1       2.649   4.027  -0.733  0.00  0.00    -0.047 A 
ATOM      6  C4  UNL d   1       2.106   3.353  -1.806  0.00  0.00    -0.004 A 
ENDROOT
TORSDOF 0
ENDMDL
