MODEL 1
REMARK minimizedAffinity -0.253542066
REMARK minimizedRMSD -1
REMARK  0 active torsions:
REMARK  status: ('A' for Active; 'I' for Inactive)
ROOT
ATOM      1  C   UNL d   1       4.096  -5.464  -0.206  0.00  0.00     0.172 C 
ATOM      2  N   UNL d   1       3.226  -4.322  -0.048  0.00  0.00    -0.070 N 
ATOM      3  C1  UNL d   1       1.873  -4.371   0.158  0.00  0.00    -0.004 A 
ATOM      4  C2  UNL d   1       1.414  -3.076   0.257  0.00  0.00    -0.047 A 
ATOM      5  C3  UNL d   1       2.529  -2.218   0.105  0.00  0.00    -0.047 A 
ATOM      6  C4  UNL d   1       3.638  -3.016  -0.083  0.00  0.00    -0.004 A 
ENDROOT
TORSDOF 0
ENDMDL
