MODEL 1
REMARK minimizedAffinity -2.93010139
REMARK minimizedRMSD -1
REMARK  0 active torsions:
REMARK  status: ('A' for Active; 'I' for Inactive)
ROOT
ATOM      1  C   UNL d   1      -0.906  -0.791   0.250  0.00  0.00     0.172 C 
ATOM      2  N   UNL d   1       0.226  -1.669   0.073  0.00  0.00    -0.070 N 
ATOM      3  C1  UNL d   1       0.164  -3.020  -0.140  0.00  0.00    -0.004 A 
ATOM      4  C2  UNL d   1       1.454  -3.489  -0.259  0.00  0.00    -0.047 A 
ATOM      5  C3  UNL d   1       2.323  -2.382  -0.111  0.00  0.00    -0.047 A 
ATOM      6  C4  UNL d   1       1.536  -1.268   0.093  0.00  0.00    -0.004 A 
ENDROOT
TORSDOF 0
ENDMDL
