MODEL 1
REMARK minimizedAffinity 6.05326939
REMARK minimizedRMSD -1
REMARK  0 active torsions:
REMARK  status: ('A' for Active; 'I' for Inactive)
ROOT
ATOM      1  C   UNL d   1      -3.031   2.311   3.784  0.00  0.00     0.172 C 
ATOM      2  N   UNL d   1      -1.984   1.317   3.824  0.00  0.00    -0.070 N 
ATOM      3  C1  UNL d   1      -1.545   0.666   4.945  0.00  0.00    -0.004 A 
ATOM      4  C2  UNL d   1      -0.541  -0.199   4.565  0.00  0.00    -0.047 A 
ATOM      5  C3  UNL d   1      -0.372  -0.062   3.167  0.00  0.00    -0.047 A 
ATOM      6  C4  UNL d   1      -1.278   0.883   2.734  0.00  0.00    -0.004 A 
ENDROOT
TORSDOF 0
ENDMDL
