MODEL 1
REMARK minimizedAffinity -0.950497329
REMARK minimizedRMSD -1
REMARK  0 active torsions:
REMARK  status: ('A' for Active; 'I' for Inactive)
ROOT
ATOM      1  O1  BZF d   1      -4.924  -4.730   4.537  0.00  0.00    -0.204 OA
ATOM      2  C2  BZF d   1      -5.535  -3.528   4.838  0.00  0.00     0.174 A 
ATOM      3  C3  BZF d   1      -6.000  -2.934   3.720  0.00  0.00    -0.012 A 
ATOM      4  C3A BZF d   1      -5.739  -3.864   2.664  0.00  0.00    -0.107 A 
ATOM      5  C4  BZF d   1      -5.984  -3.852   1.321  0.00  0.00     0.055 A 
ATOM      6  C5  BZF d   1      -5.538  -4.885   0.558  0.00  0.00    -0.016 A 
ATOM      7  C6  BZF d   1      -4.839  -5.941   1.105  0.00  0.00     0.022 A 
ATOM      8  C7  BZF d   1      -4.576  -6.000   2.433  0.00  0.00     0.029 A 
ATOM      9  C7A BZF d   1      -5.055  -4.974   3.211  0.00  0.00     0.058 A 
ENDROOT
TORSDOF 0
ENDMDL
