MODEL 1
REMARK minimizedAffinity 19.6264057
REMARK minimizedRMSD -1
REMARK  0 active torsions:
REMARK  status: ('A' for Active; 'I' for Inactive)
ROOT
ATOM      1  O1  BZF d   1      -5.874  -0.711   3.377  0.00  0.00    -0.204 OA
ATOM      2  C2  BZF d   1      -6.000  -1.715   2.436  0.00  0.00     0.174 A 
ATOM      3  C3  BZF d   1      -4.951  -1.710   1.588  0.00  0.00    -0.012 A 
ATOM      4  C3A BZF d   1      -4.072  -0.695   2.083  0.00  0.00    -0.107 A 
ATOM      5  C4  BZF d   1      -2.855  -0.226   1.676  0.00  0.00     0.055 A 
ATOM      6  C5  BZF d   1      -2.298   0.824   2.335  0.00  0.00    -0.016 A 
ATOM      7  C6  BZF d   1      -2.931   1.432   3.399  0.00  0.00     0.022 A 
ATOM      8  C7  BZF d   1      -4.137   0.999   3.842  0.00  0.00     0.029 A 
ATOM      9  C7A BZF d   1      -4.687  -0.083   3.199  0.00  0.00     0.058 A 
ENDROOT
TORSDOF 0
ENDMDL
