MODEL 1
REMARK minimizedAffinity 15.0601273
REMARK minimizedRMSD -1
REMARK  0 active torsions:
REMARK  status: ('A' for Active; 'I' for Inactive)
ROOT
ATOM      1  O1  BZF d   1       2.438   1.339  -1.949  0.00  0.00    -0.204 OA
ATOM      2  C2  BZF d   1       3.388   1.813  -1.065  0.00  0.00     0.174 A 
ATOM      3  C3  BZF d   1       3.824   0.825  -0.257  0.00  0.00    -0.012 A 
ATOM      4  C3A BZF d   1       3.169  -0.359  -0.722  0.00  0.00    -0.107 A 
ATOM      5  C4  BZF d   1       3.206  -1.667  -0.333  0.00  0.00     0.055 A 
ATOM      6  C5  BZF d   1       2.390  -2.563  -0.948  0.00  0.00    -0.016 A 
ATOM      7  C6  BZF d   1       1.522  -2.184  -1.951  0.00  0.00     0.022 A 
ATOM      8  C7  BZF d   1       1.453  -0.899  -2.375  0.00  0.00     0.029 A 
ATOM      9  C7A BZF d   1       2.300   0.002  -1.778  0.00  0.00     0.058 A 
ENDROOT
TORSDOF 0
ENDMDL
