MODEL 1
REMARK minimizedAffinity 13.7799873
REMARK minimizedRMSD -1
REMARK  0 active torsions:
REMARK  status: ('A' for Active; 'I' for Inactive)
ROOT
ATOM      1  O1  BZF d   1       4.436  -3.410   0.228  0.00  0.00    -0.204 OA
ATOM      2  C2  BZF d   1       4.763  -4.701  -0.141  0.00  0.00     0.174 A 
ATOM      3  C3  BZF d   1       3.942  -5.144  -1.114  0.00  0.00    -0.012 A 
ATOM      4  C3A BZF d   1       3.104  -4.029  -1.435  0.00  0.00    -0.107 A 
ATOM      5  C4  BZF d   1       2.096  -3.842  -2.338  0.00  0.00     0.055 A 
ATOM      6  C5  BZF d   1       1.431  -2.656  -2.348  0.00  0.00    -0.016 A 
ATOM      7  C6  BZF d   1       1.744  -1.641  -1.468  0.00  0.00     0.022 A 
ATOM      8  C7  BZF d   1       2.739  -1.779  -0.558  0.00  0.00     0.029 A 
ATOM      9  C7A BZF d   1       3.434  -2.963  -0.568  0.00  0.00     0.058 A 
ENDROOT
TORSDOF 0
ENDMDL
