MODEL 1
REMARK minimizedAffinity 10.1882467
REMARK minimizedRMSD -1
REMARK  0 active torsions:
REMARK  status: ('A' for Active; 'I' for Inactive)
ROOT
ATOM      1  O1  BZF d   1       3.908  -3.232   0.310  0.00  0.00    -0.204 OA
ATOM      2  C2  BZF d   1       4.074  -4.507  -0.196  0.00  0.00     0.174 A 
ATOM      3  C3  BZF d   1       3.446  -4.637  -1.382  0.00  0.00    -0.012 A 
ATOM      4  C3A BZF d   1       2.929  -3.336  -1.679  0.00  0.00    -0.107 A 
ATOM      5  C4  BZF d   1       2.222  -2.824  -2.729  0.00  0.00     0.055 A 
ATOM      6  C5  BZF d   1       1.807  -1.531  -2.677  0.00  0.00    -0.016 A 
ATOM      7  C6  BZF d   1       2.077  -0.724  -1.591  0.00  0.00     0.022 A 
ATOM      8  C7  BZF d   1       2.780  -1.186  -0.528  0.00  0.00     0.029 A 
ATOM      9  C7A BZF d   1       3.229  -2.483  -0.592  0.00  0.00     0.058 A 
ENDROOT
TORSDOF 0
ENDMDL
