MODEL 1
REMARK minimizedAffinity 14.8747864
REMARK minimizedRMSD -1
REMARK  0 active torsions:
REMARK  status: ('A' for Active; 'I' for Inactive)
ROOT
ATOM      1  O1  BZF d   1       3.882  -2.690   0.306  0.00  0.00    -0.204 OA
ATOM      2  C2  BZF d   1       4.214  -3.853  -0.361  0.00  0.00     0.174 A 
ATOM      3  C3  BZF d   1       3.527  -3.954  -1.517  0.00  0.00    -0.012 A 
ATOM      4  C3A BZF d   1       2.784  -2.735  -1.621  0.00  0.00    -0.107 A 
ATOM      5  C4  BZF d   1       1.924  -2.237  -2.557  0.00  0.00     0.055 A 
ATOM      6  C5  BZF d   1       1.309  -1.048  -2.323  0.00  0.00    -0.016 A 
ATOM      7  C6  BZF d   1       1.527  -0.334  -1.162  0.00  0.00     0.022 A 
ATOM      8  C7  BZF d   1       2.375  -0.786  -0.206  0.00  0.00     0.029 A 
ATOM      9  C7A BZF d   1       3.023  -1.971  -0.455  0.00  0.00     0.058 A 
ENDROOT
TORSDOF 0
ENDMDL
