MODEL 1
REMARK minimizedAffinity 8.14797974
REMARK minimizedRMSD -1
REMARK  0 active torsions:
REMARK  status: ('A' for Active; 'I' for Inactive)
ROOT
ATOM      1  O1  BZF d   1       4.867  -3.516  -5.197  0.00  0.00    -0.204 OA
ATOM      2  C2  BZF d   1       5.986  -4.196  -4.756  0.00  0.00     0.174 A 
ATOM      3  C3  BZF d   1       5.740  -4.810  -3.580  0.00  0.00    -0.012 A 
ATOM      4  C3A BZF d   1       4.355  -4.570  -3.313  0.00  0.00    -0.107 A 
ATOM      5  C4  BZF d   1       3.516  -4.939  -2.300  0.00  0.00     0.055 A 
ATOM      6  C5  BZF d   1       2.238  -4.479  -2.301  0.00  0.00    -0.016 A 
ATOM      7  C6  BZF d   1       1.766  -3.646  -3.295  0.00  0.00     0.022 A 
ATOM      8  C7  BZF d   1       2.559  -3.258  -4.323  0.00  0.00     0.029 A 
ATOM      9  C7A BZF d   1       3.842  -3.747  -4.343  0.00  0.00     0.058 A 
ENDROOT
TORSDOF 0
ENDMDL
