MODEL 1
REMARK minimizedAffinity 1.23657608
REMARK minimizedRMSD -1
REMARK  0 active torsions:
REMARK  status: ('A' for Active; 'I' for Inactive)
ROOT
ATOM      1  O1  BZF d   1       5.050  -4.868  -0.950  0.00  0.00    -0.204 OA
ATOM      2  C2  BZF d   1       4.488  -4.632   0.290  0.00  0.00     0.174 A 
ATOM      3  C3  BZF d   1       3.249  -4.114   0.163  0.00  0.00    -0.012 A 
ATOM      4  C3A BZF d   1       2.987  -4.106  -1.243  0.00  0.00    -0.107 A 
ATOM      5  C4  BZF d   1       1.914  -3.721  -1.996  0.00  0.00     0.055 A 
ATOM      6  C5  BZF d   1       2.006  -3.773  -3.351  0.00  0.00    -0.016 A 
ATOM      7  C6  BZF d   1       3.154  -4.199  -3.985  0.00  0.00     0.022 A 
ATOM      8  C7  BZF d   1       4.242  -4.596  -3.281  0.00  0.00     0.029 A 
ATOM      9  C7A BZF d   1       4.141  -4.576  -1.911  0.00  0.00     0.058 A 
ENDROOT
TORSDOF 0
ENDMDL
