MODEL 1
REMARK minimizedAffinity 9.9463377
REMARK minimizedRMSD -1
REMARK  0 active torsions:
REMARK  status: ('A' for Active; 'I' for Inactive)
ROOT
ATOM      1  O1  BZF d   1       0.292   0.397   3.894  0.00  0.00    -0.204 OA
ATOM      2  C2  BZF d   1       0.446   1.295   4.932  0.00  0.00     0.174 A 
ATOM      3  C3  BZF d   1      -0.686   2.003   5.124  0.00  0.00    -0.012 A 
ATOM      4  C3A BZF d   1      -1.634   1.453   4.205  0.00  0.00    -0.107 A 
ATOM      5  C4  BZF d   1      -2.944   1.726   3.931  0.00  0.00     0.055 A 
ATOM      6  C5  BZF d   1      -3.562   1.056   2.923  0.00  0.00    -0.016 A 
ATOM      7  C6  BZF d   1      -2.900   0.111   2.167  0.00  0.00     0.022 A 
ATOM      8  C7  BZF d   1      -1.602  -0.198   2.404  0.00  0.00     0.029 A 
ATOM      9  C7A BZF d   1      -0.984   0.455   3.443  0.00  0.00     0.058 A 
ENDROOT
TORSDOF 0
ENDMDL
