MODEL 1
REMARK minimizedAffinity 1.40023613
REMARK minimizedRMSD -1
REMARK  0 active torsions:
REMARK  status: ('A' for Active; 'I' for Inactive)
ROOT
ATOM      1  O1  BZF d   1       4.059  -2.362   0.225  0.00  0.00    -0.204 OA
ATOM      2  C2  BZF d   1       3.310  -1.235  -0.052  0.00  0.00     0.174 A 
ATOM      3  C3  BZF d   1       2.616  -1.392  -1.198  0.00  0.00    -0.012 A 
ATOM      4  C3A BZF d   1       2.880  -2.734  -1.618  0.00  0.00    -0.107 A 
ATOM      5  C4  BZF d   1       2.463  -3.485  -2.679  0.00  0.00     0.055 A 
ATOM      6  C5  BZF d   1       2.964  -4.738  -2.839  0.00  0.00    -0.016 A 
ATOM      7  C6  BZF d   1       3.886  -5.269  -1.961  0.00  0.00     0.022 A 
ATOM      8  C7  BZF d   1       4.326  -4.564  -0.890  0.00  0.00     0.029 A 
ATOM      9  C7A BZF d   1       3.797  -3.309  -0.708  0.00  0.00     0.058 A 
ENDROOT
TORSDOF 0
ENDMDL
