MODEL 1
REMARK minimizedAffinity 9.15702724
REMARK minimizedRMSD -1
REMARK  0 active torsions:
REMARK  status: ('A' for Active; 'I' for Inactive)
ROOT
ATOM      1  O1  BZF d   1       1.818   1.976  -1.915  0.00  0.00    -0.204 OA
ATOM      2  C2  BZF d   1       2.174   2.391  -0.646  0.00  0.00     0.174 A 
ATOM      3  C3  BZF d   1       2.333   1.334   0.176  0.00  0.00    -0.012 A 
ATOM      4  C3A BZF d   1       2.151   0.182  -0.653  0.00  0.00    -0.107 A 
ATOM      5  C4  BZF d   1       2.202  -1.162  -0.417  0.00  0.00     0.055 A 
ATOM      6  C5  BZF d   1       1.904  -2.022  -1.427  0.00  0.00    -0.016 A 
ATOM      7  C6  BZF d   1       1.546  -1.572  -2.681  0.00  0.00     0.022 A 
ATOM      8  C7  BZF d   1       1.487  -0.248  -2.965  0.00  0.00     0.029 A 
ATOM      9  C7A BZF d   1       1.820   0.622  -1.956  0.00  0.00     0.058 A 
ENDROOT
TORSDOF 0
ENDMDL
