MODEL 1
REMARK minimizedAffinity 13.9350748
REMARK minimizedRMSD -1
REMARK  0 active torsions:
REMARK  status: ('A' for Active; 'I' for Inactive)
ROOT
ATOM      1  O1  BZF d   1       2.961  -5.547  -3.716  0.00  0.00    -0.204 OA
ATOM      2  C2  BZF d   1       1.891  -4.769  -3.317  0.00  0.00     0.174 A 
ATOM      3  C3  BZF d   1       2.151  -4.166  -2.139  0.00  0.00    -0.012 A 
ATOM      4  C3A BZF d   1       3.501  -4.519  -1.825  0.00  0.00    -0.107 A 
ATOM      5  C4  BZF d   1       4.335  -4.212  -0.788  0.00  0.00     0.055 A 
ATOM      6  C5  BZF d   1       5.569  -4.779  -0.743  0.00  0.00    -0.016 A 
ATOM      7  C6  BZF d   1       6.000  -5.659  -1.713  0.00  0.00     0.022 A 
ATOM      8  C7  BZF d   1       5.210  -5.990  -2.764  0.00  0.00     0.029 A 
ATOM      9  C7A BZF d   1       3.975  -5.394  -2.830  0.00  0.00     0.058 A 
ENDROOT
TORSDOF 0
ENDMDL
