MODEL 1
REMARK minimizedAffinity 1.93508327
REMARK minimizedRMSD -1
REMARK  0 active torsions:
REMARK  status: ('A' for Active; 'I' for Inactive)
ROOT
ATOM      1  O1  BZF d   1       4.822  -4.536  -0.527  0.00  0.00    -0.204 OA
ATOM      2  C2  BZF d   1       4.174  -3.774   0.426  0.00  0.00     0.174 A 
ATOM      3  C3  BZF d   1       3.215  -3.013  -0.141  0.00  0.00    -0.012 A 
ATOM      4  C3A BZF d   1       3.207  -3.387  -1.523  0.00  0.00    -0.107 A 
ATOM      5  C4  BZF d   1       2.462  -2.992  -2.597  0.00  0.00     0.055 A 
ATOM      6  C5  BZF d   1       2.753  -3.498  -3.824  0.00  0.00    -0.016 A 
ATOM      7  C6  BZF d   1       3.784  -4.395  -4.014  0.00  0.00     0.022 A 
ATOM      8  C7  BZF d   1       4.547  -4.821  -2.977  0.00  0.00     0.029 A 
ATOM      9  C7A BZF d   1       4.234  -4.336  -1.731  0.00  0.00     0.058 A 
ENDROOT
TORSDOF 0
ENDMDL
