MODEL 1
REMARK minimizedAffinity 9.75395298
REMARK minimizedRMSD -1
REMARK  0 active torsions:
REMARK  status: ('A' for Active; 'I' for Inactive)
ROOT
ATOM      1  O1  BZF d   1       1.596   0.536  -3.579  0.00  0.00    -0.204 OA
ATOM      2  C2  BZF d   1       1.716   1.565  -2.665  0.00  0.00     0.174 A 
ATOM      3  C3  BZF d   1       2.066   1.090  -1.453  0.00  0.00    -0.012 A 
ATOM      4  C3A BZF d   1       2.261  -0.314  -1.640  0.00  0.00    -0.107 A 
ATOM      5  C4  BZF d   1       2.632  -1.330  -0.807  0.00  0.00     0.055 A 
ATOM      6  C5  BZF d   1       2.658  -2.602  -1.286  0.00  0.00    -0.016 A 
ATOM      7  C6  BZF d   1       2.313  -2.894  -2.589  0.00  0.00     0.022 A 
ATOM      8  C7  BZF d   1       1.942  -1.919  -3.455  0.00  0.00     0.029 A 
ATOM      9  C7A BZF d   1       1.948  -0.629  -2.983  0.00  0.00     0.058 A 
ENDROOT
TORSDOF 0
ENDMDL
