MODEL 1
REMARK minimizedAffinity 14.7167149
REMARK minimizedRMSD -1
REMARK  0 active torsions:
REMARK  status: ('A' for Active; 'I' for Inactive)
ROOT
ATOM      1  O1  BZF d   1      -3.277  -1.700   5.387  0.00  0.00    -0.204 OA
ATOM      2  C2  BZF d   1      -3.502  -2.535   4.310  0.00  0.00     0.174 A 
ATOM      3  C3  BZF d   1      -3.678  -1.821   3.179  0.00  0.00    -0.012 A 
ATOM      4  C3A BZF d   1      -3.463  -0.458   3.558  0.00  0.00    -0.107 A 
ATOM      5  C4  BZF d   1      -3.482   0.722   2.871  0.00  0.00     0.055 A 
ATOM      6  C5  BZF d   1      -3.303   1.885   3.550  0.00  0.00    -0.016 A 
ATOM      7  C6  BZF d   1      -3.108   1.906   4.916  0.00  0.00     0.022 A 
ATOM      8  C7  BZF d   1      -3.076   0.761   5.640  0.00  0.00     0.029 A 
ATOM      9  C7A BZF d   1      -3.224  -0.419   4.952  0.00  0.00     0.058 A 
ENDROOT
TORSDOF 0
ENDMDL
