MODEL 1
REMARK minimizedAffinity 8.26590538
REMARK minimizedRMSD -1
REMARK  0 active torsions:
REMARK  status: ('A' for Active; 'I' for Inactive)
ROOT
ATOM      1  O1  BZF d   1      -3.402   1.088   2.709  0.00  0.00    -0.204 OA
ATOM      2  C2  BZF d   1      -3.092   1.861   3.811  0.00  0.00     0.174 A 
ATOM      3  C3  BZF d   1      -3.241   1.152   4.949  0.00  0.00    -0.012 A 
ATOM      4  C3A BZF d   1      -3.581  -0.172   4.527  0.00  0.00    -0.107 A 
ATOM      5  C4  BZF d   1      -3.839  -1.334   5.196  0.00  0.00     0.055 A 
ATOM      6  C5  BZF d   1      -4.212  -2.434   4.491  0.00  0.00    -0.016 A 
ATOM      7  C6  BZF d   1      -4.342  -2.406   3.118  0.00  0.00     0.022 A 
ATOM      8  C7  BZF d   1      -4.092  -1.278   2.409  0.00  0.00     0.029 A 
ATOM      9  C7A BZF d   1      -3.683  -0.173   3.116  0.00  0.00     0.058 A 
ENDROOT
TORSDOF 0
ENDMDL
