MODEL 1
REMARK minimizedAffinity 17.475832
REMARK minimizedRMSD -1
REMARK  0 active torsions:
REMARK  status: ('A' for Active; 'I' for Inactive)
ROOT
ATOM      1  O1  BZF d   1       1.533   2.489  -3.048  0.00  0.00    -0.204 OA
ATOM      2  C2  BZF d   1       1.914   1.355  -2.356  0.00  0.00     0.174 A 
ATOM      3  C3  BZF d   1       2.047   1.620  -1.041  0.00  0.00    -0.012 A 
ATOM      4  C3A BZF d   1       1.641   2.983  -0.888  0.00  0.00    -0.107 A 
ATOM      5  C4  BZF d   1       1.539   3.817   0.189  0.00  0.00     0.055 A 
ATOM      6  C5  BZF d   1       1.180   5.113  -0.011  0.00  0.00    -0.016 A 
ATOM      7  C6  BZF d   1       0.922   5.608  -1.272  0.00  0.00     0.022 A 
ATOM      8  C7  BZF d   1       1.005   4.818  -2.370  0.00  0.00     0.029 A 
ATOM      9  C7A BZF d   1       1.335   3.500  -2.168  0.00  0.00     0.058 A 
ENDROOT
TORSDOF 0
ENDMDL
