MODEL 1
REMARK minimizedAffinity 11.6734934
REMARK minimizedRMSD -1
REMARK  0 active torsions:
REMARK  status: ('A' for Active; 'I' for Inactive)
ROOT
ATOM      1  O1  BZF d   1       1.475   1.060   4.531  0.00  0.00    -0.204 OA
ATOM      2  C2  BZF d   1       1.250   1.463   5.832  0.00  0.00     0.174 A 
ATOM      3  C3  BZF d   1      -0.032   1.848   5.999  0.00  0.00    -0.012 A 
ATOM      4  C3A BZF d   1      -0.670   1.587   4.746  0.00  0.00    -0.107 A 
ATOM      5  C4  BZF d   1      -1.948   1.745   4.292  0.00  0.00     0.055 A 
ATOM      6  C5  BZF d   1      -2.227   1.462   2.992  0.00  0.00    -0.016 A 
ATOM      7  C6  BZF d   1      -1.252   1.026   2.118  0.00  0.00     0.022 A 
ATOM      8  C7  BZF d   1       0.029   0.850   2.524  0.00  0.00     0.029 A 
ATOM      9  C7A BZF d   1       0.307   1.103   3.845  0.00  0.00     0.058 A 
ENDROOT
TORSDOF 0
ENDMDL
