MODEL 1
REMARK minimizedAffinity 23.3988819
REMARK minimizedRMSD -1
REMARK  0 active torsions:
REMARK  status: ('A' for Active; 'I' for Inactive)
ROOT
ATOM      1  O1  BZF d   1      -1.836   1.191   2.188  0.00  0.00    -0.204 OA
ATOM      2  C2  BZF d   1      -3.019   1.612   2.765  0.00  0.00     0.174 A 
ATOM      3  C3  BZF d   1      -2.806   2.060   4.019  0.00  0.00    -0.012 A 
ATOM      4  C3A BZF d   1      -1.389   1.996   4.207  0.00  0.00    -0.107 A 
ATOM      5  C4  BZF d   1      -0.564   2.321   5.245  0.00  0.00     0.055 A 
ATOM      6  C5  BZF d   1       0.767   2.068   5.135  0.00  0.00    -0.016 A 
ATOM      7  C6  BZF d   1       1.305   1.488   4.005  0.00  0.00     0.022 A 
ATOM      8  C7  BZF d   1       0.526   1.153   2.947  0.00  0.00     0.029 A 
ATOM      9  C7A BZF d   1      -0.814   1.437   3.042  0.00  0.00     0.058 A 
ENDROOT
TORSDOF 0
ENDMDL
