MODEL 1
REMARK minimizedAffinity 5.83785486
REMARK minimizedRMSD -1
REMARK  0 active torsions:
REMARK  status: ('A' for Active; 'I' for Inactive)
ROOT
ATOM      1  O1  BZF d   1       3.120   0.672  -0.075  0.00  0.00    -0.204 OA
ATOM      2  C2  BZF d   1       3.328   1.129  -1.362  0.00  0.00     0.174 A 
ATOM      3  C3  BZF d   1       2.163   1.490  -1.936  0.00  0.00    -0.012 A 
ATOM      4  C3A BZF d   1       1.174   1.330  -0.914  0.00  0.00    -0.107 A 
ATOM      5  C4  BZF d   1      -0.174   1.544  -0.870  0.00  0.00     0.055 A 
ATOM      6  C5  BZF d   1      -0.857   1.219   0.259  0.00  0.00    -0.016 A 
ATOM      7  C6  BZF d   1      -0.227   0.673   1.358  0.00  0.00     0.022 A 
ATOM      8  C7  BZF d   1       1.109   0.447   1.363  0.00  0.00     0.029 A 
ATOM      9  C7A BZF d   1       1.808   0.805   0.236  0.00  0.00     0.058 A 
ENDROOT
TORSDOF 0
ENDMDL
