MODEL 1
REMARK minimizedAffinity -5.67463636
REMARK minimizedRMSD -1
REMARK  0 active torsions:
REMARK  status: ('A' for Active; 'I' for Inactive)
ROOT
ATOM      1  O1  BZF d   1       0.938  -2.516  -1.289  0.00  0.00    -0.204 OA
ATOM      2  C2  BZF d   1       1.773  -2.607  -2.386  0.00  0.00     0.174 A 
ATOM      3  C3  BZF d   1       2.161  -1.381  -2.794  0.00  0.00    -0.012 A 
ATOM      4  C3A BZF d   1       1.602  -0.472  -1.841  0.00  0.00    -0.107 A 
ATOM      5  C4  BZF d   1       1.649   0.885  -1.699  0.00  0.00     0.055 A 
ATOM      6  C5  BZF d   1       0.935   1.470  -0.701  0.00  0.00    -0.016 A 
ATOM      7  C6  BZF d   1       0.161   0.729   0.168  0.00  0.00     0.022 A 
ATOM      8  C7  BZF d   1       0.087  -0.621   0.069  0.00  0.00     0.029 A 
ATOM      9  C7A BZF d   1       0.834  -1.217  -0.917  0.00  0.00     0.058 A 
ENDROOT
TORSDOF 0
ENDMDL
