MODEL 1
REMARK minimizedAffinity -5.87140799
REMARK minimizedRMSD -1
REMARK  0 active torsions:
REMARK  status: ('A' for Active; 'I' for Inactive)
ROOT
ATOM      1  O1  BZF d   1       0.081  -0.952   0.445  0.00  0.00    -0.204 OA
ATOM      2  C2  BZF d   1      -0.031   0.368   0.837  0.00  0.00     0.174 A 
ATOM      3  C3  BZF d   1       0.573   1.184  -0.051  0.00  0.00    -0.012 A 
ATOM      4  C3A BZF d   1       1.016   0.327  -1.108  0.00  0.00    -0.107 A 
ATOM      5  C4  BZF d   1       1.670   0.551  -2.286  0.00  0.00     0.055 A 
ATOM      6  C5  BZF d   1       2.019  -0.511  -3.059  0.00  0.00    -0.016 A 
ATOM      7  C6  BZF d   1       1.735  -1.807  -2.684  0.00  0.00     0.022 A 
ATOM      8  C7  BZF d   1       1.083  -2.079  -1.527  0.00  0.00     0.029 A 
ATOM      9  C7A BZF d   1       0.700  -1.006  -0.759  0.00  0.00     0.058 A 
ENDROOT
TORSDOF 0
ENDMDL
