MODEL 1
REMARK minimizedAffinity -2.81355572
REMARK minimizedRMSD -1
REMARK  0 active torsions:
REMARK  status: ('A' for Active; 'I' for Inactive)
ROOT
ATOM      1  O1  BZF d   1      -2.181   0.190   2.064  0.00  0.00    -0.204 OA
ATOM      2  C2  BZF d   1      -3.348   0.087   1.332  0.00  0.00     0.174 A 
ATOM      3  C3  BZF d   1      -3.125   0.373   0.033  0.00  0.00    -0.012 A 
ATOM      4  C3A BZF d   1      -1.713   0.582  -0.069  0.00  0.00    -0.107 A 
ATOM      5  C4  BZF d   1      -0.882   0.882  -1.110  0.00  0.00     0.055 A 
ATOM      6  C5  BZF d   1       0.438   1.092  -0.861  0.00  0.00    -0.016 A 
ATOM      7  C6  BZF d   1       0.958   1.014   0.414  0.00  0.00     0.022 A 
ATOM      8  C7  BZF d   1       0.173   0.714   1.477  0.00  0.00     0.029 A 
ATOM      9  C7A BZF d   1      -1.155   0.469   1.225  0.00  0.00     0.058 A 
ENDROOT
TORSDOF 0
ENDMDL
