MODEL 1
REMARK minimizedAffinity -5.56885672
REMARK minimizedRMSD -1
REMARK  0 active torsions:
REMARK  status: ('A' for Active; 'I' for Inactive)
ROOT
ATOM      1  O1  BZF d   1       0.021  -1.212   0.075  0.00  0.00    -0.204 OA
ATOM      2  C2  BZF d   1      -0.213   0.002   0.692  0.00  0.00     0.174 A 
ATOM      3  C3  BZF d   1       0.409   1.001   0.033  0.00  0.00    -0.012 A 
ATOM      4  C3A BZF d   1       0.997   0.385  -1.116  0.00  0.00    -0.107 A 
ATOM      5  C4  BZF d   1       1.734   0.861  -2.163  0.00  0.00     0.055 A 
ATOM      6  C5  BZF d   1       2.219  -0.015  -3.082  0.00  0.00    -0.016 A 
ATOM      7  C6  BZF d   1       1.991  -1.372  -2.982  0.00  0.00     0.022 A 
ATOM      8  C7  BZF d   1       1.262  -1.891  -1.964  0.00  0.00     0.029 A 
ATOM      9  C7A BZF d   1       0.743  -1.005  -1.052  0.00  0.00     0.058 A 
ENDROOT
TORSDOF 0
ENDMDL
