MODEL 1
REMARK minimizedAffinity -1.61810315
REMARK minimizedRMSD -1
REMARK  0 active torsions:
REMARK  status: ('A' for Active; 'I' for Inactive)
ROOT
ATOM      1  O1  BZF d   1       0.013  -3.125   0.577  0.00  0.00    -0.204 OA
ATOM      2  C2  BZF d   1       0.778  -3.130  -0.573  0.00  0.00     0.174 A 
ATOM      3  C3  BZF d   1       0.832  -1.897  -1.117  0.00  0.00    -0.012 A 
ATOM      4  C3A BZF d   1       0.130  -1.051  -0.202  0.00  0.00    -0.107 A 
ATOM      5  C4  BZF d   1      -0.144   0.287  -0.182  0.00  0.00     0.055 A 
ATOM      6  C5  BZF d   1      -0.916   0.788   0.818  0.00  0.00    -0.016 A 
ATOM      7  C6  BZF d   1      -1.434  -0.019   1.809  0.00  0.00     0.022 A 
ATOM      8  C7  BZF d   1      -1.185  -1.351   1.834  0.00  0.00     0.029 A 
ATOM      9  C7A BZF d   1      -0.378  -1.855   0.843  0.00  0.00     0.058 A 
ENDROOT
TORSDOF 0
ENDMDL
