MODEL 1
REMARK minimizedAffinity -5.1922431
REMARK minimizedRMSD -1
REMARK  0 active torsions:
REMARK  status: ('A' for Active; 'I' for Inactive)
ROOT
ATOM      1  O1  BZF d   1      -0.232  -1.652   0.183  0.00  0.00    -0.204 OA
ATOM      2  C2  BZF d   1      -0.805  -0.886   1.180  0.00  0.00     0.174 A 
ATOM      3  C3  BZF d   1      -0.449   0.409   1.054  0.00  0.00    -0.012 A 
ATOM      4  C3A BZF d   1       0.325   0.470  -0.148  0.00  0.00    -0.107 A 
ATOM      5  C4  BZF d   1       0.947   1.488  -0.814  0.00  0.00     0.055 A 
ATOM      6  C5  BZF d   1       1.682   1.201  -1.920  0.00  0.00    -0.016 A 
ATOM      7  C6  BZF d   1       1.822  -0.090  -2.385  0.00  0.00     0.022 A 
ATOM      8  C7  BZF d   1       1.220  -1.132  -1.761  0.00  0.00     0.029 A 
ATOM      9  C7A BZF d   1       0.449  -0.842  -0.662  0.00  0.00     0.058 A 
ENDROOT
TORSDOF 0
ENDMDL
