MODEL 1
REMARK minimizedAffinity -5.44839382
REMARK minimizedRMSD -1
REMARK  0 active torsions:
REMARK  status: ('A' for Active; 'I' for Inactive)
ROOT
ATOM      1  O1  BZF d   1      -0.119  -1.411   0.530  0.00  0.00    -0.204 OA
ATOM      2  C2  BZF d   1      -0.204  -0.114   0.999  0.00  0.00     0.174 A 
ATOM      3  C3  BZF d   1       0.399   0.742   0.149  0.00  0.00    -0.012 A 
ATOM      4  C3A BZF d   1       0.811  -0.060  -0.963  0.00  0.00    -0.107 A 
ATOM      5  C4  BZF d   1       1.449   0.221  -2.137  0.00  0.00     0.055 A 
ATOM      6  C5  BZF d   1       1.768  -0.800  -2.976  0.00  0.00    -0.016 A 
ATOM      7  C6  BZF d   1       1.469  -2.111  -2.670  0.00  0.00     0.022 A 
ATOM      8  C7  BZF d   1       0.832  -2.438  -1.519  0.00  0.00     0.029 A 
ATOM      9  C7A BZF d   1       0.479  -1.406  -0.685  0.00  0.00     0.058 A 
ENDROOT
TORSDOF 0
ENDMDL
