MODEL 1
REMARK minimizedAffinity -2.22636104
REMARK minimizedRMSD -1
REMARK  0 active torsions:
REMARK  status: ('A' for Active; 'I' for Inactive)
ROOT
ATOM      1  O1  BZF d   1      -0.240  -1.584   0.622  0.00  0.00    -0.204 OA
ATOM      2  C2  BZF d   1      -0.997  -0.545   1.128  0.00  0.00     0.174 A 
ATOM      3  C3  BZF d   1      -0.576   0.638   0.635  0.00  0.00    -0.012 A 
ATOM      4  C3A BZF d   1       0.452   0.309  -0.305  0.00  0.00    -0.107 A 
ATOM      5  C4  BZF d   1       1.243   1.056  -1.130  0.00  0.00     0.055 A 
ATOM      6  C5  BZF d   1       2.200   0.435  -1.868  0.00  0.00    -0.016 A 
ATOM      7  C6  BZF d   1       2.396  -0.929  -1.802  0.00  0.00     0.022 A 
ATOM      8  C7  BZF d   1       1.633  -1.712  -1.002  0.00  0.00     0.029 A 
ATOM      9  C7A BZF d   1       0.643  -1.091  -0.279  0.00  0.00     0.058 A 
ENDROOT
TORSDOF 0
ENDMDL
