MODEL 1
REMARK minimizedAffinity -4.79391241
REMARK minimizedRMSD -1
REMARK  0 active torsions:
REMARK  status: ('A' for Active; 'I' for Inactive)
ROOT
ATOM      1  O1  BZF d   1       0.261  -1.021   0.477  0.00  0.00    -0.204 OA
ATOM      2  C2  BZF d   1      -0.513   0.122   0.495  0.00  0.00     0.174 A 
ATOM      3  C3  BZF d   1      -0.392   0.801  -0.664  0.00  0.00    -0.012 A 
ATOM      4  C3A BZF d   1       0.444  -0.014  -1.491  0.00  0.00    -0.107 A 
ATOM      5  C4  BZF d   1       0.915   0.116  -2.767  0.00  0.00     0.055 A 
ATOM      6  C5  BZF d   1       1.770  -0.822  -3.253  0.00  0.00    -0.016 A 
ATOM      7  C6  BZF d   1       2.177  -1.898  -2.492  0.00  0.00     0.022 A 
ATOM      8  C7  BZF d   1       1.732  -2.072  -1.224  0.00  0.00     0.029 A 
ATOM      9  C7A BZF d   1       0.843  -1.144  -0.740  0.00  0.00     0.058 A 
ENDROOT
TORSDOF 0
ENDMDL
