MODEL 1
REMARK minimizedAffinity -4.68777609
REMARK minimizedRMSD -1
REMARK  0 active torsions:
REMARK  status: ('A' for Active; 'I' for Inactive)
ROOT
ATOM      1  O1  BZF d   1      -0.475   0.775   0.370  0.00  0.00    -0.204 OA
ATOM      2  C2  BZF d   1      -1.299  -0.304   0.627  0.00  0.00     0.174 A 
ATOM      3  C3  BZF d   1      -0.976  -1.350  -0.160  0.00  0.00    -0.012 A 
ATOM      4  C3A BZF d   1       0.177  -0.928  -0.894  0.00  0.00    -0.107 A 
ATOM      5  C4  BZF d   1       0.970  -1.533  -1.827  0.00  0.00     0.055 A 
ATOM      6  C5  BZF d   1       1.973  -0.820  -2.404  0.00  0.00    -0.016 A 
ATOM      7  C6  BZF d   1       2.208   0.499  -2.076  0.00  0.00     0.022 A 
ATOM      8  C7  BZF d   1       1.451   1.141  -1.153  0.00  0.00     0.029 A 
ATOM      9  C7A BZF d   1       0.457   0.413  -0.544  0.00  0.00     0.058 A 
ENDROOT
TORSDOF 0
ENDMDL
