MODEL 1
REMARK minimizedAffinity -3.57126808
REMARK minimizedRMSD -1
REMARK  0 active torsions:
REMARK  status: ('A' for Active; 'I' for Inactive)
ROOT
ATOM      1  O1  BZF d   1      -0.395  -0.282   1.249  0.00  0.00    -0.204 OA
ATOM      2  C2  BZF d   1       0.054  -0.251  -0.058  0.00  0.00     0.174 A 
ATOM      3  C3  BZF d   1      -0.947   0.074  -0.900  0.00  0.00    -0.012 A 
ATOM      4  C3A BZF d   1      -2.072   0.348  -0.060  0.00  0.00    -0.107 A 
ATOM      5  C4  BZF d   1      -3.357   0.739  -0.309  0.00  0.00     0.055 A 
ATOM      6  C5  BZF d   1      -4.227   0.848   0.730  0.00  0.00    -0.016 A 
ATOM      7  C6  BZF d   1      -3.848   0.571   2.027  0.00  0.00     0.022 A 
ATOM      8  C7  BZF d   1      -2.583   0.185   2.324  0.00  0.00     0.029 A 
ATOM      9  C7A BZF d   1      -1.693   0.106   1.281  0.00  0.00     0.058 A 
ENDROOT
TORSDOF 0
ENDMDL
