MODEL 1
REMARK minimizedAffinity -5.83526611
REMARK minimizedRMSD -1
REMARK  0 active torsions:
REMARK  status: ('A' for Active; 'I' for Inactive)
ROOT
ATOM      1  O1  BZF d   1       0.378  -2.023   0.398  0.00  0.00    -0.204 OA
ATOM      2  C2  BZF d   1       0.023  -1.153   1.411  0.00  0.00     0.174 A 
ATOM      3  C3  BZF d   1       0.172   0.127   1.015  0.00  0.00    -0.012 A 
ATOM      4  C3A BZF d   1       0.562   0.054  -0.359  0.00  0.00    -0.107 A 
ATOM      5  C4  BZF d   1       0.844   0.996  -1.307  0.00  0.00     0.055 A 
ATOM      6  C5  BZF d   1       1.266   0.593  -2.534  0.00  0.00    -0.016 A 
ATOM      7  C6  BZF d   1       1.422  -0.741  -2.846  0.00  0.00     0.022 A 
ATOM      8  C7  BZF d   1       1.149  -1.713  -1.941  0.00  0.00     0.029 A 
ATOM      9  C7A BZF d   1       0.692  -1.310  -0.710  0.00  0.00     0.058 A 
ENDROOT
TORSDOF 0
ENDMDL
