MODEL 1
REMARK minimizedAffinity 0.6002298
REMARK minimizedRMSD -1
REMARK  0 active torsions:
REMARK  status: ('A' for Active; 'I' for Inactive)
ROOT
ATOM      1  O1  BZF d   1      -1.201  -0.423  -0.516  0.00  0.00    -0.204 OA
ATOM      2  C2  BZF d   1       0.037  -0.304   0.085  0.00  0.00     0.174 A 
ATOM      3  C3  BZF d   1      -0.068   0.314   1.279  0.00  0.00    -0.012 A 
ATOM      4  C3A BZF d   1      -1.471   0.516   1.475  0.00  0.00    -0.107 A 
ATOM      5  C4  BZF d   1      -2.208   1.069   2.484  0.00  0.00     0.055 A 
ATOM      6  C5  BZF d   1      -3.554   1.179   2.335  0.00  0.00    -0.016 A 
ATOM      7  C6  BZF d   1      -4.195   0.753   1.190  0.00  0.00     0.022 A 
ATOM      8  C7  BZF d   1      -3.507   0.194   0.164  0.00  0.00     0.029 A 
ATOM      9  C7A BZF d   1      -2.150   0.051   0.326  0.00  0.00     0.058 A 
ENDROOT
TORSDOF 0
ENDMDL
