MODEL 1
REMARK minimizedAffinity -4.37039375
REMARK minimizedRMSD -1
REMARK  0 active torsions:
REMARK  status: ('A' for Active; 'I' for Inactive)
ROOT
ATOM      1  O1  BZF d   1      -0.604  -0.422   0.319  0.00  0.00    -0.204 OA
ATOM      2  C2  BZF d   1      -0.233   0.750   0.950  0.00  0.00     0.174 A 
ATOM      3  C3  BZF d   1       0.914   1.231   0.430  0.00  0.00    -0.012 A 
ATOM      4  C3A BZF d   1       1.236   0.351  -0.652  0.00  0.00    -0.107 A 
ATOM      5  C4  BZF d   1       2.253   0.315  -1.562  0.00  0.00     0.055 A 
ATOM      6  C5  BZF d   1       2.315  -0.718  -2.442  0.00  0.00    -0.016 A 
ATOM      7  C6  BZF d   1       1.382  -1.735  -2.436  0.00  0.00     0.022 A 
ATOM      8  C7  BZF d   1       0.352  -1.740  -1.555  0.00  0.00     0.029 A 
ATOM      9  C7A BZF d   1       0.268  -0.679  -0.686  0.00  0.00     0.058 A 
ENDROOT
TORSDOF 0
ENDMDL
