MODEL 1
REMARK minimizedAffinity -5.96731329
REMARK minimizedRMSD -1
REMARK  0 active torsions:
REMARK  status: ('A' for Active; 'I' for Inactive)
ROOT
ATOM      1  O1  BZF d   1       1.880  -1.533  -2.860  0.00  0.00    -0.204 OA
ATOM      2  C2  BZF d   1       2.514  -0.466  -3.467  0.00  0.00     0.174 A 
ATOM      3  C3  BZF d   1       2.240   0.685  -2.819  0.00  0.00    -0.012 A 
ATOM      4  C3A BZF d   1       1.456   0.302  -1.685  0.00  0.00    -0.107 A 
ATOM      5  C4  BZF d   1       0.894   0.998  -0.654  0.00  0.00     0.055 A 
ATOM      6  C5  BZF d   1       0.127   0.334   0.251  0.00  0.00    -0.016 A 
ATOM      7  C6  BZF d   1      -0.102  -1.023   0.152  0.00  0.00     0.022 A 
ATOM      8  C7  BZF d   1       0.439  -1.757  -0.851  0.00  0.00     0.029 A 
ATOM      9  C7A BZF d   1       1.241  -1.095  -1.748  0.00  0.00     0.058 A 
ENDROOT
TORSDOF 0
ENDMDL
