MODEL 1
REMARK minimizedAffinity 0.632933974
REMARK minimizedRMSD -1
REMARK  0 active torsions:
REMARK  status: ('A' for Active; 'I' for Inactive)
ROOT
ATOM      1  O1  BZF d   1       1.271  -1.619  -0.071  0.00  0.00    -0.204 OA
ATOM      2  C2  BZF d   1       0.139  -1.656   0.719  0.00  0.00     0.174 A 
ATOM      3  C3  BZF d   1      -0.330  -0.411   0.941  0.00  0.00    -0.012 A 
ATOM      4  C3A BZF d   1       0.511   0.451   0.169  0.00  0.00    -0.107 A 
ATOM      5  C4  BZF d   1       0.537   1.801  -0.035  0.00  0.00     0.055 A 
ATOM      6  C5  BZF d   1       1.534   2.336  -0.788  0.00  0.00    -0.016 A 
ATOM      7  C6  BZF d   1       2.522   1.553  -1.347  0.00  0.00     0.022 A 
ATOM      8  C7  BZF d   1       2.535   0.208  -1.178  0.00  0.00     0.029 A 
ATOM      9  C7A BZF d   1       1.511  -0.339  -0.444  0.00  0.00     0.058 A 
ENDROOT
TORSDOF 0
ENDMDL
