MODEL 1
REMARK minimizedAffinity -6.35186625
REMARK minimizedRMSD -1
REMARK  0 active torsions:
REMARK  status: ('A' for Active; 'I' for Inactive)
ROOT
ATOM      1  O1  BZF d   1       0.465  -1.027   1.149  0.00  0.00    -0.204 OA
ATOM      2  C2  BZF d   1       0.314  -2.356   0.804  0.00  0.00     0.174 A 
ATOM      3  C3  BZF d   1       0.427  -2.520  -0.529  0.00  0.00    -0.012 A 
ATOM      4  C3A BZF d   1       0.755  -1.225  -1.041  0.00  0.00    -0.107 A 
ATOM      5  C4  BZF d   1       1.009  -0.748  -2.295  0.00  0.00     0.055 A 
ATOM      6  C5  BZF d   1       1.226   0.583  -2.464  0.00  0.00    -0.016 A 
ATOM      7  C6  BZF d   1       1.191   1.464  -1.404  0.00  0.00     0.022 A 
ATOM      8  C7  BZF d   1       0.948   1.037  -0.141  0.00  0.00     0.029 A 
ATOM      9  C7A BZF d   1       0.761  -0.312   0.038  0.00  0.00     0.058 A 
ENDROOT
TORSDOF 0
ENDMDL
