MODEL 1
REMARK minimizedAffinity -5.24242115
REMARK minimizedRMSD -1
REMARK  0 active torsions:
REMARK  status: ('A' for Active; 'I' for Inactive)
ROOT
ATOM      1  C   UNL d   1      -0.804   1.894   2.385  0.00  0.00     0.020 A 
ATOM      2  C1  UNL d   1      -0.982   3.059   1.641  0.00  0.00     0.020 A 
ATOM      3  C2  UNL d   1      -0.722   3.058   0.269  0.00  0.00     0.034 A 
ATOM      4  C3  UNL d   1      -0.284   1.889  -0.363  0.00  0.00     0.017 A 
ATOM      5  C4  UNL d   1      -0.106   0.720   0.384  0.00  0.00     0.017 A 
ATOM      6  C5  UNL d   1      -0.367   0.726   1.758  0.00  0.00     0.034 A 
ATOM      7 Cl   UNL d   1       0.432  -0.761  -0.326  0.00  0.00    -0.070 Cl
ATOM      8 Cl1  UNL d   1       0.017   1.960  -2.063  0.00  0.00    -0.070 Cl
ENDROOT
TORSDOF 0
ENDMDL
