MODEL 1
REMARK minimizedAffinity -3.65421295
REMARK minimizedRMSD -1
REMARK  0 active torsions:
REMARK  status: ('A' for Active; 'I' for Inactive)
ROOT
ATOM      1  C   UNL d   1       2.498  -4.855   0.750  0.00  0.00     0.020 A 
ATOM      2  C1  UNL d   1       1.649  -5.913   1.072  0.00  0.00     0.020 A 
ATOM      3  C2  UNL d   1       0.386  -6.000   0.481  0.00  0.00     0.034 A 
ATOM      4  C3  UNL d   1      -0.030  -5.027  -0.435  0.00  0.00     0.017 A 
ATOM      5  C4  UNL d   1       0.822  -3.966  -0.758  0.00  0.00     0.017 A 
ATOM      6  C5  UNL d   1       2.085  -3.883  -0.163  0.00  0.00     0.034 A 
ATOM      7 Cl   UNL d   1       0.378  -2.728  -1.879  0.00  0.00    -0.070 Cl
ATOM      8 Cl1  UNL d   1      -1.604  -5.198  -1.128  0.00  0.00    -0.070 Cl
ENDROOT
TORSDOF 0
ENDMDL
