MODEL 1
REMARK minimizedAffinity 1.16545045
REMARK minimizedRMSD -1
REMARK  0 active torsions:
REMARK  status: ('A' for Active; 'I' for Inactive)
ROOT
ATOM      1  C   UNL d   1      -0.615   0.624   1.417  0.00  0.00     0.020 A 
ATOM      2  C1  UNL d   1      -0.421   1.852   0.785  0.00  0.00     0.020 A 
ATOM      3  C2  UNL d   1      -0.020   1.894  -0.552  0.00  0.00     0.034 A 
ATOM      4  C3  UNL d   1       0.187   0.705  -1.262  0.00  0.00     0.017 A 
ATOM      5  C4  UNL d   1      -0.008  -0.526  -0.627  0.00  0.00     0.017 A 
ATOM      6  C5  UNL d   1      -0.409  -0.562   0.712  0.00  0.00     0.034 A 
ATOM      7 Cl   UNL d   1       0.228  -2.035  -1.438  0.00  0.00    -0.070 Cl
ATOM      8 Cl1  UNL d   1       0.682   0.832  -2.913  0.00  0.00    -0.070 Cl
ENDROOT
TORSDOF 0
ENDMDL
