MODEL 1
REMARK minimizedAffinity -1.48591352
REMARK minimizedRMSD -1
REMARK  0 active torsions:
REMARK  status: ('A' for Active; 'I' for Inactive)
ROOT
ATOM      1  C   UNL d   1       0.209   2.534   1.404  0.00  0.00     0.020 A 
ATOM      2  C1  UNL d   1       0.368   1.325   2.079  0.00  0.00     0.020 A 
ATOM      3  C2  UNL d   1       0.419   0.127   1.364  0.00  0.00     0.034 A 
ATOM      4  C3  UNL d   1       0.309   0.135  -0.032  0.00  0.00     0.017 A 
ATOM      5  C4  UNL d   1       0.149   1.350  -0.709  0.00  0.00     0.017 A 
ATOM      6  C5  UNL d   1       0.100   2.546   0.013  0.00  0.00     0.034 A 
ATOM      7 Cl   UNL d   1       0.007   1.440  -2.429  0.00  0.00    -0.070 Cl
ATOM      8 Cl1  UNL d   1       0.379  -1.384  -0.853  0.00  0.00    -0.070 Cl
ENDROOT
TORSDOF 0
ENDMDL
