MODEL 1
REMARK minimizedAffinity -0.71754849
REMARK minimizedRMSD -1
REMARK  0 active torsions:
REMARK  status: ('A' for Active; 'I' for Inactive)
ROOT
ATOM      1  C   UNL d   1       1.084  -1.395   0.393  0.00  0.00     0.020 A 
ATOM      2  C1  UNL d   1       0.894  -1.325  -0.987  0.00  0.00     0.020 A 
ATOM      3  C2  UNL d   1       0.316  -0.188  -1.555  0.00  0.00     0.034 A 
ATOM      4  C3  UNL d   1      -0.076   0.883  -0.744  0.00  0.00     0.017 A 
ATOM      5  C4  UNL d   1       0.115   0.812   0.641  0.00  0.00     0.017 A 
ATOM      6  C5  UNL d   1       0.695  -0.329   1.205  0.00  0.00     0.034 A 
ATOM      7 Cl   UNL d   1      -0.342   2.093   1.707  0.00  0.00    -0.070 Cl
ATOM      8 Cl1  UNL d   1      -0.784   2.257  -1.514  0.00  0.00    -0.070 Cl
ENDROOT
TORSDOF 0
ENDMDL
