MODEL 1
REMARK minimizedAffinity -3.19756389
REMARK minimizedRMSD -1
REMARK  0 active torsions:
REMARK  status: ('A' for Active; 'I' for Inactive)
ROOT
ATOM      1  C   UNL d   1       1.007   0.096  -1.275  0.00  0.00     0.020 A 
ATOM      2  C1  UNL d   1       0.864  -0.314   0.049  0.00  0.00     0.020 A 
ATOM      3  C2  UNL d   1      -0.050   0.331   0.886  0.00  0.00     0.034 A 
ATOM      4  C3  UNL d   1      -0.824   1.390   0.398  0.00  0.00     0.017 A 
ATOM      5  C4  UNL d   1      -0.680   1.801  -0.932  0.00  0.00     0.017 A 
ATOM      6  C5  UNL d   1       0.236   1.152  -1.765  0.00  0.00     0.034 A 
ATOM      7 Cl   UNL d   1      -1.601   3.100  -1.605  0.00  0.00    -0.070 Cl
ATOM      8 Cl1  UNL d   1      -1.935   2.141   1.488  0.00  0.00    -0.070 Cl
ENDROOT
TORSDOF 0
ENDMDL
