MODEL 1
REMARK minimizedAffinity -2.94759893
REMARK minimizedRMSD -1
REMARK  0 active torsions:
REMARK  status: ('A' for Active; 'I' for Inactive)
ROOT
ATOM      1  C   UNL d   1       0.679  -0.324   0.537  0.00  0.00     0.020 A 
ATOM      2  C1  UNL d   1       0.731  -0.340  -0.856  0.00  0.00     0.020 A 
ATOM      3  C2  UNL d   1       0.084   0.656  -1.591  0.00  0.00     0.034 A 
ATOM      4  C3  UNL d   1      -0.618   1.672  -0.933  0.00  0.00     0.017 A 
ATOM      5  C4  UNL d   1      -0.670   1.688   0.466  0.00  0.00     0.017 A 
ATOM      6  C5  UNL d   1      -0.020   0.688   1.197  0.00  0.00     0.034 A 
ATOM      7 Cl   UNL d   1      -1.516   2.910   1.348  0.00  0.00    -0.070 Cl
ATOM      8 Cl1  UNL d   1      -1.393   2.872  -1.905  0.00  0.00    -0.070 Cl
ENDROOT
TORSDOF 0
ENDMDL
