MODEL 1
REMARK minimizedAffinity 1.77991462
REMARK minimizedRMSD -1
REMARK  0 active torsions:
REMARK  status: ('A' for Active; 'I' for Inactive)
ROOT
ATOM      1  C   UNL d   1       0.599   2.926   1.411  0.00  0.00     0.020 A 
ATOM      2  C1  UNL d   1       0.495   1.787   2.208  0.00  0.00     0.020 A 
ATOM      3  C2  UNL d   1       0.218   0.549   1.623  0.00  0.00     0.034 A 
ATOM      4  C3  UNL d   1       0.046   0.448   0.238  0.00  0.00     0.017 A 
ATOM      5  C4  UNL d   1       0.151   1.592  -0.561  0.00  0.00     0.017 A 
ATOM      6  C5  UNL d   1       0.427   2.829   0.030  0.00  0.00     0.034 A 
ATOM      7 Cl   UNL d   1      -0.050   1.545  -2.277  0.00  0.00    -0.070 Cl
ATOM      8 Cl1  UNL d   1      -0.294  -1.115  -0.417  0.00  0.00    -0.070 Cl
ENDROOT
TORSDOF 0
ENDMDL
