MODEL 1
REMARK minimizedAffinity -2.2322619
REMARK minimizedRMSD -1
REMARK  1 active torsions:
REMARK  status: ('A' for Active; 'I' for Inactive)
REMARK    1  A    between atoms: C1_2  and  C2_3 
ROOT
ATOM      1  C2  UNL d   1      -2.278  -0.493   0.818  0.00  0.00    -0.081 A 
ATOM      2  C3  UNL d   1      -2.828  -0.582   2.103  0.00  0.00     0.006 A 
ATOM      3  C4  UNL d   1      -2.337   0.215   3.140  0.00  0.00     0.002 A 
ATOM      4  C5  UNL d   1      -1.295   1.120   2.908  0.00  0.00    -0.080 A 
ATOM      5  C6  UNL d   1      -0.779   2.003   4.005  0.00  0.00     0.076 C 
ATOM      6  C7  UNL d   1      -0.734   1.196   1.628  0.00  0.00     0.002 A 
ATOM      7  C8  UNL d   1      -1.224   0.399   0.592  0.00  0.00     0.006 A 
ENDROOT
BRANCH   1   8
ATOM      8  C1  UNL d   1      -2.849  -1.305  -0.317  0.00  0.00     0.054 C 
ATOM      9  C   UNL d   1      -4.370  -1.263  -0.317  0.00  0.00     0.018 C 
ENDBRANCH   1   8
TORSDOF 1
ENDMDL
