MODEL 1
REMARK minimizedAffinity -3.14330959
REMARK minimizedRMSD -1
REMARK  1 active torsions:
REMARK  status: ('A' for Active; 'I' for Inactive)
REMARK    1  A    between atoms: C1_2  and  C2_3 
ROOT
ATOM      1  C2  UNL d   1       0.507  -0.147  -1.282  0.00  0.00    -0.081 A 
ATOM      2  C3  UNL d   1       1.212  -0.645  -0.179  0.00  0.00     0.006 A 
ATOM      3  C4  UNL d   1       0.858  -0.266   1.118  0.00  0.00     0.002 A 
ATOM      4  C5  UNL d   1      -0.211   0.610   1.334  0.00  0.00    -0.080 A 
ATOM      5  C6  UNL d   1      -0.621   1.001   2.723  0.00  0.00     0.076 C 
ATOM      6  C7  UNL d   1      -0.904   1.122   0.232  0.00  0.00     0.002 A 
ATOM      7  C8  UNL d   1      -0.550   0.744  -1.065  0.00  0.00     0.006 A 
ENDROOT
BRANCH   1   8
ATOM      8  C1  UNL d   1       0.845  -0.604  -2.678  0.00  0.00     0.054 C 
ATOM      9  C   UNL d   1       1.639   0.455  -3.430  0.00  0.00     0.018 C 
ENDBRANCH   1   8
TORSDOF 1
ENDMDL
