MODEL 1
REMARK minimizedAffinity -4.3637104
REMARK minimizedRMSD -1
REMARK  1 active torsions:
REMARK  status: ('A' for Active; 'I' for Inactive)
REMARK    1  A    between atoms: C1_2  and  C2_3 
ROOT
ATOM      1  C2  UNL d   1       0.239  -0.278  -0.737  0.00  0.00    -0.081 A 
ATOM      2  C3  UNL d   1      -1.144  -0.117  -0.585  0.00  0.00     0.006 A 
ATOM      3  C4  UNL d   1      -1.667   0.449   0.580  0.00  0.00     0.002 A 
ATOM      4  C5  UNL d   1      -0.817   0.871   1.608  0.00  0.00    -0.080 A 
ATOM      5  C6  UNL d   1      -1.363   1.508   2.851  0.00  0.00     0.076 C 
ATOM      6  C7  UNL d   1       0.564   0.695   1.463  0.00  0.00     0.002 A 
ATOM      7  C8  UNL d   1       1.087   0.128   0.299  0.00  0.00     0.006 A 
ENDROOT
BRANCH   1   8
ATOM      8  C1  UNL d   1       0.810  -0.828  -2.019  0.00  0.00     0.054 C 
ATOM      9  C   UNL d   1       0.247  -0.102  -3.232  0.00  0.00     0.018 C 
ENDBRANCH   1   8
TORSDOF 1
ENDMDL
