MODEL 1
REMARK minimizedAffinity -5.77266693
REMARK minimizedRMSD -1
REMARK  1 active torsions:
REMARK  status: ('A' for Active; 'I' for Inactive)
REMARK    1  A    between atoms: C1_2  and  C2_3 
ROOT
ATOM      1  C2  UNL d   1       0.013  -0.248  -0.587  0.00  0.00    -0.081 A 
ATOM      2  C3  UNL d   1      -1.304   0.060  -0.228  0.00  0.00     0.006 A 
ATOM      3  C4  UNL d   1      -1.584   0.632   1.015  0.00  0.00     0.002 A 
ATOM      4  C5  UNL d   1      -0.551   0.913   1.916  0.00  0.00    -0.080 A 
ATOM      5  C6  UNL d   1      -0.835   1.555   3.241  0.00  0.00     0.076 C 
ATOM      6  C7  UNL d   1       0.763   0.589   1.564  0.00  0.00     0.002 A 
ATOM      7  C8  UNL d   1       1.044   0.017   0.322  0.00  0.00     0.006 A 
ENDROOT
BRANCH   1   8
ATOM      8  C1  UNL d   1       0.325  -0.805  -1.953  0.00  0.00     0.054 C 
ATOM      9  C   UNL d   1       0.675   0.303  -2.936  0.00  0.00     0.018 C 
ENDBRANCH   1   8
TORSDOF 1
ENDMDL
