MODEL 1
REMARK minimizedAffinity -5.67064762
REMARK minimizedRMSD -1
REMARK  1 active torsions:
REMARK  status: ('A' for Active; 'I' for Inactive)
REMARK    1  A    between atoms: C1_2  and  C2_3 
ROOT
ATOM      1  C2  UNL d   1       0.075  -0.342  -0.753  0.00  0.00    -0.081 A 
ATOM      2  C3  UNL d   1      -1.293  -0.229  -0.475  0.00  0.00     0.006 A 
ATOM      3  C4  UNL d   1      -1.726   0.357   0.717  0.00  0.00     0.002 A 
ATOM      4  C5  UNL d   1      -0.801   0.844   1.646  0.00  0.00    -0.080 A 
ATOM      5  C6  UNL d   1      -1.254   1.502   2.916  0.00  0.00     0.076 C 
ATOM      6  C7  UNL d   1       0.566   0.715   1.376  0.00  0.00     0.002 A 
ATOM      7  C8  UNL d   1       1.000   0.129   0.185  0.00  0.00     0.006 A 
ENDROOT
BRANCH   1   8
ATOM      8  C1  UNL d   1       0.544  -0.914  -2.067  0.00  0.00     0.054 C 
ATOM      9  C   UNL d   1       1.248   0.140  -2.909  0.00  0.00     0.018 C 
ENDBRANCH   1   8
TORSDOF 1
ENDMDL
