MODEL 1
REMARK minimizedAffinity 3.37616992
REMARK minimizedRMSD -1
REMARK  0 active torsions:
REMARK  status: ('A' for Active; 'I' for Inactive)
ROOT
ATOM      1  N1  IND d   1      -1.677   0.346   2.413  0.00  0.00    -0.196 N 
ATOM      2  C2  IND d   1      -2.512   0.653   1.375  0.00  0.00     0.054 A 
ATOM      3  C3  IND d   1      -1.889   0.445   0.193  0.00  0.00    -0.031 A 
ATOM      4  C4  IND d   1       0.463  -0.490  -0.274  0.00  0.00     0.051 A 
ATOM      5  C5  IND d   1       1.612  -0.879   0.355  0.00  0.00    -0.031 A 
ATOM      6  C6  IND d   1       1.725  -0.883   1.731  0.00  0.00     0.015 A 
ATOM      7  C7  IND d   1       0.684  -0.506   2.532  0.00  0.00    -0.016 A 
ATOM      8  C8  IND d   1      -0.482  -0.103   1.896  0.00  0.00    -0.047 A 
ATOM      9  C9  IND d   1      -0.588  -0.057   0.500  0.00  0.00    -0.096 A 
ATOM     10  HN1 IND d   1      -1.866   0.422   3.248  0.00  0.00     0.298 HD
ENDROOT
TORSDOF 0
ENDMDL
