MODEL 1
REMARK minimizedAffinity -1.66501343
REMARK minimizedRMSD -1
REMARK  0 active torsions:
REMARK  status: ('A' for Active; 'I' for Inactive)
ROOT
ATOM      1  N1  IND d   1       1.921   0.395  -0.102  0.00  0.00    -0.196 N 
ATOM      2  C2  IND d   1       1.009  -0.481   0.418  0.00  0.00     0.054 A 
ATOM      3  C3  IND d   1       0.069  -0.784  -0.506  0.00  0.00    -0.031 A 
ATOM      4  C4  IND d   1      -0.110  -0.037  -2.963  0.00  0.00     0.051 A 
ATOM      5  C5  IND d   1       0.471   0.791  -3.882  0.00  0.00    -0.031 A 
ATOM      6  C6  IND d   1       1.589   1.543  -3.583  0.00  0.00     0.015 A 
ATOM      7  C7  IND d   1       2.177   1.485  -2.351  0.00  0.00    -0.016 A 
ATOM      8  C8  IND d   1       1.586   0.651  -1.413  0.00  0.00    -0.047 A 
ATOM      9  C9  IND d   1       0.426  -0.082  -1.698  0.00  0.00    -0.096 A 
ATOM     10  HN1 IND d   1       2.591   0.730   0.320  0.00  0.00     0.298 HD
ENDROOT
TORSDOF 0
ENDMDL
