MODEL 1
REMARK minimizedAffinity 11.1079254
REMARK minimizedRMSD -1
REMARK  0 active torsions:
REMARK  status: ('A' for Active; 'I' for Inactive)
ROOT
ATOM      1  N1  IND d   1       2.115   0.988  -2.638  0.00  0.00    -0.196 N 
ATOM      2  C2  IND d   1       2.542   1.794  -3.656  0.00  0.00     0.054 A 
ATOM      3  C3  IND d   1       1.727   1.669  -4.728  0.00  0.00    -0.031 A 
ATOM      4  C4  IND d   1      -0.422   0.277  -4.995  0.00  0.00     0.051 A 
ATOM      5  C5  IND d   1      -1.193  -0.649  -4.350  0.00  0.00    -0.031 A 
ATOM      6  C6  IND d   1      -0.896  -1.083  -3.074  0.00  0.00     0.015 A 
ATOM      7  C7  IND d   1       0.181  -0.597  -2.389  0.00  0.00    -0.016 A 
ATOM      8  C8  IND d   1       0.970   0.338  -3.043  0.00  0.00    -0.047 A 
ATOM      9  C9  IND d   1       0.698   0.751  -4.354  0.00  0.00    -0.096 A 
ATOM     10  HN1 IND d   1       2.497   0.902  -1.872  0.00  0.00     0.298 HD
ENDROOT
TORSDOF 0
ENDMDL
