MODEL 1
REMARK minimizedAffinity 3.63298416
REMARK minimizedRMSD -1
REMARK  0 active torsions:
REMARK  status: ('A' for Active; 'I' for Inactive)
ROOT
ATOM      1  N1  IND d   1       1.753   0.526  -0.483  0.00  0.00    -0.196 N 
ATOM      2  C2  IND d   1       0.973  -0.432   0.104  0.00  0.00     0.054 A 
ATOM      3  C3  IND d   1       0.025  -0.860  -0.760  0.00  0.00    -0.031 A 
ATOM      4  C4  IND d   1      -0.365  -0.203  -3.218  0.00  0.00     0.051 A 
ATOM      5  C5  IND d   1       0.071   0.660  -4.185  0.00  0.00    -0.031 A 
ATOM      6  C6  IND d   1       1.112   1.538  -3.963  0.00  0.00     0.015 A 
ATOM      7  C7  IND d   1       1.767   1.578  -2.764  0.00  0.00    -0.016 A 
ATOM      8  C8  IND d   1       1.323   0.708  -1.779  0.00  0.00    -0.047 A 
ATOM      9  C9  IND d   1       0.239  -0.155  -1.984  0.00  0.00    -0.096 A 
ATOM     10  HN1 IND d   1       2.403   0.943  -0.105  0.00  0.00     0.298 HD
ENDROOT
TORSDOF 0
ENDMDL
