MODEL 1
REMARK minimizedAffinity -4.59255886
REMARK minimizedRMSD -1
REMARK  0 active torsions:
REMARK  status: ('A' for Active; 'I' for Inactive)
ROOT
ATOM      1  N1  IND d   1       1.466  -0.608  -0.006  0.00  0.00    -0.196 N 
ATOM      2  C2  IND d   1       0.591  -0.627  -1.055  0.00  0.00     0.054 A 
ATOM      3  C3  IND d   1      -0.565  -0.014  -0.714  0.00  0.00    -0.031 A 
ATOM      4  C4  IND d   1      -1.199   1.180   1.477  0.00  0.00     0.051 A 
ATOM      5  C5  IND d   1      -0.741   1.427   2.740  0.00  0.00    -0.031 A 
ATOM      6  C6  IND d   1       0.503   1.003   3.160  0.00  0.00     0.015 A 
ATOM      7  C7  IND d   1       1.343   0.322   2.326  0.00  0.00    -0.016 A 
ATOM      8  C8  IND d   1       0.878   0.062   1.044  0.00  0.00    -0.047 A 
ATOM      9  C9  IND d   1      -0.400   0.453   0.625  0.00  0.00    -0.096 A 
ATOM     10  HN1 IND d   1       2.252  -0.957  -0.002  0.00  0.00     0.298 HD
ENDROOT
TORSDOF 0
ENDMDL
