MODEL 1
REMARK minimizedAffinity -1.58234274
REMARK minimizedRMSD -1
REMARK  0 active torsions:
REMARK  status: ('A' for Active; 'I' for Inactive)
ROOT
ATOM      1  N1  IND d   1       1.196  -1.003  -0.337  0.00  0.00    -0.196 N 
ATOM      2  C2  IND d   1       0.349  -0.747  -1.379  0.00  0.00     0.054 A 
ATOM      3  C3  IND d   1      -0.725  -0.046  -0.950  0.00  0.00    -0.031 A 
ATOM      4  C4  IND d   1      -1.246   0.875   1.396  0.00  0.00     0.051 A 
ATOM      5  C5  IND d   1      -0.787   0.867   2.683  0.00  0.00    -0.031 A 
ATOM      6  C6  IND d   1       0.382   0.224   3.036  0.00  0.00     0.015 A 
ATOM      7  C7  IND d   1       1.145  -0.427   2.109  0.00  0.00    -0.016 A 
ATOM      8  C8  IND d   1       0.678  -0.427   0.802  0.00  0.00    -0.047 A 
ATOM      9  C9  IND d   1      -0.530   0.187   0.446  0.00  0.00    -0.096 A 
ATOM     10  HN1 IND d   1       1.930  -1.449  -0.385  0.00  0.00     0.298 HD
ENDROOT
TORSDOF 0
ENDMDL
