MODEL 1
REMARK minimizedAffinity -3.30723667
REMARK minimizedRMSD -1
REMARK  0 active torsions:
REMARK  status: ('A' for Active; 'I' for Inactive)
ROOT
ATOM      1  N1  IND d   1       1.262  -1.194   2.850  0.00  0.00    -0.196 N 
ATOM      2  C2  IND d   1       0.388  -0.542   3.674  0.00  0.00     0.054 A 
ATOM      3  C3  IND d   1      -0.562   0.089   2.947  0.00  0.00    -0.031 A 
ATOM      4  C4  IND d   1      -0.933   0.102   0.400  0.00  0.00     0.051 A 
ATOM      5  C5  IND d   1      -0.372  -0.321  -0.773  0.00  0.00    -0.031 A 
ATOM      6  C6  IND d   1       0.784  -1.073  -0.798  0.00  0.00     0.015 A 
ATOM      7  C7  IND d   1       1.419  -1.443   0.354  0.00  0.00    -0.016 A 
ATOM      8  C8  IND d   1       0.856  -1.010   1.546  0.00  0.00    -0.047 A 
ATOM      9  C9  IND d   1      -0.293  -0.210   1.576  0.00  0.00    -0.096 A 
ATOM     10  HN1 IND d   1       1.950  -1.644   3.103  0.00  0.00     0.298 HD
ENDROOT
TORSDOF 0
ENDMDL
