MODEL 1
REMARK minimizedAffinity -2.61715865
REMARK minimizedRMSD -1
REMARK  0 active torsions:
REMARK  status: ('A' for Active; 'I' for Inactive)
ROOT
ATOM      1  N1  IND d   1       1.616  -0.950   2.761  0.00  0.00    -0.196 N 
ATOM      2  C2  IND d   1       1.196  -0.467   3.969  0.00  0.00     0.054 A 
ATOM      3  C3  IND d   1       0.023   0.191   3.831  0.00  0.00    -0.031 A 
ATOM      4  C4  IND d   1      -1.437   0.507   1.734  0.00  0.00     0.051 A 
ATOM      5  C5  IND d   1      -1.452   0.276   0.387  0.00  0.00    -0.031 A 
ATOM      6  C6  IND d   1      -0.426  -0.392  -0.250  0.00  0.00     0.015 A 
ATOM      7  C7  IND d   1       0.653  -0.865   0.442  0.00  0.00    -0.016 A 
ATOM      8  C8  IND d   1       0.675  -0.626   1.808  0.00  0.00    -0.047 A 
ATOM      9  C9  IND d   1      -0.343   0.088   2.453  0.00  0.00    -0.096 A 
ATOM     10  HN1 IND d   1       2.345  -1.384   2.620  0.00  0.00     0.298 HD
ENDROOT
TORSDOF 0
ENDMDL
