MODEL 1
REMARK minimizedAffinity 0.638955057
REMARK minimizedRMSD -1
REMARK  2 active torsions:
REMARK  status: ('A' for Active; 'I' for Inactive)
REMARK    1  A    between atoms: C2'_3  and  C1'_4 
REMARK    2  A    between atoms: C1'_4  and  C1_5 
ROOT
ATOM      1  C1  I4B d   1       0.644   0.230   0.325  0.00  0.00    -0.075 A 
ATOM      2  C2  I4B d   1       0.815   1.557   0.628  0.00  0.00     0.003 A 
ATOM      3  C3  I4B d   1       0.897   1.976   1.978  0.00  0.00     0.002 A 
ATOM      4  C4  I4B d   1       0.754   1.046   2.988  0.00  0.00    -0.004 A 
ATOM      5  C5  I4B d   1       0.604  -0.303   2.679  0.00  0.00     0.002 A 
ATOM      6  C6  I4B d   1       0.561  -0.716   1.339  0.00  0.00     0.003 A 
ENDROOT
BRANCH   1   7
ATOM      7  C1' I4B d   1       0.528  -0.173  -1.110  0.00  0.00     0.060 C 
BRANCH   7   8
ATOM      8  C2' I4B d   1      -0.670   0.542  -1.701  0.00  0.00    -0.013 C 
ATOM      9  C4' I4B d   1      -0.282   1.342  -2.917  0.00  0.00     0.013 C 
ATOM     10  C3' I4B d   1      -1.705  -0.489  -2.038  0.00  0.00     0.013 C 
ENDBRANCH   7   8
ENDBRANCH   1   7
TORSDOF 2
ENDMDL
