MODEL 1
REMARK minimizedAffinity 5.81509399
REMARK minimizedRMSD -1
REMARK  2 active torsions:
REMARK  status: ('A' for Active; 'I' for Inactive)
REMARK    1  A    between atoms: C2'_3  and  C1'_4 
REMARK    2  A    between atoms: C1'_4  and  C1_5 
ROOT
ATOM      1  C1  I4B d   1       0.285   1.270   1.897  0.00  0.00    -0.075 A 
ATOM      2  C2  I4B d   1       0.390   0.079   2.572  0.00  0.00     0.003 A 
ATOM      3  C3  I4B d   1       0.412  -1.145   1.861  0.00  0.00     0.002 A 
ATOM      4  C4  I4B d   1       0.277  -1.135   0.487  0.00  0.00    -0.004 A 
ATOM      5  C5  I4B d   1       0.194   0.074  -0.198  0.00  0.00     0.002 A 
ATOM      6  C6  I4B d   1       0.211   1.285   0.510  0.00  0.00     0.003 A 
ENDROOT
BRANCH   1   7
ATOM      7  C1' I4B d   1       0.232   2.542   2.682  0.00  0.00     0.060 C 
BRANCH   7   8
ATOM      8  C2' I4B d   1       1.400   3.405   2.252  0.00  0.00    -0.013 C 
ATOM      9  C4' I4B d   1       0.930   4.635   1.522  0.00  0.00     0.013 C 
ATOM     10  C3' I4B d   1       2.183   3.769   3.478  0.00  0.00     0.013 C 
ENDBRANCH   7   8
ENDBRANCH   1   7
TORSDOF 2
ENDMDL
