MODEL 1
REMARK minimizedAffinity -3.76800942
REMARK minimizedRMSD -1
REMARK  2 active torsions:
REMARK  status: ('A' for Active; 'I' for Inactive)
REMARK    1  A    between atoms: C2'_3  and  C1'_4 
REMARK    2  A    between atoms: C1'_4  and  C1_5 
ROOT
ATOM      1  C1  I4B d   1       0.406  -0.676  -0.044  0.00  0.00    -0.075 A 
ATOM      2  C2  I4B d   1      -0.026   0.400  -0.778  0.00  0.00     0.003 A 
ATOM      3  C3  I4B d   1      -0.269   1.644  -0.147  0.00  0.00     0.002 A 
ATOM      4  C4  I4B d   1      -0.117   1.753   1.221  0.00  0.00    -0.004 A 
ATOM      5  C5  I4B d   1       0.343   0.667   1.961  0.00  0.00     0.002 A 
ATOM      6  C6  I4B d   1       0.618  -0.551   1.323  0.00  0.00     0.003 A 
ENDROOT
BRANCH   1   7
ATOM      7  C1' I4B d   1       0.621  -1.983  -0.738  0.00  0.00     0.060 C 
BRANCH   7   8
ATOM      8  C2' I4B d   1      -0.648  -2.800  -0.597  0.00  0.00    -0.013 C 
ATOM      9  C4' I4B d   1      -1.479  -2.737  -1.852  0.00  0.00     0.013 C 
ATOM     10  C3' I4B d   1      -0.256  -4.212  -0.278  0.00  0.00     0.013 C 
ENDBRANCH   7   8
ENDBRANCH   1   7
TORSDOF 2
ENDMDL
