MODEL 1
REMARK minimizedAffinity 9.26917744
REMARK minimizedRMSD -1
REMARK  2 active torsions:
REMARK  status: ('A' for Active; 'I' for Inactive)
REMARK    1  A    between atoms: C2'_3  and  C1'_4 
REMARK    2  A    between atoms: C1'_4  and  C1_5 
ROOT
ATOM      1  C1  I4B d   1       0.722   2.250   2.851  0.00  0.00    -0.075 A 
ATOM      2  C2  I4B d   1       0.405   2.964   1.722  0.00  0.00     0.003 A 
ATOM      3  C3  I4B d   1       1.112   4.149   1.406  0.00  0.00     0.002 A 
ATOM      4  C4  I4B d   1       2.088   4.609   2.267  0.00  0.00    -0.004 A 
ATOM      5  C5  I4B d   1       2.424   3.872   3.399  0.00  0.00     0.002 A 
ATOM      6  C6  I4B d   1       1.745   2.679   3.687  0.00  0.00     0.003 A 
ENDROOT
BRANCH   1   7
ATOM      7  C1' I4B d   1      -0.067   1.021   3.172  0.00  0.00     0.060 C 
BRANCH   7   8
ATOM      8  C2' I4B d   1       0.897  -0.146   3.249  0.00  0.00    -0.013 C 
ATOM      9  C4' I4B d   1       0.517  -1.095   4.355  0.00  0.00     0.013 C 
ATOM     10  C3' I4B d   1       0.895  -0.836   1.918  0.00  0.00     0.013 C 
ENDBRANCH   7   8
ENDBRANCH   1   7
TORSDOF 2
ENDMDL
