MODEL 1
REMARK minimizedAffinity 6.50773716
REMARK minimizedRMSD -1
REMARK  2 active torsions:
REMARK  status: ('A' for Active; 'I' for Inactive)
REMARK    1  A    between atoms: C2'_3  and  C1'_4 
REMARK    2  A    between atoms: C1'_4  and  C1_5 
ROOT
ATOM      1  C1  I4B d   1       0.049  -0.274  -0.555  0.00  0.00    -0.075 A 
ATOM      2  C2  I4B d   1       0.014   0.765  -1.451  0.00  0.00     0.003 A 
ATOM      3  C3  I4B d   1      -1.055   0.876  -2.373  0.00  0.00     0.002 A 
ATOM      4  C4  I4B d   1      -2.035  -0.095  -2.397  0.00  0.00    -0.004 A 
ATOM      5  C5  I4B d   1      -2.011  -1.135  -1.473  0.00  0.00     0.002 A 
ATOM      6  C6  I4B d   1      -0.969  -1.219  -0.537  0.00  0.00     0.003 A 
ENDROOT
BRANCH   1   7
ATOM      7  C1' I4B d   1       1.209  -0.379   0.383  0.00  0.00     0.060 C 
BRANCH   7   8
ATOM      8  C2' I4B d   1       0.677  -0.281   1.798  0.00  0.00    -0.013 C 
ATOM      9  C4' I4B d   1       1.692  -0.767   2.798  0.00  0.00     0.013 C 
ATOM     10  C3' I4B d   1       0.306   1.150   2.054  0.00  0.00     0.013 C 
ENDBRANCH   7   8
ENDBRANCH   1   7
TORSDOF 2
ENDMDL
