MODEL 1
REMARK minimizedAffinity -1.38282537
REMARK minimizedRMSD -1
REMARK  0 active torsions:
REMARK  status: ('A' for Active; 'I' for Inactive)
ROOT
ATOM      1  C   UNL d   1      -2.382   2.321   2.470  0.00  0.00     0.078 C 
ATOM      2  C1  UNL d   1      -1.316   1.444   1.885  0.00  0.00    -0.077 A 
ATOM      3  C2  UNL d   1      -0.473   1.913   0.870  0.00  0.00    -0.001 A 
ATOM      4  C3  UNL d   1       0.509   1.082   0.328  0.00  0.00     0.003 A 
ATOM      5  C4  UNL d   1       0.656  -0.223   0.794  0.00  0.00    -0.005 A 
ATOM      6  C5  UNL d   1      -0.180  -0.700   1.801  0.00  0.00     0.003 A 
ATOM      7  C6  UNL d   1      -1.163   0.130   2.345  0.00  0.00    -0.001 A 
ENDROOT
TORSDOF 0
ENDMDL
