MODEL 1
REMARK minimizedAffinity -2.71158242
REMARK minimizedRMSD -1
REMARK  0 active torsions:
REMARK  status: ('A' for Active; 'I' for Inactive)
ROOT
ATOM      1  C   UNL d   1       1.690   0.898   1.037  0.00  0.00     0.078 C 
ATOM      2  C1  UNL d   1       0.230   0.876   1.379  0.00  0.00    -0.077 A 
ATOM      3  C2  UNL d   1      -0.446  -0.334   1.579  0.00  0.00    -0.001 A 
ATOM      4  C3  UNL d   1      -1.808  -0.339   1.888  0.00  0.00     0.003 A 
ATOM      5  C4  UNL d   1      -2.505   0.863   1.998  0.00  0.00    -0.005 A 
ATOM      6  C5  UNL d   1      -1.840   2.072   1.799  0.00  0.00     0.003 A 
ATOM      7  C6  UNL d   1      -0.479   2.079   1.491  0.00  0.00    -0.001 A 
ENDROOT
TORSDOF 0
ENDMDL
