MODEL 1
REMARK minimizedAffinity -3.18923616
REMARK minimizedRMSD -1
REMARK  0 active torsions:
REMARK  status: ('A' for Active; 'I' for Inactive)
ROOT
ATOM      1  C   UNL d   1       1.675   0.607   0.142  0.00  0.00     0.078 C 
ATOM      2  C1  UNL d   1       0.323   0.623   0.792  0.00  0.00    -0.077 A 
ATOM      3  C2  UNL d   1      -0.410  -0.558   0.960  0.00  0.00    -0.001 A 
ATOM      4  C3  UNL d   1      -1.671  -0.527   1.557  0.00  0.00     0.003 A 
ATOM      5  C4  UNL d   1      -2.210   0.682   1.991  0.00  0.00    -0.005 A 
ATOM      6  C5  UNL d   1      -1.489   1.863   1.826  0.00  0.00     0.003 A 
ATOM      7  C6  UNL d   1      -0.228   1.834   1.229  0.00  0.00    -0.001 A 
ENDROOT
TORSDOF 0
ENDMDL
