MODEL 1
REMARK minimizedAffinity 1.83898354
REMARK minimizedRMSD -1
REMARK  0 active torsions:
REMARK  status: ('A' for Active; 'I' for Inactive)
ROOT
ATOM      1  C   UNL d   1      -2.690   2.584   1.914  0.00  0.00     0.078 C 
ATOM      2  C1  UNL d   1      -1.548   1.666   1.595  0.00  0.00    -0.077 A 
ATOM      3  C2  UNL d   1      -1.729   0.278   1.556  0.00  0.00    -0.001 A 
ATOM      4  C3  UNL d   1      -0.654  -0.565   1.268  0.00  0.00     0.003 A 
ATOM      5  C4  UNL d   1       0.608  -0.030   1.018  0.00  0.00    -0.005 A 
ATOM      6  C5  UNL d   1       0.797   1.349   1.057  0.00  0.00     0.003 A 
ATOM      7  C6  UNL d   1      -0.276   2.194   1.345  0.00  0.00    -0.001 A 
ENDROOT
TORSDOF 0
ENDMDL
