MODEL 1
REMARK minimizedAffinity -0.382860482
REMARK minimizedRMSD -1
REMARK  0 active torsions:
REMARK  status: ('A' for Active; 'I' for Inactive)
ROOT
ATOM      1  C   UNL d   1      -2.536  -0.540   1.415  0.00  0.00     0.078 C 
ATOM      2  C1  UNL d   1      -1.521   0.563   1.401  0.00  0.00    -0.077 A 
ATOM      3  C2  UNL d   1      -0.196   0.320   1.018  0.00  0.00    -0.001 A 
ATOM      4  C3  UNL d   1       0.740   1.355   1.018  0.00  0.00     0.003 A 
ATOM      5  C4  UNL d   1       0.362   2.640   1.401  0.00  0.00    -0.005 A 
ATOM      6  C5  UNL d   1      -0.953   2.892   1.786  0.00  0.00     0.003 A 
ATOM      7  C6  UNL d   1      -1.891   1.858   1.786  0.00  0.00    -0.001 A 
ENDROOT
TORSDOF 0
ENDMDL
