MODEL 1
REMARK minimizedAffinity 0.599746704
REMARK minimizedRMSD -1
REMARK  0 active torsions:
REMARK  status: ('A' for Active; 'I' for Inactive)
ROOT
ATOM      1  C   UNL d   1       1.211   2.140   0.951  0.00  0.00     0.078 C 
ATOM      2  C1  UNL d   1       0.083   1.177   1.172  0.00  0.00    -0.077 A 
ATOM      3  C2  UNL d   1      -1.238   1.532   0.874  0.00  0.00    -0.001 A 
ATOM      4  C3  UNL d   1      -2.278   0.628   1.094  0.00  0.00     0.003 A 
ATOM      5  C4  UNL d   1      -2.009  -0.636   1.615  0.00  0.00    -0.005 A 
ATOM      6  C5  UNL d   1      -0.698  -0.997   1.917  0.00  0.00     0.003 A 
ATOM      7  C6  UNL d   1       0.344  -0.095   1.698  0.00  0.00    -0.001 A 
ENDROOT
TORSDOF 0
ENDMDL
