MODEL 1
REMARK minimizedAffinity -0.165349036
REMARK minimizedRMSD -1
REMARK  0 active torsions:
REMARK  status: ('A' for Active; 'I' for Inactive)
ROOT
ATOM      1  C   UNL d   1      -2.793  -0.791   2.598  0.00  0.00     0.078 C 
ATOM      2  C1  UNL d   1      -1.699   0.115   2.116  0.00  0.00    -0.077 A 
ATOM      3  C2  UNL d   1      -0.489  -0.406   1.642  0.00  0.00    -0.001 A 
ATOM      4  C3  UNL d   1       0.525   0.449   1.205  0.00  0.00     0.003 A 
ATOM      5  C4  UNL d   1       0.339   1.829   1.241  0.00  0.00    -0.005 A 
ATOM      6  C5  UNL d   1      -0.861   2.357   1.714  0.00  0.00     0.003 A 
ATOM      7  C6  UNL d   1      -1.875   1.504   2.150  0.00  0.00    -0.001 A 
ENDROOT
TORSDOF 0
ENDMDL
