MODEL 1
REMARK minimizedAffinity -1.44540894
REMARK minimizedRMSD -1
REMARK  0 active torsions:
REMARK  status: ('A' for Active; 'I' for Inactive)
ROOT
ATOM      1  C   UNL d   1      -1.918   2.631   2.475  0.00  0.00     0.078 C 
ATOM      2  C1  UNL d   1      -1.143   1.475   1.919  0.00  0.00    -0.077 A 
ATOM      3  C2  UNL d   1      -1.551   0.155   2.148  0.00  0.00    -0.001 A 
ATOM      4  C3  UNL d   1      -0.815  -0.912   1.632  0.00  0.00     0.003 A 
ATOM      5  C4  UNL d   1       0.336  -0.670   0.884  0.00  0.00    -0.005 A 
ATOM      6  C5  UNL d   1       0.752   0.639   0.652  0.00  0.00     0.003 A 
ATOM      7  C6  UNL d   1       0.016   1.707   1.168  0.00  0.00    -0.001 A 
ENDROOT
TORSDOF 0
ENDMDL
