MODEL 1
REMARK minimizedAffinity -2.49395871
REMARK minimizedRMSD -1
REMARK  0 active torsions:
REMARK  status: ('A' for Active; 'I' for Inactive)
ROOT
ATOM      1  C   UNL d   1       2.022   0.413   0.553  0.00  0.00     0.078 C 
ATOM      2  C1  UNL d   1       0.603   0.519   1.024  0.00  0.00    -0.077 A 
ATOM      3  C2  UNL d   1       0.021   1.766   1.285  0.00  0.00    -0.001 A 
ATOM      4  C3  UNL d   1      -1.299   1.849   1.733  0.00  0.00     0.003 A 
ATOM      5  C4  UNL d   1      -2.047   0.689   1.923  0.00  0.00    -0.005 A 
ATOM      6  C5  UNL d   1      -1.476  -0.556   1.667  0.00  0.00     0.003 A 
ATOM      7  C6  UNL d   1      -0.157  -0.641   1.220  0.00  0.00    -0.001 A 
ENDROOT
TORSDOF 0
ENDMDL
