MODEL 1
REMARK minimizedAffinity 3.1966691
REMARK minimizedRMSD -1
REMARK  0 active torsions:
REMARK  status: ('A' for Active; 'I' for Inactive)
ROOT
ATOM      1  C   UNL d   1      -3.440  -4.606  -0.720  0.00  0.00     0.078 C 
ATOM      2  C1  UNL d   1      -3.361  -3.293  -1.440  0.00  0.00    -0.077 A 
ATOM      3  C2  UNL d   1      -3.447  -2.082  -0.743  0.00  0.00    -0.001 A 
ATOM      4  C3  UNL d   1      -3.381  -0.867  -1.428  0.00  0.00     0.003 A 
ATOM      5  C4  UNL d   1      -3.230  -0.852  -2.813  0.00  0.00    -0.005 A 
ATOM      6  C5  UNL d   1      -3.145  -2.052  -3.515  0.00  0.00     0.003 A 
ATOM      7  C6  UNL d   1      -3.211  -3.268  -2.833  0.00  0.00    -0.001 A 
ENDROOT
TORSDOF 0
ENDMDL
