MODEL 1
REMARK minimizedAffinity 1.68107665
REMARK minimizedRMSD -1
REMARK  0 active torsions:
REMARK  status: ('A' for Active; 'I' for Inactive)
ROOT
ATOM      1  C   UNL d   1       3.088   2.232  -3.758  0.00  0.00     0.078 C 
ATOM      2  C1  UNL d   1       3.362   3.482  -4.539  0.00  0.00    -0.077 A 
ATOM      3  C2  UNL d   1       4.633   4.070  -4.535  0.00  0.00    -0.001 A 
ATOM      4  C3  UNL d   1       4.872   5.240  -5.259  0.00  0.00     0.003 A 
ATOM      5  C4  UNL d   1       3.844   5.831  -5.992  0.00  0.00    -0.005 A 
ATOM      6  C5  UNL d   1       2.576   5.254  -6.000  0.00  0.00     0.003 A 
ATOM      7  C6  UNL d   1       2.336   4.085  -5.276  0.00  0.00    -0.001 A 
ENDROOT
TORSDOF 0
ENDMDL
