MODEL 1
REMARK minimizedAffinity -1.80185878
REMARK minimizedRMSD -1
REMARK  0 active torsions:
REMARK  status: ('A' for Active; 'I' for Inactive)
ROOT
ATOM      1  C   UNL d   1       1.056   3.009   0.345  0.00  0.00     0.078 C 
ATOM      2  C1  UNL d   1      -0.052   2.251   1.012  0.00  0.00    -0.077 A 
ATOM      3  C2  UNL d   1       0.167   0.976   1.549  0.00  0.00    -0.001 A 
ATOM      4  C3  UNL d   1      -0.876   0.278   2.159  0.00  0.00     0.003 A 
ATOM      5  C4  UNL d   1      -2.146   0.845   2.236  0.00  0.00    -0.005 A 
ATOM      6  C5  UNL d   1      -2.375   2.112   1.703  0.00  0.00     0.003 A 
ATOM      7  C6  UNL d   1      -1.333   2.812   1.093  0.00  0.00    -0.001 A 
ENDROOT
TORSDOF 0
ENDMDL
