MODEL 1
REMARK minimizedAffinity 2.89424086
REMARK minimizedRMSD -1
REMARK  0 active torsions:
REMARK  status: ('A' for Active; 'I' for Inactive)
ROOT
ATOM      1  C   UNL d   1       0.853   2.365  -0.439  0.00  0.00     0.078 C 
ATOM      2  C1  UNL d   1      -0.207   2.305   0.620  0.00  0.00    -0.077 A 
ATOM      3  C2  UNL d   1      -0.342   1.180   1.443  0.00  0.00    -0.001 A 
ATOM      4  C3  UNL d   1      -1.339   1.134   2.418  0.00  0.00     0.003 A 
ATOM      5  C4  UNL d   1      -2.211   2.210   2.579  0.00  0.00    -0.005 A 
ATOM      6  C5  UNL d   1      -2.086   3.333   1.763  0.00  0.00     0.003 A 
ATOM      7  C6  UNL d   1      -1.089   3.380   0.787  0.00  0.00    -0.001 A 
ENDROOT
TORSDOF 0
ENDMDL
