MODEL 1
REMARK minimizedAffinity -0.441621542
REMARK minimizedRMSD -1
REMARK  0 active torsions:
REMARK  status: ('A' for Active; 'I' for Inactive)
ROOT
ATOM      1  C   UNL d   1      -2.715   1.359   2.240  0.00  0.00     0.078 C 
ATOM      2  C1  UNL d   1      -1.336   1.773   1.822  0.00  0.00    -0.077 A 
ATOM      3  C2  UNL d   1      -1.126   2.956   1.102  0.00  0.00    -0.001 A 
ATOM      4  C3  UNL d   1       0.162   3.324   0.711  0.00  0.00     0.003 A 
ATOM      5  C4  UNL d   1       1.250   2.515   1.034  0.00  0.00    -0.005 A 
ATOM      6  C5  UNL d   1       1.050   1.336   1.749  0.00  0.00     0.003 A 
ATOM      7  C6  UNL d   1      -0.237   0.966   2.140  0.00  0.00    -0.001 A 
ENDROOT
TORSDOF 0
ENDMDL
