MODEL 1
REMARK minimizedAffinity 5.26492834
REMARK minimizedRMSD -1
REMARK  1 active torsions:
REMARK  status: ('A' for Active; 'I' for Inactive)
REMARK    1  A    between atoms: C1_2  and  C2_3 
ROOT
ATOM      1  C2  UNL d   1      -0.449  -1.886  -1.792  0.00  0.00    -0.073 A 
ATOM      2  C3  UNL d   1      -1.612  -2.132  -2.531  0.00  0.00    -0.002 A 
ATOM      3  C4  UNL d   1      -2.776  -2.561  -1.892  0.00  0.00     0.004 A 
ATOM      4  C5  UNL d   1      -2.791  -2.742  -0.509  0.00  0.00    -0.004 A 
ATOM      5  C6  UNL d   1      -1.643  -2.489   0.249  0.00  0.00    -0.075 A 
ATOM      6  C7  UNL d   1      -1.643  -2.680   1.737  0.00  0.00     0.076 C 
ATOM      7  C8  UNL d   1      -0.478  -2.061  -0.401  0.00  0.00     0.001 A 
ENDROOT
BRANCH   1   8
ATOM      8  C1  UNL d   1       0.808  -1.416  -2.477  0.00  0.00     0.053 C 
ATOM      9  C   UNL d   1       1.458  -2.520  -3.295  0.00  0.00     0.018 C 
ENDBRANCH   1   8
TORSDOF 1
ENDMDL
