MODEL 1
REMARK minimizedAffinity -1.11469615
REMARK minimizedRMSD -1
REMARK  1 active torsions:
REMARK  status: ('A' for Active; 'I' for Inactive)
REMARK    1  A    between atoms: C1_2  and  C2_3 
ROOT
ATOM      1  C2  UNL d   1       1.821  -1.826  -2.072  0.00  0.00    -0.073 A 
ATOM      2  C3  UNL d   1       1.687  -2.366  -3.356  0.00  0.00    -0.002 A 
ATOM      3  C4  UNL d   1       0.437  -2.776  -3.821  0.00  0.00     0.004 A 
ATOM      4  C5  UNL d   1      -0.691  -2.644  -3.011  0.00  0.00    -0.004 A 
ATOM      5  C6  UNL d   1      -0.579  -2.096  -1.730  0.00  0.00    -0.075 A 
ATOM      6  C7  UNL d   1      -1.783  -1.949  -0.846  0.00  0.00     0.076 C 
ATOM      7  C8  UNL d   1       0.680  -1.689  -1.269  0.00  0.00     0.001 A 
ENDROOT
BRANCH   1   8
ATOM      8  C1  UNL d   1       3.168  -1.376  -1.568  0.00  0.00     0.053 C 
ATOM      9  C   UNL d   1       3.338  -1.642  -0.081  0.00  0.00     0.018 C 
ENDBRANCH   1   8
TORSDOF 1
ENDMDL
