MODEL 1
REMARK minimizedAffinity 10.0532045
REMARK minimizedRMSD -1
REMARK  1 active torsions:
REMARK  status: ('A' for Active; 'I' for Inactive)
REMARK    1  A    between atoms: C1_2  and  C2_3 
ROOT
ATOM      1  C2  UNL d   1       0.500  -2.203  -2.257  0.00  0.00    -0.073 A 
ATOM      2  C3  UNL d   1       0.645  -2.542  -3.607  0.00  0.00    -0.002 A 
ATOM      3  C4  UNL d   1       1.906  -2.528  -4.205  0.00  0.00     0.004 A 
ATOM      4  C5  UNL d   1       3.033  -2.183  -3.459  0.00  0.00    -0.004 A 
ATOM      5  C6  UNL d   1       2.910  -1.853  -2.106  0.00  0.00    -0.075 A 
ATOM      6  C7  UNL d   1       4.112  -1.478  -1.291  0.00  0.00     0.076 C 
ATOM      7  C8  UNL d   1       1.640  -1.866  -1.513  0.00  0.00     0.001 A 
ENDROOT
BRANCH   1   8
ATOM      8  C1  UNL d   1      -0.859  -2.223  -1.604  0.00  0.00     0.053 C 
ATOM      9  C   UNL d   1      -0.785  -2.645  -0.146  0.00  0.00     0.018 C 
ENDBRANCH   1   8
TORSDOF 1
ENDMDL
