MODEL 1
REMARK minimizedAffinity 1.98731256
REMARK minimizedRMSD -1
REMARK  1 active torsions:
REMARK  status: ('A' for Active; 'I' for Inactive)
REMARK    1  A    between atoms: C1_2  and  C2_3 
ROOT
ATOM      1  C2  UNL d   1       5.675   4.177  -2.861  0.00  0.00    -0.073 A 
ATOM      2  C3  UNL d   1       5.939   2.905  -3.381  0.00  0.00    -0.002 A 
ATOM      3  C4  UNL d   1       5.647   2.614  -4.715  0.00  0.00     0.004 A 
ATOM      4  C5  UNL d   1       5.095   3.593  -5.542  0.00  0.00    -0.004 A 
ATOM      5  C6  UNL d   1       4.834   4.873  -5.043  0.00  0.00    -0.075 A 
ATOM      6  C7  UNL d   1       4.238   5.936  -5.919  0.00  0.00     0.076 C 
ATOM      7  C8  UNL d   1       5.128   5.156  -3.702  0.00  0.00     0.001 A 
ENDROOT
BRANCH   1   8
ATOM      8  C1  UNL d   1       5.994   4.497  -1.423  0.00  0.00     0.053 C 
ATOM      9  C   UNL d   1       5.998   5.994  -1.160  0.00  0.00     0.018 C 
ENDBRANCH   1   8
TORSDOF 1
ENDMDL
