MODEL 1
REMARK minimizedAffinity 7.58043575
REMARK minimizedRMSD -1
REMARK  1 active torsions:
REMARK  status: ('A' for Active; 'I' for Inactive)
REMARK    1  A    between atoms: C1_2  and  C2_3 
ROOT
ATOM      1  C2  UNL d   1       1.939  -1.747  -2.799  0.00  0.00    -0.073 A 
ATOM      2  C3  UNL d   1       1.287  -2.205  -3.950  0.00  0.00    -0.002 A 
ATOM      3  C4  UNL d   1      -0.091  -2.422  -3.940  0.00  0.00     0.004 A 
ATOM      4  C5  UNL d   1      -0.832  -2.175  -2.784  0.00  0.00    -0.004 A 
ATOM      5  C6  UNL d   1      -0.201  -1.705  -1.628  0.00  0.00    -0.075 A 
ATOM      6  C7  UNL d   1      -0.983  -1.437  -0.376  0.00  0.00     0.076 C 
ATOM      7  C8  UNL d   1       1.184  -1.493  -1.645  0.00  0.00     0.001 A 
ENDROOT
BRANCH   1   8
ATOM      8  C1  UNL d   1       3.427  -1.506  -2.807  0.00  0.00     0.053 C 
ATOM      9  C   UNL d   1       4.009  -1.494  -1.403  0.00  0.00     0.018 C 
ENDBRANCH   1   8
TORSDOF 1
ENDMDL
