MODEL 1
REMARK minimizedAffinity 1.92646122
REMARK minimizedRMSD -1
REMARK  1 active torsions:
REMARK  status: ('A' for Active; 'I' for Inactive)
REMARK    1  A    between atoms: C1_2  and  C2_3 
ROOT
ATOM      1  C2  UNL d   1       5.344   3.476  -3.848  0.00  0.00    -0.073 A 
ATOM      2  C3  UNL d   1       4.336   4.126  -4.569  0.00  0.00    -0.002 A 
ATOM      3  C4  UNL d   1       3.864   5.372  -4.155  0.00  0.00     0.004 A 
ATOM      4  C5  UNL d   1       4.399   5.984  -3.021  0.00  0.00    -0.004 A 
ATOM      5  C6  UNL d   1       5.415   5.356  -2.294  0.00  0.00    -0.075 A 
ATOM      6  C7  UNL d   1       6.000   6.000  -1.071  0.00  0.00     0.076 C 
ATOM      7  C8  UNL d   1       5.882   4.104  -2.715  0.00  0.00     0.001 A 
ENDROOT
BRANCH   1   8
ATOM      8  C1  UNL d   1       5.862   2.134  -4.295  0.00  0.00     0.053 C 
ATOM      9  C   UNL d   1       5.568   1.870  -5.763  0.00  0.00     0.018 C 
ENDBRANCH   1   8
TORSDOF 1
ENDMDL
