MODEL 1
REMARK minimizedAffinity 7.61811304
REMARK minimizedRMSD -1
REMARK  1 active torsions:
REMARK  status: ('A' for Active; 'I' for Inactive)
REMARK    1  A    between atoms: C1_2  and  C2_3 
ROOT
ATOM      1  C2  UNL d   1       5.200   4.842  -2.212  0.00  0.00    -0.073 A 
ATOM      2  C3  UNL d   1       3.813   5.022  -2.173  0.00  0.00    -0.002 A 
ATOM      3  C4  UNL d   1       3.075   5.074  -3.356  0.00  0.00     0.004 A 
ATOM      4  C5  UNL d   1       3.715   4.940  -4.588  0.00  0.00    -0.004 A 
ATOM      5  C6  UNL d   1       5.099   4.747  -4.647  0.00  0.00    -0.075 A 
ATOM      6  C7  UNL d   1       5.802   4.602  -5.965  0.00  0.00     0.076 C 
ATOM      7  C8  UNL d   1       5.833   4.698  -3.455  0.00  0.00     0.001 A 
ENDROOT
BRANCH   1   8
ATOM      8  C1  UNL d   1       6.000   4.779  -0.936  0.00  0.00     0.053 C 
ATOM      9  C   UNL d   1       5.210   5.291   0.258  0.00  0.00     0.018 C 
ENDBRANCH   1   8
TORSDOF 1
ENDMDL
