MODEL 1
REMARK minimizedAffinity 1.15342414
REMARK minimizedRMSD -1
REMARK  1 active torsions:
REMARK  status: ('A' for Active; 'I' for Inactive)
REMARK    1  A    between atoms: C1_2  and  C2_3 
ROOT
ATOM      1  C2  UNL d   1      -1.559  -1.582   1.253  0.00  0.00    -0.073 A 
ATOM      2  C3  UNL d   1      -1.186  -0.371   0.660  0.00  0.00    -0.002 A 
ATOM      3  C4  UNL d   1      -1.222   0.814   1.396  0.00  0.00     0.004 A 
ATOM      4  C5  UNL d   1      -1.623   0.800   2.732  0.00  0.00    -0.004 A 
ATOM      5  C6  UNL d   1      -1.988  -0.403   3.346  0.00  0.00    -0.075 A 
ATOM      6  C7  UNL d   1      -2.424  -0.435   4.781  0.00  0.00     0.076 C 
ATOM      7  C8  UNL d   1      -1.952  -1.589   2.599  0.00  0.00     0.001 A 
ENDROOT
BRANCH   1   8
ATOM      8  C1  UNL d   1      -1.516  -2.866   0.465  0.00  0.00     0.053 C 
ATOM      9  C   UNL d   1      -1.520  -2.614  -1.035  0.00  0.00     0.018 C 
ENDBRANCH   1   8
TORSDOF 1
ENDMDL
