MODEL 1
REMARK minimizedAffinity 6.46871567
REMARK minimizedRMSD -1
REMARK  1 active torsions:
REMARK  status: ('A' for Active; 'I' for Inactive)
REMARK    1  A    between atoms: C1_2  and  C2_3 
ROOT
ATOM      1  C2  UNL d   1      -1.675  -2.343   1.843  0.00  0.00    -0.073 A 
ATOM      2  C3  UNL d   1      -2.788  -3.109   1.477  0.00  0.00    -0.002 A 
ATOM      3  C4  UNL d   1      -2.989  -3.467   0.143  0.00  0.00     0.004 A 
ATOM      4  C5  UNL d   1      -2.078  -3.070  -0.835  0.00  0.00    -0.004 A 
ATOM      5  C6  UNL d   1      -0.954  -2.315  -0.488  0.00  0.00    -0.075 A 
ATOM      6  C7  UNL d   1       0.035  -1.878  -1.529  0.00  0.00     0.076 C 
ATOM      7  C8  UNL d   1      -0.760  -1.957   0.853  0.00  0.00     0.001 A 
ENDROOT
BRANCH   1   8
ATOM      8  C1  UNL d   1      -1.450  -1.959   3.283  0.00  0.00     0.053 C 
ATOM      9  C   UNL d   1      -2.140  -0.652   3.638  0.00  0.00     0.018 C 
ENDBRANCH   1   8
TORSDOF 1
ENDMDL
