MODEL 1
REMARK minimizedAffinity 0.251786023
REMARK minimizedRMSD -1
REMARK  1 active torsions:
REMARK  status: ('A' for Active; 'I' for Inactive)
REMARK    1  A    between atoms: C1_2  and  C2_3 
ROOT
ATOM      1  C2  UNL d   1       4.260  -2.645   3.142  0.00  0.00    -0.073 A 
ATOM      2  C3  UNL d   1       5.230  -3.375   3.839  0.00  0.00    -0.002 A 
ATOM      3  C4  UNL d   1       5.325  -3.273   5.228  0.00  0.00     0.004 A 
ATOM      4  C5  UNL d   1       4.449  -2.448   5.933  0.00  0.00    -0.004 A 
ATOM      5  C6  UNL d   1       3.465  -1.721   5.255  0.00  0.00    -0.075 A 
ATOM      6  C7  UNL d   1       2.516  -0.827   5.999  0.00  0.00     0.076 C 
ATOM      7  C8  UNL d   1       3.378  -1.826   3.860  0.00  0.00     0.001 A 
ENDROOT
BRANCH   1   8
ATOM      8  C1  UNL d   1       4.149  -2.757   1.643  0.00  0.00     0.053 C 
ATOM      9  C   UNL d   1       5.508  -2.929   0.982  0.00  0.00     0.018 C 
ENDBRANCH   1   8
TORSDOF 1
ENDMDL
