MODEL 1
REMARK minimizedAffinity -3.94248199
REMARK minimizedRMSD -1
REMARK  2 active torsions:
REMARK  status: ('A' for Active; 'I' for Inactive)
REMARK    1  A    between atoms: C2'_3  and  C1'_4 
REMARK    2  A    between atoms: C1'_4  and  C1_5 
ROOT
ATOM      1  C1  I4B d   1       0.191  -0.027  -1.109  0.00  0.00    -0.075 A 
ATOM      2  C2  I4B d   1       1.511  -0.365  -0.942  0.00  0.00     0.003 A 
ATOM      3  C3  I4B d   1       2.038  -0.556   0.358  0.00  0.00     0.002 A 
ATOM      4  C4  I4B d   1       1.228  -0.353   1.457  0.00  0.00    -0.004 A 
ATOM      5  C5  I4B d   1      -0.115  -0.033   1.284  0.00  0.00     0.002 A 
ATOM      6  C6  I4B d   1      -0.641   0.118  -0.007  0.00  0.00     0.003 A 
ENDROOT
BRANCH   1   7
ATOM      7  C1' I4B d   1      -0.325   0.200  -2.495  0.00  0.00     0.060 C 
BRANCH   7   8
ATOM      8  C2' I4B d   1      -0.597   1.682  -2.655  0.00  0.00    -0.013 C 
ATOM      9  C4' I4B d   1       0.347   2.306  -3.648  0.00  0.00     0.013 C 
ATOM     10  C3' I4B d   1      -2.024   1.846  -3.086  0.00  0.00     0.013 C 
ENDBRANCH   7   8
ENDBRANCH   1   7
TORSDOF 2
ENDMDL
