MODEL 1
REMARK minimizedAffinity -1.32548857
REMARK minimizedRMSD -1
REMARK  2 active torsions:
REMARK  status: ('A' for Active; 'I' for Inactive)
REMARK    1  A    between atoms: C2'_3  and  C1'_4 
REMARK    2  A    between atoms: C1'_4  and  C1_5 
ROOT
ATOM      1  C1  I4B d   1      -0.875   1.351  -2.072  0.00  0.00    -0.075 A 
ATOM      2  C2  I4B d   1      -2.134   1.789  -2.398  0.00  0.00     0.003 A 
ATOM      3  C3  I4B d   1      -2.319   3.076  -2.959  0.00  0.00     0.002 A 
ATOM      4  C4  I4B d   1      -1.229   3.906  -3.129  0.00  0.00    -0.004 A 
ATOM      5  C5  I4B d   1       0.050   3.452  -2.819  0.00  0.00     0.002 A 
ATOM      6  C6  I4B d   1       0.230   2.162  -2.299  0.00  0.00     0.003 A 
ENDROOT
BRANCH   1   7
ATOM      7  C1' I4B d   1      -0.720  -0.001  -1.451  0.00  0.00     0.060 C 
BRANCH   7   8
ATOM      8  C2' I4B d   1       0.173   0.143  -0.235  0.00  0.00    -0.013 C 
ATOM      9  C4' I4B d   1      -0.618   0.018   1.040  0.00  0.00     0.013 C 
ATOM     10  C3' I4B d   1       1.239  -0.908  -0.316  0.00  0.00     0.013 C 
ENDBRANCH   7   8
ENDBRANCH   1   7
TORSDOF 2
ENDMDL
