MODEL 1
REMARK minimizedAffinity -4.31648397
REMARK minimizedRMSD -1
REMARK  2 active torsions:
REMARK  status: ('A' for Active; 'I' for Inactive)
REMARK    1  A    between atoms: C2'_3  and  C1'_4 
REMARK    2  A    between atoms: C1'_4  and  C1_5 
ROOT
ATOM      1  C1  I4B d   1       0.709   0.668  -0.693  0.00  0.00    -0.075 A 
ATOM      2  C2  I4B d   1      -0.461   0.543   0.013  0.00  0.00     0.003 A 
ATOM      3  C3  I4B d   1      -0.464  -0.081   1.284  0.00  0.00     0.002 A 
ATOM      4  C4  I4B d   1       0.709  -0.607   1.785  0.00  0.00    -0.004 A 
ATOM      5  C5  I4B d   1       1.899  -0.459   1.079  0.00  0.00     0.002 A 
ATOM      6  C6  I4B d   1       1.902   0.194  -0.163  0.00  0.00     0.003 A 
ENDROOT
BRANCH   1   7
ATOM      7  C1' I4B d   1       0.670   1.303  -2.047  0.00  0.00     0.060 C 
BRANCH   7   8
ATOM      8  C2' I4B d   1      -0.064   2.622  -1.922  0.00  0.00    -0.013 C 
ATOM      9  C4' I4B d   1       0.863   3.787  -2.152  0.00  0.00     0.013 C 
ATOM     10  C3' I4B d   1      -1.188   2.622  -2.915  0.00  0.00     0.013 C 
ENDBRANCH   7   8
ENDBRANCH   1   7
TORSDOF 2
ENDMDL
