MODEL 1
REMARK minimizedAffinity -1.98976922
REMARK minimizedRMSD -1
REMARK  2 active torsions:
REMARK  status: ('A' for Active; 'I' for Inactive)
REMARK    1  A    between atoms: C2'_3  and  C1'_4 
REMARK    2  A    between atoms: C1'_4  and  C1_5 
ROOT
ATOM      1  C1  I4B d   1      -0.139   0.204  -0.743  0.00  0.00    -0.075 A 
ATOM      2  C2  I4B d   1      -1.100  -0.086  -1.678  0.00  0.00     0.003 A 
ATOM      3  C3  I4B d   1      -1.571   0.922  -2.554  0.00  0.00     0.002 A 
ATOM      4  C4  I4B d   1      -1.093   2.210  -2.426  0.00  0.00    -0.004 A 
ATOM      5  C5  I4B d   1      -0.101   2.498  -1.493  0.00  0.00     0.002 A 
ATOM      6  C6  I4B d   1       0.388   1.486  -0.654  0.00  0.00     0.003 A 
ENDROOT
BRANCH   1   7
ATOM      7  C1' I4B d   1       0.312  -0.877   0.187  0.00  0.00     0.060 C 
BRANCH   7   8
ATOM      8  C2' I4B d   1      -0.384  -0.668   1.517  0.00  0.00    -0.013 C 
ATOM      9  C4' I4B d   1      -1.880  -0.630   1.350  0.00  0.00     0.013 C 
ATOM     10  C3' I4B d   1       0.030  -1.779   2.436  0.00  0.00     0.013 C 
ENDBRANCH   7   8
ENDBRANCH   1   7
TORSDOF 2
ENDMDL
