MODEL 1
REMARK minimizedAffinity -0.160353944
REMARK minimizedRMSD -1
REMARK  2 active torsions:
REMARK  status: ('A' for Active; 'I' for Inactive)
REMARK    1  A    between atoms: C2'_3  and  C1'_4 
REMARK    2  A    between atoms: C1'_4  and  C1_5 
ROOT
ATOM      1  C1  I4B d   1       0.339  -0.341  -0.273  0.00  0.00    -0.075 A 
ATOM      2  C2  I4B d   1      -0.509  -0.015   0.755  0.00  0.00     0.003 A 
ATOM      3  C3  I4B d   1      -0.228  -0.445   2.075  0.00  0.00     0.002 A 
ATOM      4  C4  I4B d   1       0.878  -1.236   2.311  0.00  0.00    -0.004 A 
ATOM      5  C5  I4B d   1       1.749  -1.547   1.270  0.00  0.00     0.002 A 
ATOM      6  C6  I4B d   1       1.485  -1.086  -0.028  0.00  0.00     0.003 A 
ENDROOT
BRANCH   1   7
ATOM      7  C1' I4B d   1      -0.006   0.101  -1.660  0.00  0.00     0.060 C 
BRANCH   7   8
ATOM      8  C2' I4B d   1      -0.949   1.282  -1.552  0.00  0.00    -0.013 C 
ATOM      9  C4' I4B d   1      -0.338   2.524  -2.147  0.00  0.00     0.013 C 
ATOM     10  C3' I4B d   1      -2.226   0.920  -2.249  0.00  0.00     0.013 C 
ENDBRANCH   7   8
ENDBRANCH   1   7
TORSDOF 2
ENDMDL
