MODEL 1
REMARK minimizedAffinity -4.5873456
REMARK minimizedRMSD -1
REMARK  2 active torsions:
REMARK  status: ('A' for Active; 'I' for Inactive)
REMARK    1  A    between atoms: C2'_3  and  C1'_4 
REMARK    2  A    between atoms: C1'_4  and  C1_5 
ROOT
ATOM      1  C1  I4B d   1      -3.594   2.447  -3.172  0.00  0.00    -0.075 A 
ATOM      2  C2  I4B d   1      -3.637   1.075  -3.146  0.00  0.00     0.003 A 
ATOM      3  C3  I4B d   1      -4.849   0.395  -3.415  0.00  0.00     0.002 A 
ATOM      4  C4  I4B d   1      -5.998   1.121  -3.655  0.00  0.00    -0.004 A 
ATOM      5  C5  I4B d   1      -5.947   2.512  -3.704  0.00  0.00     0.002 A 
ATOM      6  C6  I4B d   1      -4.735   3.179  -3.473  0.00  0.00     0.003 A 
ENDROOT
BRANCH   1   7
ATOM      7  C1' I4B d   1      -2.305   3.134  -2.850  0.00  0.00     0.060 C 
BRANCH   7   8
ATOM      8  C2' I4B d   1      -1.172   2.199  -3.222  0.00  0.00    -0.013 C 
ATOM      9  C4' I4B d   1      -0.043   2.946  -3.881  0.00  0.00     0.013 C 
ATOM     10  C3' I4B d   1      -0.710   1.510  -1.973  0.00  0.00     0.013 C 
ENDBRANCH   7   8
ENDBRANCH   1   7
TORSDOF 2
ENDMDL
