MODEL 1
REMARK minimizedAffinity -3.79197121
REMARK minimizedRMSD -1
REMARK  2 active torsions:
REMARK  status: ('A' for Active; 'I' for Inactive)
REMARK    1  A    between atoms: C2'_3  and  C1'_4 
REMARK    2  A    between atoms: C1'_4  and  C1_5 
ROOT
ATOM      1  C1  I4B d   1       0.030   0.214  -0.418  0.00  0.00    -0.075 A 
ATOM      2  C2  I4B d   1       1.368  -0.089  -0.386  0.00  0.00     0.003 A 
ATOM      3  C3  I4B d   1       1.977  -0.502   0.824  0.00  0.00     0.002 A 
ATOM      4  C4  I4B d   1       1.226  -0.548   1.981  0.00  0.00    -0.004 A 
ATOM      5  C5  I4B d   1      -0.136  -0.263   1.942  0.00  0.00     0.002 A 
ATOM      6  C6  I4B d   1      -0.741   0.109   0.732  0.00  0.00     0.003 A 
ENDROOT
BRANCH   1   7
ATOM      7  C1' I4B d   1      -0.573   0.679  -1.706  0.00  0.00     0.060 C 
BRANCH   7   8
ATOM      8  C2' I4B d   1      -0.601   2.194  -1.689  0.00  0.00    -0.013 C 
ATOM      9  C4' I4B d   1       0.424   2.768  -2.630  0.00  0.00     0.013 C 
ATOM     10  C3' I4B d   1      -1.985   2.635  -2.061  0.00  0.00     0.013 C 
ENDBRANCH   7   8
ENDBRANCH   1   7
TORSDOF 2
ENDMDL
