MODEL 1
REMARK minimizedAffinity -2.02889943
REMARK minimizedRMSD -1
REMARK  2 active torsions:
REMARK  status: ('A' for Active; 'I' for Inactive)
REMARK    1  A    between atoms: C2'_3  and  C1'_4 
REMARK    2  A    between atoms: C1'_4  and  C1_5 
ROOT
ATOM      1  C1  I4B d   1       0.077   0.534  -1.562  0.00  0.00    -0.075 A 
ATOM      2  C2  I4B d   1       0.802  -0.630  -1.629  0.00  0.00     0.003 A 
ATOM      3  C3  I4B d   1       1.281  -1.240  -0.445  0.00  0.00     0.002 A 
ATOM      4  C4  I4B d   1       1.057  -0.631   0.773  0.00  0.00    -0.004 A 
ATOM      5  C5  I4B d   1       0.302   0.536   0.841  0.00  0.00     0.002 A 
ATOM      6  C6  I4B d   1      -0.202   1.116  -0.332  0.00  0.00     0.003 A 
ENDROOT
BRANCH   1   7
ATOM      7  C1' I4B d   1      -0.385   1.169  -2.835  0.00  0.00     0.060 C 
BRANCH   7   8
ATOM      8  C2' I4B d   1      -0.802   2.592  -2.521  0.00  0.00    -0.013 C 
ATOM      9  C4' I4B d   1       0.270   3.574  -2.914  0.00  0.00     0.013 C 
ATOM     10  C3' I4B d   1      -2.084   2.870  -3.249  0.00  0.00     0.013 C 
ENDBRANCH   7   8
ENDBRANCH   1   7
TORSDOF 2
ENDMDL
