MODEL 1
REMARK minimizedAffinity 11.6774826
REMARK minimizedRMSD -1
REMARK  0 active torsions:
REMARK  status: ('A' for Active; 'I' for Inactive)
ROOT
ATOM      1  C   UNL d   1      -4.254  -0.503  -1.504  0.00  0.00     0.023 A 
ATOM      2  C1  UNL d   1      -5.482  -0.001  -1.074  0.00  0.00     0.003 A 
ATOM      3  C2  UNL d   1      -5.985   1.181  -1.621  0.00  0.00     0.048 A 
ATOM      4  C3  UNL d   1      -5.254   1.856  -2.598  0.00  0.00     0.023 A 
ATOM      5  C4  UNL d   1      -4.025   1.357  -3.032  0.00  0.00     0.048 A 
ATOM      6  C5  UNL d   1      -3.526   0.175  -2.482  0.00  0.00     0.003 A 
ATOM      7  I   UNL d   1      -6.000   3.616  -3.414  0.00  0.00    -0.146 I 
ENDROOT
TORSDOF 0
ENDMDL
