MODEL 1
REMARK minimizedAffinity 8.74443817
REMARK minimizedRMSD -1
REMARK  0 active torsions:
REMARK  status: ('A' for Active; 'I' for Inactive)
ROOT
ATOM      1  C   UNL d   1       1.904  -3.069  -1.115  0.00  0.00     0.023 A 
ATOM      2  C1  UNL d   1       1.892  -2.374   0.094  0.00  0.00     0.003 A 
ATOM      3  C2  UNL d   1       2.642  -1.204   0.235  0.00  0.00     0.048 A 
ATOM      4  C3  UNL d   1       3.400  -0.735  -0.837  0.00  0.00     0.023 A 
ATOM      5  C4  UNL d   1       3.414  -1.427  -2.049  0.00  0.00     0.048 A 
ATOM      6  C5  UNL d   1       2.664  -2.597  -2.185  0.00  0.00     0.003 A 
ATOM      7  I   UNL d   1       4.517   1.005  -0.629  0.00  0.00    -0.146 I 
ENDROOT
TORSDOF 0
ENDMDL
