MODEL 1
REMARK minimizedAffinity 10.0167656
REMARK minimizedRMSD -1
REMARK  0 active torsions:
REMARK  status: ('A' for Active; 'I' for Inactive)
ROOT
ATOM      1  C   UNL d   1       5.688   2.122  -0.371  0.00  0.00     0.023 A 
ATOM      2  C1  UNL d   1       5.999   0.923   0.270  0.00  0.00     0.003 A 
ATOM      3  C2  UNL d   1       5.105  -0.148   0.224  0.00  0.00     0.048 A 
ATOM      4  C3  UNL d   1       3.901  -0.015  -0.467  0.00  0.00     0.023 A 
ATOM      5  C4  UNL d   1       3.585   1.182  -1.111  0.00  0.00     0.048 A 
ATOM      6  C5  UNL d   1       4.482   2.251  -1.061  0.00  0.00     0.003 A 
ATOM      7  I   UNL d   1       2.569  -1.608  -0.537  0.00  0.00    -0.146 I 
ENDROOT
TORSDOF 0
ENDMDL
