MODEL 1
REMARK minimizedAffinity 8.02361774
REMARK minimizedRMSD -1
REMARK  0 active torsions:
REMARK  status: ('A' for Active; 'I' for Inactive)
ROOT
ATOM      1  C   UNL d   1      -5.628   4.628  -3.762  0.00  0.00     0.023 A 
ATOM      2  C1  UNL d   1      -5.516   4.693  -2.373  0.00  0.00     0.003 A 
ATOM      3  C2  UNL d   1      -5.623   3.530  -1.608  0.00  0.00     0.048 A 
ATOM      4  C3  UNL d   1      -5.841   2.305  -2.238  0.00  0.00     0.023 A 
ATOM      5  C4  UNL d   1      -5.952   2.235  -3.627  0.00  0.00     0.048 A 
ATOM      6  C5  UNL d   1      -5.846   3.401  -4.388  0.00  0.00     0.003 A 
ATOM      7  I   UNL d   1      -6.000   0.572  -1.101  0.00  0.00    -0.146 I 
ENDROOT
TORSDOF 0
ENDMDL
