MODEL 1
REMARK minimizedAffinity 6.92537785
REMARK minimizedRMSD -1
REMARK  0 active torsions:
REMARK  status: ('A' for Active; 'I' for Inactive)
ROOT
ATOM      1  C   UNL d   1       5.705   1.347  -0.749  0.00  0.00     0.023 A 
ATOM      2  C1  UNL d   1       4.527   1.260  -1.490  0.00  0.00     0.003 A 
ATOM      3  C2  UNL d   1       3.641   0.202  -1.274  0.00  0.00     0.048 A 
ATOM      4  C3  UNL d   1       3.939  -0.764  -0.313  0.00  0.00     0.023 A 
ATOM      5  C4  UNL d   1       5.117  -0.680   0.432  0.00  0.00     0.048 A 
ATOM      6  C5  UNL d   1       6.000   0.379   0.211  0.00  0.00     0.003 A 
ATOM      7  I   UNL d   1       2.622  -2.339   0.011  0.00  0.00    -0.146 I 
ENDROOT
TORSDOF 0
ENDMDL
