MODEL 1
REMARK minimizedAffinity 7.62958813
REMARK minimizedRMSD -1
REMARK  0 active torsions:
REMARK  status: ('A' for Active; 'I' for Inactive)
ROOT
ATOM      1  C   UNL d   1       2.183  -2.371  -1.115  0.00  0.00     0.023 A 
ATOM      2  C1  UNL d   1       3.019  -2.124  -2.204  0.00  0.00     0.003 A 
ATOM      3  C2  UNL d   1       3.800  -0.968  -2.238  0.00  0.00     0.048 A 
ATOM      4  C3  UNL d   1       3.742  -0.062  -1.179  0.00  0.00     0.023 A 
ATOM      5  C4  UNL d   1       2.908  -0.306  -0.087  0.00  0.00     0.048 A 
ATOM      6  C5  UNL d   1       2.128  -1.463  -0.058  0.00  0.00     0.003 A 
ATOM      7  I   UNL d   1       4.904   1.660  -1.228  0.00  0.00    -0.146 I 
ENDROOT
TORSDOF 0
ENDMDL
