MODEL 1
REMARK minimizedAffinity 3.81542993
REMARK minimizedRMSD -1
REMARK  1 active torsions:
REMARK  status: ('A' for Active; 'I' for Inactive)
REMARK    1  A    between atoms: C1_2  and  C2_3 
ROOT
ATOM      1  C2  UNL d   1      -1.013  -0.013   0.910  0.00  0.00    -0.081 A 
ATOM      2  C3  UNL d   1       0.259  -0.332   1.400  0.00  0.00     0.006 A 
ATOM      3  C4  UNL d   1       0.446  -0.613   2.755  0.00  0.00     0.002 A 
ATOM      4  C5  UNL d   1      -0.636  -0.588   3.641  0.00  0.00    -0.080 A 
ATOM      5  C6  UNL d   1      -0.454  -0.917   5.093  0.00  0.00     0.076 C 
ATOM      6  C7  UNL d   1      -1.904  -0.252   3.155  0.00  0.00     0.002 A 
ATOM      7  C8  UNL d   1      -2.092   0.030   1.800  0.00  0.00     0.006 A 
ENDROOT
BRANCH   1   8
ATOM      8  C1  UNL d   1      -1.229   0.227  -0.563  0.00  0.00     0.054 C 
ATOM      9  C   UNL d   1      -1.977  -0.931  -1.208  0.00  0.00     0.018 C 
ENDBRANCH   1   8
TORSDOF 1
ENDMDL
