MODEL 1
REMARK minimizedAffinity 10.6409245
REMARK minimizedRMSD -1
REMARK  1 active torsions:
REMARK  status: ('A' for Active; 'I' for Inactive)
REMARK    1  A    between atoms: C1_2  and  C2_3 
ROOT
ATOM      1  C2  UNL d   1      -0.034  -0.628   3.199  0.00  0.00    -0.081 A 
ATOM      2  C3  UNL d   1      -0.588  -1.498   4.145  0.00  0.00     0.006 A 
ATOM      3  C4  UNL d   1      -1.970  -1.699   4.199  0.00  0.00     0.002 A 
ATOM      4  C5  UNL d   1      -2.818  -1.040   3.304  0.00  0.00    -0.080 A 
ATOM      5  C6  UNL d   1      -4.300  -1.270   3.331  0.00  0.00     0.076 C 
ATOM      6  C7  UNL d   1      -2.266  -0.157   2.369  0.00  0.00     0.002 A 
ATOM      7  C8  UNL d   1      -0.885   0.044   2.315  0.00  0.00     0.006 A 
ENDROOT
BRANCH   1   8
ATOM      8  C1  UNL d   1       1.460  -0.459   3.096  0.00  0.00     0.054 C 
ATOM      9  C   UNL d   1       2.170  -1.069   4.296  0.00  0.00     0.018 C 
ENDBRANCH   1   8
TORSDOF 1
ENDMDL
