MODEL 1
REMARK minimizedAffinity 6.06066036
REMARK minimizedRMSD -1
REMARK  1 active torsions:
REMARK  status: ('A' for Active; 'I' for Inactive)
REMARK    1  A    between atoms: C1_2  and  C2_3 
ROOT
ATOM      1  C2  UNL d   1       3.618   3.167   1.723  0.00  0.00    -0.081 A 
ATOM      2  C3  UNL d   1       2.374   2.528   1.775  0.00  0.00     0.006 A 
ATOM      3  C4  UNL d   1       1.947   1.721   0.717  0.00  0.00     0.002 A 
ATOM      4  C5  UNL d   1       2.760   1.535  -0.406  0.00  0.00    -0.080 A 
ATOM      5  C6  UNL d   1       2.326   0.647  -1.535  0.00  0.00     0.076 C 
ATOM      6  C7  UNL d   1       3.996   2.187  -0.466  0.00  0.00     0.002 A 
ATOM      7  C8  UNL d   1       4.423   2.994   0.591  0.00  0.00     0.006 A 
ENDROOT
BRANCH   1   8
ATOM      8  C1  UNL d   1       4.110   3.985   2.890  0.00  0.00     0.054 C 
ATOM      9  C   UNL d   1       4.839   3.117   3.905  0.00  0.00     0.018 C 
ENDBRANCH   1   8
TORSDOF 1
ENDMDL
