MODEL 1
REMARK minimizedAffinity 11.8480349
REMARK minimizedRMSD -1
REMARK  1 active torsions:
REMARK  status: ('A' for Active; 'I' for Inactive)
REMARK    1  A    between atoms: C1_2  and  C2_3 
ROOT
ATOM      1  C2  UNL d   1      -2.127   0.754   1.551  0.00  0.00    -0.081 A 
ATOM      2  C3  UNL d   1      -3.285  -0.030   1.626  0.00  0.00     0.006 A 
ATOM      3  C4  UNL d   1      -3.351  -1.115   2.503  0.00  0.00     0.002 A 
ATOM      4  C5  UNL d   1      -2.263  -1.430   3.325  0.00  0.00    -0.080 A 
ATOM      5  C6  UNL d   1      -2.331  -2.574   4.293  0.00  0.00     0.076 C 
ATOM      6  C7  UNL d   1      -1.099  -0.658   3.237  0.00  0.00     0.002 A 
ATOM      7  C8  UNL d   1      -1.033   0.427   2.360  0.00  0.00     0.006 A 
ENDROOT
BRANCH   1   8
ATOM      8  C1  UNL d   1      -2.077   1.963   0.653  0.00  0.00     0.054 C 
ATOM      9  C   UNL d   1      -1.467   3.159   1.369  0.00  0.00     0.018 C 
ENDBRANCH   1   8
TORSDOF 1
ENDMDL
