MODEL 1
REMARK minimizedAffinity 6.79207134
REMARK minimizedRMSD -1
REMARK  1 active torsions:
REMARK  status: ('A' for Active; 'I' for Inactive)
REMARK    1  A    between atoms: C1_2  and  C2_3 
ROOT
ATOM      1  C2  UNL d   1      -1.782   0.181   1.767  0.00  0.00    -0.081 A 
ATOM      2  C3  UNL d   1      -2.805   0.259   0.814  0.00  0.00     0.006 A 
ATOM      3  C4  UNL d   1      -2.507   0.224  -0.550  0.00  0.00     0.002 A 
ATOM      4  C5  UNL d   1      -1.182   0.103  -0.984  0.00  0.00    -0.080 A 
ATOM      5  C6  UNL d   1      -0.851   0.035  -2.445  0.00  0.00     0.076 C 
ATOM      6  C7  UNL d   1      -0.158   0.043  -0.033  0.00  0.00     0.002 A 
ATOM      7  C8  UNL d   1      -0.456   0.078   1.331  0.00  0.00     0.006 A 
ENDROOT
BRANCH   1   8
ATOM      8  C1  UNL d   1      -2.106   0.152   3.239  0.00  0.00     0.054 C 
ATOM      9  C   UNL d   1      -1.344  -0.956   3.952  0.00  0.00     0.018 C 
ENDBRANCH   1   8
TORSDOF 1
ENDMDL
