MODEL 1
REMARK minimizedAffinity 14.5587101
REMARK minimizedRMSD -1
REMARK  0 active torsions:
REMARK  status: ('A' for Active; 'I' for Inactive)
ROOT
ATOM      1  C   UNL d   1       0.269  -3.907  -2.877  0.00  0.00     0.124 A 
ATOM      2  C1  UNL d   1       0.446  -3.891  -1.500  0.00  0.00     0.062 A 
ATOM      3  C2  UNL d   1       1.567  -4.488  -0.932  0.00  0.00     0.162 A 
ATOM      4  C3  UNL d   1       2.522  -5.105  -1.740  0.00  0.00    -0.034 A 
ATOM      5  C4  UNL d   1       2.337  -5.117  -3.124  0.00  0.00     0.162 A 
ATOM      6  C5  UNL d   1       1.214  -4.519  -3.687  0.00  0.00     0.062 A 
ATOM      7  F   UNL d   1       1.045  -4.535  -5.017  0.00  0.00    -0.097 F 
ATOM      8  F1  UNL d   1       3.235  -5.702  -3.931  0.00  0.00    -0.096 F 
ATOM      9  I   UNL d   1       4.201  -5.999  -0.894  0.00  0.00    -0.060 I 
ATOM     10  F2  UNL d   1       1.713  -4.458   0.401  0.00  0.00    -0.096 F 
ATOM     11  F3  UNL d   1      -0.467  -3.301  -0.715  0.00  0.00    -0.097 F 
ATOM     12  F4  UNL d   1      -0.812  -3.332  -3.421  0.00  0.00    -0.092 F 
ENDROOT
TORSDOF 0
ENDMDL
