MODEL 1
REMARK minimizedAffinity 7.55271578
REMARK minimizedRMSD -1
REMARK  0 active torsions:
REMARK  status: ('A' for Active; 'I' for Inactive)
ROOT
ATOM      1  C   UNL d   1      -0.399   3.388  -1.467  0.00  0.00     0.124 A 
ATOM      2  C1  UNL d   1      -0.878   2.682  -0.372  0.00  0.00     0.062 A 
ATOM      3  C2  UNL d   1      -0.092   2.540   0.767  0.00  0.00     0.162 A 
ATOM      4  C3  UNL d   1       1.182   3.106   0.818  0.00  0.00    -0.034 A 
ATOM      5  C4  UNL d   1       1.657   3.814  -0.287  0.00  0.00     0.162 A 
ATOM      6  C5  UNL d   1       0.867   3.953  -1.424  0.00  0.00     0.062 A 
ATOM      7  F   UNL d   1       1.331   4.636  -2.481  0.00  0.00    -0.097 F 
ATOM      8  F1  UNL d   1       2.877   4.372  -0.272  0.00  0.00    -0.096 F 
ATOM      9  I   UNL d   1       2.361   2.896   2.521  0.00  0.00    -0.060 I 
ATOM     10  F2  UNL d   1      -0.580   1.852   1.810  0.00  0.00    -0.096 F 
ATOM     11  F3  UNL d   1      -2.101   2.133  -0.412  0.00  0.00    -0.097 F 
ATOM     12  F4  UNL d   1      -1.158   3.522  -2.563  0.00  0.00    -0.092 F 
ENDROOT
TORSDOF 0
ENDMDL
