MODEL 1
REMARK minimizedAffinity 15.9188128
REMARK minimizedRMSD -1
REMARK  0 active torsions:
REMARK  status: ('A' for Active; 'I' for Inactive)
ROOT
ATOM      1  C   UNL d   1       1.245  -2.509  -0.604  0.00  0.00     0.124 A 
ATOM      2  C1  UNL d   1       2.489  -1.895  -0.557  0.00  0.00     0.062 A 
ATOM      3  C2  UNL d   1       3.650  -2.663  -0.582  0.00  0.00     0.162 A 
ATOM      4  C3  UNL d   1       3.572  -4.054  -0.655  0.00  0.00    -0.034 A 
ATOM      5  C4  UNL d   1       2.318  -4.664  -0.701  0.00  0.00     0.162 A 
ATOM      6  C5  UNL d   1       1.161  -3.892  -0.676  0.00  0.00     0.062 A 
ATOM      7  F   UNL d   1      -0.040  -4.487  -0.721  0.00  0.00    -0.097 F 
ATOM      8  F1  UNL d   1       2.207  -5.999  -0.772  0.00  0.00    -0.096 F 
ATOM      9  I   UNL d   1       5.306  -5.205  -0.693  0.00  0.00    -0.060 I 
ATOM     10  F2  UNL d   1       4.839  -2.043  -0.535  0.00  0.00    -0.096 F 
ATOM     11  F3  UNL d   1       2.574  -0.559  -0.487  0.00  0.00    -0.097 F 
ATOM     12  F4  UNL d   1       0.130  -1.768  -0.579  0.00  0.00    -0.092 F 
ENDROOT
TORSDOF 0
ENDMDL
