MODEL 1
REMARK minimizedAffinity 27.2419891
REMARK minimizedRMSD -1
REMARK  0 active torsions:
REMARK  status: ('A' for Active; 'I' for Inactive)
ROOT
ATOM      1  C   UNL d   1       1.456  -2.456   4.365  0.00  0.00     0.124 A 
ATOM      2  C1  UNL d   1       0.628  -1.410   4.748  0.00  0.00     0.062 A 
ATOM      3  C2  UNL d   1       0.709  -0.181   4.101  0.00  0.00     0.162 A 
ATOM      4  C3  UNL d   1       1.620   0.009   3.062  0.00  0.00    -0.034 A 
ATOM      5  C4  UNL d   1       2.450  -1.047   2.683  0.00  0.00     0.162 A 
ATOM      6  C5  UNL d   1       2.366  -2.274   3.333  0.00  0.00     0.062 A 
ATOM      7  F   UNL d   1       3.167  -3.284   2.962  0.00  0.00    -0.097 F 
ATOM      8  F1  UNL d   1       3.338  -0.899   1.689  0.00  0.00    -0.096 F 
ATOM      9  I   UNL d   1       1.744   1.846   2.091  0.00  0.00    -0.060 I 
ATOM     10  F2  UNL d   1      -0.104   0.812   4.492  0.00  0.00    -0.096 F 
ATOM     11  F3  UNL d   1      -0.251  -1.584   5.745  0.00  0.00    -0.097 F 
ATOM     12  F4  UNL d   1       1.377  -3.638   4.991  0.00  0.00    -0.092 F 
ENDROOT
TORSDOF 0
ENDMDL
