MODEL 1
REMARK minimizedAffinity 24.1975536
REMARK minimizedRMSD -1
REMARK  0 active torsions:
REMARK  status: ('A' for Active; 'I' for Inactive)
ROOT
ATOM      1  C   UNL d   1       1.112   0.658   2.370  0.00  0.00     0.124 A 
ATOM      2  C1  UNL d   1       0.145   0.405   3.333  0.00  0.00     0.062 A 
ATOM      3  C2  UNL d   1       0.350  -0.589   4.287  0.00  0.00     0.162 A 
ATOM      4  C3  UNL d   1       1.528  -1.336   4.283  0.00  0.00    -0.034 A 
ATOM      5  C4  UNL d   1       2.496  -1.076   3.310  0.00  0.00     0.162 A 
ATOM      6  C5  UNL d   1       2.286  -0.082   2.359  0.00  0.00     0.062 A 
ATOM      7  F   UNL d   1       3.221   0.161   1.429  0.00  0.00    -0.097 F 
ATOM      8  F1  UNL d   1       3.640  -1.775   3.277  0.00  0.00    -0.096 F 
ATOM      9  I   UNL d   1       1.839  -2.821   5.706  0.00  0.00    -0.060 I 
ATOM     10  F2  UNL d   1      -0.601  -0.812   5.206  0.00  0.00    -0.096 F 
ATOM     11  F3  UNL d   1      -0.990   1.118   3.345  0.00  0.00    -0.097 F 
ATOM     12  F4  UNL d   1       0.912   1.613   1.453  0.00  0.00    -0.092 F 
ENDROOT
TORSDOF 0
ENDMDL
