MODEL 1
REMARK minimizedAffinity 32.0887375
REMARK minimizedRMSD -1
REMARK  0 active torsions:
REMARK  status: ('A' for Active; 'I' for Inactive)
ROOT
ATOM      1  C   UNL d   1       1.404   3.749  -1.247  0.00  0.00     0.124 A 
ATOM      2  C1  UNL d   1       0.422   3.153  -0.467  0.00  0.00     0.062 A 
ATOM      3  C2  UNL d   1      -0.903   3.146  -0.894  0.00  0.00     0.162 A 
ATOM      4  C3  UNL d   1      -1.254   3.737  -2.108  0.00  0.00    -0.034 A 
ATOM      5  C4  UNL d   1      -0.261   4.336  -2.886  0.00  0.00     0.162 A 
ATOM      6  C5  UNL d   1       1.061   4.339  -2.455  0.00  0.00     0.062 A 
ATOM      7  F   UNL d   1       2.009   4.916  -3.209  0.00  0.00    -0.097 F 
ATOM      8  F1  UNL d   1      -0.564   4.913  -4.058  0.00  0.00    -0.096 F 
ATOM      9  I   UNL d   1      -3.234   3.730  -2.750  0.00  0.00    -0.060 I 
ATOM     10  F2  UNL d   1      -1.831   2.563  -0.121  0.00  0.00    -0.096 F 
ATOM     11  F3  UNL d   1       0.750   2.582   0.701  0.00  0.00    -0.097 F 
ATOM     12  F4  UNL d   1       2.677   3.754  -0.833  0.00  0.00    -0.092 F 
ENDROOT
TORSDOF 0
ENDMDL
