MODEL 1
REMARK minimizedAffinity 19.5777016
REMARK minimizedRMSD -1
REMARK  0 active torsions:
REMARK  status: ('A' for Active; 'I' for Inactive)
ROOT
ATOM      1  C   UNL d   1       2.648  -2.177  -0.611  0.00  0.00     0.124 A 
ATOM      2  C1  UNL d   1       2.383  -3.475  -1.025  0.00  0.00     0.062 A 
ATOM      3  C2  UNL d   1       3.338  -4.473  -0.856  0.00  0.00     0.162 A 
ATOM      4  C3  UNL d   1       4.568  -4.177  -0.268  0.00  0.00    -0.034 A 
ATOM      5  C4  UNL d   1       4.828  -2.870   0.146  0.00  0.00     0.162 A 
ATOM      6  C5  UNL d   1       3.870  -1.876  -0.026  0.00  0.00     0.062 A 
ATOM      7  F   UNL d   1       4.128  -0.623   0.376  0.00  0.00    -0.097 F 
ATOM      8  F1  UNL d   1       6.000  -2.551   0.715  0.00  0.00    -0.096 F 
ATOM      9  I   UNL d   1       5.999  -5.667  -0.013  0.00  0.00    -0.060 I 
ATOM     10  F2  UNL d   1       3.055  -5.718  -1.267  0.00  0.00    -0.096 F 
ATOM     11  F3  UNL d   1       1.204  -3.768  -1.592  0.00  0.00    -0.097 F 
ATOM     12  F4  UNL d   1       1.727  -1.219  -0.776  0.00  0.00    -0.092 F 
ENDROOT
TORSDOF 0
ENDMDL
