MODEL 1
REMARK minimizedAffinity 12.9980001
REMARK minimizedRMSD -1
REMARK  0 active torsions:
REMARK  status: ('A' for Active; 'I' for Inactive)
ROOT
ATOM      1  O1  BZF d   1       1.925  -4.141   0.725  0.00  0.00    -0.204 OA
ATOM      2  C2  BZF d   1       1.005  -4.770   1.543  0.00  0.00     0.174 A 
ATOM      3  C3  BZF d   1       0.370  -3.874   2.326  0.00  0.00    -0.012 A 
ATOM      4  C3A BZF d   1       0.863  -2.596   1.911  0.00  0.00    -0.107 A 
ATOM      5  C4  BZF d   1       0.599  -1.315   2.305  0.00  0.00     0.055 A 
ATOM      6  C5  BZF d   1       1.304  -0.295   1.749  0.00  0.00    -0.016 A 
ATOM      7  C6  BZF d   1       2.283  -0.519   0.804  0.00  0.00     0.022 A 
ATOM      8  C7  BZF d   1       2.577  -1.772   0.378  0.00  0.00     0.029 A 
ATOM      9  C7A BZF d   1       1.843  -2.802   0.913  0.00  0.00     0.058 A 
ENDROOT
TORSDOF 0
ENDMDL
