MODEL 1
REMARK minimizedAffinity 17.6361847
REMARK minimizedRMSD -1
REMARK  0 active torsions:
REMARK  status: ('A' for Active; 'I' for Inactive)
ROOT
ATOM      1  O1  BZF d   1      -2.459   4.886  -2.846  0.00  0.00    -0.204 OA
ATOM      2  C2  BZF d   1      -2.020   3.676  -3.346  0.00  0.00     0.174 A 
ATOM      3  C3  BZF d   1      -2.662   2.651  -2.749  0.00  0.00    -0.012 A 
ATOM      4  C3A BZF d   1      -3.624   3.262  -1.884  0.00  0.00    -0.107 A 
ATOM      5  C4  BZF d   1      -4.573   2.766  -1.036  0.00  0.00     0.055 A 
ATOM      6  C5  BZF d   1      -5.300   3.630  -0.280  0.00  0.00    -0.016 A 
ATOM      7  C6  BZF d   1      -5.101   4.994  -0.343  0.00  0.00     0.022 A 
ATOM      8  C7  BZF d   1      -4.175   5.533  -1.173  0.00  0.00     0.029 A 
ATOM      9  C7A BZF d   1      -3.462   4.664  -1.962  0.00  0.00     0.058 A 
ENDROOT
TORSDOF 0
ENDMDL
