MODEL 1
REMARK minimizedAffinity 12.5847836
REMARK minimizedRMSD -1
REMARK  0 active torsions:
REMARK  status: ('A' for Active; 'I' for Inactive)
ROOT
ATOM      1  O1  BZF d   1       2.658  -2.347   1.275  0.00  0.00    -0.204 OA
ATOM      2  C2  BZF d   1       2.028  -1.123   1.163  0.00  0.00     0.174 A 
ATOM      3  C3  BZF d   1       0.688  -1.274   1.144  0.00  0.00    -0.012 A 
ATOM      4  C3A BZF d   1       0.465  -2.673   1.344  0.00  0.00    -0.107 A 
ATOM      5  C4  BZF d   1      -0.662  -3.440   1.437  0.00  0.00     0.055 A 
ATOM      6  C5  BZF d   1      -0.535  -4.787   1.559  0.00  0.00    -0.016 A 
ATOM      7  C6  BZF d   1       0.700  -5.401   1.586  0.00  0.00     0.022 A 
ATOM      8  C7  BZF d   1       1.846  -4.682   1.502  0.00  0.00     0.029 A 
ATOM      9  C7A BZF d   1       1.722  -3.317   1.411  0.00  0.00     0.058 A 
ENDROOT
TORSDOF 0
ENDMDL
