MODEL 1
REMARK minimizedAffinity 21.9474106
REMARK minimizedRMSD -1
REMARK  0 active torsions:
REMARK  status: ('A' for Active; 'I' for Inactive)
ROOT
ATOM      1  O1  BZF d   1       0.100  -5.811   2.081  0.00  0.00    -0.204 OA
ATOM      2  C2  BZF d   1       1.460  -6.000   2.239  0.00  0.00     0.174 A 
ATOM      3  C3  BZF d   1       2.128  -4.843   2.056  0.00  0.00    -0.012 A 
ATOM      4  C3A BZF d   1       1.116  -3.851   1.857  0.00  0.00    -0.107 A 
ATOM      5  C4  BZF d   1       1.152  -2.504   1.639  0.00  0.00     0.055 A 
ATOM      6  C5  BZF d   1      -0.012  -1.840   1.413  0.00  0.00    -0.016 A 
ATOM      7  C6  BZF d   1      -1.227  -2.492   1.391  0.00  0.00     0.022 A 
ATOM      8  C7  BZF d   1      -1.314  -3.827   1.607  0.00  0.00     0.029 A 
ATOM      9  C7A BZF d   1      -0.143  -4.495   1.869  0.00  0.00     0.058 A 
ENDROOT
TORSDOF 0
ENDMDL
