MODEL 1
REMARK minimizedAffinity 7.8145895
REMARK minimizedRMSD -1
REMARK  0 active torsions:
REMARK  status: ('A' for Active; 'I' for Inactive)
ROOT
ATOM      1  O1  BZF d   1      -6.000  -4.476   5.417  0.00  0.00    -0.204 OA
ATOM      2  C2  BZF d   1      -5.288  -3.358   5.806  0.00  0.00     0.174 A 
ATOM      3  C3  BZF d   1      -4.389  -3.011   4.862  0.00  0.00    -0.012 A 
ATOM      4  C3A BZF d   1      -4.613  -3.918   3.778  0.00  0.00    -0.107 A 
ATOM      5  C4  BZF d   1      -4.043  -4.068   2.546  0.00  0.00     0.055 A 
ATOM      6  C5  BZF d   1      -4.441  -5.099   1.755  0.00  0.00    -0.016 A 
ATOM      7  C6  BZF d   1      -5.402  -6.000   2.166  0.00  0.00     0.022 A 
ATOM      8  C7  BZF d   1      -6.000  -5.889   3.377  0.00  0.00     0.029 A 
ATOM      9  C7A BZF d   1      -5.623  -4.829   4.165  0.00  0.00     0.058 A 
ENDROOT
TORSDOF 0
ENDMDL
