MODEL 1
REMARK minimizedAffinity 1.86941552
REMARK minimizedRMSD -1
REMARK  0 active torsions:
REMARK  status: ('A' for Active; 'I' for Inactive)
ROOT
ATOM      1  O1  BZF d   1      -5.638  -4.810   3.395  0.00  0.00    -0.204 OA
ATOM      2  C2  BZF d   1      -4.850  -3.741   3.775  0.00  0.00     0.174 A 
ATOM      3  C3  BZF d   1      -4.110  -3.300   2.737  0.00  0.00    -0.012 A 
ATOM      4  C3A BZF d   1      -4.527  -4.087   1.617  0.00  0.00    -0.107 A 
ATOM      5  C4  BZF d   1      -4.168  -4.108   0.299  0.00  0.00     0.055 A 
ATOM      6  C5  BZF d   1      -4.711  -5.048  -0.518  0.00  0.00    -0.016 A 
ATOM      7  C6  BZF d   1      -5.610  -5.984  -0.051  0.00  0.00     0.022 A 
ATOM      8  C7  BZF d   1      -6.000  -6.000   1.247  0.00  0.00     0.029 A 
ATOM      9  C7A BZF d   1      -5.478  -5.030   2.068  0.00  0.00     0.058 A 
ENDROOT
TORSDOF 0
ENDMDL
