MODEL 1
REMARK minimizedAffinity 9.59926891
REMARK minimizedRMSD -1
REMARK  0 active torsions:
REMARK  status: ('A' for Active; 'I' for Inactive)
ROOT
ATOM      1  O1  BZF d   1       2.568  -2.316   1.287  0.00  0.00    -0.204 OA
ATOM      2  C2  BZF d   1       2.986  -1.105   0.770  0.00  0.00     0.174 A 
ATOM      3  C3  BZF d   1       2.023  -0.170   0.904  0.00  0.00    -0.012 A 
ATOM      4  C3A BZF d   1       0.971  -0.814   1.628  0.00  0.00    -0.107 A 
ATOM      5  C4  BZF d   1      -0.249  -0.397   2.081  0.00  0.00     0.055 A 
ATOM      6  C5  BZF d   1      -1.068  -1.294   2.689  0.00  0.00    -0.016 A 
ATOM      7  C6  BZF d   1      -0.704  -2.614   2.857  0.00  0.00     0.022 A 
ATOM      8  C7  BZF d   1       0.497  -3.072   2.429  0.00  0.00     0.029 A 
ATOM      9  C7A BZF d   1       1.342  -2.161   1.843  0.00  0.00     0.058 A 
ENDROOT
TORSDOF 0
ENDMDL
