MODEL 1
REMARK minimizedAffinity 13.4807835
REMARK minimizedRMSD -1
REMARK  0 active torsions:
REMARK  status: ('A' for Active; 'I' for Inactive)
ROOT
ATOM      1  O1  BZF d   1      -3.053   6.000  -2.317  0.00  0.00    -0.204 OA
ATOM      2  C2  BZF d   1      -3.435   5.003  -1.440  0.00  0.00     0.174 A 
ATOM      3  C3  BZF d   1      -3.278   3.787  -2.001  0.00  0.00    -0.012 A 
ATOM      4  C3A BZF d   1      -2.680   4.035  -3.277  0.00  0.00    -0.107 A 
ATOM      5  C4  BZF d   1      -2.268   3.223  -4.295  0.00  0.00     0.055 A 
ATOM      6  C5  BZF d   1      -1.792   3.785  -5.437  0.00  0.00    -0.016 A 
ATOM      7  C6  BZF d   1      -1.720   5.154  -5.597  0.00  0.00     0.022 A 
ATOM      8  C7  BZF d   1      -2.112   5.999  -4.614  0.00  0.00     0.029 A 
ATOM      9  C7A BZF d   1      -2.563   5.434  -3.446  0.00  0.00     0.058 A 
ENDROOT
TORSDOF 0
ENDMDL
