MODEL 1
REMARK minimizedAffinity 16.2593594
REMARK minimizedRMSD -1
REMARK  0 active torsions:
REMARK  status: ('A' for Active; 'I' for Inactive)
ROOT
ATOM      1  O1  BZF d   1       2.316  -3.719  -0.431  0.00  0.00    -0.204 OA
ATOM      2  C2  BZF d   1       1.138  -4.407  -0.211  0.00  0.00     0.174 A 
ATOM      3  C3  BZF d   1       0.317  -3.704   0.597  0.00  0.00    -0.012 A 
ATOM      4  C3A BZF d   1       0.988  -2.461   0.825  0.00  0.00    -0.107 A 
ATOM      5  C4  BZF d   1       0.670  -1.338   1.535  0.00  0.00     0.055 A 
ATOM      6  C5  BZF d   1       1.576  -0.329   1.615  0.00  0.00    -0.016 A 
ATOM      7  C6  BZF d   1       2.810  -0.410   1.004  0.00  0.00     0.022 A 
ATOM      8  C7  BZF d   1       3.169  -1.501   0.284  0.00  0.00     0.029 A 
ATOM      9  C7A BZF d   1       2.243  -2.509   0.174  0.00  0.00     0.058 A 
ENDROOT
TORSDOF 0
ENDMDL
