MODEL 1
REMARK minimizedAffinity 8.99951553
REMARK minimizedRMSD -1
REMARK  0 active torsions:
REMARK  status: ('A' for Active; 'I' for Inactive)
ROOT
ATOM      1  O1  BZF d   1      -0.829  -0.870   3.582  0.00  0.00    -0.204 OA
ATOM      2  C2  BZF d   1      -1.756  -1.840   3.253  0.00  0.00     0.174 A 
ATOM      3  C3  BZF d   1      -1.317  -2.592   2.223  0.00  0.00    -0.012 A 
ATOM      4  C3A BZF d   1       0.005  -2.118   1.948  0.00  0.00    -0.107 A 
ATOM      5  C4  BZF d   1       0.962  -2.479   1.044  0.00  0.00     0.055 A 
ATOM      6  C5  BZF d   1       2.118  -1.767   0.987  0.00  0.00    -0.016 A 
ATOM      7  C6  BZF d   1       2.347  -0.686   1.813  0.00  0.00     0.022 A 
ATOM      8  C7  BZF d   1       1.429  -0.293   2.729  0.00  0.00     0.029 A 
ATOM      9  C7A BZF d   1       0.274  -1.031   2.812  0.00  0.00     0.058 A 
ENDROOT
TORSDOF 0
ENDMDL
