MODEL 1
REMARK minimizedAffinity 7.16564512
REMARK minimizedRMSD -1
REMARK  0 active torsions:
REMARK  status: ('A' for Active; 'I' for Inactive)
ROOT
ATOM      1  O1  BZF d   1      -6.000  -4.975   5.344  0.00  0.00    -0.204 OA
ATOM      2  C2  BZF d   1      -5.769  -3.781   6.000  0.00  0.00     0.174 A 
ATOM      3  C3  BZF d   1      -4.824  -3.060   5.363  0.00  0.00    -0.012 A 
ATOM      4  C3A BZF d   1      -4.506  -3.811   4.188  0.00  0.00    -0.107 A 
ATOM      5  C4  BZF d   1      -3.647  -3.606   3.146  0.00  0.00     0.055 A 
ATOM      6  C5  BZF d   1      -3.521  -4.568   2.195  0.00  0.00    -0.016 A 
ATOM      7  C6  BZF d   1      -4.232  -5.748   2.257  0.00  0.00     0.022 A 
ATOM      8  C7  BZF d   1      -5.100  -5.995   3.268  0.00  0.00     0.029 A 
ATOM      9  C7A BZF d   1      -5.254  -5.011   4.213  0.00  0.00     0.058 A 
ENDROOT
TORSDOF 0
ENDMDL
