MODEL 1
REMARK minimizedAffinity 12.6003275
REMARK minimizedRMSD -1
REMARK  0 active torsions:
REMARK  status: ('A' for Active; 'I' for Inactive)
ROOT
ATOM      1  O1  BZF d   1      -2.552  -3.389   0.740  0.00  0.00    -0.204 OA
ATOM      2  C2  BZF d   1      -1.670  -4.167   0.016  0.00  0.00     0.174 A 
ATOM      3  C3  BZF d   1      -2.264  -5.306  -0.397  0.00  0.00    -0.012 A 
ATOM      4  C3A BZF d   1      -3.627  -5.192   0.021  0.00  0.00    -0.107 A 
ATOM      5  C4  BZF d   1      -4.721  -5.999  -0.112  0.00  0.00     0.055 A 
ATOM      6  C5  BZF d   1      -5.890  -5.630   0.474  0.00  0.00    -0.016 A 
ATOM      7  C6  BZF d   1      -6.000  -4.464   1.203  0.00  0.00     0.022 A 
ATOM      8  C7  BZF d   1      -4.944  -3.628   1.358  0.00  0.00     0.029 A 
ATOM      9  C7A BZF d   1      -3.770  -3.982   0.739  0.00  0.00     0.058 A 
ENDROOT
TORSDOF 0
ENDMDL
