MODEL 1
REMARK minimizedAffinity 2.14276314
REMARK minimizedRMSD -1
REMARK  0 active torsions:
REMARK  status: ('A' for Active; 'I' for Inactive)
ROOT
ATOM      1  O1  BZF d   1      -4.509  -3.161   4.702  0.00  0.00    -0.204 OA
ATOM      2  C2  BZF d   1      -5.268  -3.576   5.779  0.00  0.00     0.174 A 
ATOM      3  C3  BZF d   1      -5.999  -4.663   5.458  0.00  0.00    -0.012 A 
ATOM      4  C3A BZF d   1      -5.607  -5.000   4.124  0.00  0.00    -0.107 A 
ATOM      5  C4  BZF d   1      -5.970  -5.995   3.262  0.00  0.00     0.055 A 
ATOM      6  C5  BZF d   1      -5.454  -6.000   2.004  0.00  0.00    -0.016 A 
ATOM      7  C6  BZF d   1      -4.578  -5.025   1.575  0.00  0.00     0.022 A 
ATOM      8  C7  BZF d   1      -4.185  -4.021   2.396  0.00  0.00     0.029 A 
ATOM      9  C7A BZF d   1      -4.679  -4.031   3.678  0.00  0.00     0.058 A 
ENDROOT
TORSDOF 0
ENDMDL
