MODEL 1
REMARK minimizedAffinity 4.77358389
REMARK minimizedRMSD -1
REMARK  0 active torsions:
REMARK  status: ('A' for Active; 'I' for Inactive)
ROOT
ATOM      1  O1  BZF d   1      -4.845  -6.000   0.071  0.00  0.00    -0.204 OA
ATOM      2  C2  BZF d   1      -4.048  -5.639  -0.999  0.00  0.00     0.174 A 
ATOM      3  C3  BZF d   1      -3.278  -4.578  -0.684  0.00  0.00    -0.012 A 
ATOM      4  C3A BZF d   1      -3.547  -4.313   0.696  0.00  0.00    -0.107 A 
ATOM      5  C4  BZF d   1      -3.074  -3.390   1.584  0.00  0.00     0.055 A 
ATOM      6  C5  BZF d   1      -3.596  -3.353   2.838  0.00  0.00    -0.016 A 
ATOM      7  C6  BZF d   1      -4.593  -4.219   3.236  0.00  0.00     0.022 A 
ATOM      8  C7  BZF d   1      -5.090  -5.155   2.392  0.00  0.00     0.029 A 
ATOM      9  C7A BZF d   1      -4.542  -5.217   1.134  0.00  0.00     0.058 A 
ENDROOT
TORSDOF 0
ENDMDL
