MODEL 1
REMARK minimizedAffinity 11.2795963
REMARK minimizedRMSD -1
REMARK  0 active torsions:
REMARK  status: ('A' for Active; 'I' for Inactive)
ROOT
ATOM      1  O1  BZF d   1      -3.706  -4.791   1.882  0.00  0.00    -0.204 OA
ATOM      2  C2  BZF d   1      -3.182  -3.513   1.878  0.00  0.00     0.174 A 
ATOM      3  C3  BZF d   1      -3.675  -2.790   2.904  0.00  0.00    -0.012 A 
ATOM      4  C3A BZF d   1      -4.493  -3.699   3.646  0.00  0.00    -0.107 A 
ATOM      5  C4  BZF d   1      -5.239  -3.577   4.783  0.00  0.00     0.055 A 
ATOM      6  C5  BZF d   1      -5.979  -4.636   5.205  0.00  0.00    -0.016 A 
ATOM      7  C6  BZF d   1      -6.000  -5.829   4.512  0.00  0.00     0.022 A 
ATOM      8  C7  BZF d   1      -5.272  -5.999   3.382  0.00  0.00     0.029 A 
ATOM      9  C7A BZF d   1      -4.498  -4.942   2.971  0.00  0.00     0.058 A 
ENDROOT
TORSDOF 0
ENDMDL
