MODEL 1
REMARK minimizedAffinity 18.5440941
REMARK minimizedRMSD -1
REMARK  0 active torsions:
REMARK  status: ('A' for Active; 'I' for Inactive)
ROOT
ATOM      1  O1  BZF d   1      -3.666  -2.960   4.447  0.00  0.00    -0.204 OA
ATOM      2  C2  BZF d   1      -4.082  -3.694   3.353  0.00  0.00     0.174 A 
ATOM      3  C3  BZF d   1      -3.246  -3.511   2.310  0.00  0.00    -0.012 A 
ATOM      4  C3A BZF d   1      -2.195  -2.680   2.810  0.00  0.00    -0.107 A 
ATOM      5  C4  BZF d   1      -1.059  -2.165   2.254  0.00  0.00     0.055 A 
ATOM      6  C5  BZF d   1      -0.282  -1.330   2.992  0.00  0.00    -0.016 A 
ATOM      7  C6  BZF d   1      -0.612  -0.986   4.287  0.00  0.00     0.022 A 
ATOM      8  C7  BZF d   1      -1.725  -1.476   4.883  0.00  0.00     0.029 A 
ATOM      9  C7A BZF d   1      -2.496  -2.346   4.151  0.00  0.00     0.058 A 
ENDROOT
TORSDOF 0
ENDMDL
