MODEL 1
REMARK minimizedAffinity 13.5322294
REMARK minimizedRMSD -1
REMARK  0 active torsions:
REMARK  status: ('A' for Active; 'I' for Inactive)
ROOT
ATOM      1  O1  BZF d   1      -4.469   2.473  -2.171  0.00  0.00    -0.204 OA
ATOM      2  C2  BZF d   1      -5.145   3.230  -1.234  0.00  0.00     0.174 A 
ATOM      3  C3  BZF d   1      -4.555   4.432  -1.074  0.00  0.00    -0.012 A 
ATOM      4  C3A BZF d   1      -3.495   4.461  -2.035  0.00  0.00    -0.107 A 
ATOM      5  C4  BZF d   1      -2.559   5.397  -2.372  0.00  0.00     0.055 A 
ATOM      6  C5  BZF d   1      -1.619   5.085  -3.303  0.00  0.00    -0.016 A 
ATOM      7  C6  BZF d   1      -1.582   3.848  -3.912  0.00  0.00     0.022 A 
ATOM      8  C7  BZF d   1      -2.493   2.890  -3.614  0.00  0.00     0.029 A 
ATOM      9  C7A BZF d   1      -3.464   3.213  -2.698  0.00  0.00     0.058 A 
ENDROOT
TORSDOF 0
ENDMDL
