MODEL 1
REMARK minimizedAffinity 1.4315269
REMARK minimizedRMSD -1
REMARK  0 active torsions:
REMARK  status: ('A' for Active; 'I' for Inactive)
ROOT
ATOM      1  O1  BZF d   1       3.429  -2.803  -4.953  0.00  0.00    -0.204 OA
ATOM      2  C2  BZF d   1       4.539  -3.283  -5.621  0.00  0.00     0.174 A 
ATOM      3  C3  BZF d   1       4.353  -4.564  -5.999  0.00  0.00    -0.012 A 
ATOM      4  C3A BZF d   1       3.010  -4.878  -5.620  0.00  0.00    -0.107 A 
ATOM      5  C4  BZF d   1       2.236  -5.996  -5.744  0.00  0.00     0.055 A 
ATOM      6  C5  BZF d   1       0.989  -6.000  -5.203  0.00  0.00    -0.016 A 
ATOM      7  C6  BZF d   1       0.487  -4.906  -4.528  0.00  0.00     0.022 A 
ATOM      8  C7  BZF d   1       1.216  -3.773  -4.384  0.00  0.00     0.029 A 
ATOM      9  C7A BZF d   1       2.464  -3.754  -4.958  0.00  0.00     0.058 A 
ENDROOT
TORSDOF 0
ENDMDL
