MODEL 1
REMARK minimizedAffinity 17.4538364
REMARK minimizedRMSD -1
REMARK  0 active torsions:
REMARK  status: ('A' for Active; 'I' for Inactive)
ROOT
ATOM      1  O1  BZF d   1       4.411  -5.970  -5.968  0.00  0.00    -0.204 OA
ATOM      2  C2  BZF d   1       5.378  -4.985  -5.902  0.00  0.00     0.174 A 
ATOM      3  C3  BZF d   1       4.813  -3.761  -5.880  0.00  0.00    -0.012 A 
ATOM      4  C3A BZF d   1       3.402  -3.997  -5.842  0.00  0.00    -0.107 A 
ATOM      5  C4  BZF d   1       2.313  -3.175  -5.792  0.00  0.00     0.055 A 
ATOM      6  C5  BZF d   1       1.070  -3.722  -5.840  0.00  0.00    -0.016 A 
ATOM      7  C6  BZF d   1       0.879  -5.084  -5.942  0.00  0.00     0.022 A 
ATOM      8  C7  BZF d   1       1.929  -5.940  -5.989  0.00  0.00     0.029 A 
ATOM      9  C7A BZF d   1       3.186  -5.393  -5.908  0.00  0.00     0.058 A 
ENDROOT
TORSDOF 0
ENDMDL
