MODEL 1
REMARK minimizedAffinity 2.66936159
REMARK minimizedRMSD -1
REMARK  0 active torsions:
REMARK  status: ('A' for Active; 'I' for Inactive)
ROOT
ATOM      1  O1  BZF d   1      -3.264  -4.321  -0.607  0.00  0.00    -0.204 OA
ATOM      2  C2  BZF d   1      -3.836  -5.267  -1.436  0.00  0.00     0.174 A 
ATOM      3  C3  BZF d   1      -4.751  -5.998  -0.768  0.00  0.00    -0.012 A 
ATOM      4  C3A BZF d   1      -4.818  -5.416   0.537  0.00  0.00    -0.107 A 
ATOM      5  C4  BZF d   1      -5.558  -5.692   1.651  0.00  0.00     0.055 A 
ATOM      6  C5  BZF d   1      -5.331  -4.981   2.787  0.00  0.00    -0.016 A 
ATOM      7  C6  BZF d   1      -4.371  -3.993   2.846  0.00  0.00     0.022 A 
ATOM      8  C7  BZF d   1      -3.616  -3.680   1.765  0.00  0.00     0.029 A 
ATOM      9  C7A BZF d   1      -3.865  -4.373   0.606  0.00  0.00     0.058 A 
ENDROOT
TORSDOF 0
ENDMDL
