MODEL 1
REMARK minimizedAffinity 4.18153
REMARK minimizedRMSD -1
REMARK  0 active torsions:
REMARK  status: ('A' for Active; 'I' for Inactive)
ROOT
ATOM      1  C   UNL d   1      -1.535  -0.021   1.685  0.00  0.00     0.020 A 
ATOM      2  C1  UNL d   1      -2.280   0.465   2.759  0.00  0.00     0.020 A 
ATOM      3  C2  UNL d   1      -2.788  -0.419   3.713  0.00  0.00     0.034 A 
ATOM      4  C3  UNL d   1      -2.552  -1.794   3.595  0.00  0.00     0.017 A 
ATOM      5  C4  UNL d   1      -1.804  -2.280   2.516  0.00  0.00     0.017 A 
ATOM      6  C5  UNL d   1      -1.297  -1.391   1.564  0.00  0.00     0.034 A 
ATOM      7 Cl   UNL d   1      -1.471  -3.963   2.304  0.00  0.00    -0.070 Cl
ATOM      8 Cl1  UNL d   1      -3.210  -2.829   4.811  0.00  0.00    -0.070 Cl
ENDROOT
TORSDOF 0
ENDMDL
