MODEL 1
REMARK minimizedAffinity 4.13178682
REMARK minimizedRMSD -1
REMARK  0 active torsions:
REMARK  status: ('A' for Active; 'I' for Inactive)
ROOT
ATOM      1  C   UNL d   1      -3.981   5.999  -2.319  0.00  0.00     0.020 A 
ATOM      2  C1  UNL d   1      -4.179   5.999  -3.699  0.00  0.00     0.020 A 
ATOM      3  C2  UNL d   1      -3.081   5.999  -4.562  0.00  0.00     0.034 A 
ATOM      4  C3  UNL d   1      -1.780   5.999  -4.045  0.00  0.00     0.017 A 
ATOM      5  C4  UNL d   1      -1.583   5.999  -2.660  0.00  0.00     0.017 A 
ATOM      6  C5  UNL d   1      -2.686   5.999  -1.800  0.00  0.00     0.034 A 
ATOM      7 Cl   UNL d   1      -0.008   5.999  -1.948  0.00  0.00    -0.070 Cl
ATOM      8 Cl1  UNL d   1      -0.469   5.999  -5.170  0.00  0.00    -0.070 Cl
ENDROOT
TORSDOF 0
ENDMDL
