MODEL 1
REMARK minimizedAffinity 7.05219698
REMARK minimizedRMSD -1
REMARK  0 active torsions:
REMARK  status: ('A' for Active; 'I' for Inactive)
ROOT
ATOM      1  C   UNL d   1       1.220   2.604   0.041  0.00  0.00     0.020 A 
ATOM      2  C1  UNL d   1       0.483   1.754  -0.783  0.00  0.00     0.020 A 
ATOM      3  C2  UNL d   1      -0.093   0.596  -0.255  0.00  0.00     0.034 A 
ATOM      4  C3  UNL d   1       0.067   0.286   1.101  0.00  0.00     0.017 A 
ATOM      5  C4  UNL d   1       0.807   1.140   1.927  0.00  0.00     0.017 A 
ATOM      6  C5  UNL d   1       1.381   2.298   1.393  0.00  0.00     0.034 A 
ATOM      7 Cl   UNL d   1       1.047   0.824   3.609  0.00  0.00    -0.070 Cl
ATOM      8 Cl1  UNL d   1      -0.673  -1.162   1.686  0.00  0.00    -0.070 Cl
ENDROOT
TORSDOF 0
ENDMDL
