MODEL 1
REMARK minimizedAffinity 0.407542199
REMARK minimizedRMSD -1
REMARK  0 active torsions:
REMARK  status: ('A' for Active; 'I' for Inactive)
ROOT
ATOM      1  C   UNL d   1      -3.649   5.989  -4.108  0.00  0.00     0.020 A 
ATOM      2  C1  UNL d   1      -3.850   5.999  -2.728  0.00  0.00     0.020 A 
ATOM      3  C2  UNL d   1      -2.753   6.000  -1.863  0.00  0.00     0.034 A 
ATOM      4  C3  UNL d   1      -1.451   5.992  -2.376  0.00  0.00     0.017 A 
ATOM      5  C4  UNL d   1      -1.251   5.982  -3.761  0.00  0.00     0.017 A 
ATOM      6  C5  UNL d   1      -2.352   5.981  -4.623  0.00  0.00     0.034 A 
ATOM      7 Cl   UNL d   1       0.326   5.972  -4.469  0.00  0.00    -0.070 Cl
ATOM      8 Cl1  UNL d   1      -0.143   5.994  -1.248  0.00  0.00    -0.070 Cl
ENDROOT
TORSDOF 0
ENDMDL
