MODEL 1
REMARK minimizedAffinity 0.956991971
REMARK minimizedRMSD -1
REMARK  0 active torsions:
REMARK  status: ('A' for Active; 'I' for Inactive)
ROOT
ATOM      1  C   UNL d   1       0.092   5.978  -4.271  0.00  0.00     0.020 A 
ATOM      2  C1  UNL d   1      -0.506   5.992  -5.530  0.00  0.00     0.020 A 
ATOM      3  C2  UNL d   1      -1.898   5.998  -5.643  0.00  0.00     0.034 A 
ATOM      4  C3  UNL d   1      -2.697   5.990  -4.494  0.00  0.00     0.017 A 
ATOM      5  C4  UNL d   1      -2.096   5.976  -3.230  0.00  0.00     0.017 A 
ATOM      6  C5  UNL d   1      -0.702   5.970  -3.123  0.00  0.00     0.034 A 
ATOM      7 Cl   UNL d   1      -3.016   5.966  -1.766  0.00  0.00    -0.070 Cl
ATOM      8 Cl1  UNL d   1      -4.411   5.999  -4.707  0.00  0.00    -0.070 Cl
ENDROOT
TORSDOF 0
ENDMDL
