MODEL 1
REMARK minimizedAffinity 3.36549592
REMARK minimizedRMSD -1
REMARK  0 active torsions:
REMARK  status: ('A' for Active; 'I' for Inactive)
ROOT
ATOM      1  C   UNL d   1      -2.655   5.996  -0.424  0.00  0.00     0.020 A 
ATOM      2  C1  UNL d   1      -1.275   5.986  -0.622  0.00  0.00     0.020 A 
ATOM      3  C2  UNL d   1      -0.757   5.981  -1.919  0.00  0.00     0.034 A 
ATOM      4  C3  UNL d   1      -1.619   5.984  -3.022  0.00  0.00     0.017 A 
ATOM      5  C4  UNL d   1      -3.004   5.994  -2.821  0.00  0.00     0.017 A 
ATOM      6  C5  UNL d   1      -3.517   6.000  -1.521  0.00  0.00     0.034 A 
ATOM      7 Cl   UNL d   1      -4.130   5.999  -4.132  0.00  0.00    -0.070 Cl
ATOM      8 Cl1  UNL d   1      -0.908   5.977  -4.597  0.00  0.00    -0.070 Cl
ENDROOT
TORSDOF 0
ENDMDL
