MODEL 1
REMARK minimizedAffinity 1.79928398
REMARK minimizedRMSD -1
REMARK  0 active torsions:
REMARK  status: ('A' for Active; 'I' for Inactive)
ROOT
ATOM      1  C   UNL d   1       0.560   5.999  -5.806  0.00  0.00     0.020 A 
ATOM      2  C1  UNL d   1       1.462   5.999  -4.744  0.00  0.00     0.020 A 
ATOM      3  C2  UNL d   1       0.993   5.999  -3.429  0.00  0.00     0.034 A 
ATOM      4  C3  UNL d   1      -0.383   5.999  -3.173  0.00  0.00     0.017 A 
ATOM      5  C4  UNL d   1      -1.289   5.999  -4.240  0.00  0.00     0.017 A 
ATOM      6  C5  UNL d   1      -0.813   5.999  -5.555  0.00  0.00     0.034 A 
ATOM      7 Cl   UNL d   1      -3.001   5.999  -4.003  0.00  0.00    -0.070 Cl
ATOM      8 Cl1  UNL d   1      -0.894   5.999  -1.522  0.00  0.00    -0.070 Cl
ENDROOT
TORSDOF 0
ENDMDL
