MODEL 1
REMARK minimizedAffinity 9.40935612
REMARK minimizedRMSD -1
REMARK  0 active torsions:
REMARK  status: ('A' for Active; 'I' for Inactive)
ROOT
ATOM      1  C   UNL d   1      -1.612   5.965  -1.767  0.00  0.00     0.020 A 
ATOM      2  C1  UNL d   1      -1.723   5.960  -3.157  0.00  0.00     0.020 A 
ATOM      3  C2  UNL d   1      -2.984   5.967  -3.756  0.00  0.00     0.034 A 
ATOM      4  C3  UNL d   1      -4.139   5.979  -2.966  0.00  0.00     0.017 A 
ATOM      5  C4  UNL d   1      -4.026   5.984  -1.571  0.00  0.00     0.017 A 
ATOM      6  C5  UNL d   1      -2.761   5.977  -0.976  0.00  0.00     0.034 A 
ATOM      7 Cl   UNL d   1      -5.406   5.999  -0.529  0.00  0.00    -0.070 Cl
ATOM      8 Cl1  UNL d   1      -5.666   5.988  -3.774  0.00  0.00    -0.070 Cl
ENDROOT
TORSDOF 0
ENDMDL
