MODEL 1
REMARK minimizedAffinity 0.0183241125
REMARK minimizedRMSD -1
REMARK  0 active torsions:
REMARK  status: ('A' for Active; 'I' for Inactive)
ROOT
ATOM      1  C   UNL d   1      -0.644   5.998  -2.919  0.00  0.00     0.020 A 
ATOM      2  C1  UNL d   1      -0.949   5.998  -4.280  0.00  0.00     0.020 A 
ATOM      3  C2  UNL d   1      -2.282   5.998  -4.696  0.00  0.00     0.034 A 
ATOM      4  C3  UNL d   1      -3.315   5.999  -3.751  0.00  0.00     0.017 A 
ATOM      5  C4  UNL d   1      -3.007   5.999  -2.385  0.00  0.00     0.017 A 
ATOM      6  C5  UNL d   1      -1.670   5.998  -1.974  0.00  0.00     0.034 A 
ATOM      7 Cl   UNL d   1      -4.226   5.999  -1.160  0.00  0.00    -0.070 Cl
ATOM      8 Cl1  UNL d   1      -4.940   5.999  -4.336  0.00  0.00    -0.070 Cl
ENDROOT
TORSDOF 0
ENDMDL
