MODEL 1
REMARK minimizedAffinity -3.18710971
REMARK minimizedRMSD -1
REMARK  0 active torsions:
REMARK  status: ('A' for Active; 'I' for Inactive)
ROOT
ATOM      1  C   UNL d   1      -0.546   1.103   1.463  0.00  0.00     0.020 A 
ATOM      2  C1  UNL d   1       0.367   1.468   0.475  0.00  0.00     0.020 A 
ATOM      3  C2  UNL d   1       1.738   1.374   0.721  0.00  0.00     0.034 A 
ATOM      4  C3  UNL d   1       2.201   0.915   1.960  0.00  0.00     0.017 A 
ATOM      5  C4  UNL d   1       1.284   0.549   2.952  0.00  0.00     0.017 A 
ATOM      6  C5  UNL d   1      -0.088   0.644   2.699  0.00  0.00     0.034 A 
ATOM      7 Cl   UNL d   1       1.779  -0.027   4.504  0.00  0.00    -0.070 Cl
ATOM      8 Cl1  UNL d   1       3.910   0.824   2.196  0.00  0.00    -0.070 Cl
ENDROOT
TORSDOF 0
ENDMDL
