MODEL 1
REMARK minimizedAffinity 4.88961887
REMARK minimizedRMSD -1
REMARK  0 active torsions:
REMARK  status: ('A' for Active; 'I' for Inactive)
ROOT
ATOM      1  C   UNL d   1       0.215   5.977  -2.584  0.00  0.00     0.020 A 
ATOM      2  C1  UNL d   1      -0.089   5.984  -3.945  0.00  0.00     0.020 A 
ATOM      3  C2  UNL d   1      -1.422   5.991  -4.363  0.00  0.00     0.034 A 
ATOM      4  C3  UNL d   1      -2.455   5.991  -3.419  0.00  0.00     0.017 A 
ATOM      5  C4  UNL d   1      -2.149   5.984  -2.053  0.00  0.00     0.017 A 
ATOM      6  C5  UNL d   1      -0.813   5.977  -1.641  0.00  0.00     0.034 A 
ATOM      7 Cl   UNL d   1      -3.369   5.983  -0.829  0.00  0.00    -0.070 Cl
ATOM      8 Cl1  UNL d   1      -4.080   6.000  -4.006  0.00  0.00    -0.070 Cl
ENDROOT
TORSDOF 0
ENDMDL
