MODEL 1
REMARK minimizedAffinity -1.13325989
REMARK minimizedRMSD -1
REMARK  0 active torsions:
REMARK  status: ('A' for Active; 'I' for Inactive)
ROOT
ATOM      1  C   UNL d   1      -3.905   5.999  -4.179  0.00  0.00     0.020 A 
ATOM      2  C1  UNL d   1      -3.843   6.000  -2.786  0.00  0.00     0.020 A 
ATOM      3  C2  UNL d   1      -2.603   6.000  -2.143  0.00  0.00     0.034 A 
ATOM      4  C3  UNL d   1      -1.421   5.999  -2.893  0.00  0.00     0.017 A 
ATOM      5  C4  UNL d   1      -1.485   5.999  -4.291  0.00  0.00     0.017 A 
ATOM      6  C5  UNL d   1      -2.729   5.999  -4.930  0.00  0.00     0.034 A 
ATOM      7 Cl   UNL d   1      -0.070   5.999  -5.284  0.00  0.00    -0.070 Cl
ATOM      8 Cl1  UNL d   1       0.077   6.000  -2.031  0.00  0.00    -0.070 Cl
ENDROOT
TORSDOF 0
ENDMDL
