MODEL 1
REMARK minimizedAffinity 9.25902271
REMARK minimizedRMSD -1
REMARK  0 active torsions:
REMARK  status: ('A' for Active; 'I' for Inactive)
ROOT
ATOM      1  C   UNL d   1      -1.706  -0.966  -4.021  0.00  0.00     0.020 A 
ATOM      2  C1  UNL d   1      -2.457  -2.121  -4.238  0.00  0.00     0.020 A 
ATOM      3  C2  UNL d   1      -3.348  -2.569  -3.260  0.00  0.00     0.034 A 
ATOM      4  C3  UNL d   1      -3.489  -1.863  -2.060  0.00  0.00     0.017 A 
ATOM      5  C4  UNL d   1      -2.734  -0.704  -1.842  0.00  0.00     0.017 A 
ATOM      6  C5  UNL d   1      -1.844  -0.260  -2.825  0.00  0.00     0.034 A 
ATOM      7 Cl   UNL d   1      -2.853   0.220  -0.387  0.00  0.00    -0.070 Cl
ATOM      8 Cl1  UNL d   1      -4.608  -2.474  -0.895  0.00  0.00    -0.070 Cl
ENDROOT
TORSDOF 0
ENDMDL
