MODEL 1
REMARK minimizedAffinity 3.52973533
REMARK minimizedRMSD -1
REMARK  0 active torsions:
REMARK  status: ('A' for Active; 'I' for Inactive)
ROOT
ATOM      1  C   UNL d   1      -1.341   5.984  -0.437  0.00  0.00     0.020 A 
ATOM      2  C1  UNL d   1      -2.735   5.987  -0.428  0.00  0.00     0.020 A 
ATOM      3  C2  UNL d   1      -3.441   5.992  -1.633  0.00  0.00     0.034 A 
ATOM      4  C3  UNL d   1      -2.753   5.993  -2.852  0.00  0.00     0.017 A 
ATOM      5  C4  UNL d   1      -1.354   5.989  -2.860  0.00  0.00     0.017 A 
ATOM      6  C5  UNL d   1      -0.652   5.985  -1.651  0.00  0.00     0.034 A 
ATOM      7 Cl   UNL d   1      -0.435   5.990  -4.324  0.00  0.00    -0.070 Cl
ATOM      8 Cl1  UNL d   1      -3.690   5.999  -4.304  0.00  0.00    -0.070 Cl
ENDROOT
TORSDOF 0
ENDMDL
