MODEL 1
REMARK minimizedAffinity -0.469956636
REMARK minimizedRMSD -1
REMARK  0 active torsions:
REMARK  status: ('A' for Active; 'I' for Inactive)
ROOT
ATOM      1  C   UNL d   1       3.940   5.693  -5.305  0.00  0.00     0.020 A 
ATOM      2  C1  UNL d   1       4.025   5.696  -3.914  0.00  0.00     0.020 A 
ATOM      3  C2  UNL d   1       2.864   5.791  -3.143  0.00  0.00     0.034 A 
ATOM      4  C3  UNL d   1       1.613   5.884  -3.764  0.00  0.00     0.017 A 
ATOM      5  C4  UNL d   1       1.528   5.880  -5.161  0.00  0.00     0.017 A 
ATOM      6  C5  UNL d   1       2.694   5.785  -5.928  0.00  0.00     0.034 A 
ATOM      7 Cl   UNL d   1       0.021   5.991  -5.999  0.00  0.00    -0.070 Cl
ATOM      8 Cl1  UNL d   1       0.219   5.998  -2.749  0.00  0.00    -0.070 Cl
ENDROOT
TORSDOF 0
ENDMDL
