MODEL 1
REMARK minimizedAffinity 6.42914581
REMARK minimizedRMSD -1
REMARK  0 active torsions:
REMARK  status: ('A' for Active; 'I' for Inactive)
ROOT
ATOM      1  C   UNL d   1      -4.682  -3.015  -0.686  0.00  0.00     0.020 A 
ATOM      2  C1  UNL d   1      -4.916  -3.326  -2.025  0.00  0.00     0.020 A 
ATOM      3  C2  UNL d   1      -4.247  -2.626  -3.031  0.00  0.00     0.034 A 
ATOM      4  C3  UNL d   1      -3.342  -1.611  -2.701  0.00  0.00     0.017 A 
ATOM      5  C4  UNL d   1      -3.107  -1.300  -1.357  0.00  0.00     0.017 A 
ATOM      6  C5  UNL d   1      -3.779  -2.004  -0.353  0.00  0.00     0.034 A 
ATOM      7 Cl   UNL d   1      -2.004  -0.061  -0.871  0.00  0.00    -0.070 Cl
ATOM      8 Cl1  UNL d   1      -2.550  -0.787  -3.997  0.00  0.00    -0.070 Cl
ENDROOT
TORSDOF 0
ENDMDL
