MODEL 1
REMARK minimizedAffinity -3.42235637
REMARK minimizedRMSD -1
REMARK  0 active torsions:
REMARK  status: ('A' for Active; 'I' for Inactive)
ROOT
ATOM      1  C   UNL d   1      -0.166   5.997  -5.879  0.00  0.00     0.020 A 
ATOM      2  C1  UNL d   1       0.715   5.988  -4.798  0.00  0.00     0.020 A 
ATOM      3  C2  UNL d   1       0.219   5.981  -3.493  0.00  0.00     0.034 A 
ATOM      4  C3  UNL d   1      -1.162   5.984  -3.265  0.00  0.00     0.017 A 
ATOM      5  C4  UNL d   1      -2.045   5.993  -4.350  0.00  0.00     0.017 A 
ATOM      6  C5  UNL d   1      -1.543   6.000  -5.655  0.00  0.00     0.034 A 
ATOM      7 Cl   UNL d   1      -3.762   5.997  -4.148  0.00  0.00    -0.070 Cl
ATOM      8 Cl1  UNL d   1      -1.706   5.975  -1.625  0.00  0.00    -0.070 Cl
ENDROOT
TORSDOF 0
ENDMDL
