MODEL 1
REMARK minimizedAffinity 0.943112612
REMARK minimizedRMSD -1
REMARK  0 active torsions:
REMARK  status: ('A' for Active; 'I' for Inactive)
ROOT
ATOM      1  C   UNL d   1       0.104   5.999  -4.944  0.00  0.00     0.020 A 
ATOM      2  C1  UNL d   1      -1.003   6.000  -5.793  0.00  0.00     0.020 A 
ATOM      3  C2  UNL d   1      -2.293   5.999  -5.258  0.00  0.00     0.034 A 
ATOM      4  C3  UNL d   1      -2.480   5.999  -3.871  0.00  0.00     0.017 A 
ATOM      5  C4  UNL d   1      -1.368   5.999  -3.020  0.00  0.00     0.017 A 
ATOM      6  C5  UNL d   1      -0.079   5.999  -3.561  0.00  0.00     0.034 A 
ATOM      7 Cl   UNL d   1      -1.519   5.999  -1.298  0.00  0.00    -0.070 Cl
ATOM      8 Cl1  UNL d   1      -4.103   5.999  -3.279  0.00  0.00    -0.070 Cl
ENDROOT
TORSDOF 0
ENDMDL
