MODEL 1
REMARK minimizedAffinity -4.17220402
REMARK minimizedRMSD -1
REMARK  2 active torsions:
REMARK  status: ('A' for Active; 'I' for Inactive)
REMARK    1  A    between atoms: C2'_3  and  C1'_4 
REMARK    2  A    between atoms: C1'_4  and  C1_5 
ROOT
ATOM      1  C1  I4B d   1      -0.930  -0.694  -0.004  0.00  0.00    -0.075 A 
ATOM      2  C2  I4B d   1       0.423  -0.510  -0.146  0.00  0.00     0.003 A 
ATOM      3  C3  I4B d   1       1.106   0.418   0.676  0.00  0.00     0.002 A 
ATOM      4  C4  I4B d   1       0.394   1.172   1.587  0.00  0.00    -0.004 A 
ATOM      5  C5  I4B d   1      -0.973   0.966   1.747  0.00  0.00     0.002 A 
ATOM      6  C6  I4B d   1      -1.638   0.019   0.955  0.00  0.00     0.003 A 
ENDROOT
BRANCH   1   7
ATOM      7  C1' I4B d   1      -1.626  -1.659  -0.912  0.00  0.00     0.060 C 
BRANCH   7   8
ATOM      8  C2' I4B d   1      -1.804  -0.986  -2.258  0.00  0.00    -0.013 C 
ATOM      9  C4' I4B d   1      -1.155  -1.786  -3.357  0.00  0.00     0.013 C 
ATOM     10  C3' I4B d   1      -3.274  -0.824  -2.503  0.00  0.00     0.013 C 
ENDBRANCH   7   8
ENDBRANCH   1   7
TORSDOF 2
ENDMDL
