MODEL 1
REMARK minimizedAffinity -3.37722778
REMARK minimizedRMSD -1
REMARK  2 active torsions:
REMARK  status: ('A' for Active; 'I' for Inactive)
REMARK    1  A    between atoms: C2'_3  and  C1'_4 
REMARK    2  A    between atoms: C1'_4  and  C1_5 
ROOT
ATOM      1  C1  I4B d   1      -1.051  -0.827  -0.471  0.00  0.00    -0.075 A 
ATOM      2  C2  I4B d   1      -1.949  -0.301   0.425  0.00  0.00     0.003 A 
ATOM      3  C3  I4B d   1      -1.521   0.634   1.398  0.00  0.00     0.002 A 
ATOM      4  C4  I4B d   1      -0.185   0.974   1.472  0.00  0.00    -0.004 A 
ATOM      5  C5  I4B d   1       0.719   0.458   0.549  0.00  0.00     0.002 A 
ATOM      6  C6  I4B d   1       0.282  -0.439  -0.437  0.00  0.00     0.003 A 
ENDROOT
BRANCH   1   7
ATOM      7  C1' I4B d   1      -1.532  -1.837  -1.464  0.00  0.00     0.060 C 
BRANCH   7   8
ATOM      8  C2' I4B d   1      -1.728  -1.130  -2.790  0.00  0.00    -0.013 C 
ATOM      9  C4' I4B d   1      -1.095  -1.902  -3.918  0.00  0.00     0.013 C 
ATOM     10  C3' I4B d   1      -3.202  -0.960  -3.010  0.00  0.00     0.013 C 
ENDBRANCH   7   8
ENDBRANCH   1   7
TORSDOF 2
ENDMDL
