MODEL 1
REMARK minimizedAffinity -2.76645994
REMARK minimizedRMSD -1
REMARK  2 active torsions:
REMARK  status: ('A' for Active; 'I' for Inactive)
REMARK    1  A    between atoms: C2'_3  and  C1'_4 
REMARK    2  A    between atoms: C1'_4  and  C1_5 
ROOT
ATOM      1  C1  I4B d   1       0.018  -0.704  -0.254  0.00  0.00    -0.075 A 
ATOM      2  C2  I4B d   1      -1.005  -0.243   0.536  0.00  0.00     0.003 A 
ATOM      3  C3  I4B d   1      -0.778   0.808   1.457  0.00  0.00     0.002 A 
ATOM      4  C4  I4B d   1       0.492   1.332   1.590  0.00  0.00    -0.004 A 
ATOM      5  C5  I4B d   1       1.524   0.879   0.772  0.00  0.00     0.002 A 
ATOM      6  C6  I4B d   1       1.283  -0.137  -0.165  0.00  0.00     0.003 A 
ENDROOT
BRANCH   1   7
ATOM      7  C1' I4B d   1      -0.250  -1.838  -1.192  0.00  0.00     0.060 C 
BRANCH   7   8
ATOM      8  C2' I4B d   1      -1.593  -1.593  -1.848  0.00  0.00    -0.013 C 
ATOM      9  C4' I4B d   1      -1.439  -1.314  -3.320  0.00  0.00     0.013 C 
ATOM     10  C3' I4B d   1      -2.450  -2.801  -1.613  0.00  0.00     0.013 C 
ENDBRANCH   7   8
ENDBRANCH   1   7
TORSDOF 2
ENDMDL
