MODEL 1
REMARK minimizedAffinity -3.6508069
REMARK minimizedRMSD -1
REMARK  2 active torsions:
REMARK  status: ('A' for Active; 'I' for Inactive)
REMARK    1  A    between atoms: C2'_3  and  C1'_4 
REMARK    2  A    between atoms: C1'_4  and  C1_5 
ROOT
ATOM      1  C1  I4B d   1      -0.622  -0.881  -0.470  0.00  0.00    -0.075 A 
ATOM      2  C2  I4B d   1      -1.757  -1.643  -0.346  0.00  0.00     0.003 A 
ATOM      3  C3  I4B d   1      -2.438  -2.101  -1.500  0.00  0.00     0.002 A 
ATOM      4  C4  I4B d   1      -1.981  -1.734  -2.749  0.00  0.00    -0.004 A 
ATOM      5  C5  I4B d   1      -0.817  -0.980  -2.873  0.00  0.00     0.002 A 
ATOM      6  C6  I4B d   1      -0.126  -0.561  -1.727  0.00  0.00     0.003 A 
ENDROOT
BRANCH   1   7
ATOM      7  C1' I4B d   1       0.053  -0.387   0.770  0.00  0.00     0.060 C 
BRANCH   7   8
ATOM      8  C2' I4B d   1       0.851   0.848   0.406  0.00  0.00    -0.013 C 
ATOM      9  C4' I4B d   1       0.608   1.964   1.388  0.00  0.00     0.013 C 
ATOM     10  C3' I4B d   1       2.301   0.467   0.368  0.00  0.00     0.013 C 
ENDBRANCH   7   8
ENDBRANCH   1   7
TORSDOF 2
ENDMDL
