MODEL 1
REMARK minimizedAffinity -4.77095079
REMARK minimizedRMSD -1
REMARK  2 active torsions:
REMARK  status: ('A' for Active; 'I' for Inactive)
REMARK    1  A    between atoms: C2'_3  and  C1'_4 
REMARK    2  A    between atoms: C1'_4  and  C1_5 
ROOT
ATOM      1  C1  I4B d   1      -1.070  -1.151  -1.366  0.00  0.00    -0.075 A 
ATOM      2  C2  I4B d   1      -1.005  -0.048  -2.180  0.00  0.00     0.003 A 
ATOM      3  C3  I4B d   1      -1.891   0.081  -3.277  0.00  0.00     0.002 A 
ATOM      4  C4  I4B d   1      -2.785  -0.934  -3.552  0.00  0.00    -0.004 A 
ATOM      5  C5  I4B d   1      -2.865  -2.040  -2.712  0.00  0.00     0.002 A 
ATOM      6  C6  I4B d   1      -2.010  -2.145  -1.604  0.00  0.00     0.003 A 
ENDROOT
BRANCH   1   7
ATOM      7  C1' I4B d   1      -0.097  -1.270  -0.235  0.00  0.00     0.060 C 
BRANCH   7   8
ATOM      8  C2' I4B d   1       0.523   0.093  -0.008  0.00  0.00    -0.013 C 
ATOM      9  C4' I4B d   1       0.068   0.688   1.299  0.00  0.00     0.013 C 
ATOM     10  C3' I4B d   1       2.014  -0.066  -0.041  0.00  0.00     0.013 C 
ENDBRANCH   7   8
ENDBRANCH   1   7
TORSDOF 2
ENDMDL
