MODEL 1
REMARK minimizedAffinity -4.47097063
REMARK minimizedRMSD -1
REMARK  2 active torsions:
REMARK  status: ('A' for Active; 'I' for Inactive)
REMARK    1  A    between atoms: C2'_3  and  C1'_4 
REMARK    2  A    between atoms: C1'_4  and  C1_5 
ROOT
ATOM      1  C1  I4B d   1      -0.220  -0.311   0.171  0.00  0.00    -0.075 A 
ATOM      2  C2  I4B d   1       1.002   0.228   0.485  0.00  0.00     0.003 A 
ATOM      3  C3  I4B d   1       1.102   1.243   1.467  0.00  0.00     0.002 A 
ATOM      4  C4  I4B d   1      -0.043   1.722   2.070  0.00  0.00    -0.004 A 
ATOM      5  C5  I4B d   1      -1.279   1.158   1.767  0.00  0.00     0.002 A 
ATOM      6  C6  I4B d   1      -1.367   0.126   0.821  0.00  0.00     0.003 A 
ENDROOT
BRANCH   1   7
ATOM      7  C1' I4B d   1      -0.294  -1.358  -0.894  0.00  0.00     0.060 C 
BRANCH   7   8
ATOM      8  C2' I4B d   1      -1.686  -1.320  -1.491  0.00  0.00    -0.013 C 
ATOM      9  C4' I4B d   1      -1.638  -1.034  -2.969  0.00  0.00     0.013 C 
ATOM     10  C3' I4B d   1      -2.344  -2.639  -1.216  0.00  0.00     0.013 C 
ENDBRANCH   7   8
ENDBRANCH   1   7
TORSDOF 2
ENDMDL
