MODEL 1
REMARK minimizedAffinity -0.802483141
REMARK minimizedRMSD -1
REMARK  2 active torsions:
REMARK  status: ('A' for Active; 'I' for Inactive)
REMARK    1  A    between atoms: C2'_3  and  C1'_4 
REMARK    2  A    between atoms: C1'_4  and  C1_5 
ROOT
ATOM      1  C1  I4B d   1      -0.990  -1.094  -0.636  0.00  0.00    -0.075 A 
ATOM      2  C2  I4B d   1      -0.354  -0.651  -1.769  0.00  0.00     0.003 A 
ATOM      3  C3  I4B d   1      -0.889  -0.943  -3.047  0.00  0.00     0.002 A 
ATOM      4  C4  I4B d   1      -2.026  -1.720  -3.147  0.00  0.00    -0.004 A 
ATOM      5  C5  I4B d   1      -2.681  -2.149  -1.996  0.00  0.00     0.002 A 
ATOM      6  C6  I4B d   1      -2.168  -1.824  -0.732  0.00  0.00     0.003 A 
ENDROOT
BRANCH   1   7
ATOM      7  C1' I4B d   1      -0.380  -0.795   0.697  0.00  0.00     0.060 C 
BRANCH   7   8
ATOM      8  C2' I4B d   1      -0.513   0.693   0.948  0.00  0.00    -0.013 C 
ATOM      9  C4' I4B d   1      -1.947   1.079   1.197  0.00  0.00     0.013 C 
ATOM     10  C3' I4B d   1       0.354   1.044   2.120  0.00  0.00     0.013 C 
ENDBRANCH   7   8
ENDBRANCH   1   7
TORSDOF 2
ENDMDL
