MODEL 1
REMARK minimizedAffinity -2.40813303
REMARK minimizedRMSD -1
REMARK  2 active torsions:
REMARK  status: ('A' for Active; 'I' for Inactive)
REMARK    1  A    between atoms: C2'_3  and  C1'_4 
REMARK    2  A    between atoms: C1'_4  and  C1_5 
ROOT
ATOM      1  C1  I4B d   1      -0.753  -1.093  -0.618  0.00  0.00    -0.075 A 
ATOM      2  C2  I4B d   1      -1.332   0.129  -0.384  0.00  0.00     0.003 A 
ATOM      3  C3  I4B d   1      -0.720   1.051   0.500  0.00  0.00     0.002 A 
ATOM      4  C4  I4B d   1       0.435   0.691   1.163  0.00  0.00    -0.004 A 
ATOM      5  C5  I4B d   1       1.034  -0.539   0.907  0.00  0.00     0.002 A 
ATOM      6  C6  I4B d   1       0.443  -1.432   0.001  0.00  0.00     0.003 A 
ENDROOT
BRANCH   1   7
ATOM      7  C1' I4B d   1      -1.443  -2.054  -1.533  0.00  0.00     0.060 C 
BRANCH   7   8
ATOM      8  C2' I4B d   1      -1.852  -1.300  -2.781  0.00  0.00    -0.013 C 
ATOM      9  C4' I4B d   1      -1.052  -1.749  -3.976  0.00  0.00     0.013 C 
ATOM     10  C3' I4B d   1      -3.319  -1.522  -2.997  0.00  0.00     0.013 C 
ENDBRANCH   7   8
ENDBRANCH   1   7
TORSDOF 2
ENDMDL
