MODEL 1
REMARK minimizedAffinity -1.59606481
REMARK minimizedRMSD -1
REMARK  2 active torsions:
REMARK  status: ('A' for Active; 'I' for Inactive)
REMARK    1  A    between atoms: C2'_3  and  C1'_4 
REMARK    2  A    between atoms: C1'_4  and  C1_5 
ROOT
ATOM      1  C1  I4B d   1      -0.027  -0.399  -0.130  0.00  0.00    -0.075 A 
ATOM      2  C2  I4B d   1      -1.053  -0.066   0.718  0.00  0.00     0.003 A 
ATOM      3  C3  I4B d   1      -0.879   0.958   1.681  0.00  0.00     0.002 A 
ATOM      4  C4  I4B d   1       0.346   1.583   1.793  0.00  0.00    -0.004 A 
ATOM      5  C5  I4B d   1       1.379   1.260   0.917  0.00  0.00     0.002 A 
ATOM      6  C6  I4B d   1       1.188   0.272  -0.059  0.00  0.00     0.003 A 
ENDROOT
BRANCH   1   7
ATOM      7  C1' I4B d   1      -0.234  -1.507  -1.113  0.00  0.00     0.060 C 
BRANCH   7   8
ATOM      8  C2' I4B d   1      -1.623  -1.356  -1.701  0.00  0.00    -0.013 C 
ATOM      9  C4' I4B d   1      -1.564  -1.126  -3.188  0.00  0.00     0.013 C 
ATOM     10  C3' I4B d   1      -2.401  -2.595  -1.375  0.00  0.00     0.013 C 
ENDBRANCH   7   8
ENDBRANCH   1   7
TORSDOF 2
ENDMDL
