MODEL 1
REMARK minimizedAffinity -2.95714903
REMARK minimizedRMSD -1
REMARK  2 active torsions:
REMARK  status: ('A' for Active; 'I' for Inactive)
REMARK    1  A    between atoms: C2'_3  and  C1'_4 
REMARK    2  A    between atoms: C1'_4  and  C1_5 
ROOT
ATOM      1  C1  I4B d   1      -0.769  -0.699  -0.020  0.00  0.00    -0.075 A 
ATOM      2  C2  I4B d   1       0.572  -0.483  -0.215  0.00  0.00     0.003 A 
ATOM      3  C3  I4B d   1       1.233   0.564   0.472  0.00  0.00     0.002 A 
ATOM      4  C4  I4B d   1       0.509   1.396   1.301  0.00  0.00    -0.004 A 
ATOM      5  C5  I4B d   1      -0.846   1.162   1.515  0.00  0.00     0.002 A 
ATOM      6  C6  I4B d   1      -1.487   0.100   0.860  0.00  0.00     0.003 A 
ENDROOT
BRANCH   1   7
ATOM      7  C1' I4B d   1      -1.443  -1.792  -0.788  0.00  0.00     0.060 C 
BRANCH   7   8
ATOM      8  C2' I4B d   1      -2.534  -1.166  -1.632  0.00  0.00    -0.013 C 
ATOM      9  C4' I4B d   1      -2.101  -1.031  -3.068  0.00  0.00     0.013 C 
ATOM     10  C3' I4B d   1      -3.759  -2.022  -1.514  0.00  0.00     0.013 C 
ENDBRANCH   7   8
ENDBRANCH   1   7
TORSDOF 2
ENDMDL
