MODEL 1
REMARK minimizedAffinity 9.53523254
REMARK minimizedRMSD -1
REMARK  0 active torsions:
REMARK  status: ('A' for Active; 'I' for Inactive)
ROOT
ATOM      1  C   UNL d   1      -1.484   3.502   1.361  0.00  0.00     0.124 A 
ATOM      2  C1  UNL d   1      -2.694   2.880   1.085  0.00  0.00     0.062 A 
ATOM      3  C2  UNL d   1      -3.859   3.307   1.715  0.00  0.00     0.162 A 
ATOM      4  C3  UNL d   1      -3.821   4.362   2.626  0.00  0.00    -0.034 A 
ATOM      5  C4  UNL d   1      -2.600   4.982   2.899  0.00  0.00     0.162 A 
ATOM      6  C5  UNL d   1      -1.438   4.552   2.267  0.00  0.00     0.062 A 
ATOM      7  F   UNL d   1      -0.270   5.154   2.534  0.00  0.00    -0.097 F 
ATOM      8  F1  UNL d   1      -2.528   6.000   3.769  0.00  0.00    -0.096 F 
ATOM      9  I   UNL d   1      -5.562   5.003   3.570  0.00  0.00    -0.060 I 
ATOM     10  F2  UNL d   1      -5.014   2.687   1.430  0.00  0.00    -0.096 F 
ATOM     11  F3  UNL d   1      -2.740   1.864   0.211  0.00  0.00    -0.097 F 
ATOM     12  F4  UNL d   1      -0.364   3.089   0.754  0.00  0.00    -0.092 F 
ENDROOT
TORSDOF 0
ENDMDL
