MODEL 1
REMARK minimizedAffinity 16.637455
REMARK minimizedRMSD -1
REMARK  0 active torsions:
REMARK  status: ('A' for Active; 'I' for Inactive)
ROOT
ATOM      1  C   UNL d   1       3.619  -0.096  -1.862  0.00  0.00     0.124 A 
ATOM      2  C1  UNL d   1       3.062   0.142  -0.614  0.00  0.00     0.062 A 
ATOM      3  C2  UNL d   1       3.492   1.224   0.150  0.00  0.00     0.162 A 
ATOM      4  C3  UNL d   1       4.484   2.077  -0.334  0.00  0.00    -0.034 A 
ATOM      5  C4  UNL d   1       5.040   1.830  -1.590  0.00  0.00     0.162 A 
ATOM      6  C5  UNL d   1       4.607   0.748  -2.349  0.00  0.00     0.062 A 
ATOM      7  F   UNL d   1       5.146   0.519  -3.556  0.00  0.00    -0.097 F 
ATOM      8  F1  UNL d   1       5.996   2.630  -2.086  0.00  0.00    -0.096 F 
ATOM      9  I   UNL d   1       5.129   3.695   0.805  0.00  0.00    -0.060 I 
ATOM     10  F2  UNL d   1       2.936   1.430   1.353  0.00  0.00    -0.096 F 
ATOM     11  F3  UNL d   1       2.108  -0.672  -0.140  0.00  0.00    -0.097 F 
ATOM     12  F4  UNL d   1       3.204  -1.138  -2.594  0.00  0.00    -0.092 F 
ENDROOT
TORSDOF 0
ENDMDL
