MODEL 1
REMARK minimizedAffinity 13.6939192
REMARK minimizedRMSD -1
REMARK  0 active torsions:
REMARK  status: ('A' for Active; 'I' for Inactive)
ROOT
ATOM      1  C   UNL d   1       4.905   0.686  -0.130  0.00  0.00     0.124 A 
ATOM      2  C1  UNL d   1       4.819   1.196  -1.418  0.00  0.00     0.062 A 
ATOM      3  C2  UNL d   1       5.130   2.530  -1.664  0.00  0.00     0.162 A 
ATOM      4  C3  UNL d   1       5.533   3.363  -0.620  0.00  0.00    -0.034 A 
ATOM      5  C4  UNL d   1       5.616   2.843   0.672  0.00  0.00     0.162 A 
ATOM      6  C5  UNL d   1       5.304   1.509   0.913  0.00  0.00     0.062 A 
ATOM      7  F   UNL d   1       5.388   1.017   2.158  0.00  0.00    -0.097 F 
ATOM      8  F1  UNL d   1       6.000   3.616   1.699  0.00  0.00    -0.096 F 
ATOM      9  I   UNL d   1       5.999   5.359  -0.985  0.00  0.00    -0.060 I 
ATOM     10  F2  UNL d   1       5.038   2.997  -2.918  0.00  0.00    -0.096 F 
ATOM     11  F3  UNL d   1       4.433   0.403  -2.428  0.00  0.00    -0.097 F 
ATOM     12  F4  UNL d   1       4.604  -0.598   0.104  0.00  0.00    -0.092 F 
ENDROOT
TORSDOF 0
ENDMDL
