MODEL 1
REMARK minimizedAffinity 14.8684826
REMARK minimizedRMSD -1
REMARK  0 active torsions:
REMARK  status: ('A' for Active; 'I' for Inactive)
ROOT
ATOM      1  C   UNL d   1       5.068   0.968  -1.874  0.00  0.00     0.124 A 
ATOM      2  C1  UNL d   1       4.356   0.903  -0.685  0.00  0.00     0.062 A 
ATOM      3  C2  UNL d   1       3.478  -0.152  -0.452  0.00  0.00     0.162 A 
ATOM      4  C3  UNL d   1       3.308  -1.151  -1.411  0.00  0.00    -0.034 A 
ATOM      5  C4  UNL d   1       4.027  -1.077  -2.605  0.00  0.00     0.162 A 
ATOM      6  C5  UNL d   1       4.903  -0.021  -2.833  0.00  0.00     0.062 A 
ATOM      7  F   UNL d   1       5.590   0.041  -3.983  0.00  0.00    -0.097 F 
ATOM      8  F1  UNL d   1       3.887  -2.020  -3.549  0.00  0.00    -0.096 F 
ATOM      9  I   UNL d   1       1.996  -2.729  -1.067  0.00  0.00    -0.060 I 
ATOM     10  F2  UNL d   1       2.803  -0.190   0.706  0.00  0.00    -0.096 F 
ATOM     11  F3  UNL d   1       4.513   1.858   0.243  0.00  0.00    -0.097 F 
ATOM     12  F4  UNL d   1       5.912   1.985  -2.096  0.00  0.00    -0.092 F 
ENDROOT
TORSDOF 0
ENDMDL
