MODEL 1
REMARK minimizedAffinity 14.5728569
REMARK minimizedRMSD -1
REMARK  0 active torsions:
REMARK  status: ('A' for Active; 'I' for Inactive)
ROOT
ATOM      1  C   UNL d   1       2.764  -0.073  -0.715  0.00  0.00     0.124 A 
ATOM      2  C1  UNL d   1       1.526   0.075  -1.325  0.00  0.00     0.062 A 
ATOM      3  C2  UNL d   1       0.724  -1.039  -1.560  0.00  0.00     0.162 A 
ATOM      4  C3  UNL d   1       1.157  -2.310  -1.184  0.00  0.00    -0.034 A 
ATOM      5  C4  UNL d   1       2.404  -2.451  -0.571  0.00  0.00     0.162 A 
ATOM      6  C5  UNL d   1       3.202  -1.335  -0.338  0.00  0.00     0.062 A 
ATOM      7  F   UNL d   1       4.397  -1.480   0.251  0.00  0.00    -0.097 F 
ATOM      8  F1  UNL d   1       2.851  -3.659  -0.197  0.00  0.00    -0.096 F 
ATOM      9  I   UNL d   1      -0.038  -3.977  -1.533  0.00  0.00    -0.060 I 
ATOM     10  F2  UNL d   1      -0.468  -0.867  -2.151  0.00  0.00    -0.096 F 
ATOM     11  F3  UNL d   1       1.101   1.293  -1.690  0.00  0.00    -0.097 F 
ATOM     12  F4  UNL d   1       3.533   1.000  -0.490  0.00  0.00    -0.092 F 
ENDROOT
TORSDOF 0
ENDMDL
