MODEL 1
REMARK minimizedAffinity 26.4888992
REMARK minimizedRMSD -1
REMARK  0 active torsions:
REMARK  status: ('A' for Active; 'I' for Inactive)
ROOT
ATOM      1  C   UNL d   1      -1.143   1.480   0.504  0.00  0.00     0.124 A 
ATOM      2  C1  UNL d   1      -0.158   1.617   1.472  0.00  0.00     0.062 A 
ATOM      3  C2  UNL d   1       1.114   1.094   1.257  0.00  0.00     0.162 A 
ATOM      4  C3  UNL d   1       1.409   0.429   0.066  0.00  0.00    -0.034 A 
ATOM      5  C4  UNL d   1       0.413   0.295  -0.903  0.00  0.00     0.162 A 
ATOM      6  C5  UNL d   1      -0.856   0.819  -0.682  0.00  0.00     0.062 A 
ATOM      7  F   UNL d   1      -1.807   0.686  -1.619  0.00  0.00    -0.097 F 
ATOM      8  F1  UNL d   1       0.662  -0.338  -2.059  0.00  0.00    -0.096 F 
ATOM      9  I   UNL d   1       3.309  -0.354  -0.261  0.00  0.00    -0.060 I 
ATOM     10  F2  UNL d   1       2.046   1.241   2.210  0.00  0.00    -0.096 F 
ATOM     11  F3  UNL d   1      -0.432   2.254   2.620  0.00  0.00    -0.097 F 
ATOM     12  F4  UNL d   1      -2.366   1.983   0.715  0.00  0.00    -0.092 F 
ENDROOT
TORSDOF 0
ENDMDL
