MODEL 1
REMARK minimizedAffinity 22.8111458
REMARK minimizedRMSD -1
REMARK  0 active torsions:
REMARK  status: ('A' for Active; 'I' for Inactive)
ROOT
ATOM      1  C   UNL d   1      -4.999   3.540   1.232  0.00  0.00     0.124 A 
ATOM      2  C1  UNL d   1      -4.920   2.396   2.014  0.00  0.00     0.062 A 
ATOM      3  C2  UNL d   1      -5.204   2.456   3.375  0.00  0.00     0.162 A 
ATOM      4  C3  UNL d   1      -5.572   3.666   3.964  0.00  0.00    -0.034 A 
ATOM      5  C4  UNL d   1      -5.648   4.813   3.172  0.00  0.00     0.162 A 
ATOM      6  C5  UNL d   1      -5.363   4.747   1.812  0.00  0.00     0.062 A 
ATOM      7  F   UNL d   1      -5.440   5.854   1.059  0.00  0.00    -0.097 F 
ATOM      8  F1  UNL d   1      -5.999   5.992   3.706  0.00  0.00    -0.096 F 
ATOM      9  I   UNL d   1      -5.998   3.760   5.999  0.00  0.00    -0.060 I 
ATOM     10  F2  UNL d   1      -5.120   1.334   4.106  0.00  0.00    -0.096 F 
ATOM     11  F3  UNL d   1      -4.567   1.228   1.456  0.00  0.00    -0.097 F 
ATOM     12  F4  UNL d   1      -4.724   3.479  -0.077  0.00  0.00    -0.092 F 
ENDROOT
TORSDOF 0
ENDMDL
