MODEL 1
REMARK minimizedAffinity 14.8636942
REMARK minimizedRMSD -1
REMARK  0 active torsions:
REMARK  status: ('A' for Active; 'I' for Inactive)
ROOT
ATOM      1  C   UNL d   1      -3.384   1.625  -4.878  0.00  0.00     0.124 A 
ATOM      2  C1  UNL d   1      -3.101   0.397  -4.296  0.00  0.00     0.062 A 
ATOM      3  C2  UNL d   1      -3.796  -0.017  -3.163  0.00  0.00     0.162 A 
ATOM      4  C3  UNL d   1      -4.781   0.798  -2.605  0.00  0.00    -0.034 A 
ATOM      5  C4  UNL d   1      -5.059   2.032  -3.196  0.00  0.00     0.162 A 
ATOM      6  C5  UNL d   1      -4.362   2.441  -4.328  0.00  0.00     0.062 A 
ATOM      7  F   UNL d   1      -4.636   3.628  -4.889  0.00  0.00    -0.097 F 
ATOM      8  F1  UNL d   1      -6.000   2.840  -2.685  0.00  0.00    -0.096 F 
ATOM      9  I   UNL d   1      -5.822   0.183  -0.911  0.00  0.00    -0.060 I 
ATOM     10  F2  UNL d   1      -3.503  -1.208  -2.622  0.00  0.00    -0.096 F 
ATOM     11  F3  UNL d   1      -2.156  -0.393  -4.825  0.00  0.00    -0.097 F 
ATOM     12  F4  UNL d   1      -2.713   2.021  -5.968  0.00  0.00    -0.092 F 
ENDROOT
TORSDOF 0
ENDMDL
