MODEL 1
REMARK minimizedAffinity 16.3654671
REMARK minimizedRMSD -1
REMARK  0 active torsions:
REMARK  status: ('A' for Active; 'I' for Inactive)
ROOT
ATOM      1  C   UNL d   1       3.056  -0.907  -0.571  0.00  0.00     0.124 A 
ATOM      2  C1  UNL d   1       2.003  -0.497  -1.378  0.00  0.00     0.062 A 
ATOM      3  C2  UNL d   1       0.994  -1.393  -1.721  0.00  0.00     0.162 A 
ATOM      4  C3  UNL d   1       1.033  -2.708  -1.256  0.00  0.00    -0.034 A 
ATOM      5  C4  UNL d   1       2.096  -3.113  -0.446  0.00  0.00     0.162 A 
ATOM      6  C5  UNL d   1       3.101  -2.213  -0.106  0.00  0.00     0.062 A 
ATOM      7  F   UNL d   1       4.118  -2.611   0.673  0.00  0.00    -0.097 F 
ATOM      8  F1  UNL d   1       2.164  -4.369   0.018  0.00  0.00    -0.096 F 
ATOM      9  I   UNL d   1      -0.473  -4.051  -1.766  0.00  0.00    -0.060 I 
ATOM     10  F2  UNL d   1      -0.011  -0.970  -2.501  0.00  0.00    -0.096 F 
ATOM     11  F3  UNL d   1       1.957   0.764  -1.829  0.00  0.00    -0.097 F 
ATOM     12  F4  UNL d   1       4.025  -0.043  -0.244  0.00  0.00    -0.092 F 
ENDROOT
TORSDOF 0
ENDMDL
