MODEL 1
REMARK minimizedAffinity 20.788105
REMARK minimizedRMSD -1
REMARK  0 active torsions:
REMARK  status: ('A' for Active; 'I' for Inactive)
ROOT
ATOM      1  C   UNL d   1       0.928  -2.245   2.095  0.00  0.00     0.124 A 
ATOM      2  C1  UNL d   1       1.483  -2.711   0.911  0.00  0.00     0.062 A 
ATOM      3  C2  UNL d   1       2.339  -1.900   0.172  0.00  0.00     0.162 A 
ATOM      4  C3  UNL d   1       2.646  -0.613   0.613  0.00  0.00    -0.034 A 
ATOM      5  C4  UNL d   1       2.083  -0.150   1.804  0.00  0.00     0.162 A 
ATOM      6  C5  UNL d   1       1.228  -0.965   2.540  0.00  0.00     0.062 A 
ATOM      7  F   UNL d   1       0.693  -0.512   3.683  0.00  0.00    -0.097 F 
ATOM      8  F1  UNL d   1       2.356   1.082   2.258  0.00  0.00    -0.096 F 
ATOM      9  I   UNL d   1       3.924   0.603  -0.490  0.00  0.00    -0.060 I 
ATOM     10  F2  UNL d   1       2.861  -2.377  -0.968  0.00  0.00    -0.096 F 
ATOM     11  F3  UNL d   1       1.195  -3.947   0.479  0.00  0.00    -0.097 F 
ATOM     12  F4  UNL d   1       0.105  -3.027   2.804  0.00  0.00    -0.092 F 
ENDROOT
TORSDOF 0
ENDMDL
