MODEL 1
REMARK minimizedAffinity 16.2719097
REMARK minimizedRMSD -1
REMARK  0 active torsions:
REMARK  status: ('A' for Active; 'I' for Inactive)
ROOT
ATOM      1  C   UNL d   1       4.968   2.382   0.950  0.00  0.00     0.124 A 
ATOM      2  C1  UNL d   1       5.149   2.131  -0.403  0.00  0.00     0.062 A 
ATOM      3  C2  UNL d   1       4.451   1.099  -1.024  0.00  0.00     0.162 A 
ATOM      4  C3  UNL d   1       3.564   0.310  -0.292  0.00  0.00    -0.034 A 
ATOM      5  C4  UNL d   1       3.388   0.567   1.069  0.00  0.00     0.162 A 
ATOM      6  C5  UNL d   1       4.088   1.600   1.685  0.00  0.00     0.062 A 
ATOM      7  F   UNL d   1       3.911   1.840   2.992  0.00  0.00    -0.097 F 
ATOM      8  F1  UNL d   1       2.543  -0.173   1.802  0.00  0.00    -0.096 F 
ATOM      9  I   UNL d   1       2.519  -1.234  -1.216  0.00  0.00    -0.060 I 
ATOM     10  F2  UNL d   1       4.646   0.880  -2.333  0.00  0.00    -0.096 F 
ATOM     11  F3  UNL d   1       5.999   2.885  -1.115  0.00  0.00    -0.097 F 
ATOM     12  F4  UNL d   1       5.641   3.375   1.545  0.00  0.00    -0.092 F 
ENDROOT
TORSDOF 0
ENDMDL
