MODEL 1
REMARK minimizedAffinity 10.4402952
REMARK minimizedRMSD -1
REMARK  1 active torsions:
REMARK  status: ('A' for Active; 'I' for Inactive)
REMARK    1  A    between atoms: C1_2  and  C2_3 
ROOT
ATOM      1  C2  UNL d   1       0.054   3.470   0.753  0.00  0.00    -0.081 A 
ATOM      2  C3  UNL d   1       1.107   4.394   0.737  0.00  0.00     0.006 A 
ATOM      3  C4  UNL d   1       1.320   5.205  -0.380  0.00  0.00     0.002 A 
ATOM      4  C5  UNL d   1       0.480   5.113  -1.495  0.00  0.00    -0.080 A 
ATOM      5  C6  UNL d   1       0.680   5.999  -2.689  0.00  0.00     0.076 C 
ATOM      6  C7  UNL d   1      -0.560   4.178  -1.486  0.00  0.00     0.002 A 
ATOM      7  C8  UNL d   1      -0.774   3.366  -0.370  0.00  0.00     0.006 A 
ENDROOT
BRANCH   1   8
ATOM      8  C1  UNL d   1      -0.218   2.639   1.981  0.00  0.00     0.054 C 
ATOM      9  C   UNL d   1       1.066   2.337   2.740  0.00  0.00     0.018 C 
ENDBRANCH   1   8
TORSDOF 1
ENDMDL
