MODEL 1
REMARK minimizedAffinity 13.0555315
REMARK minimizedRMSD -1
REMARK  1 active torsions:
REMARK  status: ('A' for Active; 'I' for Inactive)
REMARK    1  A    between atoms: C1_2  and  C2_3 
ROOT
ATOM      1  C2  UNL d   1      -0.077   2.450   0.119  0.00  0.00    -0.081 A 
ATOM      2  C3  UNL d   1       0.964   1.572  -0.203  0.00  0.00     0.006 A 
ATOM      3  C4  UNL d   1       0.694   0.348  -0.820  0.00  0.00     0.002 A 
ATOM      4  C5  UNL d   1      -0.621  -0.014  -1.131  0.00  0.00    -0.080 A 
ATOM      5  C6  UNL d   1      -0.923  -1.312  -1.820  0.00  0.00     0.076 C 
ATOM      6  C7  UNL d   1      -1.664   0.855  -0.793  0.00  0.00     0.002 A 
ATOM      7  C8  UNL d   1      -1.394   2.079  -0.176  0.00  0.00     0.006 A 
ENDROOT
BRANCH   1   8
ATOM      8  C1  UNL d   1       0.217   3.799   0.725  0.00  0.00     0.054 C 
ATOM      9  C   UNL d   1       0.289   4.881  -0.343  0.00  0.00     0.018 C 
ENDBRANCH   1   8
TORSDOF 1
ENDMDL
