MODEL 1
REMARK minimizedAffinity 10.9363165
REMARK minimizedRMSD -1
REMARK  1 active torsions:
REMARK  status: ('A' for Active; 'I' for Inactive)
REMARK    1  A    between atoms: C1_2  and  C2_3 
ROOT
ATOM      1  C2  UNL d   1      -0.415   1.308  -0.157  0.00  0.00    -0.081 A 
ATOM      2  C3  UNL d   1       0.621   0.683  -0.863  0.00  0.00     0.006 A 
ATOM      3  C4  UNL d   1       0.338  -0.318  -1.795  0.00  0.00     0.002 A 
ATOM      4  C5  UNL d   1      -0.983  -0.705  -2.043  0.00  0.00    -0.080 A 
ATOM      5  C6  UNL d   1      -1.302  -1.757  -3.064  0.00  0.00     0.076 C 
ATOM      6  C7  UNL d   1      -2.016  -0.092  -1.326  0.00  0.00     0.002 A 
ATOM      7  C8  UNL d   1      -1.735   0.908  -0.393  0.00  0.00     0.006 A 
ENDROOT
BRANCH   1   8
ATOM      8  C1  UNL d   1      -0.119   2.433   0.802  0.00  0.00     0.054 C 
ATOM      9  C   UNL d   1      -0.005   3.765   0.074  0.00  0.00     0.018 C 
ENDBRANCH   1   8
TORSDOF 1
ENDMDL
