MODEL 1
REMARK minimizedAffinity 11.8445778
REMARK minimizedRMSD -1
REMARK  1 active torsions:
REMARK  status: ('A' for Active; 'I' for Inactive)
REMARK    1  A    between atoms: C1_2  and  C2_3 
ROOT
ATOM      1  C2  UNL d   1       0.367   2.012   0.261  0.00  0.00    -0.081 A 
ATOM      2  C3  UNL d   1       1.395   1.124  -0.078  0.00  0.00     0.006 A 
ATOM      3  C4  UNL d   1       1.102  -0.107  -0.668  0.00  0.00     0.002 A 
ATOM      4  C5  UNL d   1      -0.223  -0.468  -0.937  0.00  0.00    -0.080 A 
ATOM      5  C6  UNL d   1      -0.550  -1.774  -1.598  0.00  0.00     0.076 C 
ATOM      6  C7  UNL d   1      -1.252   0.411  -0.583  0.00  0.00     0.002 A 
ATOM      7  C8  UNL d   1      -0.959   1.643   0.008  0.00  0.00     0.006 A 
ENDROOT
BRANCH   1   8
ATOM      8  C1  UNL d   1       0.684   3.368   0.838  0.00  0.00     0.054 C 
ATOM      9  C   UNL d   1       0.793   4.422  -0.254  0.00  0.00     0.018 C 
ENDBRANCH   1   8
TORSDOF 1
ENDMDL
