MODEL 1
REMARK minimizedAffinity 13.2483969
REMARK minimizedRMSD -1
REMARK  1 active torsions:
REMARK  status: ('A' for Active; 'I' for Inactive)
REMARK    1  A    between atoms: C1_2  and  C2_3 
ROOT
ATOM      1  C2  UNL d   1       0.885   4.507   0.418  0.00  0.00    -0.081 A 
ATOM      2  C3  UNL d   1      -0.349   3.934   0.751  0.00  0.00     0.006 A 
ATOM      3  C4  UNL d   1      -0.439   2.999   1.785  0.00  0.00     0.002 A 
ATOM      4  C5  UNL d   1       0.700   2.627   2.507  0.00  0.00    -0.080 A 
ATOM      5  C6  UNL d   1       0.611   1.647   3.639  0.00  0.00     0.076 C 
ATOM      6  C7  UNL d   1       1.935   3.186   2.162  0.00  0.00     0.002 A 
ATOM      7  C8  UNL d   1       2.026   4.120   1.129  0.00  0.00     0.006 A 
ENDROOT
BRANCH   1   8
ATOM      8  C1  UNL d   1       0.975   5.563  -0.654  0.00  0.00     0.054 C 
ATOM      9  C   UNL d   1      -0.407   6.000  -1.118  0.00  0.00     0.018 C 
ENDBRANCH   1   8
TORSDOF 1
ENDMDL
