MODEL 1
REMARK minimizedAffinity 10.7035284
REMARK minimizedRMSD -1
REMARK  1 active torsions:
REMARK  status: ('A' for Active; 'I' for Inactive)
REMARK    1  A    between atoms: C1_2  and  C2_3 
ROOT
ATOM      1  C2  UNL d   1      -0.252   1.518   0.011  0.00  0.00    -0.081 A 
ATOM      2  C3  UNL d   1       0.766   0.791  -0.619  0.00  0.00     0.006 A 
ATOM      3  C4  UNL d   1       0.454  -0.214  -1.537  0.00  0.00     0.002 A 
ATOM      4  C5  UNL d   1      -0.879  -0.503  -1.848  0.00  0.00    -0.080 A 
ATOM      5  C6  UNL d   1      -1.226  -1.559  -2.855  0.00  0.00     0.076 C 
ATOM      6  C7  UNL d   1      -1.896   0.211  -1.206  0.00  0.00     0.002 A 
ATOM      7  C8  UNL d   1      -1.585   1.216  -0.287  0.00  0.00     0.006 A 
ENDROOT
BRANCH   1   8
ATOM      8  C1  UNL d   1       0.082   2.646   0.953  0.00  0.00     0.054 C 
ATOM      9  C   UNL d   1       0.061   3.990   0.238  0.00  0.00     0.018 C 
ENDBRANCH   1   8
TORSDOF 1
ENDMDL
