MODEL 1
REMARK minimizedAffinity -3.88779163
REMARK minimizedRMSD -1
REMARK  0 active torsions:
REMARK  status: ('A' for Active; 'I' for Inactive)
ROOT
ATOM      1  C   UNL d   1      -0.232  -0.425  -0.925  0.00  0.00     0.172 C 
ATOM      2  N   UNL d   1       0.452   0.533  -0.089  0.00  0.00    -0.070 N 
ATOM      3  C1  UNL d   1       1.673   1.094  -0.351  0.00  0.00    -0.004 A 
ATOM      4  C2  UNL d   1       1.975   1.953   0.683  0.00  0.00    -0.047 A 
ATOM      5  C3  UNL d   1       0.897   1.906   1.600  0.00  0.00    -0.047 A 
ATOM      6  C4  UNL d   1      -0.031   1.019   1.097  0.00  0.00    -0.004 A 
ENDROOT
TORSDOF 0
ENDMDL
