MODEL 1
REMARK minimizedAffinity -3.82032681
REMARK minimizedRMSD -1
REMARK  0 active torsions:
REMARK  status: ('A' for Active; 'I' for Inactive)
ROOT
ATOM      1  C   UNL d   1      -0.036  -1.059  -0.579  0.00  0.00     0.172 C 
ATOM      2  N   UNL d   1       0.320   0.153   0.120  0.00  0.00    -0.070 N 
ATOM      3  C1  UNL d   1      -0.376   0.709   1.160  0.00  0.00    -0.004 A 
ATOM      4  C2  UNL d   1       0.287   1.853   1.549  0.00  0.00    -0.047 A 
ATOM      5  C3  UNL d   1       1.420   1.990   0.712  0.00  0.00    -0.047 A 
ATOM      6  C4  UNL d   1       1.417   0.925  -0.163  0.00  0.00    -0.004 A 
ENDROOT
TORSDOF 0
ENDMDL
