MODEL 1
REMARK minimizedAffinity -2.38838506
REMARK minimizedRMSD -1
REMARK  0 active torsions:
REMARK  status: ('A' for Active; 'I' for Inactive)
ROOT
ATOM      1  C   UNL d   1      -5.532   5.940  -5.488  0.00  0.00     0.172 C 
ATOM      2  N   UNL d   1      -4.199   5.964  -4.935  0.00  0.00    -0.070 N 
ATOM      3  C1  UNL d   1      -3.035   5.978  -5.657  0.00  0.00    -0.004 A 
ATOM      4  C2  UNL d   1      -1.985   6.000  -4.764  0.00  0.00    -0.047 A 
ATOM      5  C3  UNL d   1      -2.536   5.997  -3.461  0.00  0.00    -0.047 A 
ATOM      6  C4  UNL d   1      -3.909   5.975  -3.596  0.00  0.00    -0.004 A 
ENDROOT
TORSDOF 0
ENDMDL
