MODEL 1
REMARK minimizedAffinity -2.56574178
REMARK minimizedRMSD -1
REMARK  0 active torsions:
REMARK  status: ('A' for Active; 'I' for Inactive)
ROOT
ATOM      1  C   UNL d   1       0.464  -0.437  -0.311  0.00  0.00     0.172 C 
ATOM      2  N   UNL d   1       0.690   0.702   0.547  0.00  0.00    -0.070 N 
ATOM      3  C1  UNL d   1       1.803   1.500   0.538  0.00  0.00    -0.004 A 
ATOM      4  C2  UNL d   1       1.633   2.472   1.500  0.00  0.00    -0.047 A 
ATOM      5  C3  UNL d   1       0.375   2.250   2.109  0.00  0.00    -0.047 A 
ATOM      6  C4  UNL d   1      -0.187   1.148   1.499  0.00  0.00    -0.004 A 
ENDROOT
TORSDOF 0
ENDMDL
