MODEL 1
REMARK minimizedAffinity -3.56170988
REMARK minimizedRMSD -1
REMARK  0 active torsions:
REMARK  status: ('A' for Active; 'I' for Inactive)
ROOT
ATOM      1  C   UNL d   1      -0.005  -0.277   0.314  0.00  0.00     0.172 C 
ATOM      2  N   UNL d   1       1.035   0.679   0.614  0.00  0.00    -0.070 N 
ATOM      3  C1  UNL d   1       1.143   1.405   1.771  0.00  0.00    -0.004 A 
ATOM      4  C2  UNL d   1       2.265   2.198   1.668  0.00  0.00    -0.047 A 
ATOM      5  C3  UNL d   1       2.852   1.941   0.406  0.00  0.00    -0.047 A 
ATOM      6  C4  UNL d   1       2.070   0.997  -0.225  0.00  0.00    -0.004 A 
ENDROOT
TORSDOF 0
ENDMDL
