MODEL 1
REMARK minimizedAffinity -3.06355405
REMARK minimizedRMSD -1
REMARK  0 active torsions:
REMARK  status: ('A' for Active; 'I' for Inactive)
ROOT
ATOM      1  C   UNL d   1       2.541   0.686  -0.184  0.00  0.00     0.172 C 
ATOM      2  N   UNL d   1       1.314   0.970   0.522  0.00  0.00    -0.070 N 
ATOM      3  C1  UNL d   1       1.184   1.820   1.588  0.00  0.00    -0.004 A 
ATOM      4  C2  UNL d   1      -0.140   1.815   1.972  0.00  0.00    -0.047 A 
ATOM      5  C3  UNL d   1      -0.829   0.932   1.108  0.00  0.00    -0.047 A 
ATOM      6  C4  UNL d   1       0.095   0.422   0.220  0.00  0.00    -0.004 A 
ENDROOT
TORSDOF 0
ENDMDL
