MODEL 1
REMARK minimizedAffinity -2.98917603
REMARK minimizedRMSD -1
REMARK  0 active torsions:
REMARK  status: ('A' for Active; 'I' for Inactive)
ROOT
ATOM      1  C   UNL d   1       1.391   2.510   0.945  0.00  0.00     0.172 C 
ATOM      2  N   UNL d   1       1.195   1.215   0.336  0.00  0.00    -0.070 N 
ATOM      3  C1  UNL d   1       0.054   0.462   0.411  0.00  0.00    -0.004 A 
ATOM      4  C2  UNL d   1       0.267  -0.700  -0.299  0.00  0.00    -0.047 A 
ATOM      5  C3  UNL d   1       1.583  -0.644  -0.818  0.00  0.00    -0.047 A 
ATOM      6  C4  UNL d   1       2.134   0.552  -0.409  0.00  0.00    -0.004 A 
ENDROOT
TORSDOF 0
ENDMDL
