MODEL 1
REMARK minimizedAffinity -1.91088569
REMARK minimizedRMSD -1
REMARK  0 active torsions:
REMARK  status: ('A' for Active; 'I' for Inactive)
ROOT
ATOM      1  C   UNL d   1       0.670   3.176   0.925  0.00  0.00     0.172 C 
ATOM      2  N   UNL d   1       0.170   1.832   0.757  0.00  0.00    -0.070 N 
ATOM      3  C1  UNL d   1       0.670   0.896  -0.108  0.00  0.00    -0.004 A 
ATOM      4  C2  UNL d   1      -0.079  -0.252   0.033  0.00  0.00    -0.047 A 
ATOM      5  C3  UNL d   1      -1.063   0.003   1.017  0.00  0.00    -0.047 A 
ATOM      6  C4  UNL d   1      -0.887   1.300   1.448  0.00  0.00    -0.004 A 
ENDROOT
TORSDOF 0
ENDMDL
