MODEL 1
REMARK minimizedAffinity -2.76011133
REMARK minimizedRMSD -1
REMARK  0 active torsions:
REMARK  status: ('A' for Active; 'I' for Inactive)
ROOT
ATOM      1  C   UNL d   1      -4.006  -3.118  -1.988  0.00  0.00     0.172 C 
ATOM      2  N   UNL d   1      -3.274  -2.164  -2.787  0.00  0.00    -0.070 N 
ATOM      3  C1  UNL d   1      -3.041  -0.856  -2.454  0.00  0.00    -0.004 A 
ATOM      4  C2  UNL d   1      -2.310  -0.285  -3.473  0.00  0.00    -0.047 A 
ATOM      5  C3  UNL d   1      -2.097  -1.283  -4.453  0.00  0.00    -0.047 A 
ATOM      6  C4  UNL d   1      -2.704  -2.437  -4.002  0.00  0.00    -0.004 A 
ENDROOT
TORSDOF 0
ENDMDL
