MODEL 1
REMARK minimizedAffinity -3.49957585
REMARK minimizedRMSD -1
REMARK  0 active torsions:
REMARK  status: ('A' for Active; 'I' for Inactive)
ROOT
ATOM      1  C   UNL d   1      -0.193  -1.207  -0.372  0.00  0.00     0.172 C 
ATOM      2  N   UNL d   1      -1.192  -1.553  -1.356  0.00  0.00    -0.070 N 
ATOM      3  C1  UNL d   1      -1.245  -1.080  -2.640  0.00  0.00    -0.004 A 
ATOM      4  C2  UNL d   1      -2.342  -1.646  -3.253  0.00  0.00    -0.047 A 
ATOM      5  C3  UNL d   1      -2.970  -2.488  -2.304  0.00  0.00    -0.047 A 
ATOM      6  C4  UNL d   1      -2.237  -2.411  -1.139  0.00  0.00    -0.004 A 
ENDROOT
TORSDOF 0
ENDMDL
