MODEL 1
REMARK minimizedAffinity -4.09190226
REMARK minimizedRMSD -1
REMARK  0 active torsions:
REMARK  status: ('A' for Active; 'I' for Inactive)
ROOT
ATOM      1  C   UNL d   1       0.164  -0.693  -0.365  0.00  0.00     0.172 C 
ATOM      2  N   UNL d   1       0.602   0.516   0.293  0.00  0.00    -0.070 N 
ATOM      3  C1  UNL d   1       1.784   1.167   0.062  0.00  0.00    -0.004 A 
ATOM      4  C2  UNL d   1       1.825   2.272   0.884  0.00  0.00    -0.047 A 
ATOM      5  C3  UNL d   1       0.627   2.285   1.636  0.00  0.00    -0.047 A 
ATOM      6  C4  UNL d   1      -0.112   1.187   1.250  0.00  0.00    -0.004 A 
ENDROOT
TORSDOF 0
ENDMDL
