MODEL 1
REMARK minimizedAffinity -2.34720707
REMARK minimizedRMSD -1
REMARK  0 active torsions:
REMARK  status: ('A' for Active; 'I' for Inactive)
ROOT
ATOM      1  C   UNL d   1      -0.576  -0.843  -0.657  0.00  0.00     0.172 C 
ATOM      2  N   UNL d   1      -0.182   0.295   0.141  0.00  0.00    -0.070 N 
ATOM      3  C1  UNL d   1       0.851   1.149  -0.142  0.00  0.00    -0.004 A 
ATOM      4  C2  UNL d   1       0.899   2.097   0.856  0.00  0.00    -0.047 A 
ATOM      5  C3  UNL d   1      -0.139   1.803   1.771  0.00  0.00    -0.047 A 
ATOM      6  C4  UNL d   1      -0.793   0.682   1.304  0.00  0.00    -0.004 A 
ENDROOT
TORSDOF 0
ENDMDL
