MODEL 1
REMARK minimizedAffinity -3.26552939
REMARK minimizedRMSD -1
REMARK  0 active torsions:
REMARK  status: ('A' for Active; 'I' for Inactive)
ROOT
ATOM      1  C   UNL d   1      -0.431  -0.866  -0.612  0.00  0.00     0.172 C 
ATOM      2  N   UNL d   1       0.032   0.281   0.133  0.00  0.00    -0.070 N 
ATOM      3  C1  UNL d   1      -0.717   1.018   1.011  0.00  0.00    -0.004 A 
ATOM      4  C2  UNL d   1       0.085   2.020   1.512  0.00  0.00    -0.047 A 
ATOM      5  C3  UNL d   1       1.360   1.881   0.915  0.00  0.00    -0.047 A 
ATOM      6  C4  UNL d   1       1.299   0.796   0.066  0.00  0.00    -0.004 A 
ENDROOT
TORSDOF 0
ENDMDL
