MODEL 1
REMARK minimizedAffinity -1.58811057
REMARK minimizedRMSD -1
REMARK  0 active torsions:
REMARK  status: ('A' for Active; 'I' for Inactive)
ROOT
ATOM      1  C   UNL d   1       2.996   0.754   0.525  0.00  0.00     0.172 C 
ATOM      2  N   UNL d   1       1.576   0.788   0.783  0.00  0.00    -0.070 N 
ATOM      3  C1  UNL d   1       0.955   1.549   1.738  0.00  0.00    -0.004 A 
ATOM      4  C2  UNL d   1      -0.398   1.299   1.663  0.00  0.00    -0.047 A 
ATOM      5  C3  UNL d   1      -0.598   0.355   0.627  0.00  0.00    -0.047 A 
ATOM      6  C4  UNL d   1       0.641   0.056   0.100  0.00  0.00    -0.004 A 
ENDROOT
TORSDOF 0
ENDMDL
