MODEL 1
REMARK minimizedAffinity -2.79052472
REMARK minimizedRMSD -1
REMARK  0 active torsions:
REMARK  status: ('A' for Active; 'I' for Inactive)
ROOT
ATOM      1  C   UNL d   1      -1.157  -1.356  -1.557  0.00  0.00     0.172 C 
ATOM      2  N   UNL d   1      -1.042  -0.538  -0.373  0.00  0.00    -0.070 N 
ATOM      3  C1  UNL d   1      -1.956   0.392   0.048  0.00  0.00    -0.004 A 
ATOM      4  C2  UNL d   1      -1.481   0.953   1.213  0.00  0.00    -0.047 A 
ATOM      5  C3  UNL d   1      -0.238   0.341   1.503  0.00  0.00    -0.047 A 
ATOM      6  C4  UNL d   1       0.009  -0.578   0.505  0.00  0.00    -0.004 A 
ENDROOT
TORSDOF 0
ENDMDL
