MODEL 1
REMARK minimizedAffinity -2.38545871
REMARK minimizedRMSD -1
REMARK  0 active torsions:
REMARK  status: ('A' for Active; 'I' for Inactive)
ROOT
ATOM      1  C   UNL d   1       1.137   1.242   2.063  0.00  0.00     0.172 C 
ATOM      2  N   UNL d   1       0.497   0.414   1.067  0.00  0.00    -0.070 N 
ATOM      3  C1  UNL d   1       1.139  -0.389   0.163  0.00  0.00    -0.004 A 
ATOM      4  C2  UNL d   1       0.180  -1.010  -0.607  0.00  0.00    -0.047 A 
ATOM      5  C3  UNL d   1      -1.083  -0.564  -0.150  0.00  0.00    -0.047 A 
ATOM      6  C4  UNL d   1      -0.858   0.317   0.886  0.00  0.00    -0.004 A 
ENDROOT
TORSDOF 0
ENDMDL
