MODEL 1
REMARK minimizedAffinity -3.8764329
REMARK minimizedRMSD -1
REMARK  0 active torsions:
REMARK  status: ('A' for Active; 'I' for Inactive)
ROOT
ATOM      1  C   UNL d   1       2.830  -0.001  -0.305  0.00  0.00     0.172 C 
ATOM      2  N   UNL d   1       1.593   0.283   0.384  0.00  0.00    -0.070 N 
ATOM      3  C1  UNL d   1       1.417   1.243   1.345  0.00  0.00    -0.004 A 
ATOM      4  C2  UNL d   1       0.101   1.197   1.751  0.00  0.00    -0.047 A 
ATOM      5  C3  UNL d   1      -0.536   0.173   1.009  0.00  0.00    -0.047 A 
ATOM      6  C4  UNL d   1       0.411  -0.376   0.171  0.00  0.00    -0.004 A 
ENDROOT
TORSDOF 0
ENDMDL
