MODEL 1
REMARK minimizedAffinity -0.330446124
REMARK minimizedRMSD -1
REMARK  1 active torsions:
REMARK  status: ('A' for Active; 'I' for Inactive)
REMARK    1  A    between atoms: N_2  and  C1_3 
ROOT
ATOM      1  C1  UNL d   1       2.021   0.759  -0.025  0.00  0.00     0.143 A 
ATOM      2  C2  UNL d   1       2.843   0.557  -1.139  0.00  0.00    -0.057 A 
ATOM      3  C3  UNL d   1       3.318  -0.718  -1.469  0.00  0.00     0.033 A 
ATOM      4  C4  UNL d   1       3.001  -1.813  -0.672  0.00  0.00    -0.042 A 
ATOM      5  C5  UNL d   1       2.206  -1.632   0.455  0.00  0.00     0.033 A 
ATOM      6  C6  UNL d   1       1.730  -0.357   0.776  0.00  0.00    -0.057 A 
ENDROOT
BRANCH   1   7
ATOM      7  N   UNL d   1       1.598   2.017   0.412  0.00  0.00    -0.732 N 
ATOM      8  C   UNL d   1       1.204   3.033  -0.540  0.00  0.00     0.284 C 
ATOM      9  H3  UNL d   1       1.000   1.962   1.234  0.00  0.00     0.395 HD
ENDBRANCH   1   7
TORSDOF 1
ENDMDL
