MODEL 1
REMARK minimizedAffinity 1.78111959
REMARK minimizedRMSD -1
REMARK  1 active torsions:
REMARK  status: ('A' for Active; 'I' for Inactive)
REMARK    1  A    between atoms: N_2  and  C1_3 
ROOT
ATOM      1  C1  UNL d   1      -3.315  -4.122   1.827  0.00  0.00     0.143 A 
ATOM      2  C2  UNL d   1      -3.413  -4.143   3.222  0.00  0.00    -0.057 A 
ATOM      3  C3  UNL d   1      -4.218  -5.081   3.880  0.00  0.00     0.033 A 
ATOM      4  C4  UNL d   1      -4.964  -6.000   3.149  0.00  0.00    -0.042 A 
ATOM      5  C5  UNL d   1      -4.902  -5.981   1.760  0.00  0.00     0.033 A 
ATOM      6  C6  UNL d   1      -4.091  -5.046   1.110  0.00  0.00    -0.057 A 
ENDROOT
BRANCH   1   7
ATOM      7  N   UNL d   1      -2.609  -3.152   1.111  0.00  0.00    -0.732 N 
ATOM      8  C   UNL d   1      -2.579  -1.778   1.565  0.00  0.00     0.284 C 
ATOM      9  H3  UNL d   1      -1.715  -3.496   0.768  0.00  0.00     0.395 HD
ENDBRANCH   1   7
TORSDOF 1
ENDMDL
