MODEL 1
REMARK minimizedAffinity 4.70330429
REMARK minimizedRMSD -1
REMARK  1 active torsions:
REMARK  status: ('A' for Active; 'I' for Inactive)
REMARK    1  A    between atoms: N_2  and  C1_3 
ROOT
ATOM      1  C1  UNL d   1       3.105  -0.689  -1.409  0.00  0.00     0.143 A 
ATOM      2  C2  UNL d   1       2.908  -2.064  -1.246  0.00  0.00    -0.057 A 
ATOM      3  C3  UNL d   1       2.272  -2.576  -0.108  0.00  0.00     0.033 A 
ATOM      4  C4  UNL d   1       1.846  -1.720   0.902  0.00  0.00    -0.042 A 
ATOM      5  C5  UNL d   1       2.054  -0.351   0.772  0.00  0.00     0.033 A 
ATOM      6  C6  UNL d   1       2.684   0.154  -0.369  0.00  0.00    -0.057 A 
ENDROOT
BRANCH   1   7
ATOM      7  N   UNL d   1       3.819  -0.126  -2.471  0.00  0.00    -0.732 N 
ATOM      8  C   UNL d   1       4.975  -0.800  -3.021  0.00  0.00     0.284 C 
ATOM      9  H3  UNL d   1       3.210   0.292  -3.170  0.00  0.00     0.395 HD
ENDBRANCH   1   7
TORSDOF 1
ENDMDL
