MODEL 1
REMARK minimizedAffinity -0.44974947
REMARK minimizedRMSD -1
REMARK  1 active torsions:
REMARK  status: ('A' for Active; 'I' for Inactive)
REMARK    1  A    between atoms: N_2  and  C1_3 
ROOT
ATOM      1  C1  UNL d   1       3.080  -1.358   0.978  0.00  0.00     0.143 A 
ATOM      2  C2  UNL d   1       2.460  -2.469   0.396  0.00  0.00    -0.057 A 
ATOM      3  C3  UNL d   1       1.817  -2.374  -0.844  0.00  0.00     0.033 A 
ATOM      4  C4  UNL d   1       1.756  -1.156  -1.512  0.00  0.00    -0.042 A 
ATOM      5  C5  UNL d   1       2.344  -0.033  -0.940  0.00  0.00     0.033 A 
ATOM      6  C6  UNL d   1       2.991  -0.135   0.295  0.00  0.00    -0.057 A 
ENDROOT
BRANCH   1   7
ATOM      7  N   UNL d   1       3.650  -1.366   2.254  0.00  0.00    -0.732 N 
ATOM      8  C   UNL d   1       4.952  -0.775   2.483  0.00  0.00     0.284 C 
ATOM      9  H3  UNL d   1       2.970  -1.169   2.984  0.00  0.00     0.395 HD
ENDBRANCH   1   7
TORSDOF 1
ENDMDL
