MODEL 1
REMARK minimizedAffinity 7.69612217
REMARK minimizedRMSD -1
REMARK  1 active torsions:
REMARK  status: ('A' for Active; 'I' for Inactive)
REMARK    1  A    between atoms: N_2  and  C1_3 
ROOT
ATOM      1  C1  UNL d   1       1.257   0.752   0.455  0.00  0.00     0.143 A 
ATOM      2  C2  UNL d   1       2.204   1.731   0.136  0.00  0.00    -0.057 A 
ATOM      3  C3  UNL d   1       3.393   1.402  -0.526  0.00  0.00     0.033 A 
ATOM      4  C4  UNL d   1       3.670   0.079  -0.855  0.00  0.00    -0.042 A 
ATOM      5  C5  UNL d   1       2.755  -0.914  -0.525  0.00  0.00     0.033 A 
ATOM      6  C6  UNL d   1       1.566  -0.578   0.130  0.00  0.00    -0.057 A 
ENDROOT
BRANCH   1   7
ATOM      7  N   UNL d   1       0.101   1.001   1.199  0.00  0.00    -0.732 N 
ATOM      8  C   UNL d   1      -0.664  -0.091   1.761  0.00  0.00     0.284 C 
ATOM      9  H3  UNL d   1       0.204   1.800   1.821  0.00  0.00     0.395 HD
ENDBRANCH   1   7
TORSDOF 1
ENDMDL
