MODEL 1
REMARK minimizedAffinity -3.55420709
REMARK minimizedRMSD -1
REMARK  1 active torsions:
REMARK  status: ('A' for Active; 'I' for Inactive)
REMARK    1  A    between atoms: N_2  and  C1_3 
ROOT
ATOM      1  C1  UNL d   1       1.175  -4.099   4.101  0.00  0.00     0.143 A 
ATOM      2  C2  UNL d   1       2.182  -3.131   4.012  0.00  0.00    -0.057 A 
ATOM      3  C3  UNL d   1       2.164  -2.154   3.009  0.00  0.00     0.033 A 
ATOM      4  C4  UNL d   1       1.151  -2.145   2.056  0.00  0.00    -0.042 A 
ATOM      5  C5  UNL d   1       0.153  -3.112   2.110  0.00  0.00     0.033 A 
ATOM      6  C6  UNL d   1       0.173  -4.081   3.118  0.00  0.00    -0.057 A 
ENDROOT
BRANCH   1   7
ATOM      7  N   UNL d   1       1.189  -5.155   5.014  0.00  0.00    -0.732 N 
ATOM      8  C   UNL d   1       2.358  -5.998   5.148  0.00  0.00     0.284 C 
ATOM      9  H3  UNL d   1       0.750  -4.910   5.899  0.00  0.00     0.395 HD
ENDBRANCH   1   7
TORSDOF 1
ENDMDL
