MODEL 1
REMARK minimizedAffinity -2.33051491
REMARK minimizedRMSD -1
REMARK  1 active torsions:
REMARK  status: ('A' for Active; 'I' for Inactive)
REMARK    1  A    between atoms: N_2  and  C1_3 
ROOT
ATOM      1  C1  UNL d   1      -4.564  -5.965  -1.235  0.00  0.00     0.143 A 
ATOM      2  C2  UNL d   1      -3.175  -5.852  -1.109  0.00  0.00    -0.057 A 
ATOM      3  C3  UNL d   1      -2.561  -5.811   0.148  0.00  0.00     0.033 A 
ATOM      4  C4  UNL d   1      -3.330  -5.853   1.307  0.00  0.00    -0.042 A 
ATOM      5  C5  UNL d   1      -4.714  -5.940   1.206  0.00  0.00     0.033 A 
ATOM      6  C6  UNL d   1      -5.321  -5.988  -0.053  0.00  0.00    -0.057 A 
ENDROOT
BRANCH   1   7
ATOM      7  N   UNL d   1      -5.241  -5.912  -2.456  0.00  0.00    -0.732 N 
ATOM      8  C   UNL d   1      -4.515  -5.989  -3.705  0.00  0.00     0.284 C 
ATOM      9  H3  UNL d   1      -6.106  -6.448  -2.443  0.00  0.00     0.395 HD
ENDBRANCH   1   7
TORSDOF 1
ENDMDL
