MODEL 1
REMARK minimizedAffinity 1.44095385
REMARK minimizedRMSD -1
REMARK  1 active torsions:
REMARK  status: ('A' for Active; 'I' for Inactive)
REMARK    1  A    between atoms: N_2  and  C1_3 
ROOT
ATOM      1  C1  UNL d   1      -4.179  -5.421  -0.415  0.00  0.00     0.143 A 
ATOM      2  C2  UNL d   1      -3.036  -4.704  -0.784  0.00  0.00    -0.057 A 
ATOM      3  C3  UNL d   1      -2.240  -4.064   0.174  0.00  0.00     0.033 A 
ATOM      4  C4  UNL d   1      -2.592  -4.106   1.520  0.00  0.00    -0.042 A 
ATOM      5  C5  UNL d   1      -3.738  -4.792   1.906  0.00  0.00     0.033 A 
ATOM      6  C6  UNL d   1      -4.525  -5.435   0.945  0.00  0.00    -0.057 A 
ENDROOT
BRANCH   1   7
ATOM      7  N   UNL d   1      -5.065  -5.996  -1.330  0.00  0.00    -0.732 N 
ATOM      8  C   UNL d   1      -5.020  -5.631  -2.729  0.00  0.00     0.284 C 
ATOM      9  H3  UNL d   1      -5.204  -6.990  -1.164  0.00  0.00     0.395 HD
ENDBRANCH   1   7
TORSDOF 1
ENDMDL
