MODEL 1
REMARK minimizedAffinity 4.6554451
REMARK minimizedRMSD -1
REMARK  1 active torsions:
REMARK  status: ('A' for Active; 'I' for Inactive)
REMARK    1  A    between atoms: N_2  and  C1_3 
ROOT
ATOM      1  C1  UNL d   1      -3.820  -4.592   2.153  0.00  0.00     0.143 A 
ATOM      2  C2  UNL d   1      -2.765  -3.983   1.465  0.00  0.00    -0.057 A 
ATOM      3  C3  UNL d   1      -2.673  -4.052   0.070  0.00  0.00     0.033 A 
ATOM      4  C4  UNL d   1      -3.621  -4.758  -0.662  0.00  0.00    -0.042 A 
ATOM      5  C5  UNL d   1      -4.665  -5.392   0.002  0.00  0.00     0.033 A 
ATOM      6  C6  UNL d   1      -4.755  -5.315   1.396  0.00  0.00    -0.057 A 
ENDROOT
BRANCH   1   7
ATOM      7  N   UNL d   1      -3.914  -4.644   3.546  0.00  0.00    -0.732 N 
ATOM      8  C   UNL d   1      -2.724  -4.581   4.368  0.00  0.00     0.284 C 
ATOM      9  H3  UNL d   1      -4.695  -4.098   3.903  0.00  0.00     0.395 HD
ENDBRANCH   1   7
TORSDOF 1
ENDMDL
