MODEL 1
REMARK minimizedAffinity 5.79193258
REMARK minimizedRMSD -1
REMARK  1 active torsions:
REMARK  status: ('A' for Active; 'I' for Inactive)
REMARK    1  A    between atoms: N_2  and  C1_3 
ROOT
ATOM      1  C1  UNL d   1      -0.827  -5.922  -4.968  0.00  0.00     0.143 A 
ATOM      2  C2  UNL d   1       0.129  -5.938  -5.989  0.00  0.00    -0.057 A 
ATOM      3  C3  UNL d   1       1.492  -5.779  -5.709  0.00  0.00     0.033 A 
ATOM      4  C4  UNL d   1       1.920  -5.571  -4.403  0.00  0.00    -0.042 A 
ATOM      5  C5  UNL d   1       0.985  -5.526  -3.375  0.00  0.00     0.033 A 
ATOM      6  C6  UNL d   1      -0.374  -5.692  -3.660  0.00  0.00    -0.057 A 
ENDROOT
BRANCH   1   7
ATOM      7  N   UNL d   1      -2.205  -5.977  -5.193  0.00  0.00    -0.732 N 
ATOM      8  C   UNL d   1      -3.133  -5.997  -4.082  0.00  0.00     0.284 C 
ATOM      9  H3  UNL d   1      -2.496  -5.384  -5.967  0.00  0.00     0.395 HD
ENDBRANCH   1   7
TORSDOF 1
ENDMDL
