MODEL 1
REMARK minimizedAffinity 3.59794116
REMARK minimizedRMSD -1
REMARK  1 active torsions:
REMARK  status: ('A' for Active; 'I' for Inactive)
REMARK    1  A    between atoms: N_2  and  C1_3 
ROOT
ATOM      1  C1  UNL d   1       0.246  -5.827  -5.300  0.00  0.00     0.143 A 
ATOM      2  C2  UNL d   1       0.321  -5.649  -3.915  0.00  0.00    -0.057 A 
ATOM      3  C3  UNL d   1       1.555  -5.594  -3.255  0.00  0.00     0.033 A 
ATOM      4  C4  UNL d   1       2.739  -5.747  -3.969  0.00  0.00    -0.042 A 
ATOM      5  C5  UNL d   1       2.688  -5.950  -5.344  0.00  0.00     0.033 A 
ATOM      6  C6  UNL d   1       1.453  -5.997  -5.997  0.00  0.00    -0.057 A 
ENDROOT
BRANCH   1   7
ATOM      7  N   UNL d   1      -0.952  -5.988  -6.000  0.00  0.00    -0.732 N 
ATOM      8  C   UNL d   1      -2.225  -5.848  -5.325  0.00  0.00     0.284 C 
ATOM      9  H3  UNL d   1      -0.923  -5.563  -6.924  0.00  0.00     0.395 HD
ENDBRANCH   1   7
TORSDOF 1
ENDMDL
