MODEL 1
REMARK minimizedAffinity 0.00153269654
REMARK minimizedRMSD -1
REMARK  1 active torsions:
REMARK  status: ('A' for Active; 'I' for Inactive)
REMARK    1  A    between atoms: N_2  and  C1_3 
ROOT
ATOM      1  C1  UNL d   1      -0.600  -5.701  -3.636  0.00  0.00     0.143 A 
ATOM      2  C2  UNL d   1      -0.718  -6.000  -4.997  0.00  0.00    -0.057 A 
ATOM      3  C3  UNL d   1       0.254  -5.590  -5.918  0.00  0.00     0.033 A 
ATOM      4  C4  UNL d   1       1.351  -4.846  -5.496  0.00  0.00    -0.042 A 
ATOM      5  C5  UNL d   1       1.477  -4.516  -4.151  0.00  0.00     0.033 A 
ATOM      6  C6  UNL d   1       0.506  -4.934  -3.235  0.00  0.00    -0.057 A 
ENDROOT
BRANCH   1   7
ATOM      7  N   UNL d   1      -1.581  -5.995  -2.686  0.00  0.00    -0.732 N 
ATOM      8  C   UNL d   1      -2.983  -5.984  -3.048  0.00  0.00     0.284 C 
ATOM      9  H3  UNL d   1      -1.315  -6.765  -2.078  0.00  0.00     0.395 HD
ENDBRANCH   1   7
TORSDOF 1
ENDMDL
