MODEL 1
REMARK minimizedAffinity -1.11040223
REMARK minimizedRMSD -1
REMARK  1 active torsions:
REMARK  status: ('A' for Active; 'I' for Inactive)
REMARK    1  A    between atoms: N_2  and  C1_3 
ROOT
ATOM      1  C1  UNL d   1       1.246  -5.843  -4.766  0.00  0.00     0.143 A 
ATOM      2  C2  UNL d   1       0.361  -5.872  -5.850  0.00  0.00    -0.057 A 
ATOM      3  C3  UNL d   1      -1.024  -5.931  -5.654  0.00  0.00     0.033 A 
ATOM      4  C4  UNL d   1      -1.549  -5.993  -4.368  0.00  0.00    -0.042 A 
ATOM      5  C5  UNL d   1      -0.688  -5.991  -3.277  0.00  0.00     0.033 A 
ATOM      6  C6  UNL d   1       0.694  -5.924  -3.478  0.00  0.00    -0.057 A 
ENDROOT
BRANCH   1   7
ATOM      7  N   UNL d   1       2.636  -5.883  -4.896  0.00  0.00    -0.732 N 
ATOM      8  C   UNL d   1       3.491  -5.439  -3.816  0.00  0.00     0.284 C 
ATOM      9  H3  UNL d   1       2.958  -6.730  -5.360  0.00  0.00     0.395 HD
ENDBRANCH   1   7
TORSDOF 1
ENDMDL
