MODEL 1
REMARK minimizedAffinity 3.9884131
REMARK minimizedRMSD -1
REMARK  1 active torsions:
REMARK  status: ('A' for Active; 'I' for Inactive)
REMARK    1  A    between atoms: N_2  and  C1_3 
ROOT
ATOM      1  C1  UNL d   1       0.484   0.313   0.197  0.00  0.00     0.143 A 
ATOM      2  C2  UNL d   1      -0.217   0.755  -0.931  0.00  0.00    -0.057 A 
ATOM      3  C3  UNL d   1       0.355   0.702  -2.208  0.00  0.00     0.033 A 
ATOM      4  C4  UNL d   1       1.653   0.233  -2.376  0.00  0.00    -0.042 A 
ATOM      5  C5  UNL d   1       2.378  -0.187  -1.267  0.00  0.00     0.033 A 
ATOM      6  C6  UNL d   1       1.799  -0.139   0.005  0.00  0.00    -0.057 A 
ENDROOT
BRANCH   1   7
ATOM      7  N   UNL d   1       0.007   0.431   1.504  0.00  0.00    -0.732 N 
ATOM      8  C   UNL d   1      -1.270  -0.139   1.878  0.00  0.00     0.284 C 
ATOM      9  H3  UNL d   1       0.740   0.300   2.198  0.00  0.00     0.395 HD
ENDBRANCH   1   7
TORSDOF 1
ENDMDL
