MODEL 1
REMARK minimizedAffinity 0.807544351
REMARK minimizedRMSD -1
REMARK  1 active torsions:
REMARK  status: ('A' for Active; 'I' for Inactive)
REMARK    1  A    between atoms: N_2  and  C1_3 
ROOT
ATOM      1  C1  UNL d   1      -2.257   1.075  -1.132  0.00  0.00     0.143 A 
ATOM      2  C2  UNL d   1      -2.488  -0.304  -1.113  0.00  0.00    -0.057 A 
ATOM      3  C3  UNL d   1      -2.298  -1.056   0.053  0.00  0.00     0.033 A 
ATOM      4  C4  UNL d   1      -1.844  -0.444   1.216  0.00  0.00    -0.042 A 
ATOM      5  C5  UNL d   1      -1.583   0.921   1.214  0.00  0.00     0.033 A 
ATOM      6  C6  UNL d   1      -1.782   1.668   0.048  0.00  0.00    -0.057 A 
ENDROOT
BRANCH   1   7
ATOM      7  N   UNL d   1      -2.333   1.861  -2.284  0.00  0.00    -0.732 N 
ATOM      8  C   UNL d   1      -1.194   2.638  -2.723  0.00  0.00     0.284 C 
ATOM      9  H3  UNL d   1      -2.835   1.397  -3.038  0.00  0.00     0.395 HD
ENDBRANCH   1   7
TORSDOF 1
ENDMDL
