MODEL 1
REMARK minimizedAffinity 2.07136726
REMARK minimizedRMSD -1
REMARK  0 active torsions:
REMARK  status: ('A' for Active; 'I' for Inactive)
ROOT
ATOM      1  C   UNL d   1       0.433  -1.526   1.287  0.00  0.00     0.172 C 
ATOM      2  N   UNL d   1      -0.227  -2.222   0.207  0.00  0.00    -0.070 N 
ATOM      3  C1  UNL d   1      -0.779  -3.472   0.283  0.00  0.00    -0.004 A 
ATOM      4  C2  UNL d   1      -1.308  -3.776  -0.953  0.00  0.00    -0.047 A 
ATOM      5  C3  UNL d   1      -1.064  -2.670  -1.801  0.00  0.00    -0.047 A 
ATOM      6  C4  UNL d   1      -0.393  -1.722  -1.057  0.00  0.00    -0.004 A 
ENDROOT
TORSDOF 0
ENDMDL
