MODEL 1
REMARK minimizedAffinity -0.481494248
REMARK minimizedRMSD -1
REMARK  0 active torsions:
REMARK  status: ('A' for Active; 'I' for Inactive)
ROOT
ATOM      1  C   UNL d   1       0.289   4.002  -5.937  0.00  0.00     0.172 C 
ATOM      2  N   UNL d   1       1.686   4.364  -5.961  0.00  0.00    -0.070 N 
ATOM      3  C1  UNL d   1       2.180   5.642  -5.978  0.00  0.00    -0.004 A 
ATOM      4  C2  UNL d   1       3.555   5.562  -5.999  0.00  0.00    -0.047 A 
ATOM      5  C3  UNL d   1       3.901   4.190  -5.994  0.00  0.00    -0.047 A 
ATOM      6  C4  UNL d   1       2.725   3.471  -5.971  0.00  0.00    -0.004 A 
ENDROOT
TORSDOF 0
ENDMDL
