MODEL 1
REMARK minimizedAffinity 1.95749283
REMARK minimizedRMSD -1
REMARK  0 active torsions:
REMARK  status: ('A' for Active; 'I' for Inactive)
ROOT
ATOM      1  C   UNL d   1      -4.078   2.997  -5.993  0.00  0.00     0.172 C 
ATOM      2  N   UNL d   1      -2.852   3.760  -5.996  0.00  0.00    -0.070 N 
ATOM      3  C1  UNL d   1      -2.763   5.127  -5.998  0.00  0.00    -0.004 A 
ATOM      4  C2  UNL d   1      -1.426   5.463  -6.000  0.00  0.00    -0.047 A 
ATOM      5  C3  UNL d   1      -0.687   4.256  -5.999  0.00  0.00    -0.047 A 
ATOM      6  C4  UNL d   1      -1.594   3.218  -5.997  0.00  0.00    -0.004 A 
ENDROOT
TORSDOF 0
ENDMDL
