MODEL 1
REMARK minimizedAffinity -2.29470873
REMARK minimizedRMSD -1
REMARK  0 active torsions:
REMARK  status: ('A' for Active; 'I' for Inactive)
ROOT
ATOM      1  C   UNL d   1      -2.285   3.202  -5.987  0.00  0.00     0.172 C 
ATOM      2  N   UNL d   1      -0.854   3.400  -5.984  0.00  0.00    -0.070 N 
ATOM      3  C1  UNL d   1      -0.215   4.611  -5.987  0.00  0.00    -0.004 A 
ATOM      4  C2  UNL d   1       1.142   4.372  -5.982  0.00  0.00    -0.047 A 
ATOM      5  C3  UNL d   1       1.325   2.969  -5.977  0.00  0.00    -0.047 A 
ATOM      6  C4  UNL d   1       0.073   2.391  -5.978  0.00  0.00    -0.004 A 
ENDROOT
TORSDOF 0
ENDMDL
