MODEL 1
REMARK minimizedAffinity -2.3192606
REMARK minimizedRMSD -1
REMARK  0 active torsions:
REMARK  status: ('A' for Active; 'I' for Inactive)
ROOT
ATOM      1  C   UNL d   1      -0.762   3.900  -6.000  0.00  0.00     0.172 C 
ATOM      2  N   UNL d   1      -2.201   4.018  -5.998  0.00  0.00    -0.070 N 
ATOM      3  C1  UNL d   1      -3.087   2.974  -5.999  0.00  0.00    -0.004 A 
ATOM      4  C2  UNL d   1      -4.360   3.502  -5.997  0.00  0.00    -0.047 A 
ATOM      5  C3  UNL d   1      -4.235   4.911  -5.996  0.00  0.00    -0.047 A 
ATOM      6  C4  UNL d   1      -2.887   5.203  -5.997  0.00  0.00    -0.004 A 
ENDROOT
TORSDOF 0
ENDMDL
