MODEL 1
REMARK minimizedAffinity -2.19765115
REMARK minimizedRMSD -1
REMARK  0 active torsions:
REMARK  status: ('A' for Active; 'I' for Inactive)
ROOT
ATOM      1  C   UNL d   1      -4.210   6.000  -6.000  0.00  0.00     0.172 C 
ATOM      2  N   UNL d   1      -3.523   4.773  -5.672  0.00  0.00    -0.070 N 
ATOM      3  C1  UNL d   1      -2.338   4.678  -4.991  0.00  0.00    -0.004 A 
ATOM      4  C2  UNL d   1      -2.020   3.342  -4.882  0.00  0.00    -0.047 A 
ATOM      5  C3  UNL d   1      -3.048   2.608  -5.520  0.00  0.00    -0.047 A 
ATOM      6  C4  UNL d   1      -3.965   3.519  -6.000  0.00  0.00    -0.004 A 
ENDROOT
TORSDOF 0
ENDMDL
