MODEL 1
REMARK minimizedAffinity 0.327906817
REMARK minimizedRMSD -1
REMARK  0 active torsions:
REMARK  status: ('A' for Active; 'I' for Inactive)
ROOT
ATOM      1  C   UNL d   1      -3.551   3.630  -5.974  0.00  0.00     0.172 C 
ATOM      2  N   UNL d   1      -2.116   3.463  -5.982  0.00  0.00    -0.070 N 
ATOM      3  C1  UNL d   1      -1.194   4.476  -5.978  0.00  0.00    -0.004 A 
ATOM      4  C2  UNL d   1       0.060   3.905  -5.988  0.00  0.00    -0.047 A 
ATOM      5  C3  UNL d   1      -0.114   2.500  -6.000  0.00  0.00    -0.047 A 
ATOM      6  C4  UNL d   1      -1.471   2.255  -5.996  0.00  0.00    -0.004 A 
ENDROOT
TORSDOF 0
ENDMDL
