MODEL 1
REMARK minimizedAffinity 4.36051702
REMARK minimizedRMSD -1
REMARK  0 active torsions:
REMARK  status: ('A' for Active; 'I' for Inactive)
ROOT
ATOM      1  C   UNL d   1       1.255   4.082  -5.965  0.00  0.00     0.172 C 
ATOM      2  N   UNL d   1      -0.100   4.578  -5.977  0.00  0.00    -0.070 N 
ATOM      3  C1  UNL d   1      -0.467   5.898  -5.983  0.00  0.00    -0.004 A 
ATOM      4  C2  UNL d   1      -1.844   5.953  -5.995  0.00  0.00    -0.047 A 
ATOM      5  C3  UNL d   1      -2.321   4.620  -5.995  0.00  0.00    -0.047 A 
ATOM      6  C4  UNL d   1      -1.221   3.790  -5.984  0.00  0.00    -0.004 A 
ENDROOT
TORSDOF 0
ENDMDL
