MODEL 1
REMARK minimizedAffinity -0.276895821
REMARK minimizedRMSD -1
REMARK  0 active torsions:
REMARK  status: ('A' for Active; 'I' for Inactive)
ROOT
ATOM      1  C   UNL d   1      -0.419  -0.015   0.728  0.00  0.00     0.172 C 
ATOM      2  N   UNL d   1       0.267   1.249   0.594  0.00  0.00    -0.070 N 
ATOM      3  C1  UNL d   1       0.544   2.119   1.614  0.00  0.00    -0.004 A 
ATOM      4  C2  UNL d   1       1.207   3.202   1.077  0.00  0.00    -0.047 A 
ATOM      5  C3  UNL d   1       1.331   2.975  -0.314  0.00  0.00    -0.047 A 
ATOM      6  C4  UNL d   1       0.741   1.758  -0.586  0.00  0.00    -0.004 A 
ENDROOT
TORSDOF 0
ENDMDL
