MODEL 1
REMARK minimizedAffinity 2.53743792
REMARK minimizedRMSD -1
REMARK  0 active torsions:
REMARK  status: ('A' for Active; 'I' for Inactive)
ROOT
ATOM      1  C   UNL d   1       1.037   3.648  -5.980  0.00  0.00     0.172 C 
ATOM      2  N   UNL d   1       2.480   3.699  -5.988  0.00  0.00    -0.070 N 
ATOM      3  C1  UNL d   1       3.317   2.615  -5.993  0.00  0.00    -0.004 A 
ATOM      4  C2  UNL d   1       4.614   3.083  -6.000  0.00  0.00    -0.047 A 
ATOM      5  C3  UNL d   1       4.554   4.497  -5.997  0.00  0.00    -0.047 A 
ATOM      6  C4  UNL d   1       3.221   4.852  -5.990  0.00  0.00    -0.004 A 
ENDROOT
TORSDOF 0
ENDMDL
