MODEL 1
REMARK minimizedAffinity 1.21465933
REMARK minimizedRMSD -1
REMARK  0 active torsions:
REMARK  status: ('A' for Active; 'I' for Inactive)
ROOT
ATOM      1  C   UNL d   1       1.274   3.139  -5.993  0.00  0.00     0.172 C 
ATOM      2  N   UNL d   1      -0.154   3.357  -5.996  0.00  0.00    -0.070 N 
ATOM      3  C1  UNL d   1      -1.111   2.377  -5.998  0.00  0.00    -0.004 A 
ATOM      4  C2  UNL d   1      -2.344   2.992  -6.000  0.00  0.00    -0.047 A 
ATOM      5  C3  UNL d   1      -2.121   4.390  -5.999  0.00  0.00    -0.047 A 
ATOM      6  C4  UNL d   1      -0.756   4.587  -5.996  0.00  0.00    -0.004 A 
ENDROOT
TORSDOF 0
ENDMDL
