MODEL 1
REMARK minimizedAffinity 2.36763239
REMARK minimizedRMSD -1
REMARK  0 active torsions:
REMARK  status: ('A' for Active; 'I' for Inactive)
ROOT
ATOM      1  C   UNL d   1       0.125   3.714  -5.987  0.00  0.00     0.172 C 
ATOM      2  N   UNL d   1       1.519   3.338  -5.992  0.00  0.00    -0.070 N 
ATOM      3  C1  UNL d   1       2.580   4.204  -5.996  0.00  0.00    -0.004 A 
ATOM      4  C2  UNL d   1       3.737   3.455  -6.000  0.00  0.00    -0.047 A 
ATOM      5  C3  UNL d   1       3.358   2.092  -5.999  0.00  0.00    -0.047 A 
ATOM      6  C4  UNL d   1       1.980   2.048  -5.994  0.00  0.00    -0.004 A 
ENDROOT
TORSDOF 0
ENDMDL
