MODEL 1
REMARK minimizedAffinity -1.17807734
REMARK minimizedRMSD -1
REMARK  0 active torsions:
REMARK  status: ('A' for Active; 'I' for Inactive)
ROOT
ATOM      1  C   UNL d   1      -3.029   3.087  -5.980  0.00  0.00     0.172 C 
ATOM      2  N   UNL d   1      -1.587   3.180  -5.978  0.00  0.00    -0.070 N 
ATOM      3  C1  UNL d   1      -0.862   4.341  -5.979  0.00  0.00    -0.004 A 
ATOM      4  C2  UNL d   1       0.474   4.005  -5.976  0.00  0.00    -0.047 A 
ATOM      5  C3  UNL d   1       0.555   2.592  -5.974  0.00  0.00    -0.047 A 
ATOM      6  C4  UNL d   1      -0.736   2.107  -5.975  0.00  0.00    -0.004 A 
ENDROOT
TORSDOF 0
ENDMDL
