MODEL 1
REMARK minimizedAffinity 1.55108452
REMARK minimizedRMSD -1
REMARK  0 active torsions:
REMARK  status: ('A' for Active; 'I' for Inactive)
ROOT
ATOM      1  C   UNL d   1      -2.626  -3.756  -1.494  0.00  0.00     0.172 C 
ATOM      2  N   UNL d   1      -3.371  -4.445  -0.467  0.00  0.00    -0.070 N 
ATOM      3  C1  UNL d   1      -3.116  -5.709  -0.007  0.00  0.00    -0.004 A 
ATOM      4  C2  UNL d   1      -4.046  -5.999   0.968  0.00  0.00    -0.047 A 
ATOM      5  C3  UNL d   1      -4.890  -4.871   1.097  0.00  0.00    -0.047 A 
ATOM      6  C4  UNL d   1      -4.450  -3.924   0.197  0.00  0.00    -0.004 A 
ENDROOT
TORSDOF 0
ENDMDL
