MODEL 1
REMARK minimizedAffinity 1.25485885
REMARK minimizedRMSD -1
REMARK  0 active torsions:
REMARK  status: ('A' for Active; 'I' for Inactive)
ROOT
ATOM      1  C   UNL d   1      -3.000   3.368  -5.999  0.00  0.00     0.172 C 
ATOM      2  N   UNL d   1      -1.589   3.062  -5.999  0.00  0.00    -0.070 N 
ATOM      3  C1  UNL d   1      -1.044   1.805  -5.999  0.00  0.00    -0.004 A 
ATOM      4  C2  UNL d   1       0.327   1.940  -6.000  0.00  0.00    -0.047 A 
ATOM      5  C3  UNL d   1       0.617   3.325  -6.000  0.00  0.00    -0.047 A 
ATOM      6  C4  UNL d   1      -0.587   3.996  -6.000  0.00  0.00    -0.004 A 
ENDROOT
TORSDOF 0
ENDMDL
