MODEL 1
REMARK minimizedAffinity 1.78094697
REMARK minimizedRMSD -1
REMARK  0 active torsions:
REMARK  status: ('A' for Active; 'I' for Inactive)
ROOT
ATOM      1  C   UNL d   1      -0.531   3.422  -5.974  0.00  0.00     0.172 C 
ATOM      2  N   UNL d   1       0.861   3.038  -5.981  0.00  0.00    -0.070 N 
ATOM      3  C1  UNL d   1       1.335   1.753  -5.973  0.00  0.00    -0.004 A 
ATOM      4  C2  UNL d   1       2.712   1.812  -5.984  0.00  0.00    -0.047 A 
ATOM      5  C3  UNL d   1       3.078   3.179  -6.000  0.00  0.00    -0.047 A 
ATOM      6  C4  UNL d   1       1.913   3.916  -5.998  0.00  0.00    -0.004 A 
ENDROOT
TORSDOF 0
ENDMDL
