MODEL 1
REMARK minimizedAffinity 4.6000433
REMARK minimizedRMSD -1
REMARK  0 active torsions:
REMARK  status: ('A' for Active; 'I' for Inactive)
ROOT
ATOM      1  C   UNL d   1      -0.099   0.246   0.491  0.00  0.00     0.172 C 
ATOM      2  N   UNL d   1       0.605   1.502   0.388  0.00  0.00    -0.070 N 
ATOM      3  C1  UNL d   1       0.924   2.327   1.434  0.00  0.00    -0.004 A 
ATOM      4  C2  UNL d   1       1.591   3.419   0.923  0.00  0.00    -0.047 A 
ATOM      5  C3  UNL d   1       1.675   3.245  -0.479  0.00  0.00    -0.047 A 
ATOM      6  C4  UNL d   1       1.057   2.051  -0.783  0.00  0.00    -0.004 A 
ENDROOT
TORSDOF 0
ENDMDL
