MODEL 1
REMARK minimizedAffinity -4.14227819
REMARK minimizedRMSD -1
REMARK  0 active torsions:
REMARK  status: ('A' for Active; 'I' for Inactive)
ROOT
ATOM      1  C1  BNZ d   1      -1.096   1.310   0.452  0.00  0.00     0.000 A 
ATOM      2  C2  BNZ d   1      -1.504   0.036   0.744  0.00  0.00     0.000 A 
ATOM      3  C3  BNZ d   1      -0.666  -1.028   0.559  0.00  0.00     0.000 A 
ATOM      4  C4  BNZ d   1       0.564  -0.821   0.044  0.00  0.00     0.000 A 
ATOM      5  C5  BNZ d   1       0.986   0.457  -0.264  0.00  0.00     0.000 A 
ATOM      6  C6  BNZ d   1       0.154   1.529  -0.040  0.00  0.00     0.000 A 
ENDROOT
TORSDOF 0
ENDMDL
