MODEL 1
REMARK minimizedAffinity -4.58678436
REMARK minimizedRMSD -1
REMARK  0 active torsions:
REMARK  status: ('A' for Active; 'I' for Inactive)
ROOT
ATOM      1  C1  BNZ d   1      -0.023  -0.023   0.390  0.00  0.00     0.000 A 
ATOM      2  C2  BNZ d   1      -0.848   1.063   0.513  0.00  0.00     0.000 A 
ATOM      3  C3  BNZ d   1      -0.339   2.331   0.513  0.00  0.00     0.000 A 
ATOM      4  C4  BNZ d   1       0.995   2.511   0.431  0.00  0.00     0.000 A 
ATOM      5  C5  BNZ d   1       1.840   1.425   0.315  0.00  0.00     0.000 A 
ATOM      6  C6  BNZ d   1       1.322   0.151   0.276  0.00  0.00     0.000 A 
ENDROOT
TORSDOF 0
ENDMDL
