MODEL 1
REMARK minimizedAffinity -4.6764698
REMARK minimizedRMSD -1
REMARK  0 active torsions:
REMARK  status: ('A' for Active; 'I' for Inactive)
ROOT
ATOM      1  C1  BNZ d   1       0.975   2.165  -0.526  0.00  0.00     0.000 A 
ATOM      2  C2  BNZ d   1       0.765   0.813  -0.579  0.00  0.00     0.000 A 
ATOM      3  C3  BNZ d   1      -0.391   0.265  -0.098  0.00  0.00     0.000 A 
ATOM      4  C4  BNZ d   1      -1.317   1.064   0.471  0.00  0.00     0.000 A 
ATOM      5  C5  BNZ d   1      -1.116   2.429   0.540  0.00  0.00     0.000 A 
ATOM      6  C6  BNZ d   1       0.032   2.981   0.019  0.00  0.00     0.000 A 
ENDROOT
TORSDOF 0
ENDMDL
