MODEL 1
REMARK minimizedAffinity -4.19370413
REMARK minimizedRMSD -1
REMARK  0 active torsions:
REMARK  status: ('A' for Active; 'I' for Inactive)
ROOT
ATOM      1  C1  BNZ d   1       0.434   0.369  -0.300  0.00  0.00     0.000 A 
ATOM      2  C2  BNZ d   1       0.765   1.697  -0.264  0.00  0.00     0.000 A 
ATOM      3  C3  BNZ d   1      -0.054   2.607   0.343  0.00  0.00     0.000 A 
ATOM      4  C4  BNZ d   1      -1.222   2.195   0.877  0.00  0.00     0.000 A 
ATOM      5  C5  BNZ d   1      -1.575   0.861   0.841  0.00  0.00     0.000 A 
ATOM      6  C6  BNZ d   1      -0.729  -0.058   0.263  0.00  0.00     0.000 A 
ENDROOT
TORSDOF 0
ENDMDL
