MODEL 1
REMARK minimizedAffinity -4.13261414
REMARK minimizedRMSD -1
REMARK  0 active torsions:
REMARK  status: ('A' for Active; 'I' for Inactive)
ROOT
ATOM      1  C1  BNZ d   1      -0.845   1.835   0.123  0.00  0.00     0.000 A 
ATOM      2  C2  BNZ d   1      -1.546   0.673   0.311  0.00  0.00     0.000 A 
ATOM      3  C3  BNZ d   1      -0.896  -0.505   0.553  0.00  0.00     0.000 A 
ATOM      4  C4  BNZ d   1       0.453  -0.527   0.566  0.00  0.00     0.000 A 
ATOM      5  C5  BNZ d   1       1.173   0.634   0.369  0.00  0.00     0.000 A 
ATOM      6  C6  BNZ d   1       0.515   1.825   0.165  0.00  0.00     0.000 A 
ENDROOT
TORSDOF 0
ENDMDL
