MODEL 1
REMARK minimizedAffinity -3.70059228
REMARK minimizedRMSD -1
REMARK  0 active torsions:
REMARK  status: ('A' for Active; 'I' for Inactive)
ROOT
ATOM      1  C1  BNZ d   1       0.448   0.646  -0.422  0.00  0.00     0.000 A 
ATOM      2  C2  BNZ d   1       0.873   1.932  -0.225  0.00  0.00     0.000 A 
ATOM      3  C3  BNZ d   1       0.088   2.836   0.435  0.00  0.00     0.000 A 
ATOM      4  C4  BNZ d   1      -1.137   2.463   0.861  0.00  0.00     0.000 A 
ATOM      5  C5  BNZ d   1      -1.583   1.172   0.661  0.00  0.00     0.000 A 
ATOM      6  C6  BNZ d   1      -0.774   0.255   0.031  0.00  0.00     0.000 A 
ENDROOT
TORSDOF 0
ENDMDL
