MODEL 1
REMARK minimizedAffinity -3.6953721
REMARK minimizedRMSD -1
REMARK  0 active torsions:
REMARK  status: ('A' for Active; 'I' for Inactive)
ROOT
ATOM      1  C1  BNZ d   1       1.073   0.469  -0.639  0.00  0.00     0.000 A 
ATOM      2  C2  BNZ d   1      -0.012  -0.174  -0.107  0.00  0.00     0.000 A 
ATOM      3  C3  BNZ d   1      -1.113   0.528   0.297  0.00  0.00     0.000 A 
ATOM      4  C4  BNZ d   1      -1.112   1.874   0.206  0.00  0.00     0.000 A 
ATOM      5  C5  BNZ d   1      -0.022   2.537  -0.320  0.00  0.00     0.000 A 
ATOM      6  C6  BNZ d   1       1.069   1.824  -0.762  0.00  0.00     0.000 A 
ENDROOT
TORSDOF 0
ENDMDL
