MODEL 1
REMARK minimizedAffinity -5.01822329
REMARK minimizedRMSD -1
REMARK  0 active torsions:
REMARK  status: ('A' for Active; 'I' for Inactive)
ROOT
ATOM      1  C1  BNZ d   1       1.427   2.399  -0.613  0.00  0.00     0.000 A 
ATOM      2  C2  BNZ d   1       1.112   1.066  -0.632  0.00  0.00     0.000 A 
ATOM      3  C3  BNZ d   1      -0.101   0.627  -0.180  0.00  0.00     0.000 A 
ATOM      4  C4  BNZ d   1      -0.980   1.514   0.328  0.00  0.00     0.000 A 
ATOM      5  C5  BNZ d   1      -0.674   2.860   0.363  0.00  0.00     0.000 A 
ATOM      6  C6  BNZ d   1       0.532   3.303  -0.129  0.00  0.00     0.000 A 
ENDROOT
TORSDOF 0
ENDMDL
