MODEL 1
REMARK minimizedAffinity -4.41377974
REMARK minimizedRMSD -1
REMARK  0 active torsions:
REMARK  status: ('A' for Active; 'I' for Inactive)
ROOT
ATOM      1  C1  BNZ d   1      -0.638   2.703   0.089  0.00  0.00     0.000 A 
ATOM      2  C2  BNZ d   1      -1.272   1.492   0.171  0.00  0.00     0.000 A 
ATOM      3  C3  BNZ d   1      -0.556   0.330   0.233  0.00  0.00     0.000 A 
ATOM      4  C4  BNZ d   1       0.791   0.376   0.174  0.00  0.00     0.000 A 
ATOM      5  C5  BNZ d   1       1.445   1.589   0.082  0.00  0.00     0.000 A 
ATOM      6  C6  BNZ d   1       0.722   2.759   0.059  0.00  0.00     0.000 A 
ENDROOT
TORSDOF 0
ENDMDL
