MODEL 1
REMARK minimizedAffinity -3.53300905
REMARK minimizedRMSD -1
REMARK  0 active torsions:
REMARK  status: ('A' for Active; 'I' for Inactive)
ROOT
ATOM      1  C1  BNZ d   1      -1.252   2.813  -0.185  0.00  0.00     0.000 A 
ATOM      2  C2  BNZ d   1      -1.705   1.585   0.216  0.00  0.00     0.000 A 
ATOM      3  C3  BNZ d   1      -0.866   0.506   0.251  0.00  0.00     0.000 A 
ATOM      4  C4  BNZ d   1       0.413   0.648  -0.152  0.00  0.00     0.000 A 
ATOM      5  C5  BNZ d   1       0.883   1.878  -0.568  0.00  0.00     0.000 A 
ATOM      6  C6  BNZ d   1       0.045   2.970  -0.565  0.00  0.00     0.000 A 
ENDROOT
TORSDOF 0
ENDMDL
