MODEL 1
REMARK minimizedAffinity -3.71252632
REMARK minimizedRMSD -1
REMARK  0 active torsions:
REMARK  status: ('A' for Active; 'I' for Inactive)
ROOT
ATOM      1  C1  BNZ d   1      -0.964   0.022   0.006  0.00  0.00     0.000 A 
ATOM      2  C2  BNZ d   1      -1.659   1.178   0.244  0.00  0.00     0.000 A 
ATOM      3  C3  BNZ d   1      -1.003   2.346   0.513  0.00  0.00     0.000 A 
ATOM      4  C4  BNZ d   1       0.344   2.349   0.583  0.00  0.00     0.000 A 
ATOM      5  C5  BNZ d   1       1.059   1.190   0.354  0.00  0.00     0.000 A 
ATOM      6  C6  BNZ d   1       0.396   0.024   0.045  0.00  0.00     0.000 A 
ENDROOT
TORSDOF 0
ENDMDL
