MODEL 1
REMARK minimizedAffinity -3.73192573
REMARK minimizedRMSD -1
REMARK  0 active torsions:
REMARK  status: ('A' for Active; 'I' for Inactive)
ROOT
ATOM      1  C1  BNZ d   1       0.020   2.542  -0.054  0.00  0.00     0.000 A 
ATOM      2  C2  BNZ d   1       0.930   1.519  -0.055  0.00  0.00     0.000 A 
ATOM      3  C3  BNZ d   1       0.532   0.228   0.153  0.00  0.00     0.000 A 
ATOM      4  C4  BNZ d   1      -0.768  -0.033   0.402  0.00  0.00     0.000 A 
ATOM      5  C5  BNZ d   1      -1.696   0.989   0.416  0.00  0.00     0.000 A 
ATOM      6  C6  BNZ d   1      -1.298   2.282   0.167  0.00  0.00     0.000 A 
ENDROOT
TORSDOF 0
ENDMDL
