MODEL 1
REMARK minimizedAffinity -2.38404703
REMARK minimizedRMSD -1
REMARK  0 active torsions:
REMARK  status: ('A' for Active; 'I' for Inactive)
ROOT
ATOM      1  C1  BNZ d   1       0.755   1.226  -0.947  0.00  0.00     0.000 A 
ATOM      2  C2  BNZ d   1       1.093   2.503  -0.584  0.00  0.00     0.000 A 
ATOM      3  C3  BNZ d   1       0.595   3.060   0.560  0.00  0.00     0.000 A 
ATOM      4  C4  BNZ d   1      -0.269   2.356   1.319  0.00  0.00     0.000 A 
ATOM      5  C5  BNZ d   1      -0.626   1.071   0.963  0.00  0.00     0.000 A 
ATOM      6  C6  BNZ d   1      -0.093   0.499  -0.169  0.00  0.00     0.000 A 
ENDROOT
TORSDOF 0
ENDMDL
