MODEL 1
REMARK minimizedAffinity 4.67137814
REMARK minimizedRMSD -1
REMARK  0 active torsions:
REMARK  status: ('A' for Active; 'I' for Inactive)
ROOT
ATOM      1  C1  BNZ d   1      -1.561   0.719   1.473  0.00  0.00     0.000 A 
ATOM      2  C2  BNZ d   1      -0.405  -0.010   1.550  0.00  0.00     0.000 A 
ATOM      3  C3  BNZ d   1       0.177  -0.520   0.423  0.00  0.00     0.000 A 
ATOM      4  C4  BNZ d   1      -0.419  -0.334  -0.773  0.00  0.00     0.000 A 
ATOM      5  C5  BNZ d   1      -1.590   0.391  -0.865  0.00  0.00     0.000 A 
ATOM      6  C6  BNZ d   1      -2.152   0.936   0.266  0.00  0.00     0.000 A 
ENDROOT
TORSDOF 0
ENDMDL
