MODEL 1
REMARK minimizedAffinity -4.4366765
REMARK minimizedRMSD -1
REMARK  0 active torsions:
REMARK  status: ('A' for Active; 'I' for Inactive)
ROOT
ATOM      1  C1  BNZ d   1      -0.711   1.232   1.014  0.00  0.00     0.000 A 
ATOM      2  C2  BNZ d   1      -0.595   2.596   1.018  0.00  0.00     0.000 A 
ATOM      3  C3  BNZ d   1       0.244   3.231   0.145  0.00  0.00     0.000 A 
ATOM      4  C4  BNZ d   1       0.994   2.499  -0.703  0.00  0.00     0.000 A 
ATOM      5  C5  BNZ d   1       0.896   1.122  -0.714  0.00  0.00     0.000 A 
ATOM      6  C6  BNZ d   1       0.022   0.489   0.140  0.00  0.00     0.000 A 
ENDROOT
TORSDOF 0
ENDMDL
