MODEL 1
REMARK minimizedAffinity -0.395664513
REMARK minimizedRMSD -1
REMARK  0 active torsions:
REMARK  status: ('A' for Active; 'I' for Inactive)
ROOT
ATOM      1  C1  BNZ d   1       0.635  -2.442  -2.684  0.00  0.00     0.000 A 
ATOM      2  C2  BNZ d   1      -0.260  -3.455  -2.906  0.00  0.00     0.000 A 
ATOM      3  C3  BNZ d   1      -1.250  -3.724  -2.003  0.00  0.00     0.000 A 
ATOM      4  C4  BNZ d   1      -1.322  -3.007  -0.863  0.00  0.00     0.000 A 
ATOM      5  C5  BNZ d   1      -0.422  -1.988  -0.621  0.00  0.00     0.000 A 
ATOM      6  C6  BNZ d   1       0.550  -1.695  -1.550  0.00  0.00     0.000 A 
ENDROOT
TORSDOF 0
ENDMDL
