MODEL 1
REMARK minimizedAffinity -0.357588947
REMARK minimizedRMSD -1
REMARK  0 active torsions:
REMARK  status: ('A' for Active; 'I' for Inactive)
ROOT
ATOM      1  C1  BNZ d   1       0.917   0.419  -0.305  0.00  0.00     0.000 A 
ATOM      2  C2  BNZ d   1      -0.318   0.869   0.081  0.00  0.00     0.000 A 
ATOM      3  C3  BNZ d   1      -1.342  -0.006   0.311  0.00  0.00     0.000 A 
ATOM      4  C4  BNZ d   1      -1.143  -1.326   0.115  0.00  0.00     0.000 A 
ATOM      5  C5  BNZ d   1       0.094  -1.795  -0.283  0.00  0.00     0.000 A 
ATOM      6  C6  BNZ d   1       1.133  -0.914  -0.475  0.00  0.00     0.000 A 
ENDROOT
TORSDOF 0
ENDMDL
