MODEL 1
REMARK minimizedAffinity -3.35200357
REMARK minimizedRMSD -1
REMARK  0 active torsions:
REMARK  status: ('A' for Active; 'I' for Inactive)
ROOT
ATOM      1  C2' OXE d   1      -1.280  -1.291   1.930  0.00  0.00     0.078 C 
ATOM      2  C1' OXE d   1       0.362  -0.630  -0.248  0.00  0.00     0.078 C 
ATOM      3  C1  OXE d   1      -0.502   0.458   0.337  0.00  0.00    -0.078 A 
ATOM      4  C2  OXE d   1      -1.337   0.115   1.372  0.00  0.00    -0.078 A 
ATOM      5  C3  OXE d   1      -2.116   1.093   1.984  0.00  0.00     0.003 A 
ATOM      6  C4  OXE d   1      -2.170   2.388   1.456  0.00  0.00    -0.002 A 
ATOM      7  C5  OXE d   1      -1.358   2.750   0.376  0.00  0.00    -0.002 A 
ATOM      8  C6  OXE d   1      -0.488   1.810  -0.167  0.00  0.00     0.003 A 
ENDROOT
TORSDOF 0
ENDMDL
