MODEL 1
REMARK minimizedAffinity -4.78133821
REMARK minimizedRMSD -1
REMARK  0 active torsions:
REMARK  status: ('A' for Active; 'I' for Inactive)
ROOT
ATOM      1  C2' OXE d   1      -0.037  -1.102  -0.665  0.00  0.00     0.078 C 
ATOM      2  C1' OXE d   1      -0.181  -1.106   2.138  0.00  0.00     0.078 C 
ATOM      3  C1  OXE d   1      -0.589   0.153   1.415  0.00  0.00    -0.078 A 
ATOM      4  C2  OXE d   1      -0.471   0.162   0.046  0.00  0.00    -0.078 A 
ATOM      5  C3  OXE d   1      -0.885   1.279  -0.675  0.00  0.00     0.003 A 
ATOM      6  C4  OXE d   1      -1.275   2.447  -0.009  0.00  0.00    -0.002 A 
ATOM      7  C5  OXE d   1      -1.364   2.473   1.387  0.00  0.00    -0.002 A 
ATOM      8  C6  OXE d   1      -1.066   1.323   2.110  0.00  0.00     0.003 A 
ENDROOT
TORSDOF 0
ENDMDL
