MODEL 1
REMARK minimizedAffinity -3.59545803
REMARK minimizedRMSD -1
REMARK  0 active torsions:
REMARK  status: ('A' for Active; 'I' for Inactive)
ROOT
ATOM      1  C2' OXE d   1       0.396  -0.179  -0.274  0.00  0.00     0.078 C 
ATOM      2  C1' OXE d   1      -1.047  -0.872   2.033  0.00  0.00     0.078 C 
ATOM      3  C1  OXE d   1      -1.210   0.528   1.494  0.00  0.00    -0.078 A 
ATOM      4  C2  OXE d   1      -0.464   0.872   0.393  0.00  0.00    -0.078 A 
ATOM      5  C3  OXE d   1      -0.618   2.133  -0.177  0.00  0.00     0.003 A 
ATOM      6  C4  OXE d   1      -1.409   3.103   0.451  0.00  0.00    -0.002 A 
ATOM      7  C5  OXE d   1      -2.146   2.785   1.597  0.00  0.00    -0.002 A 
ATOM      8  C6  OXE d   1      -2.091   1.492   2.106  0.00  0.00     0.003 A 
ENDROOT
TORSDOF 0
ENDMDL
