MODEL 1
REMARK minimizedAffinity -3.98737192
REMARK minimizedRMSD -1
REMARK  0 active torsions:
REMARK  status: ('A' for Active; 'I' for Inactive)
ROOT
ATOM      1  C2' OXE d   1      -1.048  -1.127  -1.741  0.00  0.00     0.078 C 
ATOM      2  C1' OXE d   1       1.563  -0.775  -0.772  0.00  0.00     0.078 C 
ATOM      3  C1  OXE d   1       0.419  -0.460   0.159  0.00  0.00    -0.078 A 
ATOM      4  C2  OXE d   1      -0.855  -0.591  -0.339  0.00  0.00    -0.078 A 
ATOM      5  C3  OXE d   1      -1.947  -0.367   0.495  0.00  0.00     0.003 A 
ATOM      6  C4  OXE d   1      -1.760   0.139   1.787  0.00  0.00    -0.002 A 
ATOM      7  C5  OXE d   1      -0.471   0.317   2.300  0.00  0.00    -0.002 A 
ATOM      8  C6  OXE d   1       0.627  -0.017   1.515  0.00  0.00     0.003 A 
ENDROOT
TORSDOF 0
ENDMDL
