MODEL 1
REMARK minimizedAffinity -6.35946321
REMARK minimizedRMSD -1
REMARK  0 active torsions:
REMARK  status: ('A' for Active; 'I' for Inactive)
ROOT
ATOM      1  C2' OXE d   1      -0.553  -0.656   1.902  0.00  0.00     0.078 C 
ATOM      2  C1' OXE d   1       0.848  -0.035  -0.450  0.00  0.00     0.078 C 
ATOM      3  C1  OXE d   1      -0.207   0.936   0.018  0.00  0.00    -0.078 A 
ATOM      4  C2  OXE d   1      -0.920   0.602   1.144  0.00  0.00    -0.078 A 
ATOM      5  C3  OXE d   1      -1.867   1.488   1.648  0.00  0.00     0.003 A 
ATOM      6  C4  OXE d   1      -2.207   2.644   0.935  0.00  0.00    -0.002 A 
ATOM      7  C5  OXE d   1      -1.521   2.984  -0.235  0.00  0.00    -0.002 A 
ATOM      8  C6  OXE d   1      -0.491   2.164  -0.683  0.00  0.00     0.003 A 
ENDROOT
TORSDOF 0
ENDMDL
