MODEL 1
REMARK minimizedAffinity -4.19784784
REMARK minimizedRMSD -1
REMARK  0 active torsions:
REMARK  status: ('A' for Active; 'I' for Inactive)
ROOT
ATOM      1  C2' OXE d   1      -0.773  -0.513   1.561  0.00  0.00     0.078 C 
ATOM      2  C1' OXE d   1       0.599   0.163  -0.793  0.00  0.00     0.078 C 
ATOM      3  C1  OXE d   1      -0.010   1.283   0.013  0.00  0.00    -0.078 A 
ATOM      4  C2  OXE d   1      -0.719   0.940   1.139  0.00  0.00    -0.078 A 
ATOM      5  C3  OXE d   1      -1.254   1.938   1.948  0.00  0.00     0.003 A 
ATOM      6  C4  OXE d   1      -1.208   3.278   1.545  0.00  0.00    -0.002 A 
ATOM      7  C5  OXE d   1      -0.525   3.646   0.381  0.00  0.00    -0.002 A 
ATOM      8  C6  OXE d   1       0.115   2.668  -0.372  0.00  0.00     0.003 A 
ENDROOT
TORSDOF 0
ENDMDL
