MODEL 1
REMARK minimizedAffinity -3.35071373
REMARK minimizedRMSD -1
REMARK  0 active torsions:
REMARK  status: ('A' for Active; 'I' for Inactive)
ROOT
ATOM      1  C2' OXE d   1       1.116  -0.997  -0.452  0.00  0.00     0.078 C 
ATOM      2  C1' OXE d   1       0.955   1.697  -1.224  0.00  0.00     0.078 C 
ATOM      3  C1  OXE d   1       0.228   1.280   0.030  0.00  0.00    -0.078 A 
ATOM      4  C2  OXE d   1       0.273  -0.049   0.374  0.00  0.00    -0.078 A 
ATOM      5  C3  OXE d   1      -0.334  -0.478   1.551  0.00  0.00     0.003 A 
ATOM      6  C4  OXE d   1      -1.120   0.403   2.305  0.00  0.00    -0.002 A 
ATOM      7  C5  OXE d   1      -1.212   1.753   1.950  0.00  0.00    -0.002 A 
ATOM      8  C6  OXE d   1      -0.511   2.216   0.841  0.00  0.00     0.003 A 
ENDROOT
TORSDOF 0
ENDMDL
