MODEL 1
REMARK minimizedAffinity -3.92611718
REMARK minimizedRMSD -1
REMARK  0 active torsions:
REMARK  status: ('A' for Active; 'I' for Inactive)
ROOT
ATOM      1  C2' OXE d   1      -1.154   0.734   0.168  0.00  0.00     0.078 C 
ATOM      2  C1' OXE d   1       1.147  -0.493   1.208  0.00  0.00     0.078 C 
ATOM      3  C1  OXE d   1       0.589  -1.028  -0.087  0.00  0.00    -0.078 A 
ATOM      4  C2  OXE d   1      -0.564  -0.452  -0.565  0.00  0.00    -0.078 A 
ATOM      5  C3  OXE d   1      -1.090  -0.870  -1.783  0.00  0.00     0.003 A 
ATOM      6  C4  OXE d   1      -0.544  -1.974  -2.450  0.00  0.00    -0.002 A 
ATOM      7  C5  OXE d   1       0.607  -2.601  -1.960  0.00  0.00    -0.002 A 
ATOM      8  C6  OXE d   1       1.209  -2.114  -0.805  0.00  0.00     0.003 A 
ENDROOT
TORSDOF 0
ENDMDL
