MODEL 1
REMARK minimizedAffinity -4.90159178
REMARK minimizedRMSD -1
REMARK  0 active torsions:
REMARK  status: ('A' for Active; 'I' for Inactive)
ROOT
ATOM      1  C2' OXE d   1       0.969  -0.599  -0.183  0.00  0.00     0.078 C 
ATOM      2  C1' OXE d   1      -0.578  -1.500   1.979  0.00  0.00     0.078 C 
ATOM      3  C1  OXE d   1      -0.870  -0.127   1.429  0.00  0.00    -0.078 A 
ATOM      4  C2  OXE d   1      -0.078   0.325   0.401  0.00  0.00    -0.078 A 
ATOM      5  C3  OXE d   1      -0.340   1.562  -0.180  0.00  0.00     0.003 A 
ATOM      6  C4  OXE d   1      -1.304   2.415   0.373  0.00  0.00    -0.002 A 
ATOM      7  C5  OXE d   1      -2.096   1.990   1.445  0.00  0.00    -0.002 A 
ATOM      8  C6  OXE d   1      -1.921   0.709   1.956  0.00  0.00     0.003 A 
ENDROOT
TORSDOF 0
ENDMDL
