MODEL 1
REMARK minimizedAffinity -5.35202551
REMARK minimizedRMSD -1
REMARK  0 active torsions:
REMARK  status: ('A' for Active; 'I' for Inactive)
ROOT
ATOM      1  C2' OXE d   1       0.716  -0.309  -0.660  0.00  0.00     0.078 C 
ATOM      2  C1' OXE d   1      -0.428  -0.771   1.861  0.00  0.00     0.078 C 
ATOM      3  C1  OXE d   1      -0.677   0.566   1.210  0.00  0.00    -0.078 A 
ATOM      4  C2  OXE d   1      -0.075   0.801  -0.003  0.00  0.00    -0.078 A 
ATOM      5  C3  OXE d   1      -0.317   1.997  -0.672  0.00  0.00     0.003 A 
ATOM      6  C4  OXE d   1      -1.042   3.023  -0.053  0.00  0.00    -0.002 A 
ATOM      7  C5  OXE d   1      -1.631   2.819   1.200  0.00  0.00    -0.002 A 
ATOM      8  C6  OXE d   1      -1.494   1.584   1.824  0.00  0.00     0.003 A 
ENDROOT
TORSDOF 0
ENDMDL
