MODEL 1
REMARK minimizedAffinity -1.71986616
REMARK minimizedRMSD -1
REMARK  0 active torsions:
REMARK  status: ('A' for Active; 'I' for Inactive)
ROOT
ATOM      1  C2' OXE d   1       0.062  -1.304   2.179  0.00  0.00     0.078 C 
ATOM      2  C1' OXE d   1      -1.013   1.218   1.578  0.00  0.00     0.078 C 
ATOM      3  C1  OXE d   1      -0.141   0.559   0.539  0.00  0.00    -0.078 A 
ATOM      4  C2  OXE d   1       0.418  -0.654   0.860  0.00  0.00    -0.078 A 
ATOM      5  C3  OXE d   1       1.186  -1.331  -0.084  0.00  0.00     0.003 A 
ATOM      6  C4  OXE d   1       1.519  -0.718  -1.298  0.00  0.00    -0.002 A 
ATOM      7  C5  OXE d   1       0.992   0.535  -1.629  0.00  0.00    -0.002 A 
ATOM      8  C6  OXE d   1       0.128   1.167  -0.741  0.00  0.00     0.003 A 
ENDROOT
TORSDOF 0
ENDMDL
