MODEL 1
REMARK minimizedAffinity -5.72201395
REMARK minimizedRMSD -1
REMARK  0 active torsions:
REMARK  status: ('A' for Active; 'I' for Inactive)
ROOT
ATOM      1  C2' OXE d   1      -0.839   2.953  -0.886  0.00  0.00     0.078 C 
ATOM      2  C1' OXE d   1      -2.017   2.439   1.610  0.00  0.00     0.078 C 
ATOM      3  C1  OXE d   1      -1.100   1.389   1.035  0.00  0.00    -0.078 A 
ATOM      4  C2  OXE d   1      -0.565   1.628  -0.208  0.00  0.00    -0.078 A 
ATOM      5  C3  OXE d   1       0.330   0.716  -0.760  0.00  0.00     0.003 A 
ATOM      6  C4  OXE d   1       0.570  -0.511  -0.131  0.00  0.00    -0.002 A 
ATOM      7  C5  OXE d   1       0.004  -0.792   1.117  0.00  0.00    -0.002 A 
ATOM      8  C6  OXE d   1      -0.797   0.163   1.732  0.00  0.00     0.003 A 
ENDROOT
TORSDOF 0
ENDMDL
