MODEL 1
REMARK minimizedAffinity -6.10580206
REMARK minimizedRMSD -1
REMARK  0 active torsions:
REMARK  status: ('A' for Active; 'I' for Inactive)
ROOT
ATOM      1  C2' OXE d   1      -0.651  -1.040   1.866  0.00  0.00     0.078 C 
ATOM      2  C1' OXE d   1       0.719  -0.286  -0.465  0.00  0.00     0.078 C 
ATOM      3  C1  OXE d   1      -0.156   0.745   0.201  0.00  0.00    -0.078 A 
ATOM      4  C2  OXE d   1      -0.859   0.354   1.315  0.00  0.00    -0.078 A 
ATOM      5  C3  OXE d   1      -1.639   1.282   2.000  0.00  0.00     0.003 A 
ATOM      6  C4  OXE d   1      -1.834   2.566   1.478  0.00  0.00    -0.002 A 
ATOM      7  C5  OXE d   1      -1.159   2.973   0.322  0.00  0.00    -0.002 A 
ATOM      8  C6  OXE d   1      -0.285   2.090  -0.303  0.00  0.00     0.003 A 
ENDROOT
TORSDOF 0
ENDMDL
