MODEL 1
REMARK minimizedAffinity 0.538896322
REMARK minimizedRMSD -1
REMARK  3 active torsions:
REMARK  status: ('A' for Active; 'I' for Inactive)
REMARK    1  A    between atoms: C3'_2  and  C2'_3 
REMARK    2  A    between atoms: C2'_3  and  C1'_4 
REMARK    3  A    between atoms: C1'_4  and  C1_5 
ROOT
ATOM      1  C1  N4B d   1      -0.301  -0.246   0.812  0.00  0.00    -0.075 A 
ATOM      2  C2  N4B d   1      -1.258   0.209   1.744  0.00  0.00     0.002 A 
ATOM      3  C3  N4B d   1      -2.574   0.333   1.372  0.00  0.00     0.002 A 
ATOM      4  C4  N4B d   1      -2.951   0.028   0.073  0.00  0.00    -0.004 A 
ATOM      5  C5  N4B d   1      -2.025  -0.436  -0.815  0.00  0.00     0.002 A 
ATOM      6  C6  N4B d   1      -0.699  -0.570  -0.453  0.00  0.00     0.002 A 
ENDROOT
BRANCH   1   7
ATOM      7  C1' N4B d   1       1.164  -0.317   1.147  0.00  0.00     0.057 C 
BRANCH   7   8
ATOM      8  C2' N4B d   1       1.956   0.462   0.101  0.00  0.00     0.009 C 
BRANCH   8   9
ATOM      9  C3' N4B d   1       2.822   1.539   0.730  0.00  0.00     0.004 C 
ATOM     10  C4' N4B d   1       3.989   1.922  -0.131  0.00  0.00     0.003 C 
ENDBRANCH   8   9
ENDBRANCH   7   8
ENDBRANCH   1   7
TORSDOF 3
ENDMDL
