MODEL 1
REMARK minimizedAffinity -3.67665744
REMARK minimizedRMSD -1
REMARK  3 active torsions:
REMARK  status: ('A' for Active; 'I' for Inactive)
REMARK    1  A    between atoms: C3'_2  and  C2'_3 
REMARK    2  A    between atoms: C2'_3  and  C1'_4 
REMARK    3  A    between atoms: C1'_4  and  C1_5 
ROOT
ATOM      1  C1  N4B d   1       1.333   0.011   2.312  0.00  0.00    -0.075 A 
ATOM      2  C2  N4B d   1       0.754  -0.465   3.509  0.00  0.00     0.002 A 
ATOM      3  C3  N4B d   1       1.547  -1.028   4.479  0.00  0.00     0.002 A 
ATOM      4  C4  N4B d   1       2.913  -1.142   4.267  0.00  0.00    -0.004 A 
ATOM      5  C5  N4B d   1       3.468  -0.657   3.119  0.00  0.00     0.002 A 
ATOM      6  C6  N4B d   1       2.684  -0.085   2.137  0.00  0.00     0.002 A 
ENDROOT
BRANCH   1   7
ATOM      7  C1' N4B d   1       0.497   0.556   1.187  0.00  0.00     0.057 C 
BRANCH   7   8
ATOM      8  C2' N4B d   1      -0.975   0.498   1.584  0.00  0.00     0.009 C 
BRANCH   8   9
ATOM      9  C3' N4B d   1      -1.872   0.181   0.399  0.00  0.00     0.004 C 
ATOM     10  C4' N4B d   1      -1.427  -1.036  -0.356  0.00  0.00     0.003 C 
ENDBRANCH   8   9
ENDBRANCH   7   8
ENDBRANCH   1   7
TORSDOF 3
ENDMDL
