MODEL 1
REMARK minimizedAffinity -1.48692644
REMARK minimizedRMSD -1
REMARK  3 active torsions:
REMARK  status: ('A' for Active; 'I' for Inactive)
REMARK    1  A    between atoms: C3'_2  and  C2'_3 
REMARK    2  A    between atoms: C2'_3  and  C1'_4 
REMARK    3  A    between atoms: C1'_4  and  C1_5 
ROOT
ATOM      1  C1  N4B d   1      -1.828  -0.780   3.417  0.00  0.00    -0.075 A 
ATOM      2  C2  N4B d   1      -0.417  -0.721   3.430  0.00  0.00     0.002 A 
ATOM      3  C3  N4B d   1       0.293  -1.494   4.316  0.00  0.00     0.002 A 
ATOM      4  C4  N4B d   1      -0.383  -2.315   5.205  0.00  0.00    -0.004 A 
ATOM      5  C5  N4B d   1      -1.745  -2.385   5.169  0.00  0.00     0.002 A 
ATOM      6  C6  N4B d   1      -2.472  -1.617   4.282  0.00  0.00     0.002 A 
ENDROOT
BRANCH   1   7
ATOM      7  C1' N4B d   1      -2.651   0.111   2.526  0.00  0.00     0.057 C 
BRANCH   7   8
ATOM      8  C2' N4B d   1      -1.863   0.415   1.256  0.00  0.00     0.009 C 
BRANCH   8   9
ATOM      9  C3' N4B d   1      -2.688   0.173   0.003  0.00  0.00     0.004 C 
ATOM     10  C4' N4B d   1      -2.240  -1.036  -0.763  0.00  0.00     0.003 C 
ENDBRANCH   8   9
ENDBRANCH   7   8
ENDBRANCH   1   7
TORSDOF 3
ENDMDL
