MODEL 1
REMARK minimizedAffinity 7.09505272
REMARK minimizedRMSD -1
REMARK  3 active torsions:
REMARK  status: ('A' for Active; 'I' for Inactive)
REMARK    1  A    between atoms: C3'_2  and  C2'_3 
REMARK    2  A    between atoms: C2'_3  and  C1'_4 
REMARK    3  A    between atoms: C1'_4  and  C1_5 
ROOT
ATOM      1  C1  N4B d   1      -0.744  -0.428   1.146  0.00  0.00    -0.075 A 
ATOM      2  C2  N4B d   1      -1.775   0.417   1.613  0.00  0.00     0.002 A 
ATOM      3  C3  N4B d   1      -2.878   0.651   0.830  0.00  0.00     0.002 A 
ATOM      4  C4  N4B d   1      -2.963   0.070  -0.426  0.00  0.00    -0.004 A 
ATOM      5  C5  N4B d   1      -1.975  -0.765  -0.860  0.00  0.00     0.002 A 
ATOM      6  C6  N4B d   1      -0.862  -1.013  -0.081  0.00  0.00     0.002 A 
ENDROOT
BRANCH   1   7
ATOM      7  C1' N4B d   1       0.521  -0.646   1.931  0.00  0.00     0.057 C 
BRANCH   7   8
ATOM      8  C2' N4B d   1       1.714  -0.598   0.981  0.00  0.00     0.009 C 
BRANCH   8   9
ATOM      9  C3' N4B d   1       2.593   0.615   1.234  0.00  0.00     0.004 C 
ATOM     10  C4' N4B d   1       3.130   1.217  -0.030  0.00  0.00     0.003 C 
ENDBRANCH   8   9
ENDBRANCH   7   8
ENDBRANCH   1   7
TORSDOF 3
ENDMDL
