MODEL 1
REMARK minimizedAffinity 6.65665102
REMARK minimizedRMSD -1
REMARK  3 active torsions:
REMARK  status: ('A' for Active; 'I' for Inactive)
REMARK    1  A    between atoms: C3'_2  and  C2'_3 
REMARK    2  A    between atoms: C2'_3  and  C1'_4 
REMARK    3  A    between atoms: C1'_4  and  C1_5 
ROOT
ATOM      1  C1  N4B d   1      -0.080  -0.804   3.412  0.00  0.00    -0.075 A 
ATOM      2  C2  N4B d   1       0.875  -0.664   2.381  0.00  0.00     0.002 A 
ATOM      3  C3  N4B d   1       2.205  -0.887   2.642  0.00  0.00     0.002 A 
ATOM      4  C4  N4B d   1       2.604  -1.232   3.925  0.00  0.00    -0.004 A 
ATOM      5  C5  N4B d   1       1.672  -1.390   4.909  0.00  0.00     0.002 A 
ATOM      6  C6  N4B d   1       0.332  -1.173   4.660  0.00  0.00     0.002 A 
ENDROOT
BRANCH   1   7
ATOM      7  C1' N4B d   1      -1.534  -0.487   3.196  0.00  0.00     0.057 C 
BRANCH   7   8
ATOM      8  C2' N4B d   1      -1.655   0.623   2.156  0.00  0.00     0.009 C 
BRANCH   8   9
ATOM      9  C3' N4B d   1      -2.618   0.253   1.040  0.00  0.00     0.004 C 
ATOM     10  C4' N4B d   1      -1.935  -0.404  -0.122  0.00  0.00     0.003 C 
ENDBRANCH   8   9
ENDBRANCH   7   8
ENDBRANCH   1   7
TORSDOF 3
ENDMDL
