MODEL 1
REMARK minimizedAffinity -4.18016005
REMARK minimizedRMSD -1
REMARK  0 active torsions:
REMARK  status: ('A' for Active; 'I' for Inactive)
ROOT
ATOM      1  C2' OXE d   1       1.868   0.925  -0.949  0.00  0.00     0.078 C 
ATOM      2  C1' OXE d   1       0.759  -1.651  -0.846  0.00  0.00     0.078 C 
ATOM      3  C1  OXE d   1       0.095  -0.567  -0.036  0.00  0.00    -0.078 A 
ATOM      4  C2  OXE d   1       0.672   0.680  -0.055  0.00  0.00    -0.078 A 
ATOM      5  C3  OXE d   1       0.068   1.730   0.631  0.00  0.00     0.003 A 
ATOM      6  C4  OXE d   1      -1.032   1.493   1.464  0.00  0.00    -0.002 A 
ATOM      7  C5  OXE d   1      -1.612   0.221   1.529  0.00  0.00    -0.002 A 
ATOM      8  C6  OXE d   1      -1.087  -0.808   0.754  0.00  0.00     0.003 A 
ENDROOT
TORSDOF 0
ENDMDL
