MODEL 1
REMARK minimizedAffinity -1.19442999
REMARK minimizedRMSD -1
REMARK  0 active torsions:
REMARK  status: ('A' for Active; 'I' for Inactive)
ROOT
ATOM      1  C2' OXE d   1       1.169  -0.765  -0.573  0.00  0.00     0.078 C 
ATOM      2  C1' OXE d   1      -0.109   1.734  -0.569  0.00  0.00     0.078 C 
ATOM      3  C1  OXE d   1      -0.320   0.835   0.623  0.00  0.00    -0.078 A 
ATOM      4  C2  OXE d   1       0.272  -0.405   0.592  0.00  0.00    -0.078 A 
ATOM      5  C3  OXE d   1       0.155  -1.253   1.690  0.00  0.00     0.003 A 
ATOM      6  C4  OXE d   1      -0.685  -0.916   2.759  0.00  0.00    -0.002 A 
ATOM      7  C5  OXE d   1      -1.329   0.325   2.792  0.00  0.00    -0.002 A 
ATOM      8  C6  OXE d   1      -1.123   1.228   1.754  0.00  0.00     0.003 A 
ENDROOT
TORSDOF 0
ENDMDL
