MODEL 1
REMARK minimizedAffinity -1.63274777
REMARK minimizedRMSD -1
REMARK  0 active torsions:
REMARK  status: ('A' for Active; 'I' for Inactive)
ROOT
ATOM      1  C2' OXE d   1      -0.149  -1.069   2.273  0.00  0.00     0.078 C 
ATOM      2  C1' OXE d   1      -1.144   1.556   2.258  0.00  0.00     0.078 C 
ATOM      3  C1  OXE d   1      -0.393   1.082   1.040  0.00  0.00    -0.078 A 
ATOM      4  C2  OXE d   1       0.131  -0.188   1.075  0.00  0.00    -0.078 A 
ATOM      5  C3  OXE d   1       0.785  -0.695  -0.044  0.00  0.00     0.003 A 
ATOM      6  C4  OXE d   1       1.049   0.129  -1.145  0.00  0.00    -0.002 A 
ATOM      7  C5  OXE d   1       0.559   1.439  -1.185  0.00  0.00    -0.002 A 
ATOM      8  C6  OXE d   1      -0.199   1.916  -0.121  0.00  0.00     0.003 A 
ENDROOT
TORSDOF 0
ENDMDL
