MODEL 1
REMARK minimizedAffinity -0.314409524
REMARK minimizedRMSD -1
REMARK  0 active torsions:
REMARK  status: ('A' for Active; 'I' for Inactive)
ROOT
ATOM      1  C2' OXE d   1       0.590  -1.100  -1.057  0.00  0.00     0.078 C 
ATOM      2  C1' OXE d   1       0.495   1.688  -1.370  0.00  0.00     0.078 C 
ATOM      3  C1  OXE d   1       0.012   1.110  -0.063  0.00  0.00    -0.078 A 
ATOM      4  C2  OXE d   1       0.018  -0.258   0.063  0.00  0.00    -0.078 A 
ATOM      5  C3  OXE d   1      -0.366  -0.841   1.268  0.00  0.00     0.003 A 
ATOM      6  C4  OXE d   1      -0.903  -0.056   2.296  0.00  0.00    -0.002 A 
ATOM      7  C5  OXE d   1      -0.955   1.336   2.172  0.00  0.00    -0.002 A 
ATOM      8  C6  OXE d   1      -0.464   1.937   1.018  0.00  0.00     0.003 A 
ENDROOT
TORSDOF 0
ENDMDL
