MODEL 1
REMARK minimizedAffinity -3.15509152
REMARK minimizedRMSD -1
REMARK  0 active torsions:
REMARK  status: ('A' for Active; 'I' for Inactive)
ROOT
ATOM      1  C2' OXE d   1       0.546   1.861  -1.343  0.00  0.00     0.078 C 
ATOM      2  C1' OXE d   1       0.580  -0.919  -0.956  0.00  0.00     0.078 C 
ATOM      3  C1  OXE d   1      -0.064  -0.068   0.110  0.00  0.00    -0.078 A 
ATOM      4  C2  OXE d   1      -0.034   1.294  -0.065  0.00  0.00    -0.078 A 
ATOM      5  C3  OXE d   1      -0.662   2.122   0.861  0.00  0.00     0.003 A 
ATOM      6  C4  OXE d   1      -1.188   1.591   2.045  0.00  0.00    -0.002 A 
ATOM      7  C5  OXE d   1      -1.193   0.209   2.262  0.00  0.00    -0.002 A 
ATOM      8  C6  OXE d   1      -0.674  -0.636   1.287  0.00  0.00     0.003 A 
ENDROOT
TORSDOF 0
ENDMDL
