MODEL 1
REMARK minimizedAffinity -3.18624377
REMARK minimizedRMSD -1
REMARK  0 active torsions:
REMARK  status: ('A' for Active; 'I' for Inactive)
ROOT
ATOM      1  C2' OXE d   1       1.002  -0.749  -0.817  0.00  0.00     0.078 C 
ATOM      2  C1' OXE d   1       0.318   1.930  -1.299  0.00  0.00     0.078 C 
ATOM      3  C1  OXE d   1      -0.164   1.301  -0.016  0.00  0.00    -0.078 A 
ATOM      4  C2  OXE d   1       0.135  -0.024   0.190  0.00  0.00    -0.078 A 
ATOM      5  C3  OXE d   1      -0.239  -0.638   1.382  0.00  0.00     0.003 A 
ATOM      6  C4  OXE d   1      -1.049   0.037   2.303  0.00  0.00    -0.002 A 
ATOM      7  C5  OXE d   1      -1.399   1.375   2.094  0.00  0.00    -0.002 A 
ATOM      8  C6  OXE d   1      -0.930   2.033   0.962  0.00  0.00     0.003 A 
ENDROOT
TORSDOF 0
ENDMDL
