MODEL 1
REMARK minimizedAffinity -4.29273176
REMARK minimizedRMSD -1
REMARK  0 active torsions:
REMARK  status: ('A' for Active; 'I' for Inactive)
ROOT
ATOM      1  C2' OXE d   1       1.613   0.012  -0.735  0.00  0.00     0.078 C 
ATOM      2  C1' OXE d   1      -0.092  -2.206  -0.974  0.00  0.00     0.078 C 
ATOM      3  C1  OXE d   1      -0.491  -1.111  -0.016  0.00  0.00    -0.078 A 
ATOM      4  C2  OXE d   1       0.372  -0.052   0.130  0.00  0.00    -0.078 A 
ATOM      5  C3  OXE d   1       0.026   1.011   0.959  0.00  0.00     0.003 A 
ATOM      6  C4  OXE d   1      -1.119   0.939   1.762  0.00  0.00    -0.002 A 
ATOM      7  C5  OXE d   1      -1.992  -0.149   1.659  0.00  0.00    -0.002 A 
ATOM      8  C6  OXE d   1      -1.715  -1.160   0.746  0.00  0.00     0.003 A 
ENDROOT
TORSDOF 0
ENDMDL
