MODEL 1
REMARK minimizedAffinity -2.97260356
REMARK minimizedRMSD -1
REMARK  0 active torsions:
REMARK  status: ('A' for Active; 'I' for Inactive)
ROOT
ATOM      1  C2' OXE d   1       1.388   0.753  -1.762  0.00  0.00     0.078 C 
ATOM      2  C1' OXE d   1       0.492  -1.871  -1.330  0.00  0.00     0.078 C 
ATOM      3  C1  OXE d   1       0.002  -0.797  -0.391  0.00  0.00    -0.078 A 
ATOM      4  C2  OXE d   1       0.483   0.476  -0.582  0.00  0.00    -0.078 A 
ATOM      5  C3  OXE d   1       0.022   1.514   0.223  0.00  0.00     0.003 A 
ATOM      6  C4  OXE d   1      -0.807   1.247   1.319  0.00  0.00    -0.002 A 
ATOM      7  C5  OXE d   1      -1.277  -0.049   1.555  0.00  0.00    -0.002 A 
ATOM      8  C6  OXE d   1      -0.916  -1.073   0.686  0.00  0.00     0.003 A 
ENDROOT
TORSDOF 0
ENDMDL
