MODEL 1
REMARK minimizedAffinity 1.23652959
REMARK minimizedRMSD -1
REMARK  0 active torsions:
REMARK  status: ('A' for Active; 'I' for Inactive)
ROOT
ATOM      1  C2' OXE d   1       1.822  -4.484  -0.628  0.00  0.00     0.078 C 
ATOM      2  C1' OXE d   1       0.424  -4.521  -3.062  0.00  0.00     0.078 C 
ATOM      3  C1  OXE d   1       0.647  -3.185  -2.400  0.00  0.00    -0.078 A 
ATOM      4  C2  OXE d   1       1.291  -3.181  -1.186  0.00  0.00    -0.078 A 
ATOM      5  C3  OXE d   1       1.572  -1.970  -0.558  0.00  0.00     0.003 A 
ATOM      6  C4  OXE d   1       1.069  -0.770  -1.076  0.00  0.00    -0.002 A 
ATOM      7  C5  OXE d   1       0.376  -0.757  -2.291  0.00  0.00    -0.002 A 
ATOM      8  C6  OXE d   1       0.194  -1.947  -2.985  0.00  0.00     0.003 A 
ENDROOT
TORSDOF 0
ENDMDL
