MODEL 1
REMARK minimizedAffinity -2.94821405
REMARK minimizedRMSD -1
REMARK  0 active torsions:
REMARK  status: ('A' for Active; 'I' for Inactive)
ROOT
ATOM      1  C2' OXE d   1      -0.771  -3.254  -2.473  0.00  0.00     0.078 C 
ATOM      2  C1' OXE d   1       1.861  -3.118  -1.508  0.00  0.00     0.078 C 
ATOM      3  C1  OXE d   1       0.940  -1.963  -1.204  0.00  0.00    -0.078 A 
ATOM      4  C2  OXE d   1      -0.332  -2.017  -1.719  0.00  0.00    -0.078 A 
ATOM      5  C3  OXE d   1      -1.240  -1.004  -1.423  0.00  0.00     0.003 A 
ATOM      6  C4  OXE d   1      -0.823   0.142  -0.734  0.00  0.00    -0.002 A 
ATOM      7  C5  OXE d   1       0.481   0.235  -0.234  0.00  0.00    -0.002 A 
ATOM      8  C6  OXE d   1       1.360  -0.826  -0.423  0.00  0.00     0.003 A 
ENDROOT
TORSDOF 0
ENDMDL
