MODEL 1
REMARK minimizedAffinity -2.46553349
REMARK minimizedRMSD -1
REMARK  0 active torsions:
REMARK  status: ('A' for Active; 'I' for Inactive)
ROOT
ATOM      1  C2' OXE d   1      -0.984  -0.655   0.975  0.00  0.00     0.078 C 
ATOM      2  C1' OXE d   1       0.578   0.484  -1.060  0.00  0.00     0.078 C 
ATOM      3  C1  OXE d   1       0.206  -0.971  -1.190  0.00  0.00    -0.078 A 
ATOM      4  C2  OXE d   1      -0.519  -1.533  -0.167  0.00  0.00    -0.078 A 
ATOM      5  C3  OXE d   1      -0.936  -2.857  -0.263  0.00  0.00     0.003 A 
ATOM      6  C4  OXE d   1      -0.493  -3.665  -1.318  0.00  0.00    -0.002 A 
ATOM      7  C5  OXE d   1       0.279  -3.123  -2.350  0.00  0.00    -0.002 A 
ATOM      8  C6  OXE d   1       0.601  -1.771  -2.324  0.00  0.00     0.003 A 
ENDROOT
TORSDOF 0
ENDMDL
