MODEL 1
REMARK minimizedAffinity -4.03709507
REMARK minimizedRMSD -1
REMARK  0 active torsions:
REMARK  status: ('A' for Active; 'I' for Inactive)
ROOT
ATOM      1  C2' OXE d   1       0.036   3.138  -0.823  0.00  0.00     0.078 C 
ATOM      2  C1' OXE d   1      -1.475   2.077   1.291  0.00  0.00     0.078 C 
ATOM      3  C1  OXE d   1      -0.435   1.189   0.655  0.00  0.00    -0.078 A 
ATOM      4  C2  OXE d   1       0.267   1.700  -0.409  0.00  0.00    -0.078 A 
ATOM      5  C3  OXE d   1       1.276   0.943  -0.997  0.00  0.00     0.003 A 
ATOM      6  C4  OXE d   1       1.476  -0.389  -0.615  0.00  0.00    -0.002 A 
ATOM      7  C5  OXE d   1       0.744  -0.943   0.441  0.00  0.00    -0.002 A 
ATOM      8  C6  OXE d   1      -0.184  -0.155   1.113  0.00  0.00     0.003 A 
ENDROOT
TORSDOF 0
ENDMDL
