MODEL 1
REMARK minimizedAffinity -4.94144535
REMARK minimizedRMSD -1
REMARK  0 active torsions:
REMARK  status: ('A' for Active; 'I' for Inactive)
ROOT
ATOM      1  C2' OXE d   1       0.521  -0.910  -0.735  0.00  0.00     0.078 C 
ATOM      2  C1' OXE d   1      -0.463  -1.516   1.823  0.00  0.00     0.078 C 
ATOM      3  C1  OXE d   1      -0.554  -0.085   1.355  0.00  0.00    -0.078 A 
ATOM      4  C2  OXE d   1      -0.028   0.211   0.121  0.00  0.00    -0.078 A 
ATOM      5  C3  OXE d   1      -0.135   1.504  -0.382  0.00  0.00     0.003 A 
ATOM      6  C4  OXE d   1      -0.635   2.537   0.421  0.00  0.00    -0.002 A 
ATOM      7  C5  OXE d   1      -1.140   2.265   1.696  0.00  0.00    -0.002 A 
ATOM      8  C6  OXE d   1      -1.146   0.954   2.161  0.00  0.00     0.003 A 
ENDROOT
TORSDOF 0
ENDMDL
