MODEL 1
REMARK minimizedAffinity -2.88839698
REMARK minimizedRMSD -1
REMARK  0 active torsions:
REMARK  status: ('A' for Active; 'I' for Inactive)
ROOT
ATOM      1  C2' OXE d   1       1.877   0.389  -0.843  0.00  0.00     0.078 C 
ATOM      2  C1' OXE d   1       0.205  -1.738  -1.593  0.00  0.00     0.078 C 
ATOM      3  C1  OXE d   1      -0.242  -0.861  -0.450  0.00  0.00    -0.078 A 
ATOM      4  C2  OXE d   1       0.605   0.148  -0.060  0.00  0.00    -0.078 A 
ATOM      5  C3  OXE d   1       0.216   1.021   0.953  0.00  0.00     0.003 A 
ATOM      6  C4  OXE d   1      -0.958   0.785   1.679  0.00  0.00    -0.002 A 
ATOM      7  C5  OXE d   1      -1.815  -0.261   1.324  0.00  0.00    -0.002 A 
ATOM      8  C6  OXE d   1      -1.493  -1.066   0.236  0.00  0.00     0.003 A 
ENDROOT
TORSDOF 0
ENDMDL
