MODEL 1
REMARK minimizedAffinity -2.65638351
REMARK minimizedRMSD -1
REMARK  0 active torsions:
REMARK  status: ('A' for Active; 'I' for Inactive)
ROOT
ATOM      1  C2' OXE d   1      -1.285  -0.005   1.789  0.00  0.00     0.078 C 
ATOM      2  C1' OXE d   1       1.501   0.222   2.044  0.00  0.00     0.078 C 
ATOM      3  C1  OXE d   1       0.962  -0.504   0.837  0.00  0.00    -0.078 A 
ATOM      4  C2  OXE d   1      -0.401  -0.651   0.744  0.00  0.00    -0.078 A 
ATOM      5  C3  OXE d   1      -0.954  -1.264  -0.376  0.00  0.00     0.003 A 
ATOM      6  C4  OXE d   1      -0.129  -1.868  -1.333  0.00  0.00    -0.002 A 
ATOM      7  C5  OXE d   1       1.263  -1.765  -1.237  0.00  0.00    -0.002 A 
ATOM      8  C6  OXE d   1       1.822  -1.051  -0.183  0.00  0.00     0.003 A 
ENDROOT
TORSDOF 0
ENDMDL
