MODEL 1
REMARK minimizedAffinity -3.97294474
REMARK minimizedRMSD -1
REMARK  0 active torsions:
REMARK  status: ('A' for Active; 'I' for Inactive)
ROOT
ATOM      1  C2' OXE d   1       2.556  -3.400  -0.440  0.00  0.00     0.078 C 
ATOM      2  C1' OXE d   1       0.664  -3.607  -2.502  0.00  0.00     0.078 C 
ATOM      3  C1  OXE d   1       0.578  -2.412  -1.586  0.00  0.00    -0.078 A 
ATOM      4  C2  OXE d   1       1.479  -2.343  -0.551  0.00  0.00    -0.078 A 
ATOM      5  C3  OXE d   1       1.479  -1.234   0.291  0.00  0.00     0.003 A 
ATOM      6  C4  OXE d   1       0.473  -0.266   0.187  0.00  0.00    -0.002 A 
ATOM      7  C5  OXE d   1      -0.479  -0.338  -0.835  0.00  0.00    -0.002 A 
ATOM      8  C6  OXE d   1      -0.415  -1.380  -1.754  0.00  0.00     0.003 A 
ENDROOT
TORSDOF 0
ENDMDL
