MODEL 1
REMARK minimizedAffinity -2.39804292
REMARK minimizedRMSD -1
REMARK  0 active torsions:
REMARK  status: ('A' for Active; 'I' for Inactive)
ROOT
ATOM      1  C2' OXE d   1      -1.385  -1.110   0.254  0.00  0.00     0.078 C 
ATOM      2  C1' OXE d   1       0.569  -2.157  -1.468  0.00  0.00     0.078 C 
ATOM      3  C1  OXE d   1       0.593  -0.674  -1.197  0.00  0.00    -0.078 A 
ATOM      4  C2  OXE d   1      -0.396  -0.163  -0.391  0.00  0.00    -0.078 A 
ATOM      5  C3  OXE d   1      -0.388   1.191  -0.065  0.00  0.00     0.003 A 
ATOM      6  C4  OXE d   1       0.524   2.061  -0.673  0.00  0.00    -0.002 A 
ATOM      7  C5  OXE d   1       1.514   1.568  -1.529  0.00  0.00    -0.002 A 
ATOM      8  C6  OXE d   1       1.589   0.200  -1.767  0.00  0.00     0.003 A 
ENDROOT
TORSDOF 0
ENDMDL
