MODEL 1
REMARK minimizedAffinity -3.4526751
REMARK minimizedRMSD -1
REMARK  0 active torsions:
REMARK  status: ('A' for Active; 'I' for Inactive)
ROOT
ATOM      1  C   UNL d   1       0.520  -2.484   0.749  0.00  0.00     0.020 A 
ATOM      2  C1  UNL d   1       1.908  -2.393   0.649  0.00  0.00     0.020 A 
ATOM      3  C2  UNL d   1       2.499  -1.205   0.213  0.00  0.00     0.034 A 
ATOM      4  C3  UNL d   1       1.703  -0.105  -0.126  0.00  0.00     0.017 A 
ATOM      5  C4  UNL d   1       0.311  -0.198  -0.025  0.00  0.00     0.017 A 
ATOM      6  C5  UNL d   1      -0.277  -1.389   0.413  0.00  0.00     0.034 A 
ATOM      7 Cl   UNL d   1      -0.737   1.117  -0.425  0.00  0.00    -0.070 Cl
ATOM      8 Cl1  UNL d   1       2.503   1.331  -0.658  0.00  0.00    -0.070 Cl
ENDROOT
TORSDOF 0
ENDMDL
