MODEL 1
REMARK minimizedAffinity -3.27221513
REMARK minimizedRMSD -1
REMARK  0 active torsions:
REMARK  status: ('A' for Active; 'I' for Inactive)
ROOT
ATOM      1  C   UNL d   1       0.310   1.420  -1.062  0.00  0.00     0.020 A 
ATOM      2  C1  UNL d   1      -0.920   1.777  -0.509  0.00  0.00     0.020 A 
ATOM      3  C2  UNL d   1      -1.443   1.046   0.559  0.00  0.00     0.034 A 
ATOM      4  C3  UNL d   1      -0.737  -0.046   1.078  0.00  0.00     0.017 A 
ATOM      5  C4  UNL d   1       0.497  -0.403   0.523  0.00  0.00     0.017 A 
ATOM      6  C5  UNL d   1       1.016   0.333  -0.547  0.00  0.00     0.034 A 
ATOM      7 Cl   UNL d   1       1.426  -1.737   1.109  0.00  0.00    -0.070 Cl
ATOM      8 Cl1  UNL d   1      -1.444  -0.905   2.400  0.00  0.00    -0.070 Cl
ENDROOT
TORSDOF 0
ENDMDL
