MODEL 1
REMARK minimizedAffinity -1.9832269
REMARK minimizedRMSD -1
REMARK  0 active torsions:
REMARK  status: ('A' for Active; 'I' for Inactive)
ROOT
ATOM      1  C   UNL d   1      -1.344   0.583  -0.670  0.00  0.00     0.020 A 
ATOM      2  C1  UNL d   1      -1.625  -0.607   0.000  0.00  0.00     0.020 A 
ATOM      3  C2  UNL d   1      -0.583  -1.377   0.522  0.00  0.00     0.034 A 
ATOM      4  C3  UNL d   1       0.744  -0.959   0.374  0.00  0.00     0.017 A 
ATOM      5  C4  UNL d   1       1.025   0.236  -0.299  0.00  0.00     0.017 A 
ATOM      6  C5  UNL d   1      -0.022   1.004  -0.819  0.00  0.00     0.034 A 
ATOM      7 Cl   UNL d   1       2.638   0.818  -0.521  0.00  0.00    -0.070 Cl
ATOM      8 Cl1  UNL d   1       1.983  -1.960   1.044  0.00  0.00    -0.070 Cl
ENDROOT
TORSDOF 0
ENDMDL
