MODEL 1
REMARK minimizedAffinity -2.86657882
REMARK minimizedRMSD -1
REMARK  0 active torsions:
REMARK  status: ('A' for Active; 'I' for Inactive)
ROOT
ATOM      1  C   UNL d   1      -0.272  -1.023  -0.662  0.00  0.00     0.020 A 
ATOM      2  C1  UNL d   1       0.566   0.091  -0.700  0.00  0.00     0.020 A 
ATOM      3  C2  UNL d   1       1.724   0.120   0.080  0.00  0.00     0.034 A 
ATOM      4  C3  UNL d   1       2.048  -0.967   0.901  0.00  0.00     0.017 A 
ATOM      5  C4  UNL d   1       1.206  -2.084   0.938  0.00  0.00     0.017 A 
ATOM      6  C5  UNL d   1       0.047  -2.108   0.155  0.00  0.00     0.034 A 
ATOM      7 Cl   UNL d   1       1.539  -3.463   1.926  0.00  0.00    -0.070 Cl
ATOM      8 Cl1  UNL d   1       3.496  -0.863   1.837  0.00  0.00    -0.070 Cl
ENDROOT
TORSDOF 0
ENDMDL
