MODEL 1
REMARK minimizedAffinity -2.11810803
REMARK minimizedRMSD -1
REMARK  0 active torsions:
REMARK  status: ('A' for Active; 'I' for Inactive)
ROOT
ATOM      1  C   UNL d   1       1.474  -2.202   1.223  0.00  0.00     0.020 A 
ATOM      2  C1  UNL d   1       0.153  -1.937   1.580  0.00  0.00     0.020 A 
ATOM      3  C2  UNL d   1      -0.575  -0.965   0.891  0.00  0.00     0.034 A 
ATOM      4  C3  UNL d   1       0.018  -0.254  -0.159  0.00  0.00     0.017 A 
ATOM      5  C4  UNL d   1       1.344  -0.521  -0.517  0.00  0.00     0.017 A 
ATOM      6  C5  UNL d   1       2.068  -1.495   0.177  0.00  0.00     0.034 A 
ATOM      7 Cl   UNL d   1       2.144   0.314  -1.802  0.00  0.00    -0.070 Cl
ATOM      8 Cl1  UNL d   1      -0.942   0.933  -0.968  0.00  0.00    -0.070 Cl
ENDROOT
TORSDOF 0
ENDMDL
