MODEL 1
REMARK minimizedAffinity -3.4844451
REMARK minimizedRMSD -1
REMARK  0 active torsions:
REMARK  status: ('A' for Active; 'I' for Inactive)
ROOT
ATOM      1  C   UNL d   1       1.287  -1.159  -0.965  0.00  0.00     0.020 A 
ATOM      2  C1  UNL d   1       1.198  -1.437   0.399  0.00  0.00     0.020 A 
ATOM      3  C2  UNL d   1       0.195  -0.844   1.168  0.00  0.00     0.034 A 
ATOM      4  C3  UNL d   1      -0.724   0.030   0.574  0.00  0.00     0.017 A 
ATOM      5  C4  UNL d   1      -0.633   0.308  -0.794  0.00  0.00     0.017 A 
ATOM      6  C5  UNL d   1       0.374  -0.289  -1.560  0.00  0.00     0.034 A 
ATOM      7 Cl   UNL d   1      -1.730   1.375  -1.598  0.00  0.00    -0.070 Cl
ATOM      8 Cl1  UNL d   1      -1.939   0.727   1.586  0.00  0.00    -0.070 Cl
ENDROOT
TORSDOF 0
ENDMDL
