MODEL 1
REMARK minimizedAffinity -3.38133121
REMARK minimizedRMSD -1
REMARK  0 active torsions:
REMARK  status: ('A' for Active; 'I' for Inactive)
ROOT
ATOM      1  C   UNL d   1       2.005  -2.216   0.739  0.00  0.00     0.020 A 
ATOM      2  C1  UNL d   1       2.188  -1.542  -0.468  0.00  0.00     0.020 A 
ATOM      3  C2  UNL d   1       1.259  -0.585  -0.882  0.00  0.00     0.034 A 
ATOM      4  C3  UNL d   1       0.142  -0.299  -0.088  0.00  0.00     0.017 A 
ATOM      5  C4  UNL d   1      -0.041  -0.975   1.123  0.00  0.00     0.017 A 
ATOM      6  C5  UNL d   1       0.892  -1.933   1.532  0.00  0.00     0.034 A 
ATOM      7 Cl   UNL d   1      -1.394  -0.677   2.156  0.00  0.00    -0.070 Cl
ATOM      8 Cl1  UNL d   1      -0.966   0.897  -0.661  0.00  0.00    -0.070 Cl
ENDROOT
TORSDOF 0
ENDMDL
