MODEL 1
REMARK minimizedAffinity -2.68816733
REMARK minimizedRMSD -1
REMARK  0 active torsions:
REMARK  status: ('A' for Active; 'I' for Inactive)
ROOT
ATOM      1  C   UNL d   1      -4.000   1.148  -2.689  0.00  0.00     0.020 A 
ATOM      2  C1  UNL d   1      -3.782   1.219  -4.065  0.00  0.00     0.020 A 
ATOM      3  C2  UNL d   1      -2.579   1.729  -4.556  0.00  0.00     0.034 A 
ATOM      4  C3  UNL d   1      -1.588   2.171  -3.671  0.00  0.00     0.017 A 
ATOM      5  C4  UNL d   1      -1.807   2.099  -2.291  0.00  0.00     0.017 A 
ATOM      6  C5  UNL d   1      -3.014   1.587  -1.804  0.00  0.00     0.034 A 
ATOM      7 Cl   UNL d   1      -0.633   2.624  -1.137  0.00  0.00    -0.070 Cl
ATOM      8 Cl1  UNL d   1      -0.124   2.790  -4.348  0.00  0.00    -0.070 Cl
ENDROOT
TORSDOF 0
ENDMDL
