MODEL 1
REMARK minimizedAffinity -2.95768833
REMARK minimizedRMSD -1
REMARK  0 active torsions:
REMARK  status: ('A' for Active; 'I' for Inactive)
ROOT
ATOM      1  C   UNL d   1       0.175  -2.438   0.863  0.00  0.00     0.020 A 
ATOM      2  C1  UNL d   1       1.569  -2.391   0.848  0.00  0.00     0.020 A 
ATOM      3  C2  UNL d   1       2.224  -1.315   0.245  0.00  0.00     0.034 A 
ATOM      4  C3  UNL d   1       1.487  -0.282  -0.345  0.00  0.00     0.017 A 
ATOM      5  C4  UNL d   1       0.088  -0.331  -0.329  0.00  0.00     0.017 A 
ATOM      6  C5  UNL d   1      -0.563  -1.410   0.276  0.00  0.00     0.034 A 
ATOM      7 Cl   UNL d   1      -0.890   0.906  -1.037  0.00  0.00    -0.070 Cl
ATOM      8 Cl1  UNL d   1       2.363   1.017  -1.072  0.00  0.00    -0.070 Cl
ENDROOT
TORSDOF 0
ENDMDL
