MODEL 1
REMARK minimizedAffinity -4.29513693
REMARK minimizedRMSD -1
REMARK  0 active torsions:
REMARK  status: ('A' for Active; 'I' for Inactive)
ROOT
ATOM      1  C   UNL d   1      -1.085   1.243   0.720  0.00  0.00     0.020 A 
ATOM      2  C1  UNL d   1      -1.482   0.073   1.367  0.00  0.00     0.020 A 
ATOM      3  C2  UNL d   1      -0.671  -1.062   1.316  0.00  0.00     0.034 A 
ATOM      4  C3  UNL d   1       0.541  -1.031   0.616  0.00  0.00     0.017 A 
ATOM      5  C4  UNL d   1       0.938   0.144  -0.032  0.00  0.00     0.017 A 
ATOM      6  C5  UNL d   1       0.122   1.279   0.022  0.00  0.00     0.034 A 
ATOM      7 Cl   UNL d   1       2.420   0.260  -0.915  0.00  0.00    -0.070 Cl
ATOM      8 Cl1  UNL d   1       1.494  -2.472   0.595  0.00  0.00    -0.070 Cl
ENDROOT
TORSDOF 0
ENDMDL
