MODEL 1
REMARK minimizedAffinity -3.69393206
REMARK minimizedRMSD -1
REMARK  0 active torsions:
REMARK  status: ('A' for Active; 'I' for Inactive)
ROOT
ATOM      1  C   UNL d   1      -0.535   0.442  -0.677  0.00  0.00     0.020 A 
ATOM      2  C1  UNL d   1       0.858   0.470  -0.736  0.00  0.00     0.020 A 
ATOM      3  C2  UNL d   1       1.607  -0.414   0.044  0.00  0.00     0.034 A 
ATOM      4  C3  UNL d   1       0.964  -1.328   0.886  0.00  0.00     0.017 A 
ATOM      5  C4  UNL d   1      -0.434  -1.355   0.944  0.00  0.00     0.017 A 
ATOM      6  C5  UNL d   1      -1.179  -0.468   0.161  0.00  0.00     0.034 A 
ATOM      7 Cl   UNL d   1      -1.298  -2.455   1.959  0.00  0.00    -0.070 Cl
ATOM      8 Cl1  UNL d   1       1.953  -2.392   1.822  0.00  0.00    -0.070 Cl
ENDROOT
TORSDOF 0
ENDMDL
