MODEL 1
REMARK minimizedAffinity -3.94550085
REMARK minimizedRMSD -1
REMARK  0 active torsions:
REMARK  status: ('A' for Active; 'I' for Inactive)
ROOT
ATOM      1  C   UNL d   1       2.136  -1.605  -0.413  0.00  0.00     0.020 A 
ATOM      2  C1  UNL d   1       1.815  -2.548   0.563  0.00  0.00     0.020 A 
ATOM      3  C2  UNL d   1       0.651  -2.400   1.319  0.00  0.00     0.034 A 
ATOM      4  C3  UNL d   1      -0.197  -1.308   1.101  0.00  0.00     0.017 A 
ATOM      5  C4  UNL d   1       0.126  -0.362   0.121  0.00  0.00     0.017 A 
ATOM      6  C5  UNL d   1       1.294  -0.515  -0.633  0.00  0.00     0.034 A 
ATOM      7 Cl   UNL d   1      -0.870   1.012  -0.205  0.00  0.00    -0.070 Cl
ATOM      8 Cl1  UNL d   1      -1.620  -1.189   2.073  0.00  0.00    -0.070 Cl
ENDROOT
TORSDOF 0
ENDMDL
