MODEL 1
REMARK minimizedAffinity 0.600263596
REMARK minimizedRMSD -1
REMARK  0 active torsions:
REMARK  status: ('A' for Active; 'I' for Inactive)
ROOT
ATOM      1  C   UNL d   1      -0.557   1.159  -0.195  0.00  0.00     0.020 A 
ATOM      2  C1  UNL d   1       0.586   0.618  -0.782  0.00  0.00     0.020 A 
ATOM      3  C2  UNL d   1       1.117  -0.581  -0.301  0.00  0.00     0.034 A 
ATOM      4  C3  UNL d   1       0.506  -1.241   0.771  0.00  0.00     0.017 A 
ATOM      5  C4  UNL d   1      -0.641  -0.697   1.359  0.00  0.00     0.017 A 
ATOM      6  C5  UNL d   1      -1.169   0.503   0.873  0.00  0.00     0.034 A 
ATOM      7 Cl   UNL d   1      -1.452  -1.455   2.685  0.00  0.00    -0.070 Cl
ATOM      8 Cl1  UNL d   1       1.217  -2.719   1.314  0.00  0.00    -0.070 Cl
ENDROOT
TORSDOF 0
ENDMDL
