MODEL 1
REMARK minimizedAffinity -1.17326272
REMARK minimizedRMSD -1
REMARK  0 active torsions:
REMARK  status: ('A' for Active; 'I' for Inactive)
ROOT
ATOM      1  C   UNL d   1      -0.956   0.059   0.903  0.00  0.00     0.020 A 
ATOM      2  C1  UNL d   1      -0.844   1.208   0.121  0.00  0.00     0.020 A 
ATOM      3  C2  UNL d   1       0.397   1.581  -0.398  0.00  0.00     0.034 A 
ATOM      4  C3  UNL d   1       1.532   0.805  -0.136  0.00  0.00     0.017 A 
ATOM      5  C4  UNL d   1       1.418  -0.348   0.649  0.00  0.00     0.017 A 
ATOM      6  C5  UNL d   1       0.173  -0.717   1.167  0.00  0.00     0.034 A 
ATOM      7 Cl   UNL d   1       2.773  -1.357   1.016  0.00  0.00    -0.070 Cl
ATOM      8 Cl1  UNL d   1       3.035   1.326  -0.810  0.00  0.00    -0.070 Cl
ENDROOT
TORSDOF 0
ENDMDL
