MODEL 1
REMARK minimizedAffinity -4.35377979
REMARK minimizedRMSD -1
REMARK  0 active torsions:
REMARK  status: ('A' for Active; 'I' for Inactive)
ROOT
ATOM      1  C   UNL d   1      -2.427   0.212  -2.620  0.00  0.00     0.020 A 
ATOM      2  C1  UNL d   1      -1.528   1.176  -3.074  0.00  0.00     0.020 A 
ATOM      3  C2  UNL d   1      -0.278   1.305  -2.466  0.00  0.00     0.034 A 
ATOM      4  C3  UNL d   1       0.077   0.469  -1.401  0.00  0.00     0.017 A 
ATOM      5  C4  UNL d   1      -0.826  -0.498  -0.946  0.00  0.00     0.017 A 
ATOM      6  C5  UNL d   1      -2.077  -0.624  -1.559  0.00  0.00     0.034 A 
ATOM      7 Cl   UNL d   1      -0.460  -1.567   0.362  0.00  0.00    -0.070 Cl
ATOM      8 Cl1  UNL d   1       1.640   0.684  -0.696  0.00  0.00    -0.070 Cl
ENDROOT
TORSDOF 0
ENDMDL
