MODEL 1
REMARK minimizedAffinity 1.8784039
REMARK minimizedRMSD -1
REMARK  0 active torsions:
REMARK  status: ('A' for Active; 'I' for Inactive)
ROOT
ATOM      1  C1  BNZ d   1       0.226   1.666  -0.626  0.00  0.00     0.000 A 
ATOM      2  C2  BNZ d   1       1.275   1.041  -0.005  0.00  0.00     0.000 A 
ATOM      3  C3  BNZ d   1       1.643   1.387   1.265  0.00  0.00     0.000 A 
ATOM      4  C4  BNZ d   1       0.989   2.383   1.897  0.00  0.00     0.000 A 
ATOM      5  C5  BNZ d   1      -0.064   3.029   1.281  0.00  0.00     0.000 A 
ATOM      6  C6  BNZ d   1      -0.457   2.651   0.017  0.00  0.00     0.000 A 
ENDROOT
TORSDOF 0
ENDMDL
