MODEL 1
REMARK minimizedAffinity 4.39064837
REMARK minimizedRMSD -1
REMARK  0 active torsions:
REMARK  status: ('A' for Active; 'I' for Inactive)
ROOT
ATOM      1  C1  BNZ d   1      -4.082   1.733   2.170  0.00  0.00     0.000 A 
ATOM      2  C2  BNZ d   1      -5.362   1.339   1.883  0.00  0.00     0.000 A 
ATOM      3  C3  BNZ d   1      -5.652   0.701   0.710  0.00  0.00     0.000 A 
ATOM      4  C4  BNZ d   1      -4.671   0.493  -0.192  0.00  0.00     0.000 A 
ATOM      5  C5  BNZ d   1      -3.377   0.892   0.078  0.00  0.00     0.000 A 
ATOM      6  C6  BNZ d   1      -3.081   1.499   1.277  0.00  0.00     0.000 A 
ENDROOT
TORSDOF 0
ENDMDL
