MODEL 1
REMARK minimizedAffinity -1.4561038
REMARK minimizedRMSD -1
REMARK  0 active torsions:
REMARK  status: ('A' for Active; 'I' for Inactive)
ROOT
ATOM      1  C1  BNZ d   1      -4.590   1.182   1.300  0.00  0.00     0.000 A 
ATOM      2  C2  BNZ d   1      -4.908   0.478   0.169  0.00  0.00     0.000 A 
ATOM      3  C3  BNZ d   1      -3.962   0.221  -0.784  0.00  0.00     0.000 A 
ATOM      4  C4  BNZ d   1      -2.713   0.703  -0.625  0.00  0.00     0.000 A 
ATOM      5  C5  BNZ d   1      -2.379   1.423   0.505  0.00  0.00     0.000 A 
ATOM      6  C6  BNZ d   1      -3.324   1.646   1.481  0.00  0.00     0.000 A 
ENDROOT
TORSDOF 0
ENDMDL
