MODEL 1
REMARK minimizedAffinity 2.33376408
REMARK minimizedRMSD -1
REMARK  0 active torsions:
REMARK  status: ('A' for Active; 'I' for Inactive)
ROOT
ATOM      1  C1  BNZ d   1       1.017  -2.528   0.479  0.00  0.00     0.000 A 
ATOM      2  C2  BNZ d   1       2.273  -2.113   0.834  0.00  0.00     0.000 A 
ATOM      3  C3  BNZ d   1       3.076  -1.468  -0.064  0.00  0.00     0.000 A 
ATOM      4  C4  BNZ d   1       2.640  -1.275  -1.326  0.00  0.00     0.000 A 
ATOM      5  C5  BNZ d   1       1.380  -1.697  -1.702  0.00  0.00     0.000 A 
ATOM      6  C6  BNZ d   1       0.559  -2.311  -0.784  0.00  0.00     0.000 A 
ENDROOT
TORSDOF 0
ENDMDL
