MODEL 1
REMARK minimizedAffinity -2.26888514
REMARK minimizedRMSD -1
REMARK  0 active torsions:
REMARK  status: ('A' for Active; 'I' for Inactive)
ROOT
ATOM      1  C1  BNZ d   1      -2.402   2.488   1.303  0.00  0.00     0.000 A 
ATOM      2  C2  BNZ d   1      -1.274   2.578   0.533  0.00  0.00     0.000 A 
ATOM      3  C3  BNZ d   1      -0.091   2.042   0.959  0.00  0.00     0.000 A 
ATOM      4  C4  BNZ d   1      -0.028   1.452   2.170  0.00  0.00     0.000 A 
ATOM      5  C5  BNZ d   1      -1.155   1.362   2.963  0.00  0.00     0.000 A 
ATOM      6  C6  BNZ d   1      -2.353   1.869   2.514  0.00  0.00     0.000 A 
ENDROOT
TORSDOF 0
ENDMDL
