MODEL 1
REMARK minimizedAffinity -2.40153027
REMARK minimizedRMSD -1
REMARK  0 active torsions:
REMARK  status: ('A' for Active; 'I' for Inactive)
ROOT
ATOM      1  C1  BNZ d   1      -2.956   1.372  -4.010  0.00  0.00     0.000 A 
ATOM      2  C2  BNZ d   1      -3.758   0.697  -3.129  0.00  0.00     0.000 A 
ATOM      3  C3  BNZ d   1      -5.105   0.928  -3.091  0.00  0.00     0.000 A 
ATOM      4  C4  BNZ d   1      -5.641   1.860  -3.905  0.00  0.00     0.000 A 
ATOM      5  C5  BNZ d   1      -4.844   2.556  -4.792  0.00  0.00     0.000 A 
ATOM      6  C6  BNZ d   1      -3.495   2.293  -4.855  0.00  0.00     0.000 A 
ENDROOT
TORSDOF 0
ENDMDL
