MODEL 1
REMARK minimizedAffinity 2.63523078
REMARK minimizedRMSD -1
REMARK  0 active torsions:
REMARK  status: ('A' for Active; 'I' for Inactive)
ROOT
ATOM      1  C1  BNZ d   1      -3.736   2.934   2.536  0.00  0.00     0.000 A 
ATOM      2  C2  BNZ d   1      -4.954   2.417   2.181  0.00  0.00     0.000 A 
ATOM      3  C3  BNZ d   1      -5.040   1.328   1.360  0.00  0.00     0.000 A 
ATOM      4  C4  BNZ d   1      -3.912   0.781   0.863  0.00  0.00     0.000 A 
ATOM      5  C5  BNZ d   1      -2.677   1.296   1.204  0.00  0.00     0.000 A 
ATOM      6  C6  BNZ d   1      -2.593   2.369   2.062  0.00  0.00     0.000 A 
ENDROOT
TORSDOF 0
ENDMDL
