MODEL 1
REMARK minimizedAffinity -0.713140666
REMARK minimizedRMSD -1
REMARK  0 active torsions:
REMARK  status: ('A' for Active; 'I' for Inactive)
ROOT
ATOM      1  C1  BNZ d   1       1.362  -3.428   5.200  0.00  0.00     0.000 A 
ATOM      2  C2  BNZ d   1       2.103  -4.499   5.623  0.00  0.00     0.000 A 
ATOM      3  C3  BNZ d   1       1.495  -5.665   6.000  0.00  0.00     0.000 A 
ATOM      4  C4  BNZ d   1       0.149  -5.744   5.991  0.00  0.00     0.000 A 
ATOM      5  C5  BNZ d   1      -0.611  -4.669   5.576  0.00  0.00     0.000 A 
ATOM      6  C6  BNZ d   1       0.005  -3.511   5.160  0.00  0.00     0.000 A 
ENDROOT
TORSDOF 0
ENDMDL
