MODEL 1
REMARK minimizedAffinity 0.743647397
REMARK minimizedRMSD -1
REMARK  0 active torsions:
REMARK  status: ('A' for Active; 'I' for Inactive)
ROOT
ATOM      1  C1  BNZ d   1      -5.997   1.205  -3.373  0.00  0.00     0.000 A 
ATOM      2  C2  BNZ d   1      -6.000   0.010  -4.043  0.00  0.00     0.000 A 
ATOM      3  C3  BNZ d   1      -5.168  -0.196  -5.108  0.00  0.00     0.000 A 
ATOM      4  C4  BNZ d   1      -4.366   0.804  -5.526  0.00  0.00     0.000 A 
ATOM      5  C5  BNZ d   1      -4.358   2.017  -4.867  0.00  0.00     0.000 A 
ATOM      6  C6  BNZ d   1      -5.168   2.208  -3.771  0.00  0.00     0.000 A 
ENDROOT
TORSDOF 0
ENDMDL
