MODEL 1
REMARK minimizedAffinity -2.84400558
REMARK minimizedRMSD -1
REMARK  1 active torsions:
REMARK  status: ('A' for Active; 'I' for Inactive)
REMARK    1  A    between atoms: C1_2  and  C2_3 
ROOT
ATOM      1  C2  UNL d   1       0.264  -0.103  -0.188  0.00  0.00    -0.073 A 
ATOM      2  C3  UNL d   1       1.258  -0.389   0.755  0.00  0.00    -0.002 A 
ATOM      3  C4  UNL d   1       1.309   0.313   1.960  0.00  0.00     0.004 A 
ATOM      4  C5  UNL d   1       0.364   1.301   2.238  0.00  0.00    -0.004 A 
ATOM      5  C6  UNL d   1      -0.644   1.593   1.313  0.00  0.00    -0.075 A 
ATOM      6  C7  UNL d   1      -1.666   2.655   1.596  0.00  0.00     0.076 C 
ATOM      7  C8  UNL d   1      -0.687   0.886   0.104  0.00  0.00     0.001 A 
ENDROOT
BRANCH   1   8
ATOM      8  C1  UNL d   1       0.201  -0.862  -1.488  0.00  0.00     0.053 C 
ATOM      9  C   UNL d   1       0.038  -2.358  -1.267  0.00  0.00     0.018 C 
ENDBRANCH   1   8
TORSDOF 1
ENDMDL
