MODEL 1
REMARK minimizedAffinity -2.46991444
REMARK minimizedRMSD -1
REMARK  1 active torsions:
REMARK  status: ('A' for Active; 'I' for Inactive)
REMARK    1  A    between atoms: C1_2  and  C2_3 
ROOT
ATOM      1  C2  UNL d   1      -0.120  -0.279  -0.091  0.00  0.00    -0.073 A 
ATOM      2  C3  UNL d   1       0.664  -0.750   0.968  0.00  0.00    -0.002 A 
ATOM      3  C4  UNL d   1       0.617  -0.123   2.214  0.00  0.00     0.004 A 
ATOM      4  C5  UNL d   1      -0.218   0.976   2.415  0.00  0.00    -0.004 A 
ATOM      5  C6  UNL d   1      -1.019   1.454   1.372  0.00  0.00    -0.075 A 
ATOM      6  C7  UNL d   1      -1.921   2.637   1.571  0.00  0.00     0.076 C 
ATOM      7  C8  UNL d   1      -0.964   0.820   0.123  0.00  0.00     0.001 A 
ENDROOT
BRANCH   1   8
ATOM      8  C1  UNL d   1      -0.078  -0.958  -1.436  0.00  0.00     0.053 C 
ATOM      9  C   UNL d   1      -0.159  -2.471  -1.313  0.00  0.00     0.018 C 
ENDBRANCH   1   8
TORSDOF 1
ENDMDL
