MODEL 1
REMARK minimizedAffinity -4.73499012
REMARK minimizedRMSD -1
REMARK  1 active torsions:
REMARK  status: ('A' for Active; 'I' for Inactive)
REMARK    1  A    between atoms: C1_2  and  C2_3 
ROOT
ATOM      1  C2  UNL d   1       0.238  -0.063  -0.457  0.00  0.00    -0.073 A 
ATOM      2  C3  UNL d   1       0.313  -0.609   0.830  0.00  0.00    -0.002 A 
ATOM      3  C4  UNL d   1      -0.015   0.165   1.943  0.00  0.00     0.004 A 
ATOM      4  C5  UNL d   1      -0.426   1.488   1.783  0.00  0.00    -0.004 A 
ATOM      5  C6  UNL d   1      -0.518   2.048   0.504  0.00  0.00    -0.075 A 
ATOM      6  C7  UNL d   1      -0.956   3.470   0.314  0.00  0.00     0.076 C 
ATOM      7  C8  UNL d   1      -0.185   1.265  -0.609  0.00  0.00     0.001 A 
ENDROOT
BRANCH   1   8
ATOM      8  C1  UNL d   1       0.584  -0.897  -1.663  0.00  0.00     0.053 C 
ATOM      9  C   UNL d   1       0.096  -2.331  -1.525  0.00  0.00     0.018 C 
ENDBRANCH   1   8
TORSDOF 1
ENDMDL
