MODEL 1
REMARK minimizedAffinity -4.64339781
REMARK minimizedRMSD -1
REMARK  1 active torsions:
REMARK  status: ('A' for Active; 'I' for Inactive)
REMARK    1  A    between atoms: C1_2  and  C2_3 
ROOT
ATOM      1  C2  UNL d   1      -0.615   2.072   0.485  0.00  0.00    -0.073 A 
ATOM      2  C3  UNL d   1      -0.435   1.879   1.859  0.00  0.00    -0.002 A 
ATOM      3  C4  UNL d   1       0.076   0.673   2.340  0.00  0.00     0.004 A 
ATOM      4  C5  UNL d   1       0.419  -0.348   1.453  0.00  0.00    -0.004 A 
ATOM      5  C6  UNL d   1       0.258  -0.169   0.076  0.00  0.00    -0.075 A 
ATOM      6  C7  UNL d   1       0.619  -1.258  -0.891  0.00  0.00     0.076 C 
ATOM      7  C8  UNL d   1      -0.259   1.044  -0.400  0.00  0.00     0.001 A 
ENDROOT
BRANCH   1   8
ATOM      8  C1  UNL d   1      -1.160   3.375  -0.040  0.00  0.00     0.053 C 
ATOM      9  C   UNL d   1      -1.293   3.369  -1.555  0.00  0.00     0.018 C 
ENDBRANCH   1   8
TORSDOF 1
ENDMDL
