MODEL 1
REMARK minimizedAffinity -5.8511343
REMARK minimizedRMSD -1
REMARK  1 active torsions:
REMARK  status: ('A' for Active; 'I' for Inactive)
REMARK    1  A    between atoms: C1_2  and  C2_3 
ROOT
ATOM      1  C2  UNL d   1       0.024   0.348  -0.169  0.00  0.00    -0.073 A 
ATOM      2  C3  UNL d   1       0.013   0.954  -1.430  0.00  0.00    -0.002 A 
ATOM      3  C4  UNL d   1      -0.377   2.287  -1.569  0.00  0.00     0.004 A 
ATOM      4  C5  UNL d   1      -0.754   3.028  -0.449  0.00  0.00    -0.004 A 
ATOM      5  C6  UNL d   1      -0.738   2.444   0.821  0.00  0.00    -0.075 A 
ATOM      6  C7  UNL d   1      -1.143   3.227   2.036  0.00  0.00     0.076 C 
ATOM      7  C8  UNL d   1      -0.348   1.105   0.952  0.00  0.00     0.001 A 
ENDROOT
BRANCH   1   8
ATOM      8  C1  UNL d   1       0.451  -1.088  -0.013  0.00  0.00     0.053 C 
ATOM      9  C   UNL d   1       0.046  -1.936  -1.208  0.00  0.00     0.018 C 
ENDBRANCH   1   8
TORSDOF 1
ENDMDL
