MODEL 1
REMARK minimizedAffinity -3.94861794
REMARK minimizedRMSD -1
REMARK  1 active torsions:
REMARK  status: ('A' for Active; 'I' for Inactive)
REMARK    1  A    between atoms: C1_2  and  C2_3 
ROOT
ATOM      1  C2  UNL d   1       5.296  -2.975   3.500  0.00  0.00    -0.077 A 
ATOM      2  C3  UNL d   1       5.649  -2.248   2.354  0.00  0.00     0.002 A 
ATOM      3  C4  UNL d   1       6.000  -2.912   1.177  0.00  0.00     0.002 A 
ATOM      4  C5  UNL d   1       5.998  -4.305   1.133  0.00  0.00    -0.004 A 
ATOM      5  C6  UNL d   1       5.651  -5.037   2.268  0.00  0.00     0.002 A 
ATOM      6  C7  UNL d   1       5.301  -4.375   3.446  0.00  0.00     0.002 A 
ENDROOT
BRANCH   1   7
ATOM      7  C1  UNL d   1       4.870  -2.261   4.756  0.00  0.00     0.055 C 
ATOM      8  C   UNL d   1       5.217  -3.069   5.998  0.00  0.00     0.019 C 
ENDBRANCH   1   7
TORSDOF 1
ENDMDL
