MODEL 1
REMARK minimizedAffinity -3.42632961
REMARK minimizedRMSD -1
REMARK  1 active torsions:
REMARK  status: ('A' for Active; 'I' for Inactive)
REMARK    1  A    between atoms: C1_2  and  C2_3 
ROOT
ATOM      1  C2  UNL d   1       5.546  -3.462   4.446  0.00  0.00    -0.077 A 
ATOM      2  C3  UNL d   1       5.776  -2.516   3.437  0.00  0.00     0.002 A 
ATOM      3  C4  UNL d   1       5.997  -2.927   2.121  0.00  0.00     0.002 A 
ATOM      4  C5  UNL d   1       5.986  -4.283   1.801  0.00  0.00    -0.004 A 
ATOM      5  C6  UNL d   1       5.760  -5.232   2.798  0.00  0.00     0.002 A 
ATOM      6  C7  UNL d   1       5.540  -4.823   4.114  0.00  0.00     0.002 A 
ENDROOT
BRANCH   1   7
ATOM      7  C1  UNL d   1       5.258  -3.019   5.856  0.00  0.00     0.055 C 
ATOM      8  C   UNL d   1       3.828  -2.519   5.999  0.00  0.00     0.019 C 
ENDBRANCH   1   7
TORSDOF 1
ENDMDL
