MODEL 1
REMARK minimizedAffinity -3.11073995
REMARK minimizedRMSD -1
REMARK  1 active torsions:
REMARK  status: ('A' for Active; 'I' for Inactive)
REMARK    1  A    between atoms: C1_2  and  C2_3 
ROOT
ATOM      1  C2  UNL d   1       5.803  -4.233   3.330  0.00  0.00    -0.077 A 
ATOM      2  C3  UNL d   1       5.741  -3.296   4.370  0.00  0.00     0.002 A 
ATOM      3  C4  UNL d   1       5.515  -1.946   4.092  0.00  0.00     0.002 A 
ATOM      4  C5  UNL d   1       5.347  -1.523   2.775  0.00  0.00    -0.004 A 
ATOM      5  C6  UNL d   1       5.410  -2.448   1.733  0.00  0.00     0.002 A 
ATOM      6  C7  UNL d   1       5.636  -3.797   2.009  0.00  0.00     0.002 A 
ENDROOT
BRANCH   1   7
ATOM      7  C1  UNL d   1       5.997  -5.696   3.631  0.00  0.00     0.055 C 
ATOM      8  C   UNL d   1       5.975  -5.960   5.130  0.00  0.00     0.019 C 
ENDBRANCH   1   7
TORSDOF 1
ENDMDL
