MODEL 1
REMARK minimizedAffinity -2.46384954
REMARK minimizedRMSD -1
REMARK  1 active torsions:
REMARK  status: ('A' for Active; 'I' for Inactive)
REMARK    1  A    between atoms: C1_2  and  C2_3 
ROOT
ATOM      1  C2  UNL d   1       4.965  -4.994   3.695  0.00  0.00    -0.077 A 
ATOM      2  C3  UNL d   1       5.461  -5.459   2.469  0.00  0.00     0.002 A 
ATOM      3  C4  UNL d   1       5.975  -4.562   1.529  0.00  0.00     0.002 A 
ATOM      4  C5  UNL d   1       6.000  -3.197   1.807  0.00  0.00    -0.004 A 
ATOM      5  C6  UNL d   1       5.506  -2.725   3.023  0.00  0.00     0.002 A 
ATOM      6  C7  UNL d   1       4.992  -3.619   3.963  0.00  0.00     0.002 A 
ENDROOT
BRANCH   1   7
ATOM      7  C1  UNL d   1       4.456  -5.963   4.729  0.00  0.00     0.055 C 
ATOM      8  C   UNL d   1       5.355  -5.984   5.957  0.00  0.00     0.019 C 
ENDBRANCH   1   7
TORSDOF 1
ENDMDL
