MODEL 1
REMARK minimizedAffinity -1.9266392
REMARK minimizedRMSD -1
REMARK  1 active torsions:
REMARK  status: ('A' for Active; 'I' for Inactive)
REMARK    1  A    between atoms: C1_2  and  C2_3 
ROOT
ATOM      1  C2  UNL d   1       5.686  -3.536   3.917  0.00  0.00    -0.077 A 
ATOM      2  C3  UNL d   1       5.985  -4.731   3.247  0.00  0.00     0.002 A 
ATOM      3  C4  UNL d   1       5.873  -5.957   3.906  0.00  0.00     0.002 A 
ATOM      4  C5  UNL d   1       5.459  -6.000   5.236  0.00  0.00    -0.004 A 
ATOM      5  C6  UNL d   1       5.161  -4.816   5.911  0.00  0.00     0.002 A 
ATOM      6  C7  UNL d   1       5.273  -3.590   5.254  0.00  0.00     0.002 A 
ENDROOT
BRANCH   1   7
ATOM      7  C1  UNL d   1       5.758  -2.217   3.193  0.00  0.00     0.055 C 
ATOM      8  C   UNL d   1       5.999  -2.415   1.704  0.00  0.00     0.019 C 
ENDBRANCH   1   7
TORSDOF 1
ENDMDL
