MODEL 1
REMARK minimizedAffinity -3.85135746
REMARK minimizedRMSD -1
REMARK  1 active torsions:
REMARK  status: ('A' for Active; 'I' for Inactive)
REMARK    1  A    between atoms: C1_2  and  C2_3 
ROOT
ATOM      1  C2  UNL d   1       5.427  -4.406   3.406  0.00  0.00    -0.077 A 
ATOM      2  C3  UNL d   1       5.333  -3.007   3.370  0.00  0.00     0.002 A 
ATOM      3  C4  UNL d   1       4.878  -2.302   4.485  0.00  0.00     0.002 A 
ATOM      4  C5  UNL d   1       4.516  -2.985   5.644  0.00  0.00    -0.004 A 
ATOM      5  C6  UNL d   1       4.604  -4.376   5.689  0.00  0.00     0.002 A 
ATOM      6  C7  UNL d   1       5.058  -5.083   4.575  0.00  0.00     0.002 A 
ENDROOT
BRANCH   1   7
ATOM      7  C1  UNL d   1       5.965  -5.165   2.221  0.00  0.00     0.055 C 
ATOM      8  C   UNL d   1       6.000  -4.294   0.974  0.00  0.00     0.019 C 
ENDBRANCH   1   7
TORSDOF 1
ENDMDL
