MODEL 1
REMARK minimizedAffinity -3.34159946
REMARK minimizedRMSD -1
REMARK  1 active torsions:
REMARK  status: ('A' for Active; 'I' for Inactive)
REMARK    1  A    between atoms: C1_2  and  C2_3 
ROOT
ATOM      1  C2  UNL d   1       5.726  -3.350   3.256  0.00  0.00    -0.077 A 
ATOM      2  C3  UNL d   1       5.212  -4.520   3.832  0.00  0.00     0.002 A 
ATOM      3  C4  UNL d   1       4.932  -4.569   5.199  0.00  0.00     0.002 A 
ATOM      4  C5  UNL d   1       5.159  -3.451   5.999  0.00  0.00    -0.004 A 
ATOM      5  C6  UNL d   1       5.672  -2.284   5.436  0.00  0.00     0.002 A 
ATOM      6  C7  UNL d   1       5.954  -2.233   4.070  0.00  0.00     0.002 A 
ENDROOT
BRANCH   1   7
ATOM      7  C1  UNL d   1       5.983  -3.278   1.773  0.00  0.00     0.055 C 
ATOM      8  C   UNL d   1       5.998  -4.665   1.146  0.00  0.00     0.019 C 
ENDBRANCH   1   7
TORSDOF 1
ENDMDL
