MODEL 1
REMARK minimizedAffinity -3.62180257
REMARK minimizedRMSD -1
REMARK  1 active torsions:
REMARK  status: ('A' for Active; 'I' for Inactive)
REMARK    1  A    between atoms: C1_2  and  C2_3 
ROOT
ATOM      1  C2  UNL d   1       5.774  -3.185   3.235  0.00  0.00    -0.077 A 
ATOM      2  C3  UNL d   1       5.345  -4.417   3.750  0.00  0.00     0.002 A 
ATOM      3  C4  UNL d   1       5.130  -4.572   5.121  0.00  0.00     0.002 A 
ATOM      4  C5  UNL d   1       5.337  -3.501   5.987  0.00  0.00    -0.004 A 
ATOM      5  C6  UNL d   1       5.766  -2.273   5.484  0.00  0.00     0.002 A 
ATOM      6  C7  UNL d   1       5.982  -2.115   4.115  0.00  0.00     0.002 A 
ENDROOT
BRANCH   1   7
ATOM      7  C1  UNL d   1       5.959  -3.001   1.752  0.00  0.00     0.055 C 
ATOM      8  C   UNL d   1       5.999  -4.339   1.028  0.00  0.00     0.019 C 
ENDBRANCH   1   7
TORSDOF 1
ENDMDL
