MODEL 1
REMARK minimizedAffinity -2.75525403
REMARK minimizedRMSD -1
REMARK  1 active torsions:
REMARK  status: ('A' for Active; 'I' for Inactive)
REMARK    1  A    between atoms: C1_2  and  C2_3 
ROOT
ATOM      1  C2  UNL d   1       5.012  -4.422   4.162  0.00  0.00    -0.077 A 
ATOM      2  C3  UNL d   1       5.508  -4.931   2.954  0.00  0.00     0.002 A 
ATOM      3  C4  UNL d   1       5.992  -4.068   1.969  0.00  0.00     0.002 A 
ATOM      4  C5  UNL d   1       5.989  -2.691   2.185  0.00  0.00    -0.004 A 
ATOM      5  C6  UNL d   1       5.495  -2.175   3.382  0.00  0.00     0.002 A 
ATOM      6  C7  UNL d   1       5.010  -3.036   4.367  0.00  0.00     0.002 A 
ENDROOT
BRANCH   1   7
ATOM      7  C1  UNL d   1       4.535  -5.354   5.245  0.00  0.00     0.055 C 
ATOM      8  C   UNL d   1       5.704  -5.990   5.983  0.00  0.00     0.019 C 
ENDBRANCH   1   7
TORSDOF 1
ENDMDL
