MODEL 1
REMARK minimizedAffinity -3.57204032
REMARK minimizedRMSD -1
REMARK  1 active torsions:
REMARK  status: ('A' for Active; 'I' for Inactive)
REMARK    1  A    between atoms: C1_2  and  C2_3 
ROOT
ATOM      1  C2  UNL d   1       5.764  -3.909   4.609  0.00  0.00    -0.077 A 
ATOM      2  C3  UNL d   1       5.966  -4.735   3.494  0.00  0.00     0.002 A 
ATOM      3  C4  UNL d   1       6.000  -4.191   2.209  0.00  0.00     0.002 A 
ATOM      4  C5  UNL d   1       5.836  -2.820   2.026  0.00  0.00    -0.004 A 
ATOM      5  C6  UNL d   1       5.632  -1.990   3.127  0.00  0.00     0.002 A 
ATOM      6  C7  UNL d   1       5.597  -2.532   4.413  0.00  0.00     0.002 A 
ENDROOT
BRANCH   1   7
ATOM      7  C1  UNL d   1       5.777  -4.486   6.000  0.00  0.00     0.055 C 
ATOM      8  C   UNL d   1       5.992  -5.992   5.972  0.00  0.00     0.019 C 
ENDBRANCH   1   7
TORSDOF 1
ENDMDL
