MODEL 1
REMARK minimizedAffinity -3.2676363
REMARK minimizedRMSD -1
REMARK  1 active torsions:
REMARK  status: ('A' for Active; 'I' for Inactive)
REMARK    1  A    between atoms: C1_2  and  C2_3 
ROOT
ATOM      1  C2  UNL d   1       5.310  -4.261   5.013  0.00  0.00    -0.077 A 
ATOM      2  C3  UNL d   1       4.807  -3.064   5.544  0.00  0.00     0.002 A 
ATOM      3  C4  UNL d   1       4.869  -1.882   4.803  0.00  0.00     0.002 A 
ATOM      4  C5  UNL d   1       5.429  -1.886   3.528  0.00  0.00    -0.004 A 
ATOM      5  C6  UNL d   1       5.934  -3.070   2.992  0.00  0.00     0.002 A 
ATOM      6  C7  UNL d   1       5.874  -4.252   3.731  0.00  0.00     0.002 A 
ENDROOT
BRANCH   1   7
ATOM      7  C1  UNL d   1       5.200  -5.546   5.790  0.00  0.00     0.055 C 
ATOM      8  C   UNL d   1       3.752  -6.000   5.907  0.00  0.00     0.019 C 
ENDBRANCH   1   7
TORSDOF 1
ENDMDL
