MODEL 1
REMARK minimizedAffinity -3.32371521
REMARK minimizedRMSD -1
REMARK  1 active torsions:
REMARK  status: ('A' for Active; 'I' for Inactive)
REMARK    1  A    between atoms: C1_2  and  C2_3 
ROOT
ATOM      1  C2  UNL d   1       5.490  -3.633   3.480  0.00  0.00    -0.077 A 
ATOM      2  C3  UNL d   1       4.998  -3.338   4.759  0.00  0.00     0.002 A 
ATOM      3  C4  UNL d   1       4.643  -4.368   5.633  0.00  0.00     0.002 A 
ATOM      4  C5  UNL d   1       4.780  -5.697   5.239  0.00  0.00    -0.004 A 
ATOM      5  C6  UNL d   1       5.266  -6.000   3.968  0.00  0.00     0.002 A 
ATOM      6  C7  UNL d   1       5.621  -4.972   3.093  0.00  0.00     0.002 A 
ENDROOT
BRANCH   1   7
ATOM      7  C1  UNL d   1       5.920  -2.525   2.554  0.00  0.00     0.055 C 
ATOM      8  C   UNL d   1       5.999  -3.008   1.113  0.00  0.00     0.019 C 
ENDBRANCH   1   7
TORSDOF 1
ENDMDL
