MODEL 1
REMARK minimizedAffinity 11.7529793
REMARK minimizedRMSD -1
REMARK  2 active torsions:
REMARK  status: ('A' for Active; 'I' for Inactive)
REMARK    1  A    between atoms: C1_2  and  C2_3 
REMARK    2  A    between atoms: C2_3  and  C3_4 
ROOT
ATOM      1  C3  UNL d   1       3.675   2.217  -1.284  0.00  0.00    -0.075 A 
ATOM      2  C4  UNL d   1       4.861   1.668  -1.793  0.00  0.00     0.002 A 
ATOM      3  C5  UNL d   1       6.000   2.459  -1.943  0.00  0.00     0.002 A 
ATOM      4  C6  UNL d   1       5.966   3.808  -1.598  0.00  0.00    -0.004 A 
ATOM      5  C7  UNL d   1       4.788   4.368  -1.108  0.00  0.00     0.002 A 
ATOM      6  C8  UNL d   1       3.648   3.578  -0.952  0.00  0.00     0.002 A 
ENDROOT
BRANCH   1   7
ATOM      7  C2  UNL d   1       2.447   1.360  -1.091  0.00  0.00     0.056 C 
BRANCH   7   8
ATOM      8  C1  UNL d   1       2.738  -0.021  -0.495  0.00  0.00     0.007 C 
ATOM      9  C   UNL d   1       2.416  -1.166  -1.446  0.00  0.00     0.009 C 
ENDBRANCH   7   8
ENDBRANCH   1   7
TORSDOF 2
ENDMDL
