MODEL 1
REMARK minimizedAffinity 8.79807377
REMARK minimizedRMSD -1
REMARK  2 active torsions:
REMARK  status: ('A' for Active; 'I' for Inactive)
REMARK    1  A    between atoms: C1_2  and  C2_3 
REMARK    2  A    between atoms: C2_3  and  C3_4 
ROOT
ATOM      1  C3  UNL d   1       1.246   0.014  -0.644  0.00  0.00    -0.075 A 
ATOM      2  C4  UNL d   1       1.852   0.797   0.349  0.00  0.00     0.002 A 
ATOM      3  C5  UNL d   1       1.530   2.148   0.480  0.00  0.00     0.002 A 
ATOM      4  C6  UNL d   1       0.607   2.735  -0.383  0.00  0.00    -0.004 A 
ATOM      5  C7  UNL d   1       0.012   1.970  -1.384  0.00  0.00     0.002 A 
ATOM      6  C8  UNL d   1       0.329   0.617  -1.515  0.00  0.00     0.002 A 
ENDROOT
BRANCH   1   7
ATOM      7  C2  UNL d   1       1.569  -1.456  -0.773  0.00  0.00     0.056 C 
BRANCH   7   8
ATOM      8  C1  UNL d   1       2.955  -1.839  -0.244  0.00  0.00     0.007 C 
ATOM      9  C   UNL d   1       2.997  -1.997   1.270  0.00  0.00     0.009 C 
ENDBRANCH   7   8
ENDBRANCH   1   7
TORSDOF 2
ENDMDL
