MODEL 1
REMARK minimizedAffinity 3.62697101
REMARK minimizedRMSD -1
REMARK  2 active torsions:
REMARK  status: ('A' for Active; 'I' for Inactive)
REMARK    1  A    between atoms: C1_2  and  C2_3 
REMARK    2  A    between atoms: C2_3  and  C3_4 
ROOT
ATOM      1  C3  UNL d   1       2.282  -1.294  -0.120  0.00  0.00    -0.075 A 
ATOM      2  C4  UNL d   1       3.005  -1.595   1.043  0.00  0.00     0.002 A 
ATOM      3  C5  UNL d   1       3.214  -0.621   2.020  0.00  0.00     0.002 A 
ATOM      4  C6  UNL d   1       2.713   0.666   1.842  0.00  0.00    -0.004 A 
ATOM      5  C7  UNL d   1       2.006   0.981   0.683  0.00  0.00     0.002 A 
ATOM      6  C8  UNL d   1       1.792   0.007  -0.294  0.00  0.00     0.002 A 
ENDROOT
BRANCH   1   7
ATOM      7  C2  UNL d   1       2.027  -2.352  -1.167  0.00  0.00     0.056 C 
BRANCH   7   8
ATOM      8  C1  UNL d   1       0.562  -2.454  -1.606  0.00  0.00     0.007 C 
ATOM      9  C   UNL d   1      -0.161  -3.654  -1.011  0.00  0.00     0.009 C 
ENDBRANCH   7   8
ENDBRANCH   1   7
TORSDOF 2
ENDMDL
