MODEL 1
REMARK minimizedAffinity 9.90877056
REMARK minimizedRMSD -1
REMARK  2 active torsions:
REMARK  status: ('A' for Active; 'I' for Inactive)
REMARK    1  A    between atoms: C1_2  and  C2_3 
REMARK    2  A    between atoms: C2_3  and  C3_4 
ROOT
ATOM      1  C3  UNL d   1      -0.377   1.607  -0.236  0.00  0.00    -0.075 A 
ATOM      2  C4  UNL d   1       1.013   1.469  -0.113  0.00  0.00     0.002 A 
ATOM      3  C5  UNL d   1       1.593   1.225   1.132  0.00  0.00     0.002 A 
ATOM      4  C6  UNL d   1       0.794   1.127   2.269  0.00  0.00    -0.004 A 
ATOM      5  C7  UNL d   1      -0.586   1.279   2.161  0.00  0.00     0.002 A 
ATOM      6  C8  UNL d   1      -1.170   1.519   0.916  0.00  0.00     0.002 A 
ENDROOT
BRANCH   1   7
ATOM      7  C2  UNL d   1      -1.013   1.842  -1.585  0.00  0.00     0.056 C 
BRANCH   7   8
ATOM      8  C1  UNL d   1      -1.705   0.607  -2.172  0.00  0.00     0.007 C 
ATOM      9  C   UNL d   1      -3.132   0.424  -1.671  0.00  0.00     0.009 C 
ENDBRANCH   7   8
ENDBRANCH   1   7
TORSDOF 2
ENDMDL
