MODEL 1
REMARK minimizedAffinity 5.04120302
REMARK minimizedRMSD -1
REMARK  2 active torsions:
REMARK  status: ('A' for Active; 'I' for Inactive)
REMARK    1  A    between atoms: C1_2  and  C2_3 
REMARK    2  A    between atoms: C2_3  and  C3_4 
ROOT
ATOM      1  C3  UNL d   1      -4.155   1.137  -0.859  0.00  0.00    -0.075 A 
ATOM      2  C4  UNL d   1      -3.729   0.761  -2.141  0.00  0.00     0.002 A 
ATOM      3  C5  UNL d   1      -4.420   1.195  -3.273  0.00  0.00     0.002 A 
ATOM      4  C6  UNL d   1      -5.548   2.000  -3.138  0.00  0.00    -0.004 A 
ATOM      5  C7  UNL d   1      -5.990   2.366  -1.868  0.00  0.00     0.002 A 
ATOM      6  C8  UNL d   1      -5.299   1.937  -0.734  0.00  0.00     0.002 A 
ENDROOT
BRANCH   1   7
ATOM      7  C2  UNL d   1      -3.394   0.695   0.368  0.00  0.00     0.056 C 
BRANCH   7   8
ATOM      8  C1  UNL d   1      -2.358   1.711   0.859  0.00  0.00     0.007 C 
ATOM      9  C   UNL d   1      -1.936   1.487   2.305  0.00  0.00     0.009 C 
ENDBRANCH   7   8
ENDBRANCH   1   7
TORSDOF 2
ENDMDL
