MODEL 1
REMARK minimizedAffinity 0.675954461
REMARK minimizedRMSD -1
REMARK  1 active torsions:
REMARK  status: ('A' for Active; 'I' for Inactive)
REMARK    1  A    between atoms: C1_2  and  C2_3 
ROOT
ATOM      1  C2  UNL d   1      -0.675   1.672   1.487  0.00  0.00    -0.077 A 
ATOM      2  C3  UNL d   1      -0.849   0.319   1.808  0.00  0.00     0.002 A 
ATOM      3  C4  UNL d   1      -1.980  -0.100   2.512  0.00  0.00     0.002 A 
ATOM      4  C5  UNL d   1      -2.947   0.827   2.895  0.00  0.00    -0.004 A 
ATOM      5  C6  UNL d   1      -2.782   2.176   2.582  0.00  0.00     0.002 A 
ATOM      6  C7  UNL d   1      -1.651   2.596   1.880  0.00  0.00     0.002 A 
ENDROOT
BRANCH   1   7
ATOM      7  C1  UNL d   1       0.520   2.118   0.685  0.00  0.00     0.055 C 
ATOM      8  C   UNL d   1       1.459   0.956   0.397  0.00  0.00     0.019 C 
ENDBRANCH   1   7
TORSDOF 1
ENDMDL
