MODEL 1
REMARK minimizedAffinity 6.85109425
REMARK minimizedRMSD -1
REMARK  1 active torsions:
REMARK  status: ('A' for Active; 'I' for Inactive)
REMARK    1  A    between atoms: C1_2  and  C2_3 
ROOT
ATOM      1  C2  UNL d   1       0.799  -3.803  -0.632  0.00  0.00    -0.077 A 
ATOM      2  C3  UNL d   1       1.450  -2.722  -0.023  0.00  0.00     0.002 A 
ATOM      3  C4  UNL d   1       2.377  -1.961  -0.738  0.00  0.00     0.002 A 
ATOM      4  C5  UNL d   1       2.658  -2.271  -2.066  0.00  0.00    -0.004 A 
ATOM      5  C6  UNL d   1       2.018  -3.346  -2.681  0.00  0.00     0.002 A 
ATOM      6  C7  UNL d   1       1.092  -4.108  -1.968  0.00  0.00     0.002 A 
ENDROOT
BRANCH   1   7
ATOM      7  C1  UNL d   1      -0.238  -4.594   0.122  0.00  0.00     0.055 C 
ATOM      8  C   UNL d   1      -1.592  -4.533  -0.569  0.00  0.00     0.019 C 
ENDBRANCH   1   7
TORSDOF 1
ENDMDL
