MODEL 1
REMARK minimizedAffinity -1.67159593
REMARK minimizedRMSD -1
REMARK  1 active torsions:
REMARK  status: ('A' for Active; 'I' for Inactive)
REMARK    1  A    between atoms: C1_2  and  C2_3 
ROOT
ATOM      1  C2  UNL d   1      -4.111  -3.733  -1.412  0.00  0.00    -0.077 A 
ATOM      2  C3  UNL d   1      -2.848  -3.752  -0.805  0.00  0.00     0.002 A 
ATOM      3  C4  UNL d   1      -2.423  -4.875  -0.093  0.00  0.00     0.002 A 
ATOM      4  C5  UNL d   1      -3.253  -5.989   0.014  0.00  0.00    -0.004 A 
ATOM      5  C6  UNL d   1      -4.513  -5.979  -0.584  0.00  0.00     0.002 A 
ATOM      6  C7  UNL d   1      -4.939  -4.856  -1.295  0.00  0.00     0.002 A 
ENDROOT
BRANCH   1   7
ATOM      7  C1  UNL d   1      -4.552  -2.541  -2.222  0.00  0.00     0.055 C 
ATOM      8  C   UNL d   1      -3.409  -1.991  -3.063  0.00  0.00     0.019 C 
ENDBRANCH   1   7
TORSDOF 1
ENDMDL
