MODEL 1
REMARK minimizedAffinity 1.32123983
REMARK minimizedRMSD -1
REMARK  1 active torsions:
REMARK  status: ('A' for Active; 'I' for Inactive)
REMARK    1  A    between atoms: C1_2  and  C2_3 
ROOT
ATOM      1  C2  UNL d   1       2.077   1.179  -0.247  0.00  0.00    -0.077 A 
ATOM      2  C3  UNL d   1       2.411   1.685  -1.511  0.00  0.00     0.002 A 
ATOM      3  C4  UNL d   1       3.270   0.975  -2.352  0.00  0.00     0.002 A 
ATOM      4  C5  UNL d   1       3.800  -0.246  -1.940  0.00  0.00    -0.004 A 
ATOM      5  C6  UNL d   1       3.475  -0.757  -0.684  0.00  0.00     0.002 A 
ATOM      6  C7  UNL d   1       2.617  -0.048   0.159  0.00  0.00     0.002 A 
ENDROOT
BRANCH   1   7
ATOM      7  C1  UNL d   1       1.111   1.919   0.641  0.00  0.00     0.055 C 
ATOM      8  C   UNL d   1      -0.194   1.152   0.799  0.00  0.00     0.019 C 
ENDBRANCH   1   7
TORSDOF 1
ENDMDL
