MODEL 1
REMARK minimizedAffinity -1.90297937
REMARK minimizedRMSD -1
REMARK  1 active torsions:
REMARK  status: ('A' for Active; 'I' for Inactive)
REMARK    1  A    between atoms: C1_2  and  C2_3 
ROOT
ATOM      1  C2  UNL d   1       1.703   0.641   1.049  0.00  0.00    -0.077 A 
ATOM      2  C3  UNL d   1       1.542   1.989   0.699  0.00  0.00     0.002 A 
ATOM      3  C4  UNL d   1       0.322   2.633   0.912  0.00  0.00     0.002 A 
ATOM      4  C5  UNL d   1      -0.745   1.938   1.478  0.00  0.00    -0.004 A 
ATOM      5  C6  UNL d   1      -0.596   0.597   1.828  0.00  0.00     0.002 A 
ATOM      6  C7  UNL d   1       0.623  -0.049   1.615  0.00  0.00     0.002 A 
ENDROOT
BRANCH   1   7
ATOM      7  C1  UNL d   1       3.033  -0.042   0.866  0.00  0.00     0.055 C 
ATOM      8  C   UNL d   1       3.074  -0.837  -0.431  0.00  0.00     0.019 C 
ENDBRANCH   1   7
TORSDOF 1
ENDMDL
