MODEL 1
REMARK minimizedAffinity 1.23208022
REMARK minimizedRMSD -1
REMARK  1 active torsions:
REMARK  status: ('A' for Active; 'I' for Inactive)
REMARK    1  A    between atoms: C1_2  and  C2_3 
ROOT
ATOM      1  C2  UNL d   1       1.591   0.432   0.518  0.00  0.00    -0.077 A 
ATOM      2  C3  UNL d   1       0.658  -0.560   0.853  0.00  0.00     0.002 A 
ATOM      3  C4  UNL d   1      -0.602  -0.208   1.340  0.00  0.00     0.002 A 
ATOM      4  C5  UNL d   1      -0.942   1.135   1.493  0.00  0.00    -0.004 A 
ATOM      5  C6  UNL d   1      -0.020   2.128   1.165  0.00  0.00     0.002 A 
ATOM      6  C7  UNL d   1       1.240   1.778   0.679  0.00  0.00     0.002 A 
ENDROOT
BRANCH   1   7
ATOM      7  C1  UNL d   1       2.932   0.055  -0.055  0.00  0.00     0.055 C 
ATOM      8  C   UNL d   1       3.092   0.572  -1.477  0.00  0.00     0.019 C 
ENDBRANCH   1   7
TORSDOF 1
ENDMDL
