MODEL 1
REMARK minimizedAffinity 4.6853714
REMARK minimizedRMSD -1
REMARK  1 active torsions:
REMARK  status: ('A' for Active; 'I' for Inactive)
REMARK    1  A    between atoms: C1_2  and  C2_3 
ROOT
ATOM      1  C2  UNL d   1      -0.211   0.214   1.649  0.00  0.00    -0.077 A 
ATOM      2  C3  UNL d   1      -1.526  -0.163   1.954  0.00  0.00     0.002 A 
ATOM      3  C4  UNL d   1      -1.774  -1.295   2.733  0.00  0.00     0.002 A 
ATOM      4  C5  UNL d   1      -0.712  -2.056   3.216  0.00  0.00    -0.004 A 
ATOM      5  C6  UNL d   1       0.600  -1.691   2.916  0.00  0.00     0.002 A 
ATOM      6  C7  UNL d   1       0.849  -0.561   2.136  0.00  0.00     0.002 A 
ENDROOT
BRANCH   1   7
ATOM      7  C1  UNL d   1       0.060   1.462   0.850  0.00  0.00     0.055 C 
ATOM      8  C   UNL d   1      -0.837   2.609   1.294  0.00  0.00     0.019 C 
ENDBRANCH   1   7
TORSDOF 1
ENDMDL
