MODEL 1
REMARK minimizedAffinity -0.688313603
REMARK minimizedRMSD -1
REMARK  1 active torsions:
REMARK  status: ('A' for Active; 'I' for Inactive)
REMARK    1  A    between atoms: C1_2  and  C2_3 
ROOT
ATOM      1  C2  UNL d   1      -0.887   1.077   1.360  0.00  0.00    -0.077 A 
ATOM      2  C3  UNL d   1      -1.192   2.386   1.761  0.00  0.00     0.002 A 
ATOM      3  C4  UNL d   1      -2.341   2.645   2.511  0.00  0.00     0.002 A 
ATOM      4  C5  UNL d   1      -3.190   1.601   2.870  0.00  0.00    -0.004 A 
ATOM      5  C6  UNL d   1      -2.897   0.297   2.475  0.00  0.00     0.002 A 
ATOM      6  C7  UNL d   1      -1.750   0.036   1.724  0.00  0.00     0.002 A 
ENDROOT
BRANCH   1   7
ATOM      7  C1  UNL d   1       0.377   0.789   0.593  0.00  0.00     0.055 C 
ATOM      8  C   UNL d   1       1.029  -0.502   1.067  0.00  0.00     0.019 C 
ENDBRANCH   1   7
TORSDOF 1
ENDMDL
