MODEL 1
REMARK minimizedAffinity 4.67245197
REMARK minimizedRMSD -1
REMARK  1 active torsions:
REMARK  status: ('A' for Active; 'I' for Inactive)
REMARK    1  A    between atoms: C1_2  and  C2_3 
ROOT
ATOM      1  C2  UNL d   1      -5.419   3.207   4.683  0.00  0.00    -0.077 A 
ATOM      2  C3  UNL d   1      -5.371   4.005   3.532  0.00  0.00     0.002 A 
ATOM      3  C4  UNL d   1      -5.636   5.374   3.609  0.00  0.00     0.002 A 
ATOM      4  C5  UNL d   1      -5.947   5.956   4.836  0.00  0.00    -0.004 A 
ATOM      5  C6  UNL d   1      -5.999   5.171   5.987  0.00  0.00     0.002 A 
ATOM      6  C7  UNL d   1      -5.736   3.803   5.911  0.00  0.00     0.002 A 
ENDROOT
BRANCH   1   7
ATOM      7  C1  UNL d   1      -5.085   1.740   4.610  0.00  0.00     0.055 C 
ATOM      8  C   UNL d   1      -4.129   1.447   3.463  0.00  0.00     0.019 C 
ENDBRANCH   1   7
TORSDOF 1
ENDMDL
