MODEL 1
REMARK minimizedAffinity -4.76995659
REMARK minimizedRMSD -1
REMARK  0 active torsions:
REMARK  status: ('A' for Active; 'I' for Inactive)
ROOT
ATOM      1  C   UNL d   1      -1.888   2.008   0.519  0.00  0.00     0.077 C 
ATOM      2  C1  UNL d   1      -0.909   0.875   0.427  0.00  0.00    -0.074 A 
ATOM      3  C2  UNL d   1       0.411   1.097   0.021  0.00  0.00    -0.005 A 
ATOM      4  C3  UNL d   1       1.313   0.036  -0.051  0.00  0.00     0.006 A 
ATOM      5  C4  UNL d   1       0.905  -1.256   0.282  0.00  0.00    -0.005 A 
ATOM      6  C5  UNL d   1      -0.410  -1.498   0.691  0.00  0.00    -0.074 A 
ATOM      7  C6  UNL d   1      -0.862  -2.879   1.062  0.00  0.00     0.077 C 
ATOM      8  C7  UNL d   1      -1.309  -0.425   0.767  0.00  0.00    -0.001 A 
ENDROOT
TORSDOF 0
ENDMDL
