MODEL 1
REMARK minimizedAffinity -5.0959363
REMARK minimizedRMSD -1
REMARK  0 active torsions:
REMARK  status: ('A' for Active; 'I' for Inactive)
ROOT
ATOM      1  C   UNL d   1       0.715  -0.017  -0.176  0.00  0.00     0.077 C 
ATOM      2  C1  UNL d   1      -0.520  -0.666   0.373  0.00  0.00    -0.074 A 
ATOM      3  C2  UNL d   1      -0.673  -2.056   0.351  0.00  0.00    -0.005 A 
ATOM      4  C3  UNL d   1      -1.823  -2.646   0.874  0.00  0.00     0.006 A 
ATOM      5  C4  UNL d   1      -2.831  -1.853   1.425  0.00  0.00    -0.005 A 
ATOM      6  C5  UNL d   1      -2.696  -0.461   1.458  0.00  0.00    -0.074 A 
ATOM      7  C6  UNL d   1      -3.765   0.405   2.055  0.00  0.00     0.077 C 
ATOM      8  C7  UNL d   1      -1.534   0.123   0.936  0.00  0.00    -0.001 A 
ENDROOT
TORSDOF 0
ENDMDL
