MODEL 1
REMARK minimizedAffinity -2.48607516
REMARK minimizedRMSD -1
REMARK  0 active torsions:
REMARK  status: ('A' for Active; 'I' for Inactive)
ROOT
ATOM      1  C   UNL d   1      -1.031  -2.665   1.445  0.00  0.00     0.077 C 
ATOM      2  C1  UNL d   1      -0.727  -1.378   0.736  0.00  0.00    -0.074 A 
ATOM      3  C2  UNL d   1       0.126  -1.353  -0.372  0.00  0.00    -0.005 A 
ATOM      4  C3  UNL d   1       0.393  -0.150  -1.027  0.00  0.00     0.006 A 
ATOM      5  C4  UNL d   1      -0.191   1.037  -0.581  0.00  0.00    -0.005 A 
ATOM      6  C5  UNL d   1      -1.047   1.030   0.524  0.00  0.00    -0.074 A 
ATOM      7  C6  UNL d   1      -1.690   2.295   1.010  0.00  0.00     0.077 C 
ATOM      8  C7  UNL d   1      -1.315  -0.183   1.173  0.00  0.00    -0.001 A 
ENDROOT
TORSDOF 0
ENDMDL
