MODEL 1
REMARK minimizedAffinity -3.94321275
REMARK minimizedRMSD -1
REMARK  0 active torsions:
REMARK  status: ('A' for Active; 'I' for Inactive)
ROOT
ATOM      1  C   UNL d   1      -1.840  -2.666   0.928  0.00  0.00     0.077 C 
ATOM      2  C1  UNL d   1      -1.095  -1.396   0.639  0.00  0.00    -0.074 A 
ATOM      3  C2  UNL d   1      -1.780  -0.205   0.378  0.00  0.00    -0.005 A 
ATOM      4  C3  UNL d   1      -1.074   0.970   0.120  0.00  0.00     0.006 A 
ATOM      5  C4  UNL d   1       0.321   0.965   0.119  0.00  0.00    -0.005 A 
ATOM      6  C5  UNL d   1       1.023  -0.216   0.378  0.00  0.00    -0.074 A 
ATOM      7  C6  UNL d   1       2.523  -0.237   0.390  0.00  0.00     0.077 C 
ATOM      8  C7  UNL d   1       0.306  -1.391   0.644  0.00  0.00    -0.001 A 
ENDROOT
TORSDOF 0
ENDMDL
