MODEL 1
REMARK minimizedAffinity -0.645009637
REMARK minimizedRMSD -1
REMARK  0 active torsions:
REMARK  status: ('A' for Active; 'I' for Inactive)
ROOT
ATOM      1  C   UNL d   1      -1.887   2.166   0.685  0.00  0.00     0.077 C 
ATOM      2  C1  UNL d   1      -0.964   0.989   0.574  0.00  0.00    -0.074 A 
ATOM      3  C2  UNL d   1       0.252   1.091  -0.109  0.00  0.00    -0.005 A 
ATOM      4  C3  UNL d   1       1.105  -0.010  -0.196  0.00  0.00     0.006 A 
ATOM      5  C4  UNL d   1       0.751  -1.221   0.399  0.00  0.00    -0.005 A 
ATOM      6  C5  UNL d   1      -0.461  -1.342   1.087  0.00  0.00    -0.074 A 
ATOM      7  C6  UNL d   1      -0.852  -2.634   1.741  0.00  0.00     0.077 C 
ATOM      8  C7  UNL d   1      -1.309  -0.230   1.176  0.00  0.00    -0.001 A 
ENDROOT
TORSDOF 0
ENDMDL
