MODEL 1
REMARK minimizedAffinity -4.68188
REMARK minimizedRMSD -1
REMARK  0 active torsions:
REMARK  status: ('A' for Active; 'I' for Inactive)
ROOT
ATOM      1  C   UNL d   1      -0.122   1.349  -0.589  0.00  0.00     0.077 C 
ATOM      2  C1  UNL d   1      -0.137  -0.050  -0.047  0.00  0.00    -0.074 A 
ATOM      3  C2  UNL d   1       0.976  -0.886  -0.185  0.00  0.00    -0.005 A 
ATOM      4  C3  UNL d   1       0.951  -2.181   0.332  0.00  0.00     0.006 A 
ATOM      5  C4  UNL d   1      -0.185  -2.652   0.992  0.00  0.00    -0.005 A 
ATOM      6  C5  UNL d   1      -1.307  -1.830   1.141  0.00  0.00    -0.074 A 
ATOM      7  C6  UNL d   1      -2.532  -2.317   1.856  0.00  0.00     0.077 C 
ATOM      8  C7  UNL d   1      -1.271  -0.528   0.624  0.00  0.00    -0.001 A 
ENDROOT
TORSDOF 0
ENDMDL
