MODEL 1
REMARK minimizedAffinity -3.90281916
REMARK minimizedRMSD -1
REMARK  0 active torsions:
REMARK  status: ('A' for Active; 'I' for Inactive)
ROOT
ATOM      1  C   UNL d   1      -2.144  -2.667   1.179  0.00  0.00     0.077 C 
ATOM      2  C1  UNL d   1      -0.937  -1.937   0.668  0.00  0.00    -0.074 A 
ATOM      3  C2  UNL d   1       0.272  -2.607   0.456  0.00  0.00    -0.005 A 
ATOM      4  C3  UNL d   1       1.383  -1.917  -0.028  0.00  0.00     0.006 A 
ATOM      5  C4  UNL d   1       1.297  -0.552  -0.305  0.00  0.00    -0.005 A 
ATOM      6  C5  UNL d   1       0.097   0.135  -0.100  0.00  0.00    -0.074 A 
ATOM      7  C6  UNL d   1      -0.016   1.600  -0.401  0.00  0.00     0.077 C 
ATOM      8  C7  UNL d   1      -1.018  -0.567   0.380  0.00  0.00    -0.001 A 
ENDROOT
TORSDOF 0
ENDMDL
