MODEL 1
REMARK minimizedAffinity -0.27527833
REMARK minimizedRMSD -1
REMARK  0 active torsions:
REMARK  status: ('A' for Active; 'I' for Inactive)
ROOT
ATOM      1  C   UNL d   1      -1.903  -3.210   1.018  0.00  0.00     0.077 C 
ATOM      2  C1  UNL d   1      -1.478  -1.831   0.609  0.00  0.00    -0.074 A 
ATOM      3  C2  UNL d   1      -0.225  -1.607   0.030  0.00  0.00    -0.005 A 
ATOM      4  C3  UNL d   1       0.152  -0.320  -0.354  0.00  0.00     0.006 A 
ATOM      5  C4  UNL d   1      -0.719   0.754  -0.163  0.00  0.00    -0.005 A 
ATOM      6  C5  UNL d   1      -1.976   0.548   0.413  0.00  0.00    -0.074 A 
ATOM      7  C6  UNL d   1      -2.928   1.690   0.617  0.00  0.00     0.077 C 
ATOM      8  C7  UNL d   1      -2.351  -0.749   0.790  0.00  0.00    -0.001 A 
ENDROOT
TORSDOF 0
ENDMDL
