MODEL 1
REMARK minimizedAffinity -5.24349356
REMARK minimizedRMSD -1
REMARK  0 active torsions:
REMARK  status: ('A' for Active; 'I' for Inactive)
ROOT
ATOM      1  C   UNL d   1       0.342   0.678  -3.501  0.00  0.00     0.077 C 
ATOM      2  C1  UNL d   1       0.191   0.310  -2.054  0.00  0.00    -0.074 A 
ATOM      3  C2  UNL d   1       0.521   1.219  -1.044  0.00  0.00    -0.005 A 
ATOM      4  C3  UNL d   1       0.367   0.866   0.297  0.00  0.00     0.006 A 
ATOM      5  C4  UNL d   1      -0.119  -0.396   0.640  0.00  0.00    -0.005 A 
ATOM      6  C5  UNL d   1      -0.455  -1.318  -0.357  0.00  0.00    -0.074 A 
ATOM      7  C6  UNL d   1      -0.988  -2.675  -0.006  0.00  0.00     0.077 C 
ATOM      8  C7  UNL d   1      -0.304  -0.953  -1.702  0.00  0.00    -0.001 A 
ENDROOT
TORSDOF 0
ENDMDL
