MODEL 1
REMARK minimizedAffinity -4.26742506
REMARK minimizedRMSD -1
REMARK  0 active torsions:
REMARK  status: ('A' for Active; 'I' for Inactive)
ROOT
ATOM      1  C   UNL d   1       1.556   1.697  -1.431  0.00  0.00     0.077 C 
ATOM      2  C1  UNL d   1       0.460   1.122  -0.583  0.00  0.00    -0.074 A 
ATOM      3  C2  UNL d   1      -0.544   1.939  -0.055  0.00  0.00    -0.005 A 
ATOM      4  C3  UNL d   1      -1.562   1.388   0.723  0.00  0.00     0.006 A 
ATOM      5  C4  UNL d   1      -1.586   0.017   0.982  0.00  0.00    -0.005 A 
ATOM      6  C5  UNL d   1      -0.590  -0.816   0.461  0.00  0.00    -0.074 A 
ATOM      7  C6  UNL d   1      -0.606  -2.293   0.721  0.00  0.00     0.077 C 
ATOM      8  C7  UNL d   1       0.425  -0.256  -0.326  0.00  0.00    -0.001 A 
ENDROOT
TORSDOF 0
ENDMDL
