MODEL 1
REMARK minimizedAffinity -3.93860793
REMARK minimizedRMSD -1
REMARK  0 active torsions:
REMARK  status: ('A' for Active; 'I' for Inactive)
ROOT
ATOM      1  C   UNL d   1      -2.405  -2.922   1.504  0.00  0.00     0.077 C 
ATOM      2  C1  UNL d   1      -1.256  -2.218   0.846  0.00  0.00    -0.074 A 
ATOM      3  C2  UNL d   1      -0.037  -2.870   0.638  0.00  0.00    -0.005 A 
ATOM      4  C3  UNL d   1       1.020  -2.205   0.016  0.00  0.00     0.006 A 
ATOM      5  C4  UNL d   1       0.868  -0.883  -0.404  0.00  0.00    -0.005 A 
ATOM      6  C5  UNL d   1      -0.344  -0.215  -0.205  0.00  0.00    -0.074 A 
ATOM      7  C6  UNL d   1      -0.527   1.203  -0.659  0.00  0.00     0.077 C 
ATOM      8  C7  UNL d   1      -1.403  -0.892   0.415  0.00  0.00    -0.001 A 
ENDROOT
TORSDOF 0
ENDMDL
