MODEL 1
REMARK minimizedAffinity -2.66161799
REMARK minimizedRMSD -1
REMARK  0 active torsions:
REMARK  status: ('A' for Active; 'I' for Inactive)
ROOT
ATOM      1  C   UNL d   1      -1.881   2.085   1.135  0.00  0.00     0.077 C 
ATOM      2  C1  UNL d   1      -1.141   0.799   0.909  0.00  0.00    -0.074 A 
ATOM      3  C2  UNL d   1       0.204   0.802   0.527  0.00  0.00    -0.005 A 
ATOM      4  C3  UNL d   1       0.881  -0.402   0.330  0.00  0.00     0.006 A 
ATOM      5  C4  UNL d   1       0.222  -1.617   0.514  0.00  0.00    -0.005 A 
ATOM      6  C5  UNL d   1      -1.123  -1.640   0.898  0.00  0.00    -0.074 A 
ATOM      7  C6  UNL d   1      -1.844  -2.937   1.109  0.00  0.00     0.077 C 
ATOM      8  C7  UNL d   1      -1.795  -0.426   1.100  0.00  0.00    -0.001 A 
ENDROOT
TORSDOF 0
ENDMDL
