MODEL 1
REMARK minimizedAffinity -5.62916088
REMARK minimizedRMSD -1
REMARK  0 active torsions:
REMARK  status: ('A' for Active; 'I' for Inactive)
ROOT
ATOM      1  C   UNL d   1       2.225  -2.003   0.091  0.00  0.00     0.077 C 
ATOM      2  C1  UNL d   1       0.859  -1.420   0.301  0.00  0.00    -0.074 A 
ATOM      3  C2  UNL d   1      -0.239  -2.243   0.572  0.00  0.00    -0.005 A 
ATOM      4  C3  UNL d   1      -1.501  -1.686   0.775  0.00  0.00     0.006 A 
ATOM      5  C4  UNL d   1      -1.679  -0.304   0.709  0.00  0.00    -0.005 A 
ATOM      6  C5  UNL d   1      -0.592   0.535   0.440  0.00  0.00    -0.074 A 
ATOM      7  C6  UNL d   1      -0.764   2.023   0.375  0.00  0.00     0.077 C 
ATOM      8  C7  UNL d   1       0.675  -0.032   0.244  0.00  0.00    -0.001 A 
ENDROOT
TORSDOF 0
ENDMDL
