MODEL 1
REMARK minimizedAffinity -4.75301123
REMARK minimizedRMSD -1
REMARK  0 active torsions:
REMARK  status: ('A' for Active; 'I' for Inactive)
ROOT
ATOM      1  C   UNL d   1       0.004  -2.405   0.680  0.00  0.00     0.077 C 
ATOM      2  C1  UNL d   1      -0.124  -0.916   0.545  0.00  0.00    -0.074 A 
ATOM      3  C2  UNL d   1      -1.161  -0.224   1.178  0.00  0.00    -0.005 A 
ATOM      4  C3  UNL d   1      -1.262   1.161   1.052  0.00  0.00     0.006 A 
ATOM      5  C4  UNL d   1      -0.327   1.867   0.293  0.00  0.00    -0.005 A 
ATOM      6  C5  UNL d   1       0.718   1.192  -0.346  0.00  0.00    -0.074 A 
ATOM      7  C6  UNL d   1       1.736   1.937  -1.157  0.00  0.00     0.077 C 
ATOM      8  C7  UNL d   1       0.816  -0.199  -0.209  0.00  0.00    -0.001 A 
ENDROOT
TORSDOF 0
ENDMDL
