MODEL 1
REMARK minimizedAffinity -4.50280571
REMARK minimizedRMSD -1
REMARK  0 active torsions:
REMARK  status: ('A' for Active; 'I' for Inactive)
ROOT
ATOM      1  C   UNL d   1       1.543   1.433  -0.891  0.00  0.00     0.077 C 
ATOM      2  C1  UNL d   1       0.335   0.924  -0.163  0.00  0.00    -0.074 A 
ATOM      3  C2  UNL d   1      -0.591   1.809   0.400  0.00  0.00    -0.005 A 
ATOM      4  C3  UNL d   1      -1.715   1.322   1.066  0.00  0.00     0.006 A 
ATOM      5  C4  UNL d   1      -1.925  -0.053   1.176  0.00  0.00    -0.005 A 
ATOM      6  C5  UNL d   1      -1.011  -0.953   0.619  0.00  0.00    -0.074 A 
ATOM      7  C6  UNL d   1      -1.227  -2.434   0.720  0.00  0.00     0.077 C 
ATOM      8  C7  UNL d   1       0.112  -0.456  -0.055  0.00  0.00    -0.001 A 
ENDROOT
TORSDOF 0
ENDMDL
