MODEL 1
REMARK minimizedAffinity 8.44136333
REMARK minimizedRMSD -1
REMARK  0 active torsions:
REMARK  status: ('A' for Active; 'I' for Inactive)
ROOT
ATOM      1  C   UNL d   1       0.584   0.710   2.788  0.00  0.00     0.077 C 
ATOM      2  C1  UNL d   1       0.680  -0.572   3.560  0.00  0.00    -0.074 A 
ATOM      3  C2  UNL d   1       1.432  -0.647   4.737  0.00  0.00    -0.005 A 
ATOM      4  C3  UNL d   1       1.504  -1.844   5.450  0.00  0.00     0.006 A 
ATOM      5  C4  UNL d   1       0.826  -2.975   4.994  0.00  0.00    -0.005 A 
ATOM      6  C5  UNL d   1       0.069  -2.919   3.819  0.00  0.00    -0.074 A 
ATOM      7  C6  UNL d   1      -0.673  -4.123   3.320  0.00  0.00     0.077 C 
ATOM      8  C7  UNL d   1      -0.004  -1.711   3.112  0.00  0.00    -0.001 A 
ENDROOT
TORSDOF 0
ENDMDL
