MODEL 1
REMARK minimizedAffinity 10.9179087
REMARK minimizedRMSD -1
REMARK  0 active torsions:
REMARK  status: ('A' for Active; 'I' for Inactive)
ROOT
ATOM      1  C   UNL d   1       0.950  -2.982   2.791  0.00  0.00     0.077 C 
ATOM      2  C1  UNL d   1       1.323  -3.182   1.352  0.00  0.00    -0.074 A 
ATOM      3  C2  UNL d   1       2.471  -2.589   0.818  0.00  0.00    -0.005 A 
ATOM      4  C3  UNL d   1       2.811  -2.792  -0.520  0.00  0.00     0.006 A 
ATOM      5  C4  UNL d   1       2.007  -3.589  -1.335  0.00  0.00    -0.005 A 
ATOM      6  C5  UNL d   1       0.855  -4.192  -0.818  0.00  0.00    -0.074 A 
ATOM      7  C6  UNL d   1      -0.015  -5.059  -1.679  0.00  0.00     0.077 C 
ATOM      8  C7  UNL d   1       0.525  -3.988   0.528  0.00  0.00    -0.001 A 
ENDROOT
TORSDOF 0
ENDMDL
