MODEL 1
REMARK minimizedAffinity 7.97504663
REMARK minimizedRMSD -1
REMARK  0 active torsions:
REMARK  status: ('A' for Active; 'I' for Inactive)
ROOT
ATOM      1  C   UNL d   1       5.786   2.415  -0.560  0.00  0.00     0.077 C 
ATOM      2  C1  UNL d   1       4.911   1.197  -0.551  0.00  0.00    -0.074 A 
ATOM      3  C2  UNL d   1       5.467  -0.087  -0.557  0.00  0.00    -0.005 A 
ATOM      4  C3  UNL d   1       4.641  -1.211  -0.539  0.00  0.00     0.006 A 
ATOM      5  C4  UNL d   1       3.253  -1.063  -0.513  0.00  0.00    -0.005 A 
ATOM      6  C5  UNL d   1       2.680   0.213  -0.505  0.00  0.00    -0.074 A 
ATOM      7  C6  UNL d   1       1.191   0.390  -0.468  0.00  0.00     0.077 C 
ATOM      8  C7  UNL d   1       3.517   1.337  -0.517  0.00  0.00    -0.001 A 
ENDROOT
TORSDOF 0
ENDMDL
