MODEL 1
REMARK minimizedAffinity 11.1738997
REMARK minimizedRMSD -1
REMARK  0 active torsions:
REMARK  status: ('A' for Active; 'I' for Inactive)
ROOT
ATOM      1  C   UNL d   1       3.343  -3.387  -3.737  0.00  0.00     0.077 C 
ATOM      2  C1  UNL d   1       3.333  -2.684  -2.412  0.00  0.00    -0.074 A 
ATOM      3  C2  UNL d   1       2.646  -3.222  -1.319  0.00  0.00    -0.005 A 
ATOM      4  C3  UNL d   1       2.654  -2.562  -0.090  0.00  0.00     0.006 A 
ATOM      5  C4  UNL d   1       3.347  -1.360   0.057  0.00  0.00    -0.005 A 
ATOM      6  C5  UNL d   1       4.040  -0.808  -1.025  0.00  0.00    -0.074 A 
ATOM      7  C6  UNL d   1       4.798   0.479  -0.880  0.00  0.00     0.077 C 
ATOM      8  C7  UNL d   1       4.033  -1.480  -2.254  0.00  0.00    -0.001 A 
ENDROOT
TORSDOF 0
ENDMDL
