MODEL 1
REMARK minimizedAffinity 0.224231318
REMARK minimizedRMSD -1
REMARK  0 active torsions:
REMARK  status: ('A' for Active; 'I' for Inactive)
ROOT
ATOM      1  C   UNL d   1       5.073   1.546  -1.176  0.00  0.00     0.077 C 
ATOM      2  C1  UNL d   1       4.826   0.169  -1.717  0.00  0.00    -0.074 A 
ATOM      3  C2  UNL d   1       5.548  -0.312  -2.814  0.00  0.00    -0.005 A 
ATOM      4  C3  UNL d   1       5.314  -1.599  -3.299  0.00  0.00     0.006 A 
ATOM      5  C4  UNL d   1       4.358  -2.415  -2.694  0.00  0.00    -0.005 A 
ATOM      6  C5  UNL d   1       3.627  -1.951  -1.595  0.00  0.00    -0.074 A 
ATOM      7  C6  UNL d   1       2.603  -2.819  -0.927  0.00  0.00     0.077 C 
ATOM      8  C7  UNL d   1       3.873  -0.660  -1.109  0.00  0.00    -0.001 A 
ENDROOT
TORSDOF 0
ENDMDL
