MODEL 1
REMARK minimizedAffinity -1.80212367
REMARK minimizedRMSD -1
REMARK  0 active torsions:
REMARK  status: ('A' for Active; 'I' for Inactive)
ROOT
ATOM      1  C   UNL d   1       5.917   5.999   0.014  0.00  0.00     0.077 C 
ATOM      2  C1  UNL d   1       5.903   5.237   1.306  0.00  0.00    -0.074 A 
ATOM      3  C2  UNL d   1       5.922   3.838   1.315  0.00  0.00    -0.005 A 
ATOM      4  C3  UNL d   1       5.917   3.143   2.525  0.00  0.00     0.006 A 
ATOM      5  C4  UNL d   1       5.894   3.838   3.734  0.00  0.00    -0.005 A 
ATOM      6  C5  UNL d   1       5.875   5.237   3.744  0.00  0.00    -0.074 A 
ATOM      7  C6  UNL d   1       5.859   5.999   5.036  0.00  0.00     0.077 C 
ATOM      8  C7  UNL d   1       5.887   5.928   2.525  0.00  0.00    -0.001 A 
ENDROOT
TORSDOF 0
ENDMDL
