MODEL 1
REMARK minimizedAffinity 15.3584547
REMARK minimizedRMSD -1
REMARK  0 active torsions:
REMARK  status: ('A' for Active; 'I' for Inactive)
ROOT
ATOM      1  C   UNL d   1       2.701  -2.877  -3.512  0.00  0.00     0.077 C 
ATOM      2  C1  UNL d   1       2.941  -1.935  -2.369  0.00  0.00    -0.074 A 
ATOM      3  C2  UNL d   1       2.520  -2.254  -1.074  0.00  0.00    -0.005 A 
ATOM      4  C3  UNL d   1       2.759  -1.372  -0.020  0.00  0.00     0.006 A 
ATOM      5  C4  UNL d   1       3.419  -0.164  -0.250  0.00  0.00    -0.005 A 
ATOM      6  C5  UNL d   1       3.847   0.171  -1.538  0.00  0.00    -0.074 A 
ATOM      7  C6  UNL d   1       4.567   1.461  -1.801  0.00  0.00     0.077 C 
ATOM      8  C7  UNL d   1       3.610  -0.723  -2.591  0.00  0.00    -0.001 A 
ENDROOT
TORSDOF 0
ENDMDL
