MODEL 1
REMARK minimizedAffinity -0.204315677
REMARK minimizedRMSD -1
REMARK  0 active torsions:
REMARK  status: ('A' for Active; 'I' for Inactive)
ROOT
ATOM      1  C   UNL d   1       1.452  -0.195   1.528  0.00  0.00     0.124 A 
ATOM      2  C1  UNL d   1       0.444  -1.135   1.360  0.00  0.00     0.062 A 
ATOM      3  C2  UNL d   1      -0.576  -0.911   0.439  0.00  0.00     0.162 A 
ATOM      4  C3  UNL d   1      -0.593   0.258  -0.322  0.00  0.00    -0.034 A 
ATOM      5  C4  UNL d   1       0.424   1.199  -0.147  0.00  0.00     0.162 A 
ATOM      6  C5  UNL d   1       1.441   0.970   0.774  0.00  0.00     0.062 A 
ATOM      7  F   UNL d   1       2.413   1.879   0.935  0.00  0.00    -0.097 F 
ATOM      8  F1  UNL d   1       0.438   2.333  -0.862  0.00  0.00    -0.096 F 
ATOM      9  I   UNL d   1      -2.116   0.597  -1.699  0.00  0.00    -0.060 I 
ATOM     10  F2  UNL d   1      -1.537  -1.836   0.298  0.00  0.00    -0.096 F 
ATOM     11  F3  UNL d   1       0.452  -2.261   2.087  0.00  0.00    -0.097 F 
ATOM     12  F4  UNL d   1       2.431  -0.413   2.415  0.00  0.00    -0.092 F 
ENDROOT
TORSDOF 0
ENDMDL
