MODEL 1
REMARK minimizedAffinity 0.0962260887
REMARK minimizedRMSD -1
REMARK  0 active torsions:
REMARK  status: ('A' for Active; 'I' for Inactive)
ROOT
ATOM      1  C   UNL d   1       1.564  -0.523   1.654  0.00  0.00     0.124 A 
ATOM      2  C1  UNL d   1       1.615   0.531   0.753  0.00  0.00     0.062 A 
ATOM      3  C2  UNL d   1       0.536   0.786  -0.088  0.00  0.00     0.162 A 
ATOM      4  C3  UNL d   1      -0.605  -0.014  -0.031  0.00  0.00    -0.034 A 
ATOM      5  C4  UNL d   1      -0.649  -1.074   0.877  0.00  0.00     0.162 A 
ATOM      6  C5  UNL d   1       0.433  -1.324   1.715  0.00  0.00     0.062 A 
ATOM      7  F   UNL d   1       0.382  -2.344   2.585  0.00  0.00    -0.097 F 
ATOM      8  F1  UNL d   1      -1.730  -1.863   0.958  0.00  0.00    -0.096 F 
ATOM      9  I   UNL d   1      -2.221   0.363  -1.287  0.00  0.00    -0.060 I 
ATOM     10  F2  UNL d   1       0.612   1.812  -0.949  0.00  0.00    -0.096 F 
ATOM     11  F3  UNL d   1       2.707   1.306   0.691  0.00  0.00    -0.097 F 
ATOM     12  F4  UNL d   1       2.605  -0.767   2.461  0.00  0.00    -0.092 F 
ENDROOT
TORSDOF 0
ENDMDL
