MODEL 1
REMARK minimizedAffinity 3.54989076
REMARK minimizedRMSD -1
REMARK  0 active torsions:
REMARK  status: ('A' for Active; 'I' for Inactive)
ROOT
ATOM      1  C   UNL d   1      -0.955   0.594   0.406  0.00  0.00     0.124 A 
ATOM      2  C1  UNL d   1      -0.006   1.606   0.440  0.00  0.00     0.062 A 
ATOM      3  C2  UNL d   1       1.316   1.315   0.763  0.00  0.00     0.162 A 
ATOM      4  C3  UNL d   1       1.698   0.005   1.054  0.00  0.00    -0.034 A 
ATOM      5  C4  UNL d   1       0.737  -1.007   1.019  0.00  0.00     0.162 A 
ATOM      6  C5  UNL d   1      -0.583  -0.711   0.695  0.00  0.00     0.062 A 
ATOM      7  F   UNL d   1      -1.499  -1.691   0.663  0.00  0.00    -0.097 F 
ATOM      8  F1  UNL d   1       1.070  -2.277   1.293  0.00  0.00    -0.096 F 
ATOM      9  I   UNL d   1       3.674  -0.434   1.538  0.00  0.00    -0.060 I 
ATOM     10  F2  UNL d   1       2.212   2.313   0.789  0.00  0.00    -0.096 F 
ATOM     11  F3  UNL d   1      -0.364   2.868   0.162  0.00  0.00    -0.097 F 
ATOM     12  F4  UNL d   1      -2.227   0.877   0.096  0.00  0.00    -0.092 F 
ENDROOT
TORSDOF 0
ENDMDL
