MODEL 1
REMARK minimizedAffinity 1.22530758
REMARK minimizedRMSD -1
REMARK  0 active torsions:
REMARK  status: ('A' for Active; 'I' for Inactive)
ROOT
ATOM      1  C   UNL d   1       1.278   0.845   0.610  0.00  0.00     0.124 A 
ATOM      2  C1  UNL d   1      -0.033   1.300   0.583  0.00  0.00     0.062 A 
ATOM      3  C2  UNL d   1      -1.013   0.573  -0.087  0.00  0.00     0.162 A 
ATOM      4  C3  UNL d   1      -0.686  -0.618  -0.735  0.00  0.00    -0.034 A 
ATOM      5  C4  UNL d   1       0.635  -1.069  -0.705  0.00  0.00     0.162 A 
ATOM      6  C5  UNL d   1       1.611  -0.338  -0.034  0.00  0.00     0.062 A 
ATOM      7  F   UNL d   1       2.877  -0.780  -0.009  0.00  0.00    -0.097 F 
ATOM      8  F1  UNL d   1       0.984  -2.210  -1.317  0.00  0.00    -0.096 F 
ATOM      9  I   UNL d   1      -2.148  -1.707  -1.738  0.00  0.00    -0.060 I 
ATOM     10  F2  UNL d   1      -2.271   1.037  -0.097  0.00  0.00    -0.096 F 
ATOM     11  F3  UNL d   1      -0.357   2.444   1.203  0.00  0.00    -0.097 F 
ATOM     12  F4  UNL d   1       2.219   1.547   1.255  0.00  0.00    -0.092 F 
ENDROOT
TORSDOF 0
ENDMDL
