MODEL 1
REMARK minimizedAffinity -2.23174047
REMARK minimizedRMSD -1
REMARK  0 active torsions:
REMARK  status: ('A' for Active; 'I' for Inactive)
ROOT
ATOM      1  C   UNL d   1       1.868  -0.564   1.804  0.00  0.00     0.124 A 
ATOM      2  C1  UNL d   1       1.861   0.509   0.924  0.00  0.00     0.062 A 
ATOM      3  C2  UNL d   1       0.754   0.742   0.113  0.00  0.00     0.162 A 
ATOM      4  C3  UNL d   1      -0.356  -0.100   0.178  0.00  0.00    -0.034 A 
ATOM      5  C4  UNL d   1      -0.341  -1.178   1.065  0.00  0.00     0.162 A 
ATOM      6  C5  UNL d   1       0.767  -1.407   1.874  0.00  0.00     0.062 A 
ATOM      7  F   UNL d   1       0.772  -2.444   2.723  0.00  0.00    -0.097 F 
ATOM      8  F1  UNL d   1      -1.392  -2.007   1.153  0.00  0.00    -0.096 F 
ATOM      9  I   UNL d   1      -2.012   0.245  -1.034  0.00  0.00    -0.060 I 
ATOM     10  F2  UNL d   1       0.775   1.787  -0.728  0.00  0.00    -0.096 F 
ATOM     11  F3  UNL d   1       2.924   1.324   0.855  0.00  0.00    -0.097 F 
ATOM     12  F4  UNL d   1       2.934  -0.787   2.583  0.00  0.00    -0.092 F 
ENDROOT
TORSDOF 0
ENDMDL
