MODEL 1
REMARK minimizedAffinity 0.375985295
REMARK minimizedRMSD -1
REMARK  0 active torsions:
REMARK  status: ('A' for Active; 'I' for Inactive)
ROOT
ATOM      1  C   UNL d   1       1.521  -0.217   1.072  0.00  0.00     0.124 A 
ATOM      2  C1  UNL d   1       1.653   0.859   0.206  0.00  0.00     0.062 A 
ATOM      3  C2  UNL d   1       0.627   1.174  -0.681  0.00  0.00     0.162 A 
ATOM      4  C3  UNL d   1      -0.541   0.411  -0.705  0.00  0.00    -0.034 A 
ATOM      5  C4  UNL d   1      -0.666  -0.670   0.168  0.00  0.00     0.162 A 
ATOM      6  C5  UNL d   1       0.362  -0.981   1.053  0.00  0.00     0.062 A 
ATOM      7  F   UNL d   1       0.233  -2.021   1.889  0.00  0.00    -0.097 F 
ATOM      8  F1  UNL d   1      -1.775  -1.424   0.171  0.00  0.00    -0.096 F 
ATOM      9  I   UNL d   1      -2.077   0.879  -2.029  0.00  0.00    -0.060 I 
ATOM     10  F2  UNL d   1       0.782   2.220  -1.506  0.00  0.00    -0.096 F 
ATOM     11  F3  UNL d   1       2.772   1.598   0.222  0.00  0.00    -0.097 F 
ATOM     12  F4  UNL d   1       2.510  -0.519   1.923  0.00  0.00    -0.092 F 
ENDROOT
TORSDOF 0
ENDMDL
