MODEL 1
REMARK minimizedAffinity -3.67914057
REMARK minimizedRMSD -1
REMARK  0 active torsions:
REMARK  status: ('A' for Active; 'I' for Inactive)
ROOT
ATOM      1  C   UNL d   1       1.527  -0.470   1.072  0.00  0.00     0.124 A 
ATOM      2  C1  UNL d   1       1.611   0.553   0.138  0.00  0.00     0.062 A 
ATOM      3  C2  UNL d   1       0.463   1.017  -0.498  0.00  0.00     0.162 A 
ATOM      4  C3  UNL d   1      -0.780   0.459  -0.201  0.00  0.00    -0.034 A 
ATOM      5  C4  UNL d   1      -0.857  -0.571   0.739  0.00  0.00     0.162 A 
ATOM      6  C5  UNL d   1       0.293  -1.031   1.372  0.00  0.00     0.062 A 
ATOM      7  F   UNL d   1       0.210  -2.020   2.273  0.00  0.00    -0.097 F 
ATOM      8  F1  UNL d   1      -2.036  -1.130   1.048  0.00  0.00    -0.096 F 
ATOM      9  I   UNL d   1      -2.499   1.149  -1.149  0.00  0.00    -0.060 I 
ATOM     10  F2  UNL d   1       0.574   2.007  -1.396  0.00  0.00    -0.096 F 
ATOM     11  F3  UNL d   1       2.802   1.097  -0.154  0.00  0.00    -0.097 F 
ATOM     12  F4  UNL d   1       2.633  -0.915   1.681  0.00  0.00    -0.092 F 
ENDROOT
TORSDOF 0
ENDMDL
