MODEL 1
REMARK minimizedAffinity 0.865127206
REMARK minimizedRMSD -1
REMARK  0 active torsions:
REMARK  status: ('A' for Active; 'I' for Inactive)
ROOT
ATOM      1  C   UNL d   1       1.482  -0.226   1.303  0.00  0.00     0.124 A 
ATOM      2  C1  UNL d   1       0.381  -1.069   1.239  0.00  0.00     0.062 A 
ATOM      3  C2  UNL d   1      -0.719  -0.727   0.459  0.00  0.00     0.162 A 
ATOM      4  C3  UNL d   1      -0.724   0.465  -0.266  0.00  0.00    -0.034 A 
ATOM      5  C4  UNL d   1       0.387   1.309  -0.197  0.00  0.00     0.162 A 
ATOM      6  C5  UNL d   1       1.484   0.961   0.585  0.00  0.00     0.062 A 
ATOM      7  F   UNL d   1       2.546   1.777   0.646  0.00  0.00    -0.097 F 
ATOM      8  F1  UNL d   1       0.415   2.462  -0.881  0.00  0.00    -0.096 F 
ATOM      9  I   UNL d   1      -2.367   0.981  -1.435  0.00  0.00    -0.060 I 
ATOM     10  F2  UNL d   1      -1.769  -1.560   0.416  0.00  0.00    -0.096 F 
ATOM     11  F3  UNL d   1       0.376  -2.217   1.933  0.00  0.00    -0.097 F 
ATOM     12  F4  UNL d   1       2.538  -0.558   2.056  0.00  0.00    -0.092 F 
ENDROOT
TORSDOF 0
ENDMDL
