MODEL 1
REMARK minimizedAffinity 0.42034477
REMARK minimizedRMSD -1
REMARK  0 active torsions:
REMARK  status: ('A' for Active; 'I' for Inactive)
ROOT
ATOM      1  C   UNL d   1       1.601  -0.485   1.841  0.00  0.00     0.124 A 
ATOM      2  C1  UNL d   1       1.638   0.709   1.136  0.00  0.00     0.062 A 
ATOM      3  C2  UNL d   1       0.572   1.073   0.319  0.00  0.00     0.162 A 
ATOM      4  C3  UNL d   1      -0.542   0.242   0.204  0.00  0.00    -0.034 A 
ATOM      5  C4  UNL d   1      -0.572  -0.959   0.915  0.00  0.00     0.162 A 
ATOM      6  C5  UNL d   1       0.497  -1.318   1.730  0.00  0.00     0.062 A 
ATOM      7  F   UNL d   1       0.459  -2.473   2.411  0.00  0.00    -0.097 F 
ATOM      8  F1  UNL d   1      -1.627  -1.782   0.827  0.00  0.00    -0.096 F 
ATOM      9  I   UNL d   1      -2.139   0.783  -1.017  0.00  0.00    -0.060 I 
ATOM     10  F2  UNL d   1       0.635   2.234  -0.351  0.00  0.00    -0.096 F 
ATOM     11  F3  UNL d   1       2.705   1.515   1.240  0.00  0.00    -0.097 F 
ATOM     12  F4  UNL d   1       2.629  -0.834   2.626  0.00  0.00    -0.092 F 
ENDROOT
TORSDOF 0
ENDMDL
