MODEL 1
REMARK minimizedAffinity 1.32805789
REMARK minimizedRMSD -1
REMARK  3 active torsions:
REMARK  status: ('A' for Active; 'I' for Inactive)
REMARK    1  A    between atoms: C3'_2  and  C2'_3 
REMARK    2  A    between atoms: C2'_3  and  C1'_4 
REMARK    3  A    between atoms: C1'_4  and  C1_5 
ROOT
ATOM      1  C1  N4B d   1       2.675   2.378   1.128  0.00  0.00    -0.075 A 
ATOM      2  C2  N4B d   1       2.378   2.082   2.477  0.00  0.00     0.002 A 
ATOM      3  C3  N4B d   1       1.071   1.996   2.889  0.00  0.00     0.002 A 
ATOM      4  C4  N4B d   1       0.049   2.220   1.979  0.00  0.00    -0.004 A 
ATOM      5  C5  N4B d   1       0.344   2.480   0.673  0.00  0.00     0.002 A 
ATOM      6  C6  N4B d   1       1.653   2.566   0.244  0.00  0.00     0.002 A 
ENDROOT
BRANCH   1   7
ATOM      7  C1' N4B d   1       4.089   2.568   0.649  0.00  0.00     0.057 C 
BRANCH   7   8
ATOM      8  C2' N4B d   1       4.495   4.025   0.850  0.00  0.00     0.009 C 
BRANCH   8   9
ATOM      9  C3' N4B d   1       5.699   4.158   1.766  0.00  0.00     0.004 C 
ATOM     10  C4' N4B d   1       5.389   4.907   3.028  0.00  0.00     0.003 C 
ENDBRANCH   8   9
ENDBRANCH   7   8
ENDBRANCH   1   7
TORSDOF 3
ENDMDL
