MODEL 1
REMARK minimizedAffinity 6.54458427
REMARK minimizedRMSD -1
REMARK  3 active torsions:
REMARK  status: ('A' for Active; 'I' for Inactive)
REMARK    1  A    between atoms: C3'_2  and  C2'_3 
REMARK    2  A    between atoms: C2'_3  and  C1'_4 
REMARK    3  A    between atoms: C1'_4  and  C1_5 
ROOT
ATOM      1  C1  N4B d   1       3.670   3.378   1.111  0.00  0.00    -0.075 A 
ATOM      2  C2  N4B d   1       4.786   3.715   1.908  0.00  0.00     0.002 A 
ATOM      3  C3  N4B d   1       5.204   5.021   1.987  0.00  0.00     0.002 A 
ATOM      4  C4  N4B d   1       4.536   6.000   1.266  0.00  0.00    -0.004 A 
ATOM      5  C5  N4B d   1       3.444   5.670   0.519  0.00  0.00     0.002 A 
ATOM      6  C6  N4B d   1       3.010   4.362   0.433  0.00  0.00     0.002 A 
ENDROOT
BRANCH   1   7
ATOM      7  C1' N4B d   1       3.228   1.953   0.925  0.00  0.00     0.057 C 
BRANCH   7   8
ATOM      8  C2' N4B d   1       1.907   1.738   1.657  0.00  0.00     0.009 C 
BRANCH   8   9
ATOM      9  C3' N4B d   1       0.737   1.624   0.696  0.00  0.00     0.004 C 
ATOM     10  C4' N4B d   1      -0.448   2.439   1.123  0.00  0.00     0.003 C 
ENDBRANCH   8   9
ENDBRANCH   7   8
ENDBRANCH   1   7
TORSDOF 3
ENDMDL
