MODEL 1
REMARK minimizedAffinity 2.5283885
REMARK minimizedRMSD -1
REMARK  3 active torsions:
REMARK  status: ('A' for Active; 'I' for Inactive)
REMARK    1  A    between atoms: C3'_2  and  C2'_3 
REMARK    2  A    between atoms: C2'_3  and  C1'_4 
REMARK    3  A    between atoms: C1'_4  and  C1_5 
ROOT
ATOM      1  C1  N4B d   1       5.267  -4.108  -4.422  0.00  0.00    -0.075 A 
ATOM      2  C2  N4B d   1       3.861  -4.240  -4.390  0.00  0.00     0.002 A 
ATOM      3  C3  N4B d   1       3.243  -5.188  -5.167  0.00  0.00     0.002 A 
ATOM      4  C4  N4B d   1       4.004  -6.000  -5.994  0.00  0.00    -0.004 A 
ATOM      5  C5  N4B d   1       5.364  -5.883  -6.000  0.00  0.00     0.002 A 
ATOM      6  C6  N4B d   1       5.999  -4.937  -5.221  0.00  0.00     0.002 A 
ENDROOT
BRANCH   1   7
ATOM      7  C1' N4B d   1       5.981  -3.028  -3.655  0.00  0.00     0.057 C 
BRANCH   7   8
ATOM      8  C2' N4B d   1       5.076  -2.530  -2.532  0.00  0.00     0.009 C 
BRANCH   8   9
ATOM      9  C3' N4B d   1       5.142  -3.428  -1.308  0.00  0.00     0.004 C 
ATOM     10  C4' N4B d   1       3.786  -3.827  -0.807  0.00  0.00     0.003 C 
ENDBRANCH   8   9
ENDBRANCH   7   8
ENDBRANCH   1   7
TORSDOF 3
ENDMDL
