MODEL 1
REMARK minimizedAffinity 16.1286411
REMARK minimizedRMSD -1
REMARK  3 active torsions:
REMARK  status: ('A' for Active; 'I' for Inactive)
REMARK    1  A    between atoms: C3'_2  and  C2'_3 
REMARK    2  A    between atoms: C2'_3  and  C1'_4 
REMARK    3  A    between atoms: C1'_4  and  C1_5 
ROOT
ATOM      1  C1  N4B d   1      -0.536   1.582   1.975  0.00  0.00    -0.075 A 
ATOM      2  C2  N4B d   1       0.564   1.589   2.860  0.00  0.00     0.002 A 
ATOM      3  C3  N4B d   1       1.819   1.896   2.394  0.00  0.00     0.002 A 
ATOM      4  C4  N4B d   1       2.000   2.180   1.049  0.00  0.00    -0.004 A 
ATOM      5  C5  N4B d   1       0.928   2.197   0.205  0.00  0.00     0.002 A 
ATOM      6  C6  N4B d   1      -0.339   1.894   0.661  0.00  0.00     0.002 A 
ENDROOT
BRANCH   1   7
ATOM      7  C1' N4B d   1      -1.912   1.169   2.421  0.00  0.00     0.057 C 
BRANCH   7   8
ATOM      8  C2' N4B d   1      -1.861  -0.266   2.936  0.00  0.00     0.009 C 
BRANCH   8   9
ATOM      9  C3' N4B d   1      -1.833  -1.276   1.801  0.00  0.00     0.004 C 
ATOM     10  C4' N4B d   1      -1.633  -2.683   2.281  0.00  0.00     0.003 C 
ENDBRANCH   8   9
ENDBRANCH   7   8
ENDBRANCH   1   7
TORSDOF 3
ENDMDL
