MODEL 1
REMARK minimizedAffinity 18.1178722
REMARK minimizedRMSD -1
REMARK  3 active torsions:
REMARK  status: ('A' for Active; 'I' for Inactive)
REMARK    1  A    between atoms: C3'_2  and  C2'_3 
REMARK    2  A    between atoms: C2'_3  and  C1'_4 
REMARK    3  A    between atoms: C1'_4  and  C1_5 
ROOT
ATOM      1  C1  N4B d   1       4.032  -3.991  -4.938  0.00  0.00    -0.075 A 
ATOM      2  C2  N4B d   1       3.979  -4.921  -6.000  0.00  0.00     0.002 A 
ATOM      3  C3  N4B d   1       3.026  -5.909  -6.000  0.00  0.00     0.002 A 
ATOM      4  C4  N4B d   1       2.131  -5.999  -4.944  0.00  0.00    -0.004 A 
ATOM      5  C5  N4B d   1       2.173  -5.081  -3.935  0.00  0.00     0.002 A 
ATOM      6  C6  N4B d   1       3.123  -4.080  -3.925  0.00  0.00     0.002 A 
ENDROOT
BRANCH   1   7
ATOM      7  C1' N4B d   1       5.110  -2.945  -4.852  0.00  0.00     0.057 C 
BRANCH   7   8
ATOM      8  C2' N4B d   1       4.976  -2.196  -3.529  0.00  0.00     0.009 C 
BRANCH   8   9
ATOM      9  C3' N4B d   1       5.422  -3.043  -2.349  0.00  0.00     0.004 C 
ATOM     10  C4' N4B d   1       4.284  -3.448  -1.461  0.00  0.00     0.003 C 
ENDBRANCH   8   9
ENDBRANCH   7   8
ENDBRANCH   1   7
TORSDOF 3
ENDMDL
