MODEL 1
REMARK minimizedAffinity 11.3112125
REMARK minimizedRMSD -1
REMARK  3 active torsions:
REMARK  status: ('A' for Active; 'I' for Inactive)
REMARK    1  A    between atoms: C3'_2  and  C2'_3 
REMARK    2  A    between atoms: C2'_3  and  C1'_4 
REMARK    3  A    between atoms: C1'_4  and  C1_5 
ROOT
ATOM      1  C1  N4B d   1       3.339  -5.210  -3.365  0.00  0.00    -0.075 A 
ATOM      2  C2  N4B d   1       4.100  -4.621  -4.398  0.00  0.00     0.002 A 
ATOM      3  C3  N4B d   1       3.678  -4.716  -5.702  0.00  0.00     0.002 A 
ATOM      4  C4  N4B d   1       2.514  -5.409  -5.997  0.00  0.00    -0.004 A 
ATOM      5  C5  N4B d   1       1.771  -5.954  -4.990  0.00  0.00     0.002 A 
ATOM      6  C6  N4B d   1       2.181  -5.862  -3.675  0.00  0.00     0.002 A 
ENDROOT
BRANCH   1   7
ATOM      7  C1' N4B d   1       3.805  -5.207  -1.935  0.00  0.00     0.057 C 
BRANCH   7   8
ATOM      8  C2' N4B d   1       2.639  -4.820  -1.030  0.00  0.00     0.009 C 
BRANCH   8   9
ATOM      9  C3' N4B d   1       1.726  -6.000  -0.745  0.00  0.00     0.004 C 
ATOM     10  C4' N4B d   1       0.274  -5.624  -0.748  0.00  0.00     0.003 C 
ENDBRANCH   8   9
ENDBRANCH   7   8
ENDBRANCH   1   7
TORSDOF 3
ENDMDL
