MODEL 1
REMARK minimizedAffinity 8.64196873
REMARK minimizedRMSD -1
REMARK  3 active torsions:
REMARK  status: ('A' for Active; 'I' for Inactive)
REMARK    1  A    between atoms: C3'_2  and  C2'_3 
REMARK    2  A    between atoms: C2'_3  and  C1'_4 
REMARK    3  A    between atoms: C1'_4  and  C1_5 
ROOT
ATOM      1  C1  N4B d   1       1.974   1.646  -1.484  0.00  0.00    -0.075 A 
ATOM      2  C2  N4B d   1       0.990   1.523  -0.478  0.00  0.00     0.002 A 
ATOM      3  C3  N4B d   1       1.351   1.566   0.846  0.00  0.00     0.002 A 
ATOM      4  C4  N4B d   1       2.688   1.711   1.187  0.00  0.00    -0.004 A 
ATOM      5  C5  N4B d   1       3.629   1.854   0.211  0.00  0.00     0.002 A 
ATOM      6  C6  N4B d   1       3.280   1.817  -1.124  0.00  0.00     0.002 A 
ENDROOT
BRANCH   1   7
ATOM      7  C1' N4B d   1       1.638   1.519  -2.944  0.00  0.00     0.057 C 
BRANCH   7   8
ATOM      8  C2' N4B d   1       0.123   1.430  -3.103  0.00  0.00     0.009 C 
BRANCH   8   9
ATOM      9  C3' N4B d   1      -0.463   2.707  -3.682  0.00  0.00     0.004 C 
ATOM     10  C4' N4B d   1      -1.917   2.575  -4.026  0.00  0.00     0.003 C 
ENDBRANCH   8   9
ENDBRANCH   7   8
ENDBRANCH   1   7
TORSDOF 3
ENDMDL
