MODEL 1
REMARK minimizedAffinity 0.8159585
REMARK minimizedRMSD -1
REMARK  3 active torsions:
REMARK  status: ('A' for Active; 'I' for Inactive)
REMARK    1  A    between atoms: C3'_2  and  C2'_3 
REMARK    2  A    between atoms: C2'_3  and  C1'_4 
REMARK    3  A    between atoms: C1'_4  and  C1_5 
ROOT
ATOM      1  C1  N4B d   1       3.584  -5.631  -3.382  0.00  0.00    -0.075 A 
ATOM      2  C2  N4B d   1       2.652  -5.633  -4.443  0.00  0.00     0.002 A 
ATOM      3  C3  N4B d   1       3.083  -5.806  -5.736  0.00  0.00     0.002 A 
ATOM      4  C4  N4B d   1       4.437  -5.960  -5.992  0.00  0.00    -0.004 A 
ATOM      5  C5  N4B d   1       5.328  -5.983  -4.960  0.00  0.00     0.002 A 
ATOM      6  C6  N4B d   1       4.909  -5.814  -3.655  0.00  0.00     0.002 A 
ENDROOT
BRANCH   1   7
ATOM      7  C1' N4B d   1       3.170  -5.360  -1.962  0.00  0.00     0.057 C 
BRANCH   7   8
ATOM      8  C2' N4B d   1       4.042  -4.246  -1.390  0.00  0.00     0.009 C 
BRANCH   8   9
ATOM      9  C3' N4B d   1       5.268  -3.986  -2.250  0.00  0.00     0.004 C 
ATOM     10  C4' N4B d   1       5.276  -2.611  -2.847  0.00  0.00     0.003 C 
ENDBRANCH   8   9
ENDBRANCH   7   8
ENDBRANCH   1   7
TORSDOF 3
ENDMDL
