MODEL 1
REMARK minimizedAffinity 11.7052984
REMARK minimizedRMSD -1
REMARK  3 active torsions:
REMARK  status: ('A' for Active; 'I' for Inactive)
REMARK    1  A    between atoms: C3'_2  and  C2'_3 
REMARK    2  A    between atoms: C2'_3  and  C1'_4 
REMARK    3  A    between atoms: C1'_4  and  C1_5 
ROOT
ATOM      1  C1  N4B d   1      -2.487  -3.902  -1.338  0.00  0.00    -0.075 A 
ATOM      2  C2  N4B d   1      -3.697  -4.538  -0.984  0.00  0.00     0.002 A 
ATOM      3  C3  N4B d   1      -3.838  -5.101   0.261  0.00  0.00     0.002 A 
ATOM      4  C4  N4B d   1      -2.781  -5.057   1.158  0.00  0.00    -0.004 A 
ATOM      5  C5  N4B d   1      -1.625  -4.419   0.817  0.00  0.00     0.002 A 
ATOM      6  C6  N4B d   1      -1.470  -3.845  -0.429  0.00  0.00     0.002 A 
ENDROOT
BRANCH   1   7
ATOM      7  C1' N4B d   1      -2.255  -3.348  -2.717  0.00  0.00     0.057 C 
BRANCH   7   8
ATOM      8  C2' N4B d   1      -1.497  -2.029  -2.605  0.00  0.00     0.009 C 
BRANCH   8   9
ATOM      9  C3' N4B d   1      -1.891  -1.053  -3.700  0.00  0.00     0.004 C 
ATOM     10  C4' N4B d   1      -1.113   0.229  -3.644  0.00  0.00     0.003 C 
ENDBRANCH   8   9
ENDBRANCH   7   8
ENDBRANCH   1   7
TORSDOF 3
ENDMDL
