MODEL 1
REMARK minimizedAffinity 10.4435539
REMARK minimizedRMSD -1
REMARK  3 active torsions:
REMARK  status: ('A' for Active; 'I' for Inactive)
REMARK    1  A    between atoms: C3'_2  and  C2'_3 
REMARK    2  A    between atoms: C2'_3  and  C1'_4 
REMARK    3  A    between atoms: C1'_4  and  C1_5 
ROOT
ATOM      1  C1  N4B d   1      -0.939  -4.170   1.680  0.00  0.00    -0.075 A 
ATOM      2  C2  N4B d   1      -1.373  -3.276   0.676  0.00  0.00     0.002 A 
ATOM      3  C3  N4B d   1      -2.431  -3.612  -0.132  0.00  0.00     0.002 A 
ATOM      4  C4  N4B d   1      -3.056  -4.839   0.031  0.00  0.00    -0.004 A 
ATOM      5  C5  N4B d   1      -2.647  -5.686   1.019  0.00  0.00     0.002 A 
ATOM      6  C6  N4B d   1      -1.587  -5.360   1.842  0.00  0.00     0.002 A 
ENDROOT
BRANCH   1   7
ATOM      7  C1' N4B d   1       0.268  -3.883   2.531  0.00  0.00     0.057 C 
BRANCH   7   8
ATOM      8  C2' N4B d   1       1.433  -3.485   1.630  0.00  0.00     0.009 C 
BRANCH   8   9
ATOM      9  C3' N4B d   1       2.243  -4.690   1.184  0.00  0.00     0.004 C 
ATOM     10  C4' N4B d   1       2.957  -4.462  -0.115  0.00  0.00     0.003 C 
ENDBRANCH   8   9
ENDBRANCH   7   8
ENDBRANCH   1   7
TORSDOF 3
ENDMDL
