MODEL 1
REMARK minimizedAffinity 4.25363779
REMARK minimizedRMSD -1
REMARK  3 active torsions:
REMARK  status: ('A' for Active; 'I' for Inactive)
REMARK    1  A    between atoms: C3'_2  and  C2'_3 
REMARK    2  A    between atoms: C2'_3  and  C1'_4 
REMARK    3  A    between atoms: C1'_4  and  C1_5 
ROOT
ATOM      1  C1  N4B d   1       2.361   1.246  -0.976  0.00  0.00    -0.075 A 
ATOM      2  C2  N4B d   1       2.558   0.018  -0.308  0.00  0.00     0.002 A 
ATOM      3  C3  N4B d   1       2.360  -1.166  -0.975  0.00  0.00     0.002 A 
ATOM      4  C4  N4B d   1       1.949  -1.146  -2.300  0.00  0.00    -0.004 A 
ATOM      5  C5  N4B d   1       1.786   0.045  -2.945  0.00  0.00     0.002 A 
ATOM      6  C6  N4B d   1       1.985   1.242  -2.288  0.00  0.00     0.002 A 
ENDROOT
BRANCH   1   7
ATOM      7  C1' N4B d   1       2.482   2.566  -0.264  0.00  0.00     0.057 C 
BRANCH   7   8
ATOM      8  C2' N4B d   1       1.516   2.588   0.917  0.00  0.00     0.009 C 
BRANCH   8   9
ATOM      9  C3' N4B d   1       0.131   3.058   0.510  0.00  0.00     0.004 C 
ATOM     10  C4' N4B d   1      -0.936   2.626   1.472  0.00  0.00     0.003 C 
ENDBRANCH   8   9
ENDBRANCH   7   8
ENDBRANCH   1   7
TORSDOF 3
ENDMDL
