MODEL 1
REMARK minimizedAffinity -4.7548337
REMARK minimizedRMSD -1
REMARK  0 active torsions:
REMARK  status: ('A' for Active; 'I' for Inactive)
ROOT
ATOM      1  C2' OXE d   1      -1.486  -0.914   1.114  0.00  0.00     0.078 C 
ATOM      2  C1' OXE d   1       0.793   0.342   0.060  0.00  0.00     0.078 C 
ATOM      3  C1  OXE d   1      -0.527   0.587  -0.627  0.00  0.00    -0.078 A 
ATOM      4  C2  OXE d   1      -1.629  -0.069  -0.133  0.00  0.00    -0.078 A 
ATOM      5  C3  OXE d   1      -2.880   0.165  -0.696  0.00  0.00     0.003 A 
ATOM      6  C4  OXE d   1      -3.002   0.940  -1.856  0.00  0.00    -0.002 A 
ATOM      7  C5  OXE d   1      -1.886   1.585  -2.399  0.00  0.00    -0.002 A 
ATOM      8  C6  OXE d   1      -0.651   1.453  -1.774  0.00  0.00     0.003 A 
ENDROOT
TORSDOF 0
ENDMDL
