MODEL 1
REMARK minimizedAffinity -6.11202765
REMARK minimizedRMSD -1
REMARK  0 active torsions:
REMARK  status: ('A' for Active; 'I' for Inactive)
ROOT
ATOM      1  C2' OXE d   1       1.975  -0.432  -0.813  0.00  0.00     0.078 C 
ATOM      2  C1' OXE d   1       1.302  -2.484   0.980  0.00  0.00     0.078 C 
ATOM      3  C1  OXE d   1       0.316  -1.358   0.797  0.00  0.00    -0.078 A 
ATOM      4  C2  OXE d   1       0.674  -0.334  -0.047  0.00  0.00    -0.078 A 
ATOM      5  C3  OXE d   1      -0.223   0.701  -0.294  0.00  0.00     0.003 A 
ATOM      6  C4  OXE d   1      -1.421   0.789   0.426  0.00  0.00    -0.002 A 
ATOM      7  C5  OXE d   1      -1.787  -0.223   1.320  0.00  0.00    -0.002 A 
ATOM      8  C6  OXE d   1      -0.951  -1.322   1.485  0.00  0.00     0.003 A 
ENDROOT
TORSDOF 0
ENDMDL
