MODEL 1
REMARK minimizedAffinity -4.9899044
REMARK minimizedRMSD -1
REMARK  0 active torsions:
REMARK  status: ('A' for Active; 'I' for Inactive)
ROOT
ATOM      1  C2' OXE d   1       2.302   0.137  -0.865  0.00  0.00     0.078 C 
ATOM      2  C1' OXE d   1       1.836  -1.618   1.276  0.00  0.00     0.078 C 
ATOM      3  C1  OXE d   1       0.790  -0.572   0.984  0.00  0.00    -0.078 A 
ATOM      4  C2  OXE d   1       1.048   0.312  -0.036  0.00  0.00    -0.078 A 
ATOM      5  C3  OXE d   1       0.091   1.263  -0.382  0.00  0.00     0.003 A 
ATOM      6  C4  OXE d   1      -1.061   1.425   0.396  0.00  0.00    -0.002 A 
ATOM      7  C5  OXE d   1      -1.324   0.560   1.464  0.00  0.00    -0.002 A 
ATOM      8  C6  OXE d   1      -0.431  -0.468   1.744  0.00  0.00     0.003 A 
ENDROOT
TORSDOF 0
ENDMDL
