MODEL 1
REMARK minimizedAffinity -2.61934876
REMARK minimizedRMSD -1
REMARK  0 active torsions:
REMARK  status: ('A' for Active; 'I' for Inactive)
ROOT
ATOM      1  C2' OXE d   1       1.005   0.270  -0.089  0.00  0.00     0.078 C 
ATOM      2  C1' OXE d   1      -1.462  -0.604   0.925  0.00  0.00     0.078 C 
ATOM      3  C1  OXE d   1      -1.474   0.234  -0.329  0.00  0.00    -0.078 A 
ATOM      4  C2  OXE d   1      -0.265   0.697  -0.791  0.00  0.00    -0.078 A 
ATOM      5  C3  OXE d   1      -0.215   1.429  -1.974  0.00  0.00     0.003 A 
ATOM      6  C4  OXE d   1      -1.395   1.827  -2.613  0.00  0.00    -0.002 A 
ATOM      7  C5  OXE d   1      -2.639   1.400  -2.136  0.00  0.00    -0.002 A 
ATOM      8  C6  OXE d   1      -2.693   0.570  -1.022  0.00  0.00     0.003 A 
ENDROOT
TORSDOF 0
ENDMDL
