MODEL 1
REMARK minimizedAffinity -0.0551245324
REMARK minimizedRMSD -1
REMARK  0 active torsions:
REMARK  status: ('A' for Active; 'I' for Inactive)
ROOT
ATOM      1  C2' OXE d   1      -0.623   1.590  -1.216  0.00  0.00     0.078 C 
ATOM      2  C1' OXE d   1      -1.281   0.186   1.124  0.00  0.00     0.078 C 
ATOM      3  C1  OXE d   1       0.102  -0.005   0.554  0.00  0.00    -0.078 A 
ATOM      4  C2  OXE d   1       0.400   0.650  -0.616  0.00  0.00    -0.078 A 
ATOM      5  C3  OXE d   1       1.680   0.552  -1.155  0.00  0.00     0.003 A 
ATOM      6  C4  OXE d   1       2.617  -0.328  -0.600  0.00  0.00    -0.002 A 
ATOM      7  C5  OXE d   1       2.321  -1.035   0.570  0.00  0.00    -0.002 A 
ATOM      8  C6  OXE d   1       1.085  -0.853   1.182  0.00  0.00     0.003 A 
ENDROOT
TORSDOF 0
ENDMDL
