MODEL 1
REMARK minimizedAffinity 1.33262074
REMARK minimizedRMSD -1
REMARK  0 active torsions:
REMARK  status: ('A' for Active; 'I' for Inactive)
ROOT
ATOM      1  C2' OXE d   1      -0.501  -0.561   0.601  0.00  0.00     0.078 C 
ATOM      2  C1' OXE d   1       1.349   1.304  -0.386  0.00  0.00     0.078 C 
ATOM      3  C1  OXE d   1      -0.015   1.260  -1.027  0.00  0.00    -0.078 A 
ATOM      4  C2  OXE d   1      -0.899   0.312  -0.569  0.00  0.00    -0.078 A 
ATOM      5  C3  OXE d   1      -2.190   0.265  -1.088  0.00  0.00     0.003 A 
ATOM      6  C4  OXE d   1      -2.546   1.070  -2.176  0.00  0.00    -0.002 A 
ATOM      7  C5  OXE d   1      -1.648   2.014  -2.685  0.00  0.00    -0.002 A 
ATOM      8  C6  OXE d   1      -0.396   2.151  -2.095  0.00  0.00     0.003 A 
ENDROOT
TORSDOF 0
ENDMDL
