MODEL 1
REMARK minimizedAffinity -1.23951757
REMARK minimizedRMSD -1
REMARK  0 active torsions:
REMARK  status: ('A' for Active; 'I' for Inactive)
ROOT
ATOM      1  C2' OXE d   1       2.301  -1.700   0.845  0.00  0.00     0.078 C 
ATOM      2  C1' OXE d   1       2.589   0.371  -1.029  0.00  0.00     0.078 C 
ATOM      3  C1  OXE d   1       1.260   0.235  -0.329  0.00  0.00    -0.078 A 
ATOM      4  C2  OXE d   1       1.113  -0.809   0.552  0.00  0.00    -0.078 A 
ATOM      5  C3  OXE d   1      -0.074  -0.948   1.266  0.00  0.00     0.003 A 
ATOM      6  C4  OXE d   1      -1.172  -0.126   0.981  0.00  0.00    -0.002 A 
ATOM      7  C5  OXE d   1      -1.056   0.919   0.059  0.00  0.00    -0.002 A 
ATOM      8  C6  OXE d   1       0.163   1.139  -0.572  0.00  0.00     0.003 A 
ENDROOT
TORSDOF 0
ENDMDL
