MODEL 1
REMARK minimizedAffinity 0.890714109
REMARK minimizedRMSD -1
REMARK  0 active torsions:
REMARK  status: ('A' for Active; 'I' for Inactive)
ROOT
ATOM      1  C2' OXE d   1      -2.540  -0.414  -0.708  0.00  0.00     0.078 C 
ATOM      2  C1' OXE d   1      -1.726  -0.487   1.978  0.00  0.00     0.078 C 
ATOM      3  C1  OXE d   1      -0.683  -0.171   0.935  0.00  0.00    -0.078 A 
ATOM      4  C2  OXE d   1      -1.080  -0.184  -0.380  0.00  0.00    -0.078 A 
ATOM      5  C3  OXE d   1      -0.171   0.155  -1.379  0.00  0.00     0.003 A 
ATOM      6  C4  OXE d   1       1.179   0.356  -1.068  0.00  0.00    -0.002 A 
ATOM      7  C5  OXE d   1       1.613   0.334   0.261  0.00  0.00    -0.002 A 
ATOM      8  C6  OXE d   1       0.689   0.114   1.276  0.00  0.00     0.003 A 
ENDROOT
TORSDOF 0
ENDMDL
