MODEL 1
REMARK minimizedAffinity -3.57855201
REMARK minimizedRMSD -1
REMARK  0 active torsions:
REMARK  status: ('A' for Active; 'I' for Inactive)
ROOT
ATOM      1  C2' OXE d   1      -0.424   1.332  -0.542  0.00  0.00     0.078 C 
ATOM      2  C1' OXE d   1      -1.306  -0.145   1.676  0.00  0.00     0.078 C 
ATOM      3  C1  OXE d   1       0.043  -0.486   1.096  0.00  0.00    -0.078 A 
ATOM      4  C2  OXE d   1       0.447   0.211  -0.018  0.00  0.00    -0.078 A 
ATOM      5  C3  OXE d   1       1.707  -0.026  -0.560  0.00  0.00     0.003 A 
ATOM      6  C4  OXE d   1       2.501  -1.072  -0.076  0.00  0.00    -0.002 A 
ATOM      7  C5  OXE d   1       2.092  -1.820   1.033  0.00  0.00    -0.002 A 
ATOM      8  C6  OXE d   1       0.887  -1.512   1.656  0.00  0.00     0.003 A 
ENDROOT
TORSDOF 0
ENDMDL
