MODEL 1
REMARK minimizedAffinity -1.96712673
REMARK minimizedRMSD -1
REMARK  0 active torsions:
REMARK  status: ('A' for Active; 'I' for Inactive)
ROOT
ATOM      1  C2' OXE d   1       0.503   1.198  -0.012  0.00  0.00     0.078 C 
ATOM      2  C1' OXE d   1      -1.762  -0.440   0.240  0.00  0.00     0.078 C 
ATOM      3  C1  OXE d   1      -1.699   0.496  -0.941  0.00  0.00    -0.078 A 
ATOM      4  C2  OXE d   1      -0.608   1.327  -1.031  0.00  0.00    -0.078 A 
ATOM      5  C3  OXE d   1      -0.474   2.172  -2.129  0.00  0.00     0.003 A 
ATOM      6  C4  OXE d   1      -1.511   2.292  -3.062  0.00  0.00    -0.002 A 
ATOM      7  C5  OXE d   1      -2.649   1.483  -2.967  0.00  0.00    -0.002 A 
ATOM      8  C6  OXE d   1      -2.739   0.552  -1.938  0.00  0.00     0.003 A 
ENDROOT
TORSDOF 0
ENDMDL
