MODEL 1
REMARK minimizedAffinity -4.02465391
REMARK minimizedRMSD -1
REMARK  0 active torsions:
REMARK  status: ('A' for Active; 'I' for Inactive)
ROOT
ATOM      1  C2' OXE d   1      -0.687   1.288  -1.182  0.00  0.00     0.078 C 
ATOM      2  C1' OXE d   1      -1.547  -0.914   0.330  0.00  0.00     0.078 C 
ATOM      3  C1  OXE d   1      -0.062  -0.707   0.171  0.00  0.00    -0.078 A 
ATOM      4  C2  OXE d   1       0.350   0.346  -0.609  0.00  0.00    -0.078 A 
ATOM      5  C3  OXE d   1       1.709   0.615  -0.744  0.00  0.00     0.003 A 
ATOM      6  C4  OXE d   1       2.661  -0.267  -0.219  0.00  0.00    -0.002 A 
ATOM      7  C5  OXE d   1       2.263  -1.369   0.546  0.00  0.00    -0.002 A 
ATOM      8  C6  OXE d   1       0.909  -1.578   0.786  0.00  0.00     0.003 A 
ENDROOT
TORSDOF 0
ENDMDL
