MODEL 1
REMARK minimizedAffinity 2.32876635
REMARK minimizedRMSD -1
REMARK  0 active torsions:
REMARK  status: ('A' for Active; 'I' for Inactive)
ROOT
ATOM      1  C2' OXE d   1       2.271  -0.749   0.753  0.00  0.00     0.078 C 
ATOM      2  C1' OXE d   1       2.657   1.841  -0.257  0.00  0.00     0.078 C 
ATOM      3  C1  OXE d   1       1.412   1.101  -0.677  0.00  0.00    -0.078 A 
ATOM      4  C2  OXE d   1       1.254  -0.183  -0.215  0.00  0.00    -0.078 A 
ATOM      5  C3  OXE d   1       0.097  -0.891  -0.528  0.00  0.00     0.003 A 
ATOM      6  C4  OXE d   1      -0.833  -0.364  -1.432  0.00  0.00    -0.002 A 
ATOM      7  C5  OXE d   1      -0.672   0.927  -1.945  0.00  0.00    -0.002 A 
ATOM      8  C6  OXE d   1       0.421   1.688  -1.545  0.00  0.00     0.003 A 
ENDROOT
TORSDOF 0
ENDMDL
