MODEL 1
REMARK minimizedAffinity -6.32336044
REMARK minimizedRMSD -1
REMARK  0 active torsions:
REMARK  status: ('A' for Active; 'I' for Inactive)
ROOT
ATOM      1  C2' OXE d   1      -1.114  -2.717   2.655  0.00  0.00     0.078 C 
ATOM      2  C1' OXE d   1       1.388  -3.024   1.420  0.00  0.00     0.078 C 
ATOM      3  C1  OXE d   1       0.545  -1.841   1.016  0.00  0.00    -0.078 A 
ATOM      4  C2  OXE d   1      -0.698  -1.724   1.591  0.00  0.00    -0.078 A 
ATOM      5  C3  OXE d   1      -1.494  -0.622   1.294  0.00  0.00     0.003 A 
ATOM      6  C4  OXE d   1      -1.106   0.286   0.301  0.00  0.00    -0.002 A 
ATOM      7  C5  OXE d   1       0.138   0.164  -0.326  0.00  0.00    -0.002 A 
ATOM      8  C6  OXE d   1       0.992  -0.868   0.050  0.00  0.00     0.003 A 
ENDROOT
TORSDOF 0
ENDMDL
