MODEL 1
REMARK minimizedAffinity -2.13823795
REMARK minimizedRMSD -1
REMARK  0 active torsions:
REMARK  status: ('A' for Active; 'I' for Inactive)
ROOT
ATOM      1  C2' OXE d   1      -2.494  -1.237   0.460  0.00  0.00     0.078 C 
ATOM      2  C1' OXE d   1      -0.283   0.481   0.666  0.00  0.00     0.078 C 
ATOM      3  C1  OXE d   1      -1.267   0.731  -0.450  0.00  0.00    -0.078 A 
ATOM      4  C2  OXE d   1      -2.321  -0.143  -0.571  0.00  0.00    -0.078 A 
ATOM      5  C3  OXE d   1      -3.287   0.075  -1.549  0.00  0.00     0.003 A 
ATOM      6  C4  OXE d   1      -3.114   1.083  -2.505  0.00  0.00    -0.002 A 
ATOM      7  C5  OXE d   1      -2.027   1.960  -2.423  0.00  0.00    -0.002 A 
ATOM      8  C6  OXE d   1      -1.119   1.824  -1.379  0.00  0.00     0.003 A 
ENDROOT
TORSDOF 0
ENDMDL
