MODEL 1
REMARK minimizedAffinity -5.61780214
REMARK minimizedRMSD -1
REMARK  0 active torsions:
REMARK  status: ('A' for Active; 'I' for Inactive)
ROOT
ATOM      1  C2' OXE d   1      -1.336   0.402   0.083  0.00  0.00     0.078 C 
ATOM      2  C1' OXE d   1       1.270  -0.345  -0.644  0.00  0.00     0.078 C 
ATOM      3  C1  OXE d   1       0.691  -0.946   0.612  0.00  0.00    -0.078 A 
ATOM      4  C2  OXE d   1      -0.568  -0.539   0.985  0.00  0.00    -0.078 A 
ATOM      5  C3  OXE d   1      -1.171  -1.104   2.105  0.00  0.00     0.003 A 
ATOM      6  C4  OXE d   1      -0.450  -1.967   2.940  0.00  0.00    -0.002 A 
ATOM      7  C5  OXE d   1       0.848  -2.363   2.600  0.00  0.00    -0.002 A 
ATOM      8  C6  OXE d   1       1.416  -1.896   1.419  0.00  0.00     0.003 A 
ENDROOT
TORSDOF 0
ENDMDL
