MODEL 1
REMARK minimizedAffinity -0.455839097
REMARK minimizedRMSD -1
REMARK  0 active torsions:
REMARK  status: ('A' for Active; 'I' for Inactive)
ROOT
ATOM      1  C2' OXE d   1       1.280  -1.699   2.943  0.00  0.00     0.078 C 
ATOM      2  C1' OXE d   1      -1.471  -1.159   3.072  0.00  0.00     0.078 C 
ATOM      3  C1  OXE d   1      -0.722  -0.704   1.845  0.00  0.00    -0.078 A 
ATOM      4  C2  OXE d   1       0.633  -0.931   1.811  0.00  0.00    -0.078 A 
ATOM      5  C3  OXE d   1       1.363  -0.580   0.679  0.00  0.00     0.003 A 
ATOM      6  C4  OXE d   1       0.758   0.138  -0.359  0.00  0.00    -0.002 A 
ATOM      7  C5  OXE d   1      -0.613   0.415  -0.327  0.00  0.00    -0.002 A 
ATOM      8  C6  OXE d   1      -1.374  -0.035   0.746  0.00  0.00     0.003 A 
ENDROOT
TORSDOF 0
ENDMDL
