MODEL 1
REMARK minimizedAffinity -3.85505104
REMARK minimizedRMSD -1
REMARK  0 active torsions:
REMARK  status: ('A' for Active; 'I' for Inactive)
ROOT
ATOM      1  C2' OXE d   1       1.883   0.115  -0.974  0.00  0.00     0.078 C 
ATOM      2  C1' OXE d   1       1.853  -1.507   1.317  0.00  0.00     0.078 C 
ATOM      3  C1  OXE d   1       0.609  -0.715   0.999  0.00  0.00    -0.078 A 
ATOM      4  C2  OXE d   1       0.649   0.112  -0.098  0.00  0.00    -0.078 A 
ATOM      5  C3  OXE d   1      -0.489   0.822  -0.467  0.00  0.00     0.003 A 
ATOM      6  C4  OXE d   1      -1.623   0.821   0.354  0.00  0.00    -0.002 A 
ATOM      7  C5  OXE d   1      -1.671   0.017   1.498  0.00  0.00    -0.002 A 
ATOM      8  C6  OXE d   1      -0.581  -0.788   1.810  0.00  0.00     0.003 A 
ENDROOT
TORSDOF 0
ENDMDL
