MODEL 1
REMARK minimizedAffinity -5.47309256
REMARK minimizedRMSD -1
REMARK  0 active torsions:
REMARK  status: ('A' for Active; 'I' for Inactive)
ROOT
ATOM      1  C2' OXE d   1       2.037  -2.286   1.730  0.00  0.00     0.078 C 
ATOM      2  C1' OXE d   1      -0.427  -2.303   3.074  0.00  0.00     0.078 C 
ATOM      3  C1  OXE d   1      -0.256  -1.334   1.931  0.00  0.00    -0.078 A 
ATOM      4  C2  OXE d   1       0.969  -1.300   1.309  0.00  0.00    -0.078 A 
ATOM      5  C3  OXE d   1       1.163  -0.464   0.213  0.00  0.00     0.003 A 
ATOM      6  C4  OXE d   1       0.173   0.452  -0.164  0.00  0.00    -0.002 A 
ATOM      7  C5  OXE d   1      -1.068   0.461   0.482  0.00  0.00    -0.002 A 
ATOM      8  C6  OXE d   1      -1.313  -0.453   1.501  0.00  0.00     0.003 A 
ENDROOT
TORSDOF 0
ENDMDL
