MODEL 1
REMARK minimizedAffinity 1.29981625
REMARK minimizedRMSD -1
REMARK  1 active torsions:
REMARK  status: ('A' for Active; 'I' for Inactive)
REMARK    1  A    between atoms: C1_2  and  C2_3 
ROOT
ATOM      1  C2  UNL d   1      -0.115   2.363  -0.472  0.00  0.00    -0.081 A 
ATOM      2  C3  UNL d   1       0.149   1.046  -0.869  0.00  0.00     0.006 A 
ATOM      3  C4  UNL d   1       0.473   0.072   0.078  0.00  0.00     0.002 A 
ATOM      4  C5  UNL d   1       0.530   0.396   1.438  0.00  0.00    -0.080 A 
ATOM      5  C6  UNL d   1       0.847  -0.647   2.468  0.00  0.00     0.076 C 
ATOM      6  C7  UNL d   1       0.283   1.715   1.833  0.00  0.00     0.002 A 
ATOM      7  C8  UNL d   1      -0.040   2.690   0.886  0.00  0.00     0.006 A 
ENDROOT
BRANCH   1   8
ATOM      8  C1  UNL d   1      -0.528   3.401  -1.484  0.00  0.00     0.054 C 
ATOM      9  C   UNL d   1       0.499   4.521  -1.579  0.00  0.00     0.018 C 
ENDBRANCH   1   8
TORSDOF 1
ENDMDL
