MODEL 1
REMARK minimizedAffinity 4.48057032
REMARK minimizedRMSD -1
REMARK  1 active torsions:
REMARK  status: ('A' for Active; 'I' for Inactive)
REMARK    1  A    between atoms: C1_2  and  C2_3 
ROOT
ATOM      1  C2  UNL d   1       0.377   1.770  -0.231  0.00  0.00    -0.081 A 
ATOM      2  C3  UNL d   1       0.283   2.123   1.120  0.00  0.00     0.006 A 
ATOM      3  C4  UNL d   1       0.693   1.233   2.115  0.00  0.00     0.002 A 
ATOM      4  C5  UNL d   1       1.211  -0.022   1.776  0.00  0.00    -0.080 A 
ATOM      5  C6  UNL d   1       1.682  -0.976   2.833  0.00  0.00     0.076 C 
ATOM      6  C7  UNL d   1       1.288  -0.382   0.426  0.00  0.00     0.002 A 
ATOM      7  C8  UNL d   1       0.878   0.508  -0.569  0.00  0.00     0.006 A 
ENDROOT
BRANCH   1   8
ATOM      8  C1  UNL d   1      -0.004   2.753  -1.309  0.00  0.00     0.054 C 
ATOM      9  C   UNL d   1       0.400   4.171  -0.931  0.00  0.00     0.018 C 
ENDBRANCH   1   8
TORSDOF 1
ENDMDL
