MODEL 1
REMARK minimizedAffinity -6.03025389
REMARK minimizedRMSD -1
REMARK  1 active torsions:
REMARK  status: ('A' for Active; 'I' for Inactive)
REMARK    1  A    between atoms: C1_2  and  C2_3 
ROOT
ATOM      1  C2  UNL d   1      -0.304   2.327   0.742  0.00  0.00    -0.081 A 
ATOM      2  C3  UNL d   1      -0.170   3.714   0.607  0.00  0.00     0.006 A 
ATOM      3  C4  UNL d   1      -0.398   4.331  -0.626  0.00  0.00     0.002 A 
ATOM      4  C5  UNL d   1      -0.771   3.573  -1.741  0.00  0.00    -0.080 A 
ATOM      5  C6  UNL d   1      -1.049   4.227  -3.062  0.00  0.00     0.076 C 
ATOM      6  C7  UNL d   1      -0.888   2.185  -1.610  0.00  0.00     0.002 A 
ATOM      7  C8  UNL d   1      -0.659   1.568  -0.379  0.00  0.00     0.006 A 
ENDROOT
BRANCH   1   8
ATOM      8  C1  UNL d   1      -0.122   1.666   2.084  0.00  0.00     0.054 C 
ATOM      9  C   UNL d   1       0.690   0.384   1.964  0.00  0.00     0.018 C 
ENDBRANCH   1   8
TORSDOF 1
ENDMDL
