MODEL 1
REMARK minimizedAffinity 0.541113853
REMARK minimizedRMSD -1
REMARK  1 active torsions:
REMARK  status: ('A' for Active; 'I' for Inactive)
REMARK    1  A    between atoms: C1_2  and  C2_3 
ROOT
ATOM      1  C2  UNL d   1       0.614   3.633   0.311  0.00  0.00    -0.081 A 
ATOM      2  C3  UNL d   1       0.789   3.348   1.671  0.00  0.00     0.006 A 
ATOM      3  C4  UNL d   1       0.726   2.031   2.132  0.00  0.00     0.002 A 
ATOM      4  C5  UNL d   1       0.494   0.978   1.241  0.00  0.00    -0.080 A 
ATOM      5  C6  UNL d   1       0.453  -0.444   1.719  0.00  0.00     0.076 C 
ATOM      6  C7  UNL d   1       0.301   1.264  -0.115  0.00  0.00     0.002 A 
ATOM      7  C8  UNL d   1       0.364   2.581  -0.576  0.00  0.00     0.006 A 
ENDROOT
BRANCH   1   8
ATOM      8  C1  UNL d   1       0.747   5.046  -0.199  0.00  0.00     0.054 C 
ATOM      9  C   UNL d   1       0.707   5.090  -1.720  0.00  0.00     0.018 C 
ENDBRANCH   1   8
TORSDOF 1
ENDMDL
