MODEL 1
REMARK minimizedAffinity -1.41133869
REMARK minimizedRMSD -1
REMARK  1 active torsions:
REMARK  status: ('A' for Active; 'I' for Inactive)
REMARK    1  A    between atoms: C1_2  and  C2_3 
ROOT
ATOM      1  C2  UNL d   1      -0.529   4.034  -2.229  0.00  0.00    -0.081 A 
ATOM      2  C3  UNL d   1      -0.021   2.934  -1.526  0.00  0.00     0.006 A 
ATOM      3  C4  UNL d   1      -0.706   1.717  -1.525  0.00  0.00     0.002 A 
ATOM      4  C5  UNL d   1      -1.905   1.576  -2.231  0.00  0.00    -0.080 A 
ATOM      5  C6  UNL d   1      -2.635   0.266  -2.263  0.00  0.00     0.076 C 
ATOM      6  C7  UNL d   1      -2.422   2.680  -2.919  0.00  0.00     0.002 A 
ATOM      7  C8  UNL d   1      -1.738   3.897  -2.920  0.00  0.00     0.006 A 
ENDROOT
BRANCH   1   8
ATOM      8  C1  UNL d   1       0.240   5.329  -2.285  0.00  0.00     0.054 C 
ATOM      9  C   UNL d   1       0.300   5.997  -0.919  0.00  0.00     0.018 C 
ENDBRANCH   1   8
TORSDOF 1
ENDMDL
