MODEL 1
REMARK minimizedAffinity 3.73235202
REMARK minimizedRMSD -1
REMARK  1 active torsions:
REMARK  status: ('A' for Active; 'I' for Inactive)
REMARK    1  A    between atoms: C1_2  and  C2_3 
ROOT
ATOM      1  C2  UNL d   1       0.940   4.023   0.470  0.00  0.00    -0.081 A 
ATOM      2  C3  UNL d   1       0.724   5.405   0.405  0.00  0.00     0.006 A 
ATOM      3  C4  UNL d   1       0.281   5.998  -0.780  0.00  0.00     0.002 A 
ATOM      4  C5  UNL d   1       0.039   5.219  -1.916  0.00  0.00    -0.080 A 
ATOM      5  C6  UNL d   1      -0.465   5.839  -3.186  0.00  0.00     0.076 C 
ATOM      6  C7  UNL d   1       0.272   3.841  -1.857  0.00  0.00     0.002 A 
ATOM      7  C8  UNL d   1       0.715   3.248  -0.673  0.00  0.00     0.006 A 
ENDROOT
BRANCH   1   8
ATOM      8  C1  UNL d   1       1.355   3.372   1.764  0.00  0.00     0.054 C 
ATOM      9  C   UNL d   1       0.634   2.049   1.974  0.00  0.00     0.018 C 
ENDBRANCH   1   8
TORSDOF 1
ENDMDL
