MODEL 1
REMARK minimizedAffinity 0.561067283
REMARK minimizedRMSD -1
REMARK  1 active torsions:
REMARK  status: ('A' for Active; 'I' for Inactive)
REMARK    1  A    between atoms: C1_2  and  C2_3 
ROOT
ATOM      1  C2  UNL d   1       0.278   2.870  -0.373  0.00  0.00    -0.081 A 
ATOM      2  C3  UNL d   1       0.464   3.255   0.961  0.00  0.00     0.006 A 
ATOM      3  C4  UNL d   1       0.619   2.292   1.960  0.00  0.00     0.002 A 
ATOM      4  C5  UNL d   1       0.599   0.929   1.643  0.00  0.00    -0.080 A 
ATOM      5  C6  UNL d   1       0.795  -0.114   2.702  0.00  0.00     0.076 C 
ATOM      6  C7  UNL d   1       0.396   0.545   0.313  0.00  0.00     0.002 A 
ATOM      7  C8  UNL d   1       0.240   1.507  -0.687  0.00  0.00     0.006 A 
ENDROOT
BRANCH   1   8
ATOM      8  C1  UNL d   1       0.175   3.907  -1.462  0.00  0.00     0.054 C 
ATOM      9  C   UNL d   1       0.854   5.207  -1.055  0.00  0.00     0.018 C 
ENDBRANCH   1   8
TORSDOF 1
ENDMDL
