MODEL 1
REMARK minimizedAffinity 2.51768064
REMARK minimizedRMSD -1
REMARK  1 active torsions:
REMARK  status: ('A' for Active; 'I' for Inactive)
REMARK    1  A    between atoms: C1_2  and  C2_3 
ROOT
ATOM      1  C2  UNL d   1       0.295   2.928  -0.270  0.00  0.00    -0.081 A 
ATOM      2  C3  UNL d   1       0.304   3.200   1.104  0.00  0.00     0.006 A 
ATOM      3  C4  UNL d   1       0.385   2.159   2.032  0.00  0.00     0.002 A 
ATOM      4  C5  UNL d   1       0.466   0.830   1.602  0.00  0.00    -0.080 A 
ATOM      5  C6  UNL d   1       0.584  -0.295   2.587  0.00  0.00     0.076 C 
ATOM      6  C7  UNL d   1       0.440   0.557   0.230  0.00  0.00     0.002 A 
ATOM      7  C8  UNL d   1       0.358   1.597  -0.698  0.00  0.00     0.006 A 
ENDROOT
BRANCH   1   8
ATOM      8  C1  UNL d   1       0.273   4.052  -1.274  0.00  0.00     0.054 C 
ATOM      9  C   UNL d   1       0.942   5.302  -0.720  0.00  0.00     0.018 C 
ENDBRANCH   1   8
TORSDOF 1
ENDMDL
