MODEL 1
REMARK minimizedAffinity 6.85720158
REMARK minimizedRMSD -1
REMARK  0 active torsions:
REMARK  status: ('A' for Active; 'I' for Inactive)
ROOT
ATOM      1  C   UNL d   1       5.169  -3.319   1.005  0.00  0.00     0.020 A 
ATOM      2  C1  UNL d   1       4.360  -4.378   1.416  0.00  0.00     0.020 A 
ATOM      3  C2  UNL d   1       4.047  -4.533   2.768  0.00  0.00     0.034 A 
ATOM      4  C3  UNL d   1       4.541  -3.627   3.713  0.00  0.00     0.017 A 
ATOM      5  C4  UNL d   1       5.352  -2.564   3.299  0.00  0.00     0.017 A 
ATOM      6  C5  UNL d   1       5.663  -2.414   1.944  0.00  0.00     0.034 A 
ATOM      7 Cl   UNL d   1       5.999  -1.406   4.407  0.00  0.00    -0.070 Cl
ATOM      8 Cl1  UNL d   1       4.112  -3.878   5.368  0.00  0.00    -0.070 Cl
ENDROOT
TORSDOF 0
ENDMDL
