MODEL 1
REMARK minimizedAffinity 3.18282294
REMARK minimizedRMSD -1
REMARK  0 active torsions:
REMARK  status: ('A' for Active; 'I' for Inactive)
ROOT
ATOM      1  C   UNL d   1      -5.576   1.402  -5.070  0.00  0.00     0.020 A 
ATOM      2  C1  UNL d   1      -4.326   1.826  -5.519  0.00  0.00     0.020 A 
ATOM      3  C2  UNL d   1      -3.281   0.908  -5.642  0.00  0.00     0.034 A 
ATOM      4  C3  UNL d   1      -3.483  -0.437  -5.315  0.00  0.00     0.017 A 
ATOM      5  C4  UNL d   1      -4.738  -0.862  -4.864  0.00  0.00     0.017 A 
ATOM      6  C5  UNL d   1      -5.782   0.061  -4.743  0.00  0.00     0.034 A 
ATOM      7 Cl   UNL d   1      -5.065  -2.506  -4.442  0.00  0.00    -0.070 Cl
ATOM      8 Cl1  UNL d   1      -2.146  -1.517  -5.491  0.00  0.00    -0.070 Cl
ENDROOT
TORSDOF 0
ENDMDL
