MODEL 1
REMARK minimizedAffinity -3.80686021
REMARK minimizedRMSD -1
REMARK  0 active torsions:
REMARK  status: ('A' for Active; 'I' for Inactive)
ROOT
ATOM      1  C   UNL d   1      -5.242  -0.402  -5.269  0.00  0.00     0.020 A 
ATOM      2  C1  UNL d   1      -5.240  -1.189  -4.118  0.00  0.00     0.020 A 
ATOM      3  C2  UNL d   1      -4.142  -1.162  -3.256  0.00  0.00     0.034 A 
ATOM      4  C3  UNL d   1      -3.041  -0.347  -3.544  0.00  0.00     0.017 A 
ATOM      5  C4  UNL d   1      -3.044   0.442  -4.699  0.00  0.00     0.017 A 
ATOM      6  C5  UNL d   1      -4.146   0.411  -5.559  0.00  0.00     0.034 A 
ATOM      7 Cl   UNL d   1      -1.722   1.472  -5.121  0.00  0.00    -0.070 Cl
ATOM      8 Cl1  UNL d   1      -1.717  -0.364  -2.433  0.00  0.00    -0.070 Cl
ENDROOT
TORSDOF 0
ENDMDL
