MODEL 1
REMARK minimizedAffinity 14.0572357
REMARK minimizedRMSD -1
REMARK  0 active torsions:
REMARK  status: ('A' for Active; 'I' for Inactive)
ROOT
ATOM      1  C   UNL d   1       1.458   0.921  -0.429  0.00  0.00     0.020 A 
ATOM      2  C1  UNL d   1       2.594   1.731  -0.412  0.00  0.00     0.020 A 
ATOM      3  C2  UNL d   1       3.849   1.167  -0.173  0.00  0.00     0.034 A 
ATOM      4  C3  UNL d   1       3.972  -0.209   0.049  0.00  0.00     0.017 A 
ATOM      5  C4  UNL d   1       2.832  -1.021   0.031  0.00  0.00     0.017 A 
ATOM      6  C5  UNL d   1       1.578  -0.451  -0.208  0.00  0.00     0.034 A 
ATOM      7 Cl   UNL d   1       2.905  -2.727   0.296  0.00  0.00    -0.070 Cl
ATOM      8 Cl1  UNL d   1       5.556  -0.838   0.337  0.00  0.00    -0.070 Cl
ENDROOT
TORSDOF 0
ENDMDL
