MODEL 1
REMARK minimizedAffinity 3.58186722
REMARK minimizedRMSD -1
REMARK  0 active torsions:
REMARK  status: ('A' for Active; 'I' for Inactive)
ROOT
ATOM      1  C   UNL d   1      -3.892  -1.650  -5.531  0.00  0.00     0.020 A 
ATOM      2  C1  UNL d   1      -4.217  -2.181  -4.283  0.00  0.00     0.020 A 
ATOM      3  C2  UNL d   1      -4.196  -1.364  -3.150  0.00  0.00     0.034 A 
ATOM      4  C3  UNL d   1      -3.851  -0.013  -3.263  0.00  0.00     0.017 A 
ATOM      5  C4  UNL d   1      -3.525   0.519  -4.516  0.00  0.00     0.017 A 
ATOM      6  C5  UNL d   1      -3.547  -0.303  -5.647  0.00  0.00     0.034 A 
ATOM      7 Cl   UNL d   1      -3.088   2.177  -4.734  0.00  0.00    -0.070 Cl
ATOM      8 Cl1  UNL d   1      -3.847   0.938  -1.821  0.00  0.00    -0.070 Cl
ENDROOT
TORSDOF 0
ENDMDL
