MODEL 1
REMARK minimizedAffinity 1.00868273
REMARK minimizedRMSD -1
REMARK  0 active torsions:
REMARK  status: ('A' for Active; 'I' for Inactive)
ROOT
ATOM      1  C   UNL d   1      -4.104   5.689  -5.714  0.00  0.00     0.020 A 
ATOM      2  C1  UNL d   1      -5.014   4.868  -5.051  0.00  0.00     0.020 A 
ATOM      3  C2  UNL d   1      -4.641   3.577  -4.670  0.00  0.00     0.034 A 
ATOM      4  C3  UNL d   1      -3.353   3.105  -4.951  0.00  0.00     0.017 A 
ATOM      5  C4  UNL d   1      -2.441   3.931  -5.617  0.00  0.00     0.017 A 
ATOM      6  C5  UNL d   1      -2.820   5.222  -5.996  0.00  0.00     0.034 A 
ATOM      7 Cl   UNL d   1      -0.835   3.418  -5.999  0.00  0.00    -0.070 Cl
ATOM      8 Cl1  UNL d   1      -2.960   1.499  -4.451  0.00  0.00    -0.070 Cl
ENDROOT
TORSDOF 0
ENDMDL
