MODEL 1
REMARK minimizedAffinity 0.155732349
REMARK minimizedRMSD -1
REMARK  0 active torsions:
REMARK  status: ('A' for Active; 'I' for Inactive)
ROOT
ATOM      1  C   UNL d   1      -5.192   0.795  -5.934  0.00  0.00     0.020 A 
ATOM      2  C1  UNL d   1      -5.999   0.755  -4.798  0.00  0.00     0.020 A 
ATOM      3  C2  UNL d   1      -5.655  -0.071  -3.726  0.00  0.00     0.034 A 
ATOM      4  C3  UNL d   1      -4.500  -0.859  -3.787  0.00  0.00     0.017 A 
ATOM      5  C4  UNL d   1      -3.690  -0.818  -4.927  0.00  0.00     0.017 A 
ATOM      6  C5  UNL d   1      -4.040   0.011  -5.998  0.00  0.00     0.034 A 
ATOM      7 Cl   UNL d   1      -2.250  -1.761  -5.076  0.00  0.00    -0.070 Cl
ATOM      8 Cl1  UNL d   1      -4.135  -1.856  -2.424  0.00  0.00    -0.070 Cl
ENDROOT
TORSDOF 0
ENDMDL
