MODEL 1
REMARK minimizedAffinity 11.2169724
REMARK minimizedRMSD -1
REMARK  0 active torsions:
REMARK  status: ('A' for Active; 'I' for Inactive)
ROOT
ATOM      1  C   UNL d   1      -5.038   1.466  -4.507  0.00  0.00     0.020 A 
ATOM      2  C1  UNL d   1      -4.612   1.154  -5.797  0.00  0.00     0.020 A 
ATOM      3  C2  UNL d   1      -3.695   0.119  -5.998  0.00  0.00     0.034 A 
ATOM      4  C3  UNL d   1      -3.203  -0.606  -4.907  0.00  0.00     0.017 A 
ATOM      5  C4  UNL d   1      -3.632  -0.292  -3.613  0.00  0.00     0.017 A 
ATOM      6  C5  UNL d   1      -4.549   0.745  -3.417  0.00  0.00     0.034 A 
ATOM      7 Cl   UNL d   1      -3.069  -1.143  -2.218  0.00  0.00    -0.070 Cl
ATOM      8 Cl1  UNL d   1      -2.072  -1.873  -5.230  0.00  0.00    -0.070 Cl
ENDROOT
TORSDOF 0
ENDMDL
