MODEL 1
REMARK minimizedAffinity -0.309895217
REMARK minimizedRMSD -1
REMARK  0 active torsions:
REMARK  status: ('A' for Active; 'I' for Inactive)
ROOT
ATOM      1  C   UNL d   1       5.701  -3.751   6.000  0.00  0.00     0.020 A 
ATOM      2  C1  UNL d   1       5.554  -2.448   5.528  0.00  0.00     0.020 A 
ATOM      3  C2  UNL d   1       4.971  -2.219   4.279  0.00  0.00     0.034 A 
ATOM      4  C3  UNL d   1       4.533  -3.295   3.499  0.00  0.00     0.017 A 
ATOM      5  C4  UNL d   1       4.681  -4.603   3.974  0.00  0.00     0.017 A 
ATOM      6  C5  UNL d   1       5.265  -4.827   5.224  0.00  0.00     0.034 A 
ATOM      7 Cl   UNL d   1       4.165  -5.982   3.068  0.00  0.00    -0.070 Cl
ATOM      8 Cl1  UNL d   1       3.822  -2.938   1.965  0.00  0.00    -0.070 Cl
ENDROOT
TORSDOF 0
ENDMDL
