MODEL 1
REMARK minimizedAffinity 8.33647537
REMARK minimizedRMSD -1
REMARK  0 active torsions:
REMARK  status: ('A' for Active; 'I' for Inactive)
ROOT
ATOM      1  O1  BZF d   1      -2.009   4.846  -2.248  0.00  0.00    -0.204 OA
ATOM      2  C2  BZF d   1      -1.272   5.998  -2.442  0.00  0.00     0.174 A 
ATOM      3  C3  BZF d   1      -0.001   5.830  -2.022  0.00  0.00    -0.012 A 
ATOM      4  C3A BZF d   1       0.084   4.459  -1.620  0.00  0.00    -0.107 A 
ATOM      5  C4  BZF d   1       1.096   3.687  -1.125  0.00  0.00     0.055 A 
ATOM      6  C5  BZF d   1       0.831   2.404  -0.764  0.00  0.00    -0.016 A 
ATOM      7  C6  BZF d   1      -0.433   1.863  -0.878  0.00  0.00     0.022 A 
ATOM      8  C7  BZF d   1      -1.467   2.589  -1.368  0.00  0.00     0.029 A 
ATOM      9  C7A BZF d   1      -1.196   3.875  -1.765  0.00  0.00     0.058 A 
ENDROOT
TORSDOF 0
ENDMDL
