MODEL 1
REMARK minimizedAffinity 9.08998394
REMARK minimizedRMSD -1
REMARK  0 active torsions:
REMARK  status: ('A' for Active; 'I' for Inactive)
ROOT
ATOM      1  O1  BZF d   1       2.917   2.910   0.289  0.00  0.00    -0.204 OA
ATOM      2  C2  BZF d   1       2.685   2.180   1.438  0.00  0.00     0.174 A 
ATOM      3  C3  BZF d   1       1.374   1.890   1.564  0.00  0.00    -0.012 A 
ATOM      4  C3A BZF d   1       0.761   2.395   0.374  0.00  0.00    -0.107 A 
ATOM      5  C4  BZF d   1      -0.523   2.397  -0.093  0.00  0.00     0.055 A 
ATOM      6  C5  BZF d   1      -0.800   3.038  -1.259  0.00  0.00    -0.016 A 
ATOM      7  C6  BZF d   1       0.178   3.691  -1.979  0.00  0.00     0.022 A 
ATOM      8  C7  BZF d   1       1.466   3.713  -1.558  0.00  0.00     0.029 A 
ATOM      9  C7A BZF d   1       1.756   3.037  -0.398  0.00  0.00     0.058 A 
ENDROOT
TORSDOF 0
ENDMDL
