MODEL 1
REMARK minimizedAffinity 0.20754081
REMARK minimizedRMSD -1
REMARK  0 active torsions:
REMARK  status: ('A' for Active; 'I' for Inactive)
ROOT
ATOM      1  O1  BZF d   1       0.292   3.347  -1.712  0.00  0.00    -0.204 OA
ATOM      2  C2  BZF d   1      -0.353   2.127  -1.771  0.00  0.00     0.174 A 
ATOM      3  C3  BZF d   1      -0.239   1.469  -0.600  0.00  0.00    -0.012 A 
ATOM      4  C3A BZF d   1       0.445   2.371   0.274  0.00  0.00    -0.107 A 
ATOM      5  C4  BZF d   1       0.838   2.297   1.580  0.00  0.00     0.055 A 
ATOM      6  C5  BZF d   1       1.551   3.323   2.114  0.00  0.00    -0.016 A 
ATOM      7  C6  BZF d   1       1.893   4.434   1.372  0.00  0.00     0.022 A 
ATOM      8  C7  BZF d   1       1.521   4.556   0.074  0.00  0.00     0.029 A 
ATOM      9  C7A BZF d   1       0.772   3.535  -0.459  0.00  0.00     0.058 A 
ENDROOT
TORSDOF 0
ENDMDL
