MODEL 1
REMARK minimizedAffinity -1.85253942
REMARK minimizedRMSD -1
REMARK  0 active torsions:
REMARK  status: ('A' for Active; 'I' for Inactive)
ROOT
ATOM      1  O1  BZF d   1       3.465  -0.919  -2.664  0.00  0.00    -0.204 OA
ATOM      2  C2  BZF d   1       2.717  -1.290  -1.564  0.00  0.00     0.174 A 
ATOM      3  C3  BZF d   1       3.042  -2.535  -1.161  0.00  0.00    -0.012 A 
ATOM      4  C3A BZF d   1       4.123  -2.935  -2.010  0.00  0.00    -0.107 A 
ATOM      5  C4  BZF d   1       4.885  -4.065  -2.091  0.00  0.00     0.055 A 
ATOM      6  C5  BZF d   1       5.811  -4.168  -3.080  0.00  0.00    -0.016 A 
ATOM      7  C6  BZF d   1       5.997  -3.164  -4.008  0.00  0.00     0.022 A 
ATOM      8  C7  BZF d   1       5.268  -2.022  -3.965  0.00  0.00     0.029 A 
ATOM      9  C7A BZF d   1       4.354  -1.901  -2.947  0.00  0.00     0.058 A 
ENDROOT
TORSDOF 0
ENDMDL
