MODEL 1
REMARK minimizedAffinity 9.38524628
REMARK minimizedRMSD -1
REMARK  0 active torsions:
REMARK  status: ('A' for Active; 'I' for Inactive)
ROOT
ATOM      1  O1  BZF d   1       3.743  -2.439  -4.103  0.00  0.00    -0.204 OA
ATOM      2  C2  BZF d   1       4.097  -1.520  -3.134  0.00  0.00     0.174 A 
ATOM      3  C3  BZF d   1       4.951  -2.067  -2.244  0.00  0.00    -0.012 A 
ATOM      4  C3A BZF d   1       5.214  -3.384  -2.737  0.00  0.00    -0.107 A 
ATOM      5  C4  BZF d   1       5.999  -4.411  -2.298  0.00  0.00     0.055 A 
ATOM      6  C5  BZF d   1       5.978  -5.593  -2.968  0.00  0.00    -0.016 A 
ATOM      7  C6  BZF d   1       5.180  -5.784  -4.078  0.00  0.00     0.022 A 
ATOM      8  C7  BZF d   1       4.388  -4.793  -4.554  0.00  0.00     0.029 A 
ATOM      9  C7A BZF d   1       4.433  -3.587  -3.898  0.00  0.00     0.058 A 
ENDROOT
TORSDOF 0
ENDMDL
