MODEL 1
REMARK minimizedAffinity 1.01538849
REMARK minimizedRMSD -1
REMARK  0 active torsions:
REMARK  status: ('A' for Active; 'I' for Inactive)
ROOT
ATOM      1  O1  BZF d   1       5.791  -3.241  -0.827  0.00  0.00    -0.204 OA
ATOM      2  C2  BZF d   1       5.034  -2.440   0.006  0.00  0.00     0.174 A 
ATOM      3  C3  BZF d   1       3.738  -2.812  -0.020  0.00  0.00    -0.012 A 
ATOM      4  C3A BZF d   1       3.697  -3.973  -0.855  0.00  0.00    -0.107 A 
ATOM      5  C4  BZF d   1       2.692  -4.808  -1.253  0.00  0.00     0.055 A 
ATOM      6  C5  BZF d   1       2.972  -5.808  -2.130  0.00  0.00    -0.016 A 
ATOM      7  C6  BZF d   1       4.243  -5.997  -2.633  0.00  0.00     0.022 A 
ATOM      8  C7  BZF d   1       5.273  -5.198  -2.264  0.00  0.00     0.029 A 
ATOM      9  C7A BZF d   1       5.000  -4.208  -1.352  0.00  0.00     0.058 A 
ENDROOT
TORSDOF 0
ENDMDL
