MODEL 1
REMARK minimizedAffinity -1.26354563
REMARK minimizedRMSD -1
REMARK  0 active torsions:
REMARK  status: ('A' for Active; 'I' for Inactive)
ROOT
ATOM      1  O1  BZF d   1       4.352  -1.711  -1.686  0.00  0.00    -0.204 OA
ATOM      2  C2  BZF d   1       4.335  -1.799  -0.307  0.00  0.00     0.174 A 
ATOM      3  C3  BZF d   1       3.994  -3.042   0.089  0.00  0.00    -0.012 A 
ATOM      4  C3A BZF d   1       3.873  -3.801  -1.118  0.00  0.00    -0.107 A 
ATOM      5  C4  BZF d   1       3.571  -5.107  -1.379  0.00  0.00     0.055 A 
ATOM      6  C5  BZF d   1       3.463  -5.514  -2.671  0.00  0.00    -0.016 A 
ATOM      7  C6  BZF d   1       3.646  -4.643  -3.725  0.00  0.00     0.022 A 
ATOM      8  C7  BZF d   1       3.952  -3.340  -3.516  0.00  0.00     0.029 A 
ATOM      9  C7A BZF d   1       4.094  -2.932  -2.212  0.00  0.00     0.058 A 
ENDROOT
TORSDOF 0
ENDMDL
