MODEL 1
REMARK minimizedAffinity 2.74042273
REMARK minimizedRMSD -1
REMARK  0 active torsions:
REMARK  status: ('A' for Active; 'I' for Inactive)
ROOT
ATOM      1  O1  BZF d   1       1.725   4.033  -0.099  0.00  0.00    -0.204 OA
ATOM      2  C2  BZF d   1       0.700   4.076  -1.025  0.00  0.00     0.174 A 
ATOM      3  C3  BZF d   1      -0.322   3.282  -0.644  0.00  0.00    -0.012 A 
ATOM      4  C3A BZF d   1       0.052   2.779   0.642  0.00  0.00    -0.107 A 
ATOM      5  C4  BZF d   1      -0.559   1.950   1.539  0.00  0.00     0.055 A 
ATOM      6  C5  BZF d   1       0.106   1.597   2.671  0.00  0.00    -0.016 A 
ATOM      7  C6  BZF d   1       1.382   2.049   2.934  0.00  0.00     0.022 A 
ATOM      8  C7  BZF d   1       2.027   2.877   2.076  0.00  0.00     0.029 A 
ATOM      9  C7A BZF d   1       1.345   3.262   0.948  0.00  0.00     0.058 A 
ENDROOT
TORSDOF 0
ENDMDL
