MODEL 1
REMARK minimizedAffinity 7.56221819
REMARK minimizedRMSD -1
REMARK  0 active torsions:
REMARK  status: ('A' for Active; 'I' for Inactive)
ROOT
ATOM      1  O1  BZF d   1       1.326  -5.173  -1.365  0.00  0.00    -0.204 OA
ATOM      2  C2  BZF d   1       0.873  -4.336  -0.364  0.00  0.00     0.174 A 
ATOM      3  C3  BZF d   1       1.853  -3.505   0.045  0.00  0.00    -0.012 A 
ATOM      4  C3A BZF d   1       2.964  -3.782  -0.813  0.00  0.00    -0.107 A 
ATOM      5  C4  BZF d   1       4.225  -3.269  -0.912  0.00  0.00     0.055 A 
ATOM      6  C5  BZF d   1       5.090  -3.810  -1.810  0.00  0.00    -0.016 A 
ATOM      7  C6  BZF d   1       4.729  -4.867  -2.619  0.00  0.00     0.022 A 
ATOM      8  C7  BZF d   1       3.488  -5.407  -2.561  0.00  0.00     0.029 A 
ATOM      9  C7A BZF d   1       2.601  -4.841  -1.678  0.00  0.00     0.058 A 
ENDROOT
TORSDOF 0
ENDMDL
