MODEL 1
REMARK minimizedAffinity 0.884221613
REMARK minimizedRMSD -1
REMARK  0 active torsions:
REMARK  status: ('A' for Active; 'I' for Inactive)
ROOT
ATOM      1  C4' PXY d   1      -1.694  -2.032  -1.857  0.00  0.00     0.077 C 
ATOM      2  C1' PXY d   1       2.784   1.542  -1.086  0.00  0.00     0.077 C 
ATOM      3  C1  PXY d   1       1.610   0.606  -1.301  0.00  0.00    -0.082 A 
ATOM      4  C2  PXY d   1       0.738   0.415  -0.324  0.00  0.00     0.003 A 
ATOM      5  C3  PXY d   1      -0.311  -0.452  -0.491  0.00  0.00     0.003 A 
ATOM      6  C4  PXY d   1      -0.499  -1.089  -1.688  0.00  0.00    -0.082 A 
ATOM      7  C5  PXY d   1       0.380  -0.891  -2.693  0.00  0.00     0.003 A 
ATOM      8  C6  PXY d   1       1.461  -0.039  -2.490  0.00  0.00     0.003 A 
ENDROOT
TORSDOF 0
ENDMDL
