MODEL 1
REMARK minimizedAffinity -3.1261909
REMARK minimizedRMSD -1
REMARK  0 active torsions:
REMARK  status: ('A' for Active; 'I' for Inactive)
ROOT
ATOM      1  C4' PXY d   1       2.376   0.757  -0.967  0.00  0.00     0.077 C 
ATOM      2  C1' PXY d   1      -1.755  -2.391  -3.505  0.00  0.00     0.077 C 
ATOM      3  C1  PXY d   1      -0.680  -1.563  -2.829  0.00  0.00    -0.082 A 
ATOM      4  C2  PXY d   1       0.301  -1.050  -3.553  0.00  0.00     0.003 A 
ATOM      5  C3  PXY d   1       1.300  -0.325  -2.954  0.00  0.00     0.003 A 
ATOM      6  C4  PXY d   1       1.264  -0.078  -1.608  0.00  0.00    -0.082 A 
ATOM      7  C5  PXY d   1       0.260  -0.589  -0.864  0.00  0.00     0.003 A 
ATOM      8  C6  PXY d   1      -0.721  -1.357  -1.485  0.00  0.00     0.003 A 
ENDROOT
TORSDOF 0
ENDMDL
