MODEL 1
REMARK minimizedAffinity 0.729526997
REMARK minimizedRMSD -1
REMARK  0 active torsions:
REMARK  status: ('A' for Active; 'I' for Inactive)
ROOT
ATOM      1  C4' PXY d   1      -1.254  -1.599  -0.544  0.00  0.00     0.077 C 
ATOM      2  C1' PXY d   1       3.365   1.729  -1.548  0.00  0.00     0.077 C 
ATOM      3  C1  PXY d   1       2.153   0.861  -1.273  0.00  0.00    -0.082 A 
ATOM      4  C2  PXY d   1       1.960  -0.239  -1.983  0.00  0.00     0.003 A 
ATOM      5  C3  PXY d   1       0.853  -1.018  -1.769  0.00  0.00     0.003 A 
ATOM      6  C4  PXY d   1      -0.039  -0.698  -0.781  0.00  0.00    -0.082 A 
ATOM      7  C5  PXY d   1       0.155   0.417  -0.045  0.00  0.00     0.003 A 
ATOM      8  C6  PXY d   1       1.264   1.217  -0.305  0.00  0.00     0.003 A 
ENDROOT
TORSDOF 0
ENDMDL
