MODEL 1
REMARK minimizedAffinity 6.19001293
REMARK minimizedRMSD -1
REMARK  0 active torsions:
REMARK  status: ('A' for Active; 'I' for Inactive)
ROOT
ATOM      1  C4' PXY d   1      -0.766   2.985  -5.924  0.00  0.00     0.077 C 
ATOM      2  C1' PXY d   1      -5.959   0.448  -5.999  0.00  0.00     0.077 C 
ATOM      3  C1  PXY d   1      -4.602   1.124  -5.985  0.00  0.00    -0.082 A 
ATOM      4  C2  PXY d   1      -3.504   0.386  -5.950  0.00  0.00     0.003 A 
ATOM      5  C3  PXY d   1      -2.270   0.981  -5.905  0.00  0.00     0.003 A 
ATOM      6  C4  PXY d   1      -2.157   2.345  -5.949  0.00  0.00    -0.082 A 
ATOM      7  C5  PXY d   1      -3.272   3.104  -5.995  0.00  0.00     0.003 A 
ATOM      8  C6  PXY d   1      -4.516   2.482  -5.999  0.00  0.00     0.003 A 
ENDROOT
TORSDOF 0
ENDMDL
