MODEL 1
REMARK minimizedAffinity -1.81498969
REMARK minimizedRMSD -1
REMARK  0 active torsions:
REMARK  status: ('A' for Active; 'I' for Inactive)
ROOT
ATOM      1  C4' PXY d   1       2.421  -3.037  -1.871  0.00  0.00     0.077 C 
ATOM      2  C1' PXY d   1      -0.515   1.820  -0.775  0.00  0.00     0.077 C 
ATOM      3  C1  PXY d   1       0.252   0.547  -1.075  0.00  0.00    -0.082 A 
ATOM      4  C2  PXY d   1       0.455  -0.337  -0.111  0.00  0.00     0.003 A 
ATOM      5  C3  PXY d   1       1.174  -1.478  -0.358  0.00  0.00     0.003 A 
ATOM      6  C4  PXY d   1       1.644  -1.743  -1.616  0.00  0.00    -0.082 A 
ATOM      7  C5  PXY d   1       1.432  -0.851  -2.607  0.00  0.00     0.003 A 
ATOM      8  C6  PXY d   1       0.735   0.321  -2.327  0.00  0.00     0.003 A 
ENDROOT
TORSDOF 0
ENDMDL
