MODEL 1
REMARK minimizedAffinity 0.670999765
REMARK minimizedRMSD -1
REMARK  0 active torsions:
REMARK  status: ('A' for Active; 'I' for Inactive)
ROOT
ATOM      1  C4' PXY d   1      -3.377  -0.648  -4.877  0.00  0.00     0.077 C 
ATOM      2  C1' PXY d   1      -5.251  -6.000  -5.998  0.00  0.00     0.077 C 
ATOM      3  C1  PXY d   1      -4.748  -4.601  -5.700  0.00  0.00    -0.082 A 
ATOM      4  C2  PXY d   1      -5.616  -3.622  -5.503  0.00  0.00     0.003 A 
ATOM      5  C3  PXY d   1      -5.179  -2.345  -5.264  0.00  0.00     0.003 A 
ATOM      6  C4  PXY d   1      -3.839  -2.077  -5.172  0.00  0.00    -0.082 A 
ATOM      7  C5  PXY d   1      -2.947  -3.073  -5.361  0.00  0.00     0.003 A 
ATOM      8  C6  PXY d   1      -3.411  -4.354  -5.643  0.00  0.00     0.003 A 
ENDROOT
TORSDOF 0
ENDMDL
