MODEL 1
REMARK minimizedAffinity -2.54571581
REMARK minimizedRMSD -1
REMARK  0 active torsions:
REMARK  status: ('A' for Active; 'I' for Inactive)
ROOT
ATOM      1  C4' PXY d   1      -4.667  -0.688  -5.993  0.00  0.00     0.077 C 
ATOM      2  C1' PXY d   1      -3.800   5.027  -5.977  0.00  0.00     0.077 C 
ATOM      3  C1  PXY d   1      -4.016   3.526  -5.987  0.00  0.00    -0.082 A 
ATOM      4  C2  PXY d   1      -5.247   3.042  -5.991  0.00  0.00     0.003 A 
ATOM      5  C3  PXY d   1      -5.460   1.688  -5.967  0.00  0.00     0.003 A 
ATOM      6  C4  PXY d   1      -4.402   0.820  -5.993  0.00  0.00    -0.082 A 
ATOM      7  C5  PXY d   1      -3.143   1.305  -6.000  0.00  0.00     0.003 A 
ATOM      8  C6  PXY d   1      -2.947   2.683  -5.982  0.00  0.00     0.003 A 
ENDROOT
TORSDOF 0
ENDMDL
