MODEL 1
REMARK minimizedAffinity -1.03464937
REMARK minimizedRMSD -1
REMARK  0 active torsions:
REMARK  status: ('A' for Active; 'I' for Inactive)
ROOT
ATOM      1  C4' PXY d   1      -3.795   5.901  -5.964  0.00  0.00     0.077 C 
ATOM      2  C1' PXY d   1      -5.289   0.317  -6.000  0.00  0.00     0.077 C 
ATOM      3  C1  PXY d   1      -4.909   1.784  -5.996  0.00  0.00    -0.082 A 
ATOM      4  C2  PXY d   1      -3.632   2.129  -5.999  0.00  0.00     0.003 A 
ATOM      5  C3  PXY d   1      -3.270   3.451  -5.964  0.00  0.00     0.003 A 
ATOM      6  C4  PXY d   1      -4.226   4.432  -5.977  0.00  0.00    -0.082 A 
ATOM      7  C5  PXY d   1      -5.531   4.088  -5.984  0.00  0.00     0.003 A 
ATOM      8  C6  PXY d   1      -5.878   2.740  -5.979  0.00  0.00     0.003 A 
ENDROOT
TORSDOF 0
ENDMDL
