MODEL 1
REMARK minimizedAffinity -3.09197664
REMARK minimizedRMSD -1
REMARK  0 active torsions:
REMARK  status: ('A' for Active; 'I' for Inactive)
ROOT
ATOM      1  C4' PXY d   1       2.140   1.939   0.524  0.00  0.00     0.077 C 
ATOM      2  C1' PXY d   1      -0.500  -2.120  -2.633  0.00  0.00     0.077 C 
ATOM      3  C1  PXY d   1       0.203  -1.057  -1.812  0.00  0.00    -0.082 A 
ATOM      4  C2  PXY d   1      -0.229  -0.780  -0.593  0.00  0.00     0.003 A 
ATOM      5  C3  PXY d   1       0.375   0.201   0.151  0.00  0.00     0.003 A 
ATOM      6  C4  PXY d   1       1.467   0.867  -0.338  0.00  0.00    -0.082 A 
ATOM      7  C5  PXY d   1       1.921   0.583  -1.577  0.00  0.00     0.003 A 
ATOM      8  C6  PXY d   1       1.268  -0.387  -2.332  0.00  0.00     0.003 A 
ENDROOT
TORSDOF 0
ENDMDL
