MODEL 1
REMARK minimizedAffinity -3.5984838
REMARK minimizedRMSD -1
REMARK  0 active torsions:
REMARK  status: ('A' for Active; 'I' for Inactive)
ROOT
ATOM      1  C4' PXY d   1      -2.425   5.991  -5.955  0.00  0.00     0.077 C 
ATOM      2  C1' PXY d   1      -5.058   0.845  -6.000  0.00  0.00     0.077 C 
ATOM      3  C1  PXY d   1      -4.357   2.189  -5.983  0.00  0.00    -0.082 A 
ATOM      4  C2  PXY d   1      -5.074   3.301  -5.962  0.00  0.00     0.003 A 
ATOM      5  C3  PXY d   1      -4.457   4.525  -5.978  0.00  0.00     0.003 A 
ATOM      6  C4  PXY d   1      -3.090   4.612  -5.963  0.00  0.00    -0.082 A 
ATOM      7  C5  PXY d   1      -2.352   3.483  -5.974  0.00  0.00     0.003 A 
ATOM      8  C6  PXY d   1      -2.998   2.250  -5.999  0.00  0.00     0.003 A 
ENDROOT
TORSDOF 0
ENDMDL
