MODEL 1
REMARK minimizedAffinity -0.36994046
REMARK minimizedRMSD -1
REMARK  0 active torsions:
REMARK  status: ('A' for Active; 'I' for Inactive)
ROOT
ATOM      1  C4' PXY d   1       1.843   2.741   1.181  0.00  0.00     0.077 C 
ATOM      2  C1' PXY d   1       1.163  -1.771  -2.369  0.00  0.00     0.077 C 
ATOM      3  C1  PXY d   1       1.329  -0.589  -1.434  0.00  0.00    -0.082 A 
ATOM      4  C2  PXY d   1       2.307   0.278  -1.643  0.00  0.00     0.003 A 
ATOM      5  C3  PXY d   1       2.491   1.335  -0.790  0.00  0.00     0.003 A 
ATOM      6  C4  PXY d   1       1.632   1.537   0.258  0.00  0.00    -0.082 A 
ATOM      7  C5  PXY d   1       0.625   0.663   0.471  0.00  0.00     0.003 A 
ATOM      8  C6  PXY d   1       0.481  -0.426  -0.383  0.00  0.00     0.003 A 
ENDROOT
TORSDOF 0
ENDMDL
