MODEL 1
REMARK minimizedAffinity -1.62700951
REMARK minimizedRMSD -1
REMARK  0 active torsions:
REMARK  status: ('A' for Active; 'I' for Inactive)
ROOT
ATOM      1  C4' PXY d   1      -6.000   5.601  -5.930  0.00  0.00     0.077 C 
ATOM      2  C1' PXY d   1      -2.997   0.661  -5.999  0.00  0.00     0.077 C 
ATOM      3  C1  PXY d   1      -3.795   1.951  -5.986  0.00  0.00    -0.082 A 
ATOM      4  C2  PXY d   1      -3.161   3.112  -5.960  0.00  0.00     0.003 A 
ATOM      5  C3  PXY d   1      -3.866   4.286  -5.916  0.00  0.00     0.003 A 
ATOM      6  C4  PXY d   1      -5.235   4.274  -5.953  0.00  0.00    -0.082 A 
ATOM      7  C5  PXY d   1      -5.889   3.094  -5.991  0.00  0.00     0.003 A 
ATOM      8  C6  PXY d   1      -5.155   1.911  -5.993  0.00  0.00     0.003 A 
ENDROOT
TORSDOF 0
ENDMDL
