MODEL 1
REMARK minimizedAffinity 0.734586775
REMARK minimizedRMSD -1
REMARK  0 active torsions:
REMARK  status: ('A' for Active; 'I' for Inactive)
ROOT
ATOM      1  C4' PXY d   1      -4.483   5.669  -5.960  0.00  0.00     0.077 C 
ATOM      2  C1' PXY d   1      -3.037   0.073  -6.000  0.00  0.00     0.077 C 
ATOM      3  C1  PXY d   1      -3.428   1.537  -5.995  0.00  0.00    -0.082 A 
ATOM      4  C2  PXY d   1      -2.485   2.466  -5.999  0.00  0.00     0.003 A 
ATOM      5  C3  PXY d   1      -2.821   3.795  -5.962  0.00  0.00     0.003 A 
ATOM      6  C4  PXY d   1      -4.135   4.178  -5.974  0.00  0.00    -0.082 A 
ATOM      7  C5  PXY d   1      -5.103   3.237  -5.981  0.00  0.00     0.003 A 
ATOM      8  C6  PXY d   1      -4.741   1.893  -5.976  0.00  0.00     0.003 A 
ENDROOT
TORSDOF 0
ENDMDL
