MODEL 1
REMARK minimizedAffinity -2.68687725
REMARK minimizedRMSD -1
REMARK  0 active torsions:
REMARK  status: ('A' for Active; 'I' for Inactive)
ROOT
ATOM      1  C4' PXY d   1      -4.459  -1.585  -5.976  0.00  0.00     0.077 C 
ATOM      2  C1' PXY d   1      -3.017   4.013  -6.000  0.00  0.00     0.077 C 
ATOM      3  C1  PXY d   1      -3.384   2.542  -5.999  0.00  0.00    -0.082 A 
ATOM      4  C2  PXY d   1      -4.658   2.185  -5.998  0.00  0.00     0.003 A 
ATOM      5  C3  PXY d   1      -5.007   0.859  -5.965  0.00  0.00     0.003 A 
ATOM      6  C4  PXY d   1      -4.042  -0.112  -5.987  0.00  0.00    -0.082 A 
ATOM      7  C5  PXY d   1      -2.740   0.244  -5.998  0.00  0.00     0.003 A 
ATOM      8  C6  PXY d   1      -2.406   1.595  -5.990  0.00  0.00     0.003 A 
ENDROOT
TORSDOF 0
ENDMDL
