MODEL 1
REMARK minimizedAffinity -0.10127572
REMARK minimizedRMSD -1
REMARK  0 active torsions:
REMARK  status: ('A' for Active; 'I' for Inactive)
ROOT
ATOM      1  C4' PXY d   1      -3.369   3.041  -5.999  0.00  0.00     0.077 C 
ATOM      2  C1' PXY d   1      -3.436  -2.740  -5.973  0.00  0.00     0.077 C 
ATOM      3  C1  PXY d   1      -3.406  -1.224  -5.974  0.00  0.00    -0.082 A 
ATOM      4  C2  PXY d   1      -4.543  -0.547  -5.966  0.00  0.00     0.003 A 
ATOM      5  C3  PXY d   1      -4.535   0.823  -6.000  0.00  0.00     0.003 A 
ATOM      6  C4  PXY d   1      -3.351   1.510  -5.988  0.00  0.00    -0.082 A 
ATOM      7  C5  PXY d   1      -2.186   0.827  -5.986  0.00  0.00     0.003 A 
ATOM      8  C6  PXY d   1      -2.216  -0.565  -5.993  0.00  0.00     0.003 A 
ENDROOT
TORSDOF 0
ENDMDL
