MODEL 1
REMARK minimizedAffinity -0.489020467
REMARK minimizedRMSD -1
REMARK  0 active torsions:
REMARK  status: ('A' for Active; 'I' for Inactive)
ROOT
ATOM      1  C4' PXY d   1       0.308   0.364   2.210  0.00  0.00     0.077 C 
ATOM      2  C1' PXY d   1       1.735  -0.062  -3.375  0.00  0.00     0.077 C 
ATOM      3  C1  PXY d   1       1.351   0.042  -1.913  0.00  0.00    -0.082 A 
ATOM      4  C2  PXY d   1       1.716   1.105  -1.214  0.00  0.00     0.003 A 
ATOM      5  C3  PXY d   1       1.404   1.200   0.118  0.00  0.00     0.003 A 
ATOM      6  C4  PXY d   1       0.666   0.222   0.728  0.00  0.00    -0.082 A 
ATOM      7  C5  PXY d   1       0.281  -0.861   0.020  0.00  0.00     0.003 A 
ATOM      8  C6  PXY d   1       0.642  -0.958  -1.321  0.00  0.00     0.003 A 
ENDROOT
TORSDOF 0
ENDMDL
