MODEL 1
REMARK minimizedAffinity 0.859461486
REMARK minimizedRMSD -1
REMARK  0 active torsions:
REMARK  status: ('A' for Active; 'I' for Inactive)
ROOT
ATOM      1  C4' PXY d   1      -5.650  -1.731  -5.686  0.00  0.00     0.077 C 
ATOM      2  C1' PXY d   1      -1.760  -5.998  -5.948  0.00  0.00     0.077 C 
ATOM      3  C1  PXY d   1      -2.788  -4.886  -5.886  0.00  0.00    -0.082 A 
ATOM      4  C2  PXY d   1      -2.391  -3.636  -5.712  0.00  0.00     0.003 A 
ATOM      5  C3  PXY d   1      -3.310  -2.623  -5.622  0.00  0.00     0.003 A 
ATOM      6  C4  PXY d   1      -4.646  -2.884  -5.764  0.00  0.00    -0.082 A 
ATOM      7  C5  PXY d   1      -5.059  -4.156  -5.952  0.00  0.00     0.003 A 
ATOM      8  C6  PXY d   1      -4.113  -5.176  -6.000  0.00  0.00     0.003 A 
ENDROOT
TORSDOF 0
ENDMDL
