MODEL 1
REMARK minimizedAffinity 6.56168079
REMARK minimizedRMSD -1
REMARK  0 active torsions:
REMARK  status: ('A' for Active; 'I' for Inactive)
ROOT
ATOM      1  C4' PXY d   1      -6.000  -2.891   1.503  0.00  0.00     0.077 C 
ATOM      2  C1' PXY d   1      -3.023   2.049   1.124  0.00  0.00     0.077 C 
ATOM      3  C1  PXY d   1      -3.815   0.760   1.223  0.00  0.00    -0.082 A 
ATOM      4  C2  PXY d   1      -3.263  -0.305   1.782  0.00  0.00     0.003 A 
ATOM      5  C3  PXY d   1      -3.954  -1.488   1.850  0.00  0.00     0.003 A 
ATOM      6  C4  PXY d   1      -5.241  -1.566   1.390  0.00  0.00    -0.082 A 
ATOM      7  C5  PXY d   1      -5.814  -0.481   0.829  0.00  0.00     0.003 A 
ATOM      8  C6  PXY d   1      -5.082   0.699   0.731  0.00  0.00     0.003 A 
ENDROOT
TORSDOF 0
ENDMDL
