MODEL 1
REMARK minimizedAffinity -3.04144573
REMARK minimizedRMSD -1
REMARK  0 active torsions:
REMARK  status: ('A' for Active; 'I' for Inactive)
ROOT
ATOM      1  C4' PXY d   1      -3.388   0.129  -5.975  0.00  0.00     0.077 C 
ATOM      2  C1' PXY d   1      -4.324   5.833  -5.988  0.00  0.00     0.077 C 
ATOM      3  C1  PXY d   1      -4.067   4.339  -5.990  0.00  0.00    -0.082 A 
ATOM      4  C2  PXY d   1      -5.089   3.499  -6.000  0.00  0.00     0.003 A 
ATOM      5  C3  PXY d   1      -4.875   2.145  -5.969  0.00  0.00     0.003 A 
ATOM      6  C4  PXY d   1      -3.600   1.645  -5.982  0.00  0.00    -0.082 A 
ATOM      7  C5  PXY d   1      -2.552   2.495  -5.983  0.00  0.00     0.003 A 
ATOM      8  C6  PXY d   1      -2.791   3.866  -5.972  0.00  0.00     0.003 A 
ENDROOT
TORSDOF 0
ENDMDL
