MODEL 1
REMARK minimizedAffinity 10.9506931
REMARK minimizedRMSD -1
REMARK  1 active torsions:
REMARK  status: ('A' for Active; 'I' for Inactive)
REMARK    1  A    between atoms: C1_2  and  C2_3 
ROOT
ATOM      1  C2  UNL d   1       0.623  -1.866   0.913  0.00  0.00    -0.077 A 
ATOM      2  C3  UNL d   1       0.638  -2.669   2.062  0.00  0.00     0.002 A 
ATOM      3  C4  UNL d   1       1.351  -2.270   3.193  0.00  0.00     0.002 A 
ATOM      4  C5  UNL d   1       2.052  -1.065   3.188  0.00  0.00    -0.004 A 
ATOM      5  C6  UNL d   1       2.045  -0.261   2.050  0.00  0.00     0.002 A 
ATOM      6  C7  UNL d   1       1.333  -0.659   0.917  0.00  0.00     0.002 A 
ENDROOT
BRANCH   1   7
ATOM      7  C1  UNL d   1      -0.186  -2.271  -0.292  0.00  0.00     0.055 C 
ATOM      8  C   UNL d   1      -1.591  -1.690  -0.235  0.00  0.00     0.019 C 
ENDBRANCH   1   7
TORSDOF 1
ENDMDL
