MODEL 1
REMARK minimizedAffinity 0.426392704
REMARK minimizedRMSD -1
REMARK  1 active torsions:
REMARK  status: ('A' for Active; 'I' for Inactive)
REMARK    1  A    between atoms: C1_2  and  C2_3 
ROOT
ATOM      1  C2  UNL d   1       0.533  -2.300   1.534  0.00  0.00    -0.077 A 
ATOM      2  C3  UNL d   1       1.096  -1.018   1.613  0.00  0.00     0.002 A 
ATOM      3  C4  UNL d   1       1.741  -0.601   2.779  0.00  0.00     0.002 A 
ATOM      4  C5  UNL d   1       1.834  -1.460   3.872  0.00  0.00    -0.004 A 
ATOM      5  C6  UNL d   1       1.276  -2.736   3.804  0.00  0.00     0.002 A 
ATOM      6  C7  UNL d   1       0.629  -3.154   2.640  0.00  0.00     0.002 A 
ENDROOT
BRANCH   1   7
ATOM      7  C1  UNL d   1      -0.120  -2.770   0.261  0.00  0.00     0.055 C 
ATOM      8  C   UNL d   1      -1.493  -2.139   0.078  0.00  0.00     0.019 C 
ENDBRANCH   1   7
TORSDOF 1
ENDMDL
