MODEL 1
REMARK minimizedAffinity 9.25007248
REMARK minimizedRMSD -1
REMARK  1 active torsions:
REMARK  status: ('A' for Active; 'I' for Inactive)
REMARK    1  A    between atoms: C1_2  and  C2_3 
ROOT
ATOM      1  C2  UNL d   1       2.671  -2.599   3.262  0.00  0.00    -0.077 A 
ATOM      2  C3  UNL d   1       2.325  -3.751   3.983  0.00  0.00     0.002 A 
ATOM      3  C4  UNL d   1       3.306  -4.492   4.644  0.00  0.00     0.002 A 
ATOM      4  C5  UNL d   1       4.638  -4.087   4.595  0.00  0.00    -0.004 A 
ATOM      5  C6  UNL d   1       4.993  -2.945   3.879  0.00  0.00     0.002 A 
ATOM      6  C7  UNL d   1       4.014  -2.204   3.217  0.00  0.00     0.002 A 
ENDROOT
BRANCH   1   7
ATOM      7  C1  UNL d   1       1.608  -1.771   2.589  0.00  0.00     0.055 C 
ATOM      8  C   UNL d   1       2.191  -0.495   2.000  0.00  0.00     0.019 C 
ENDBRANCH   1   7
TORSDOF 1
ENDMDL
