MODEL 1
REMARK minimizedAffinity 0.179709598
REMARK minimizedRMSD -1
REMARK  1 active torsions:
REMARK  status: ('A' for Active; 'I' for Inactive)
REMARK    1  A    between atoms: C1_2  and  C2_3 
ROOT
ATOM      1  C2  UNL d   1       1.056  -0.358   1.060  0.00  0.00    -0.077 A 
ATOM      2  C3  UNL d   1       1.411  -0.816   2.336  0.00  0.00     0.002 A 
ATOM      3  C4  UNL d   1       2.445  -0.200   3.044  0.00  0.00     0.002 A 
ATOM      4  C5  UNL d   1       3.129   0.878   2.486  0.00  0.00    -0.004 A 
ATOM      5  C6  UNL d   1       2.784   1.339   1.216  0.00  0.00     0.002 A 
ATOM      6  C7  UNL d   1       1.751   0.725   0.506  0.00  0.00     0.002 A 
ENDROOT
BRANCH   1   7
ATOM      7  C1  UNL d   1      -0.092  -0.989   0.315  0.00  0.00     0.055 C 
ATOM      8  C   UNL d   1       0.047  -2.504   0.264  0.00  0.00     0.019 C 
ENDBRANCH   1   7
TORSDOF 1
ENDMDL
