MODEL 1
REMARK minimizedAffinity 1.4246701
REMARK minimizedRMSD -1
REMARK  1 active torsions:
REMARK  status: ('A' for Active; 'I' for Inactive)
REMARK    1  A    between atoms: C1_2  and  C2_3 
ROOT
ATOM      1  C2  UNL d   1       1.955  -0.000   2.268  0.00  0.00    -0.077 A 
ATOM      2  C3  UNL d   1       2.608   1.165   1.841  0.00  0.00     0.002 A 
ATOM      3  C4  UNL d   1       2.209   1.809   0.668  0.00  0.00     0.002 A 
ATOM      4  C5  UNL d   1       1.152   1.299  -0.083  0.00  0.00    -0.004 A 
ATOM      5  C6  UNL d   1       0.498   0.140   0.332  0.00  0.00     0.002 A 
ATOM      6  C7  UNL d   1       0.897  -0.506   1.503  0.00  0.00     0.002 A 
ENDROOT
BRANCH   1   7
ATOM      7  C1  UNL d   1       2.353  -0.669   3.558  0.00  0.00     0.055 C 
ATOM      8  C   UNL d   1       1.829  -2.096   3.626  0.00  0.00     0.019 C 
ENDBRANCH   1   7
TORSDOF 1
ENDMDL
