MODEL 1
REMARK minimizedAffinity 0.559670985
REMARK minimizedRMSD -1
REMARK  1 active torsions:
REMARK  status: ('A' for Active; 'I' for Inactive)
REMARK    1  A    between atoms: C1_2  and  C2_3 
ROOT
ATOM      1  C2  UNL d   1      -1.098  -2.066  -1.977  0.00  0.00    -0.077 A 
ATOM      2  C3  UNL d   1      -1.030  -1.371  -0.761  0.00  0.00     0.002 A 
ATOM      3  C4  UNL d   1      -0.254  -1.863   0.291  0.00  0.00     0.002 A 
ATOM      4  C5  UNL d   1       0.462  -3.048   0.136  0.00  0.00    -0.004 A 
ATOM      5  C6  UNL d   1       0.400  -3.747  -1.068  0.00  0.00     0.002 A 
ATOM      6  C7  UNL d   1      -0.376  -3.258  -2.120  0.00  0.00     0.002 A 
ENDROOT
BRANCH   1   7
ATOM      7  C1  UNL d   1      -1.894  -1.512  -3.129  0.00  0.00     0.055 C 
ATOM      8  C   UNL d   1      -1.957   0.008  -3.078  0.00  0.00     0.019 C 
ENDBRANCH   1   7
TORSDOF 1
ENDMDL
