MODEL 1
REMARK minimizedAffinity -3.80876255
REMARK minimizedRMSD -1
REMARK  1 active torsions:
REMARK  status: ('A' for Active; 'I' for Inactive)
REMARK    1  A    between atoms: C1_2  and  C2_3 
ROOT
ATOM      1  C2  UNL d   1       0.256  -2.057   1.279  0.00  0.00    -0.077 A 
ATOM      2  C3  UNL d   1       0.746  -3.099   0.479  0.00  0.00     0.002 A 
ATOM      3  C4  UNL d   1      -0.011  -3.587  -0.587  0.00  0.00     0.002 A 
ATOM      4  C5  UNL d   1      -1.260  -3.037  -0.867  0.00  0.00    -0.004 A 
ATOM      5  C6  UNL d   1      -1.757  -2.002  -0.077  0.00  0.00     0.002 A 
ATOM      6  C7  UNL d   1      -1.003  -1.513   0.991  0.00  0.00     0.002 A 
ENDROOT
BRANCH   1   7
ATOM      7  C1  UNL d   1       1.092  -1.495   2.399  0.00  0.00     0.055 C 
ATOM      8  C   UNL d   1       1.283  -2.515   3.512  0.00  0.00     0.019 C 
ENDBRANCH   1   7
TORSDOF 1
ENDMDL
