MODEL 1
REMARK minimizedAffinity -2.43195295
REMARK minimizedRMSD -1
REMARK  1 active torsions:
REMARK  status: ('A' for Active; 'I' for Inactive)
REMARK    1  A    between atoms: C1_2  and  C2_3 
ROOT
ATOM      1  C2  UNL d   1       0.337  -1.708   0.960  0.00  0.00    -0.077 A 
ATOM      2  C3  UNL d   1       0.849  -0.541   0.375  0.00  0.00     0.002 A 
ATOM      3  C4  UNL d   1       1.853   0.188   1.016  0.00  0.00     0.002 A 
ATOM      4  C5  UNL d   1       2.357  -0.244   2.241  0.00  0.00    -0.004 A 
ATOM      5  C6  UNL d   1       1.853  -1.403   2.831  0.00  0.00     0.002 A 
ATOM      6  C7  UNL d   1       0.849  -2.132   2.193  0.00  0.00     0.002 A 
ENDROOT
BRANCH   1   7
ATOM      7  C1  UNL d   1      -0.711  -2.522   0.247  0.00  0.00     0.055 C 
ATOM      8  C   UNL d   1      -0.098  -3.367  -0.860  0.00  0.00     0.019 C 
ENDBRANCH   1   7
TORSDOF 1
ENDMDL
