MODEL 1
REMARK minimizedAffinity 0.737155557
REMARK minimizedRMSD -1
REMARK  1 active torsions:
REMARK  status: ('A' for Active; 'I' for Inactive)
REMARK    1  A    between atoms: C1_2  and  C2_3 
ROOT
ATOM      1  C2  UNL d   1       1.189   0.780   0.729  0.00  0.00    -0.077 A 
ATOM      2  C3  UNL d   1       0.380   1.842   0.299  0.00  0.00     0.002 A 
ATOM      3  C4  UNL d   1      -0.939   1.609  -0.097  0.00  0.00     0.002 A 
ATOM      4  C5  UNL d   1      -1.461   0.318  -0.064  0.00  0.00    -0.004 A 
ATOM      5  C6  UNL d   1      -0.664  -0.744   0.360  0.00  0.00     0.002 A 
ATOM      6  C7  UNL d   1       0.655  -0.515   0.755  0.00  0.00     0.002 A 
ENDROOT
BRANCH   1   7
ATOM      7  C1  UNL d   1       2.595   1.036   1.203  0.00  0.00     0.055 C 
ATOM      8  C   UNL d   1       2.605   1.771   2.535  0.00  0.00     0.019 C 
ENDBRANCH   1   7
TORSDOF 1
ENDMDL
