MODEL 1
REMARK minimizedAffinity -1.93957627
REMARK minimizedRMSD -1
REMARK  0 active torsions:
REMARK  status: ('A' for Active; 'I' for Inactive)
ROOT
ATOM      1  C   UNL d   1      -4.741   4.491   1.036  0.00  0.00     0.023 A 
ATOM      2  C1  UNL d   1      -4.226   3.846   2.161  0.00  0.00     0.003 A 
ATOM      3  C2  UNL d   1      -4.586   4.276   3.440  0.00  0.00     0.048 A 
ATOM      4  C3  UNL d   1      -5.462   5.350   3.586  0.00  0.00     0.023 A 
ATOM      5  C4  UNL d   1      -5.981   5.998   2.464  0.00  0.00     0.048 A 
ATOM      6  C5  UNL d   1      -5.617   5.565   1.187  0.00  0.00     0.003 A 
ATOM      7  I   UNL d   1      -6.000   5.992   5.489  0.00  0.00    -0.146 I 
ENDROOT
TORSDOF 0
ENDMDL
