MODEL 1
REMARK minimizedAffinity 2.46497893
REMARK minimizedRMSD -1
REMARK  0 active torsions:
REMARK  status: ('A' for Active; 'I' for Inactive)
ROOT
ATOM      1  C   UNL d   1      -4.686   3.808   1.668  0.00  0.00     0.023 A 
ATOM      2  C1  UNL d   1      -5.631   4.832   1.739  0.00  0.00     0.003 A 
ATOM      3  C2  UNL d   1      -5.999   5.360   2.978  0.00  0.00     0.048 A 
ATOM      4  C3  UNL d   1      -5.417   4.861   4.142  0.00  0.00     0.023 A 
ATOM      5  C4  UNL d   1      -4.470   3.838   4.077  0.00  0.00     0.048 A 
ATOM      6  C5  UNL d   1      -4.106   3.312   2.836  0.00  0.00     0.003 A 
ATOM      7  I   UNL d   1      -5.963   5.646   5.988  0.00  0.00    -0.146 I 
ENDROOT
TORSDOF 0
ENDMDL
