MODEL 1
REMARK minimizedAffinity -1.80114651
REMARK minimizedRMSD -1
REMARK  0 active torsions:
REMARK  status: ('A' for Active; 'I' for Inactive)
ROOT
ATOM      1  C   UNL d   1      -4.119   2.632   5.960  0.00  0.00     0.023 A 
ATOM      2  C1  UNL d   1      -5.459   3.018   6.000  0.00  0.00     0.003 A 
ATOM      3  C2  UNL d   1      -5.999   3.777   4.960  0.00  0.00     0.048 A 
ATOM      4  C3  UNL d   1      -5.193   4.147   3.883  0.00  0.00     0.023 A 
ATOM      5  C4  UNL d   1      -3.852   3.762   3.839  0.00  0.00     0.048 A 
ATOM      6  C5  UNL d   1      -3.316   3.003   4.881  0.00  0.00     0.003 A 
ATOM      7  I   UNL d   1      -5.994   5.277   2.334  0.00  0.00    -0.146 I 
ENDROOT
TORSDOF 0
ENDMDL
