MODEL 1
REMARK minimizedAffinity 0.0855241716
REMARK minimizedRMSD -1
REMARK  0 active torsions:
REMARK  status: ('A' for Active; 'I' for Inactive)
ROOT
ATOM      1  C   UNL d   1      -3.411  -0.820   2.240  0.00  0.00     0.023 A 
ATOM      2  C1  UNL d   1      -2.801  -0.071   3.246  0.00  0.00     0.003 A 
ATOM      3  C2  UNL d   1      -3.098   1.286   3.385  0.00  0.00     0.048 A 
ATOM      4  C3  UNL d   1      -4.008   1.888   2.516  0.00  0.00     0.023 A 
ATOM      5  C4  UNL d   1      -4.621   1.142   1.508  0.00  0.00     0.048 A 
ATOM      6  C5  UNL d   1      -4.320  -0.215   1.372  0.00  0.00     0.003 A 
ATOM      7  I   UNL d   1      -4.452   3.908   2.721  0.00  0.00    -0.146 I 
ENDROOT
TORSDOF 0
ENDMDL
