MODEL 1
REMARK minimizedAffinity 11.3726101
REMARK minimizedRMSD -1
REMARK  0 active torsions:
REMARK  status: ('A' for Active; 'I' for Inactive)
ROOT
ATOM      1  C   UNL d   1      -4.422   4.038   1.502  0.00  0.00     0.023 A 
ATOM      2  C1  UNL d   1      -3.751   4.550   2.613  0.00  0.00     0.003 A 
ATOM      3  C2  UNL d   1      -4.202   4.254   3.900  0.00  0.00     0.048 A 
ATOM      4  C3  UNL d   1      -5.325   3.445   4.070  0.00  0.00     0.023 A 
ATOM      5  C4  UNL d   1      -6.000   2.930   2.961  0.00  0.00     0.048 A 
ATOM      6  C5  UNL d   1      -5.545   3.229   1.676  0.00  0.00     0.003 A 
ATOM      7  I   UNL d   1      -6.000   3.002   5.986  0.00  0.00    -0.146 I 
ENDROOT
TORSDOF 0
ENDMDL
