MODEL 1
REMARK minimizedAffinity -2.48481941
REMARK minimizedRMSD -1
REMARK  0 active torsions:
REMARK  status: ('A' for Active; 'I' for Inactive)
ROOT
ATOM      1  C   UNL d   1      -4.858   5.382   1.859  0.00  0.00     0.023 A 
ATOM      2  C1  UNL d   1      -4.620   6.000   3.087  0.00  0.00     0.003 A 
ATOM      3  C2  UNL d   1      -4.886   5.317   4.276  0.00  0.00     0.048 A 
ATOM      4  C3  UNL d   1      -5.388   4.018   4.230  0.00  0.00     0.023 A 
ATOM      5  C4  UNL d   1      -5.627   3.395   3.003  0.00  0.00     0.048 A 
ATOM      6  C5  UNL d   1      -5.361   4.082   1.817  0.00  0.00     0.003 A 
ATOM      7  I   UNL d   1      -5.784   3.000   5.998  0.00  0.00    -0.146 I 
ENDROOT
TORSDOF 0
ENDMDL
