MODEL 1
REMARK minimizedAffinity 9.69989777
REMARK minimizedRMSD -1
REMARK  0 active torsions:
REMARK  status: ('A' for Active; 'I' for Inactive)
ROOT
ATOM      1  C   UNL d   1       2.931   1.982   3.097  0.00  0.00     0.023 A 
ATOM      2  C1  UNL d   1       2.909   0.757   2.432  0.00  0.00     0.003 A 
ATOM      3  C2  UNL d   1       2.397  -0.376   3.068  0.00  0.00     0.048 A 
ATOM      4  C3  UNL d   1       1.907  -0.276   4.370  0.00  0.00     0.023 A 
ATOM      5  C4  UNL d   1       1.926   0.949   5.040  0.00  0.00     0.048 A 
ATOM      6  C5  UNL d   1       2.440   2.078   4.400  0.00  0.00     0.003 A 
ATOM      7  I   UNL d   1       1.145  -1.960   5.319  0.00  0.00    -0.146 I 
ENDROOT
TORSDOF 0
ENDMDL
