MODEL 1
REMARK minimizedAffinity 6.91141319
REMARK minimizedRMSD -1
REMARK  0 active torsions:
REMARK  status: ('A' for Active; 'I' for Inactive)
ROOT
ATOM      1  C   UNL d   1       0.231   0.664  -5.488  0.00  0.00     0.023 A 
ATOM      2  C1  UNL d   1       1.501   0.395  -6.000  0.00  0.00     0.003 A 
ATOM      3  C2  UNL d   1       2.517  -0.049  -5.152  0.00  0.00     0.048 A 
ATOM      4  C3  UNL d   1       2.257  -0.224  -3.793  0.00  0.00     0.023 A 
ATOM      5  C4  UNL d   1       0.988   0.042  -3.277  0.00  0.00     0.048 A 
ATOM      6  C5  UNL d   1      -0.025   0.487  -4.128  0.00  0.00     0.003 A 
ATOM      7  I   UNL d   1       3.768  -0.885  -2.529  0.00  0.00    -0.146 I 
ENDROOT
TORSDOF 0
ENDMDL
