MODEL 1
REMARK minimizedAffinity -2.62163591
REMARK minimizedRMSD -1
REMARK  0 active torsions:
REMARK  status: ('A' for Active; 'I' for Inactive)
ROOT
ATOM      1  C   UNL d   1      -5.608   4.056   5.908  0.00  0.00     0.023 A 
ATOM      2  C1  UNL d   1      -5.250   3.279   4.806  0.00  0.00     0.003 A 
ATOM      3  C2  UNL d   1      -5.266   3.832   3.524  0.00  0.00     0.048 A 
ATOM      4  C3  UNL d   1      -5.641   5.164   3.351  0.00  0.00     0.023 A 
ATOM      5  C4  UNL d   1      -6.000   5.946   4.450  0.00  0.00     0.048 A 
ATOM      6  C5  UNL d   1      -5.983   5.388   5.730  0.00  0.00     0.003 A 
ATOM      7  I   UNL d   1      -5.666   5.990   1.444  0.00  0.00    -0.146 I 
ENDROOT
TORSDOF 0
ENDMDL
