MODEL 1
REMARK minimizedAffinity 0.691673458
REMARK minimizedRMSD -1
REMARK  0 active torsions:
REMARK  status: ('A' for Active; 'I' for Inactive)
ROOT
ATOM      1  C   UNL d   1      -5.943   5.425   1.774  0.00  0.00     0.023 A 
ATOM      2  C1  UNL d   1      -5.923   4.037   1.636  0.00  0.00     0.003 A 
ATOM      3  C2  UNL d   1      -5.938   3.221   2.769  0.00  0.00     0.048 A 
ATOM      4  C3  UNL d   1      -5.974   3.799   4.037  0.00  0.00     0.023 A 
ATOM      5  C4  UNL d   1      -5.995   5.187   4.180  0.00  0.00     0.048 A 
ATOM      6  C5  UNL d   1      -5.979   5.999   3.045  0.00  0.00     0.003 A 
ATOM      7  I   UNL d   1      -5.997   2.586   5.725  0.00  0.00    -0.146 I 
ENDROOT
TORSDOF 0
ENDMDL
