MODEL 1
REMARK minimizedAffinity -2.13998818
REMARK minimizedRMSD -1
REMARK  0 active torsions:
REMARK  status: ('A' for Active; 'I' for Inactive)
ROOT
ATOM      1  C   UNL d   1      -5.530   5.922   3.213  0.00  0.00     0.023 A 
ATOM      2  C1  UNL d   1      -5.778   5.983   4.585  0.00  0.00     0.003 A 
ATOM      3  C2  UNL d   1      -5.555   4.861   5.386  0.00  0.00     0.048 A 
ATOM      4  C3  UNL d   1      -5.084   3.682   4.810  0.00  0.00     0.023 A 
ATOM      5  C4  UNL d   1      -4.833   3.617   3.438  0.00  0.00     0.048 A 
ATOM      6  C5  UNL d   1      -5.058   4.741   2.641  0.00  0.00     0.003 A 
ATOM      7  I   UNL d   1      -4.752   2.011   6.000  0.00  0.00    -0.146 I 
ENDROOT
TORSDOF 0
ENDMDL
