MODEL 1
REMARK minimizedAffinity -2.6024437
REMARK minimizedRMSD -1
REMARK  0 active torsions:
REMARK  status: ('A' for Active; 'I' for Inactive)
ROOT
ATOM      1  C   UNL d   1      -5.252   3.453   6.000  0.00  0.00     0.023 A 
ATOM      2  C1  UNL d   1      -5.781   4.716   5.732  0.00  0.00     0.003 A 
ATOM      3  C2  UNL d   1      -5.993   5.119   4.412  0.00  0.00     0.048 A 
ATOM      4  C3  UNL d   1      -5.676   4.255   3.365  0.00  0.00     0.023 A 
ATOM      5  C4  UNL d   1      -5.147   2.990   3.628  0.00  0.00     0.048 A 
ATOM      6  C5  UNL d   1      -4.935   2.592   4.950  0.00  0.00     0.003 A 
ATOM      7  I   UNL d   1      -5.992   4.853   1.400  0.00  0.00    -0.146 I 
ENDROOT
TORSDOF 0
ENDMDL
