MODEL 1
REMARK minimizedAffinity -1.45830047
REMARK minimizedRMSD -1
REMARK  0 active torsions:
REMARK  status: ('A' for Active; 'I' for Inactive)
ROOT
ATOM      1  C   UNL d   1      -5.812   5.144   1.493  0.00  0.00     0.023 A 
ATOM      2  C1  UNL d   1      -5.939   3.763   1.644  0.00  0.00     0.003 A 
ATOM      3  C2  UNL d   1      -5.992   3.201   2.921  0.00  0.00     0.048 A 
ATOM      4  C3  UNL d   1      -5.919   4.025   4.043  0.00  0.00     0.023 A 
ATOM      5  C4  UNL d   1      -5.793   5.408   3.897  0.00  0.00     0.048 A 
ATOM      6  C5  UNL d   1      -5.739   5.966   2.619  0.00  0.00     0.003 A 
ATOM      7  I   UNL d   1      -5.999   3.190   5.945  0.00  0.00    -0.146 I 
ENDROOT
TORSDOF 0
ENDMDL
