MODEL 1
REMARK minimizedAffinity -3.34148788
REMARK minimizedRMSD -1
REMARK  0 active torsions:
REMARK  status: ('A' for Active; 'I' for Inactive)
ROOT
ATOM      1  C   UNL d   1      -5.647   2.956   5.684  0.00  0.00     0.023 A 
ATOM      2  C1  UNL d   1      -6.000   4.304   5.760  0.00  0.00     0.003 A 
ATOM      3  C2  UNL d   1      -5.852   5.130   4.644  0.00  0.00     0.048 A 
ATOM      4  C3  UNL d   1      -5.351   4.601   3.455  0.00  0.00     0.023 A 
ATOM      5  C4  UNL d   1      -4.997   3.253   3.374  0.00  0.00     0.048 A 
ATOM      6  C5  UNL d   1      -5.146   2.432   4.493  0.00  0.00     0.003 A 
ATOM      7  I   UNL d   1      -5.130   5.828   1.792  0.00  0.00    -0.146 I 
ENDROOT
TORSDOF 0
ENDMDL
