MODEL 1
REMARK minimizedAffinity -2.71597958
REMARK minimizedRMSD -1
REMARK  0 active torsions:
REMARK  status: ('A' for Active; 'I' for Inactive)
ROOT
ATOM      1  C   UNL d   1      -5.287   2.602   5.751  0.00  0.00     0.023 A 
ATOM      2  C1  UNL d   1      -4.787   3.885   5.976  0.00  0.00     0.003 A 
ATOM      3  C2  UNL d   1      -4.891   4.861   4.983  0.00  0.00     0.048 A 
ATOM      4  C3  UNL d   1      -5.497   4.548   3.767  0.00  0.00     0.023 A 
ATOM      5  C4  UNL d   1      -6.000   3.267   3.537  0.00  0.00     0.048 A 
ATOM      6  C5  UNL d   1      -5.893   2.294   4.533  0.00  0.00     0.003 A 
ATOM      7  I   UNL d   1      -5.654   6.000   2.288  0.00  0.00    -0.146 I 
ENDROOT
TORSDOF 0
ENDMDL
