MODEL 1
REMARK minimizedAffinity -3.65240979
REMARK minimizedRMSD -1
REMARK  0 active torsions:
REMARK  status: ('A' for Active; 'I' for Inactive)
ROOT
ATOM      1  C   UNL d   1      -5.915   5.680   2.962  0.00  0.00     0.023 A 
ATOM      2  C1  UNL d   1      -5.415   4.482   2.451  0.00  0.00     0.003 A 
ATOM      3  C2  UNL d   1      -4.997   3.472   3.319  0.00  0.00     0.048 A 
ATOM      4  C3  UNL d   1      -5.083   3.665   4.698  0.00  0.00     0.023 A 
ATOM      5  C4  UNL d   1      -5.584   4.862   5.213  0.00  0.00     0.048 A 
ATOM      6  C5  UNL d   1      -6.000   5.870   4.341  0.00  0.00     0.003 A 
ATOM      7  I   UNL d   1      -4.463   2.162   5.992  0.00  0.00    -0.146 I 
ENDROOT
TORSDOF 0
ENDMDL
