MODEL 1
REMARK minimizedAffinity -3.81802821
REMARK minimizedRMSD -1
REMARK  0 active torsions:
REMARK  status: ('A' for Active; 'I' for Inactive)
ROOT
ATOM      1  C   UNL d   1      -3.954   2.597   6.000  0.00  0.00     0.023 A 
ATOM      2  C1  UNL d   1      -2.992   2.996   5.072  0.00  0.00     0.003 A 
ATOM      3  C2  UNL d   1      -3.354   3.808   3.995  0.00  0.00     0.048 A 
ATOM      4  C3  UNL d   1      -4.679   4.218   3.852  0.00  0.00     0.023 A 
ATOM      5  C4  UNL d   1      -5.645   3.822   4.779  0.00  0.00     0.048 A 
ATOM      6  C5  UNL d   1      -5.279   3.010   5.853  0.00  0.00     0.003 A 
ATOM      7  I   UNL d   1      -5.219   5.427   2.250  0.00  0.00    -0.146 I 
ENDROOT
TORSDOF 0
ENDMDL
