MODEL 1
REMARK minimizedAffinity -3.50644445
REMARK minimizedRMSD -1
REMARK  0 active torsions:
REMARK  status: ('A' for Active; 'I' for Inactive)
ROOT
ATOM      1  C   UNL d   1      -5.440   3.436  -0.386  0.00  0.00     0.023 A 
ATOM      2  C1  UNL d   1      -5.204   2.815   0.841  0.00  0.00     0.003 A 
ATOM      3  C2  UNL d   1      -5.363   3.531   2.029  0.00  0.00     0.048 A 
ATOM      4  C3  UNL d   1      -5.761   4.867   1.983  0.00  0.00     0.023 A 
ATOM      5  C4  UNL d   1      -6.000   5.492   0.758  0.00  0.00     0.048 A 
ATOM      6  C5  UNL d   1      -5.838   4.772  -0.427  0.00  0.00     0.003 A 
ATOM      7  I   UNL d   1      -6.000   5.935   3.751  0.00  0.00    -0.146 I 
ENDROOT
TORSDOF 0
ENDMDL
