MODEL 1
REMARK minimizedAffinity 8.69571686
REMARK minimizedRMSD -1
REMARK  0 active torsions:
REMARK  status: ('A' for Active; 'I' for Inactive)
ROOT
ATOM      1  C2' OXE d   1       2.157   0.224  -0.661  0.00  0.00     0.078 C 
ATOM      2  C1' OXE d   1       3.718  -0.306  -2.933  0.00  0.00     0.078 C 
ATOM      3  C1  OXE d   1       4.271   0.651  -1.907  0.00  0.00    -0.078 A 
ATOM      4  C2  OXE d   1       3.480   0.941  -0.821  0.00  0.00    -0.078 A 
ATOM      5  C3  OXE d   1       3.964   1.775   0.182  0.00  0.00     0.003 A 
ATOM      6  C4  OXE d   1       5.185   2.442   0.021  0.00  0.00    -0.002 A 
ATOM      7  C5  OXE d   1       5.988   2.193  -1.097  0.00  0.00    -0.002 A 
ATOM      8  C6  OXE d   1       5.566   1.269  -2.047  0.00  0.00     0.003 A 
ENDROOT
TORSDOF 0
ENDMDL
