MODEL 1
REMARK minimizedAffinity 13.3681688
REMARK minimizedRMSD -1
REMARK  0 active torsions:
REMARK  status: ('A' for Active; 'I' for Inactive)
ROOT
ATOM      1  C2' OXE d   1       6.000   2.438  -2.411  0.00  0.00     0.078 C 
ATOM      2  C1' OXE d   1       5.780   2.568   0.384  0.00  0.00     0.078 C 
ATOM      3  C1  OXE d   1       4.821   1.669  -0.356  0.00  0.00    -0.078 A 
ATOM      4  C2  OXE d   1       4.906   1.647  -1.727  0.00  0.00    -0.078 A 
ATOM      5  C3  OXE d   1       4.081   0.794  -2.455  0.00  0.00     0.003 A 
ATOM      6  C4  OXE d   1       3.065   0.074  -1.815  0.00  0.00    -0.002 A 
ATOM      7  C5  OXE d   1       2.936   0.113  -0.423  0.00  0.00    -0.002 A 
ATOM      8  C6  OXE d   1       3.832   0.871   0.324  0.00  0.00     0.003 A 
ENDROOT
TORSDOF 0
ENDMDL
