MODEL 1
REMARK minimizedAffinity 9.6808567
REMARK minimizedRMSD -1
REMARK  0 active torsions:
REMARK  status: ('A' for Active; 'I' for Inactive)
ROOT
ATOM      1  C2' OXE d   1      -0.431  -0.741  -1.782  0.00  0.00     0.078 C 
ATOM      2  C1' OXE d   1      -0.012   1.728  -0.513  0.00  0.00     0.078 C 
ATOM      3  C1  OXE d   1       1.202   0.917  -0.891  0.00  0.00    -0.078 A 
ATOM      4  C2  OXE d   1       0.986  -0.311  -1.469  0.00  0.00    -0.078 A 
ATOM      5  C3  OXE d   1       2.072  -1.076  -1.887  0.00  0.00     0.003 A 
ATOM      6  C4  OXE d   1       3.379  -0.676  -1.585  0.00  0.00    -0.002 A 
ATOM      7  C5  OXE d   1       3.619   0.552  -0.961  0.00  0.00    -0.002 A 
ATOM      8  C6  OXE d   1       2.546   1.378  -0.646  0.00  0.00     0.003 A 
ENDROOT
TORSDOF 0
ENDMDL
