MODEL 1
REMARK minimizedAffinity -0.138071656
REMARK minimizedRMSD -1
REMARK  0 active torsions:
REMARK  status: ('A' for Active; 'I' for Inactive)
ROOT
ATOM      1  C2' OXE d   1       0.412   3.772   1.032  0.00  0.00     0.078 C 
ATOM      2  C1' OXE d   1       2.093   1.639   1.743  0.00  0.00     0.078 C 
ATOM      3  C1  OXE d   1       1.128   1.425   0.604  0.00  0.00    -0.078 A 
ATOM      4  C2  OXE d   1       0.277   2.458   0.293  0.00  0.00    -0.078 A 
ATOM      5  C3  OXE d   1      -0.595   2.332  -0.785  0.00  0.00     0.003 A 
ATOM      6  C4  OXE d   1      -0.720   1.110  -1.457  0.00  0.00    -0.002 A 
ATOM      7  C5  OXE d   1       0.110   0.032  -1.130  0.00  0.00    -0.002 A 
ATOM      8  C6  OXE d   1       1.067   0.187  -0.133  0.00  0.00     0.003 A 
ENDROOT
TORSDOF 0
ENDMDL
