MODEL 1
REMARK minimizedAffinity -3.60043073
REMARK minimizedRMSD -1
REMARK  0 active torsions:
REMARK  status: ('A' for Active; 'I' for Inactive)
ROOT
ATOM      1  C2' OXE d   1       4.501   4.395   2.939  0.00  0.00     0.078 C 
ATOM      2  C1' OXE d   1       4.509   5.181   5.634  0.00  0.00     0.078 C 
ATOM      3  C1  OXE d   1       3.327   4.386   5.137  0.00  0.00    -0.078 A 
ATOM      4  C2  OXE d   1       3.310   4.046   3.806  0.00  0.00    -0.078 A 
ATOM      5  C3  OXE d   1       2.270   3.266   3.307  0.00  0.00     0.003 A 
ATOM      6  C4  OXE d   1       1.168   2.956   4.112  0.00  0.00    -0.002 A 
ATOM      7  C5  OXE d   1       1.147   3.327   5.461  0.00  0.00    -0.002 A 
ATOM      8  C6  OXE d   1       2.236   4.004   5.998  0.00  0.00     0.003 A 
ENDROOT
TORSDOF 0
ENDMDL
