MODEL 1
REMARK minimizedAffinity 6.93814039
REMARK minimizedRMSD -1
REMARK  0 active torsions:
REMARK  status: ('A' for Active; 'I' for Inactive)
ROOT
ATOM      1  C2' OXE d   1       5.932   2.281  -2.725  0.00  0.00     0.078 C 
ATOM      2  C1' OXE d   1       5.807   2.258   0.079  0.00  0.00     0.078 C 
ATOM      3  C1  OXE d   1       4.840   1.380  -0.676  0.00  0.00    -0.078 A 
ATOM      4  C2  OXE d   1       4.877   1.433  -2.048  0.00  0.00    -0.078 A 
ATOM      5  C3  OXE d   1       4.045   0.602  -2.793  0.00  0.00     0.003 A 
ATOM      6  C4  OXE d   1       3.065  -0.172  -2.159  0.00  0.00    -0.002 A 
ATOM      7  C5  OXE d   1       2.984  -0.210  -0.763  0.00  0.00    -0.002 A 
ATOM      8  C6  OXE d   1       3.890   0.525  -0.007  0.00  0.00     0.003 A 
ENDROOT
TORSDOF 0
ENDMDL
