MODEL 1
REMARK minimizedAffinity 9.44395447
REMARK minimizedRMSD -1
REMARK  0 active torsions:
REMARK  status: ('A' for Active; 'I' for Inactive)
ROOT
ATOM      1  C2' OXE d   1       0.382   2.343   4.875  0.00  0.00     0.078 C 
ATOM      2  C1' OXE d   1       1.513   2.954   2.380  0.00  0.00     0.078 C 
ATOM      3  C1  OXE d   1       2.329   3.249   3.614  0.00  0.00    -0.078 A 
ATOM      4  C2  OXE d   1       1.749   2.991   4.832  0.00  0.00    -0.078 A 
ATOM      5  C3  OXE d   1       2.479   3.193   6.000  0.00  0.00     0.003 A 
ATOM      6  C4  OXE d   1       3.739   3.802   5.952  0.00  0.00    -0.002 A 
ATOM      7  C5  OXE d   1       4.332   4.110   4.723  0.00  0.00    -0.002 A 
ATOM      8  C6  OXE d   1       3.660   3.802   3.545  0.00  0.00     0.003 A 
ENDROOT
TORSDOF 0
ENDMDL
