MODEL 1
REMARK minimizedAffinity 4.45654488
REMARK minimizedRMSD -1
REMARK  0 active torsions:
REMARK  status: ('A' for Active; 'I' for Inactive)
ROOT
ATOM      1  C2' OXE d   1       1.311   0.070  -1.697  0.00  0.00     0.078 C 
ATOM      2  C1' OXE d   1      -1.165  -1.021  -2.443  0.00  0.00     0.078 C 
ATOM      3  C1  OXE d   1      -1.170   0.292  -1.701  0.00  0.00    -0.078 A 
ATOM      4  C2  OXE d   1       0.043   0.795  -1.299  0.00  0.00    -0.078 A 
ATOM      5  C3  OXE d   1       0.099   2.030  -0.659  0.00  0.00     0.003 A 
ATOM      6  C4  OXE d   1      -1.078   2.689  -0.286  0.00  0.00    -0.002 A 
ATOM      7  C5  OXE d   1      -2.326   2.174  -0.651  0.00  0.00    -0.002 A 
ATOM      8  C6  OXE d   1      -2.388   1.000  -1.394  0.00  0.00     0.003 A 
ENDROOT
TORSDOF 0
ENDMDL
