MODEL 1
REMARK minimizedAffinity 5.35204792
REMARK minimizedRMSD -1
REMARK  0 active torsions:
REMARK  status: ('A' for Active; 'I' for Inactive)
ROOT
ATOM      1  C2' OXE d   1      -0.058   3.411   1.001  0.00  0.00     0.078 C 
ATOM      2  C1' OXE d   1      -0.200   1.778  -1.278  0.00  0.00     0.078 C 
ATOM      3  C1  OXE d   1       1.060   1.723  -0.451  0.00  0.00    -0.078 A 
ATOM      4  C2  OXE d   1       1.139   2.560   0.636  0.00  0.00    -0.078 A 
ATOM      5  C3  OXE d   1       2.257   2.509   1.464  0.00  0.00     0.003 A 
ATOM      6  C4  OXE d   1       3.364   1.726   1.114  0.00  0.00    -0.002 A 
ATOM      7  C5  OXE d   1       3.319   0.896  -0.011  0.00  0.00    -0.002 A 
ATOM      8  C6  OXE d   1       2.160   0.851  -0.779  0.00  0.00     0.003 A 
ENDROOT
TORSDOF 0
ENDMDL
