MODEL 1
REMARK minimizedAffinity 2.39912176
REMARK minimizedRMSD -1
REMARK  0 active torsions:
REMARK  status: ('A' for Active; 'I' for Inactive)
ROOT
ATOM      1  C2' OXE d   1       5.679   2.229   0.379  0.00  0.00     0.078 C 
ATOM      2  C1' OXE d   1       5.915   2.486  -2.407  0.00  0.00     0.078 C 
ATOM      3  C1  OXE d   1       4.783   1.645  -1.871  0.00  0.00    -0.078 A 
ATOM      4  C2  OXE d   1       4.703   1.487  -0.509  0.00  0.00    -0.078 A 
ATOM      5  C3  OXE d   1       3.647   0.766   0.040  0.00  0.00     0.003 A 
ATOM      6  C4  OXE d   1       2.754   0.074  -0.788  0.00  0.00    -0.002 A 
ATOM      7  C5  OXE d   1       2.842   0.190  -2.179  0.00  0.00    -0.002 A 
ATOM      8  C6  OXE d   1       3.823   1.004  -2.735  0.00  0.00     0.003 A 
ENDROOT
TORSDOF 0
ENDMDL
