MODEL 1
REMARK minimizedAffinity 2.9384346
REMARK minimizedRMSD -1
REMARK  0 active torsions:
REMARK  status: ('A' for Active; 'I' for Inactive)
ROOT
ATOM      1  C2' OXE d   1      -1.510  -0.660  -2.060  0.00  0.00     0.078 C 
ATOM      2  C1' OXE d   1       1.170   0.095  -1.700  0.00  0.00     0.078 C 
ATOM      3  C1  OXE d   1       0.105   0.958  -1.071  0.00  0.00    -0.078 A 
ATOM      4  C2  OXE d   1      -1.205   0.608  -1.291  0.00  0.00    -0.078 A 
ATOM      5  C3  OXE d   1      -2.225   1.339  -0.688  0.00  0.00     0.003 A 
ATOM      6  C4  OXE d   1      -1.935   2.516   0.013  0.00  0.00    -0.002 A 
ATOM      7  C5  OXE d   1      -0.609   2.913   0.215  0.00  0.00    -0.002 A 
ATOM      8  C6  OXE d   1       0.422   2.124  -0.282  0.00  0.00     0.003 A 
ENDROOT
TORSDOF 0
ENDMDL
