MODEL 1
REMARK minimizedAffinity -5.42313147
REMARK minimizedRMSD -1
REMARK  2 active torsions:
REMARK  status: ('A' for Active; 'I' for Inactive)
REMARK    1  A    between atoms: C1_2  and  C2_3 
REMARK    2  A    between atoms: C2_3  and  C3_4 
ROOT
ATOM      1  C3  UNL d   1       0.351  -0.370   0.905  0.00  0.00    -0.075 A 
ATOM      2  C4  UNL d   1       1.070  -0.181   2.094  0.00  0.00     0.002 A 
ATOM      3  C5  UNL d   1       0.509   0.527   3.157  0.00  0.00     0.002 A 
ATOM      4  C6  UNL d   1      -0.772   1.063   3.042  0.00  0.00    -0.004 A 
ATOM      5  C7  UNL d   1      -1.489   0.896   1.860  0.00  0.00     0.002 A 
ATOM      6  C8  UNL d   1      -0.932   0.184   0.796  0.00  0.00     0.002 A 
ENDROOT
BRANCH   1   7
ATOM      7  C2  UNL d   1       0.941  -1.160  -0.238  0.00  0.00     0.056 C 
BRANCH   7   8
ATOM      8  C1  UNL d   1       0.013  -1.291  -1.451  0.00  0.00     0.007 C 
ATOM      9  C   UNL d   1       0.561  -0.618  -2.702  0.00  0.00     0.009 C 
ENDBRANCH   7   8
ENDBRANCH   1   7
TORSDOF 2
ENDMDL
