MODEL 1
REMARK minimizedAffinity -6.23909426
REMARK minimizedRMSD -1
REMARK  2 active torsions:
REMARK  status: ('A' for Active; 'I' for Inactive)
REMARK    1  A    between atoms: C1_2  and  C2_3 
REMARK    2  A    between atoms: C2_3  and  C3_4 
ROOT
ATOM      1  C3  UNL d   1       0.058  -0.154   0.026  0.00  0.00    -0.075 A 
ATOM      2  C4  UNL d   1      -1.335  -0.021   0.108  0.00  0.00     0.002 A 
ATOM      3  C5  UNL d   1      -1.922   0.639   1.188  0.00  0.00     0.002 A 
ATOM      4  C6  UNL d   1      -1.125   1.166   2.202  0.00  0.00    -0.004 A 
ATOM      5  C7  UNL d   1       0.259   1.026   2.139  0.00  0.00     0.002 A 
ATOM      6  C8  UNL d   1       0.849   0.369   1.057  0.00  0.00     0.002 A 
ENDROOT
BRANCH   1   7
ATOM      7  C2  UNL d   1       0.701  -0.841  -1.155  0.00  0.00     0.056 C 
BRANCH   7   8
ATOM      8  C1  UNL d   1       0.697  -0.008  -2.441  0.00  0.00     0.007 C 
ATOM      9  C   UNL d   1       0.268  -0.800  -3.669  0.00  0.00     0.009 C 
ENDBRANCH   7   8
ENDBRANCH   1   7
TORSDOF 2
ENDMDL
