MODEL 1
REMARK minimizedAffinity -3.19767356
REMARK minimizedRMSD -1
REMARK  2 active torsions:
REMARK  status: ('A' for Active; 'I' for Inactive)
REMARK    1  A    between atoms: C1_2  and  C2_3 
REMARK    2  A    between atoms: C2_3  and  C3_4 
ROOT
ATOM      1  C3  UNL d   1       0.022   0.045  -0.426  0.00  0.00    -0.075 A 
ATOM      2  C4  UNL d   1      -1.291   0.087   0.063  0.00  0.00     0.002 A 
ATOM      3  C5  UNL d   1      -1.557   0.589   1.338  0.00  0.00     0.002 A 
ATOM      4  C6  UNL d   1      -0.514   1.045   2.141  0.00  0.00    -0.004 A 
ATOM      5  C7  UNL d   1       0.797   0.992   1.671  0.00  0.00     0.002 A 
ATOM      6  C8  UNL d   1       1.065   0.494   0.395  0.00  0.00     0.002 A 
ENDROOT
BRANCH   1   7
ATOM      7  C2  UNL d   1       0.313  -0.470  -1.816  0.00  0.00     0.056 C 
BRANCH   7   8
ATOM      8  C1  UNL d   1       0.974   0.560  -2.737  0.00  0.00     0.007 C 
ATOM      9  C   UNL d   1       0.428   0.533  -4.158  0.00  0.00     0.009 C 
ENDBRANCH   7   8
ENDBRANCH   1   7
TORSDOF 2
ENDMDL
