MODEL 1
REMARK minimizedAffinity 10.6736269
REMARK minimizedRMSD -1
REMARK  1 active torsions:
REMARK  status: ('A' for Active; 'I' for Inactive)
REMARK    1  A    between atoms: N_2  and  C1_3 
ROOT
ATOM      1  C1  UNL d   1       5.655   1.705   2.947  0.00  0.00     0.143 A 
ATOM      2  C2  UNL d   1       5.125   1.019   4.045  0.00  0.00    -0.057 A 
ATOM      3  C3  UNL d   1       4.900   1.667   5.266  0.00  0.00     0.033 A 
ATOM      4  C4  UNL d   1       5.230   3.009   5.420  0.00  0.00    -0.042 A 
ATOM      5  C5  UNL d   1       5.782   3.704   4.350  0.00  0.00     0.033 A 
ATOM      6  C6  UNL d   1       5.998   3.054   3.131  0.00  0.00    -0.057 A 
ENDROOT
BRANCH   1   7
ATOM      7  N   UNL d   1       5.993   1.093   1.738  0.00  0.00    -0.732 N 
ATOM      8  C   UNL d   1       6.000   1.851   0.505  0.00  0.00     0.284 C 
ATOM      9  H3  UNL d   1       6.775   0.449   1.834  0.00  0.00     0.395 HD
ENDBRANCH   1   7
TORSDOF 1
ENDMDL
