MODEL 1
REMARK minimizedAffinity 9.05460644
REMARK minimizedRMSD -1
REMARK  1 active torsions:
REMARK  status: ('A' for Active; 'I' for Inactive)
REMARK    1  A    between atoms: N_2  and  C1_3 
ROOT
ATOM      1  C1  UNL d   1      -0.762   0.193   2.973  0.00  0.00     0.143 A 
ATOM      2  C2  UNL d   1      -1.653  -0.884   2.921  0.00  0.00    -0.057 A 
ATOM      3  C3  UNL d   1      -2.978  -0.710   2.502  0.00  0.00     0.033 A 
ATOM      4  C4  UNL d   1      -3.444   0.554   2.156  0.00  0.00    -0.042 A 
ATOM      5  C5  UNL d   1      -2.583   1.643   2.225  0.00  0.00     0.033 A 
ATOM      6  C6  UNL d   1      -1.259   1.461   2.637  0.00  0.00    -0.057 A 
ENDROOT
BRANCH   1   7
ATOM      7  N   UNL d   1       0.539   0.102   3.474  0.00  0.00    -0.732 N 
ATOM      8  C   UNL d   1       1.123  -1.187   3.781  0.00  0.00     0.284 C 
ATOM      9  H3  UNL d   1       1.178   0.749   3.017  0.00  0.00     0.395 HD
ENDBRANCH   1   7
TORSDOF 1
ENDMDL
