MODEL 1
REMARK minimizedAffinity 8.07183361
REMARK minimizedRMSD -1
REMARK  1 active torsions:
REMARK  status: ('A' for Active; 'I' for Inactive)
REMARK    1  A    between atoms: N_2  and  C1_3 
ROOT
ATOM      1  C1  UNL d   1       1.235  -1.781   3.852  0.00  0.00     0.143 A 
ATOM      2  C2  UNL d   1      -0.076  -1.921   3.386  0.00  0.00    -0.057 A 
ATOM      3  C3  UNL d   1      -0.736  -0.865   2.745  0.00  0.00     0.033 A 
ATOM      4  C4  UNL d   1      -0.102   0.363   2.583  0.00  0.00    -0.042 A 
ATOM      5  C5  UNL d   1       1.193   0.532   3.061  0.00  0.00     0.033 A 
ATOM      6  C6  UNL d   1       1.848  -0.528   3.694  0.00  0.00    -0.057 A 
ENDROOT
BRANCH   1   7
ATOM      7  N   UNL d   1       1.909  -2.761   4.584  0.00  0.00    -0.732 N 
ATOM      8  C   UNL d   1       3.205  -2.486   5.166  0.00  0.00     0.284 C 
ATOM      9  H3  UNL d   1       1.286  -3.291   5.189  0.00  0.00     0.395 HD
ENDBRANCH   1   7
TORSDOF 1
ENDMDL
