MODEL 1
REMARK minimizedAffinity 14.5191307
REMARK minimizedRMSD -1
REMARK  1 active torsions:
REMARK  status: ('A' for Active; 'I' for Inactive)
REMARK    1  A    between atoms: N_2  and  C1_3 
ROOT
ATOM      1  C1  UNL d   1       0.069  -2.263   2.569  0.00  0.00     0.143 A 
ATOM      2  C2  UNL d   1      -0.446  -1.310   1.684  0.00  0.00    -0.057 A 
ATOM      3  C3  UNL d   1      -1.799  -1.310   1.324  0.00  0.00     0.033 A 
ATOM      4  C4  UNL d   1      -2.658  -2.284   1.823  0.00  0.00    -0.042 A 
ATOM      5  C5  UNL d   1      -2.162  -3.256   2.684  0.00  0.00     0.033 A 
ATOM      6  C6  UNL d   1      -0.812  -3.247   3.045  0.00  0.00    -0.057 A 
ENDROOT
BRANCH   1   7
ATOM      7  N   UNL d   1       1.425  -2.377   2.888  0.00  0.00    -0.732 N 
ATOM      8  C   UNL d   1       1.840  -2.720   4.231  0.00  0.00     0.284 C 
ATOM      9  H3  UNL d   1       1.959  -2.841   2.157  0.00  0.00     0.395 HD
ENDBRANCH   1   7
TORSDOF 1
ENDMDL
