MODEL 1
REMARK minimizedAffinity 11.2545633
REMARK minimizedRMSD -1
REMARK  1 active torsions:
REMARK  status: ('A' for Active; 'I' for Inactive)
REMARK    1  A    between atoms: N_2  and  C1_3 
ROOT
ATOM      1  C1  UNL d   1       2.975  -2.122  -4.367  0.00  0.00     0.143 A 
ATOM      2  C2  UNL d   1       1.999  -2.928  -4.964  0.00  0.00    -0.057 A 
ATOM      3  C3  UNL d   1       0.681  -2.481  -5.113  0.00  0.00     0.033 A 
ATOM      4  C4  UNL d   1       0.307  -1.227  -4.641  0.00  0.00    -0.042 A 
ATOM      5  C5  UNL d   1       1.254  -0.419  -4.022  0.00  0.00     0.033 A 
ATOM      6  C6  UNL d   1       2.571  -0.868  -3.882  0.00  0.00    -0.057 A 
ENDROOT
BRANCH   1   7
ATOM      7  N   UNL d   1       4.279  -2.547  -4.101  0.00  0.00    -0.732 N 
ATOM      8  C   UNL d   1       4.916  -3.539  -4.941  0.00  0.00     0.284 C 
ATOM      9  H3  UNL d   1       4.889  -1.781  -3.826  0.00  0.00     0.395 HD
ENDBRANCH   1   7
TORSDOF 1
ENDMDL
