MODEL 1
REMARK minimizedAffinity 12.0091467
REMARK minimizedRMSD -1
REMARK  1 active torsions:
REMARK  status: ('A' for Active; 'I' for Inactive)
REMARK    1  A    between atoms: N_2  and  C1_3 
ROOT
ATOM      1  C1  UNL d   1      -0.146  -1.204  -3.052  0.00  0.00     0.143 A 
ATOM      2  C2  UNL d   1       1.192  -0.961  -3.381  0.00  0.00    -0.057 A 
ATOM      3  C3  UNL d   1       1.602  -0.847  -4.715  0.00  0.00     0.033 A 
ATOM      4  C4  UNL d   1       0.683  -1.003  -5.748  0.00  0.00    -0.042 A 
ATOM      5  C5  UNL d   1      -0.648  -1.269  -5.444  0.00  0.00     0.033 A 
ATOM      6  C6  UNL d   1      -1.052  -1.376  -4.110  0.00  0.00    -0.057 A 
ENDROOT
BRANCH   1   7
ATOM      7  N   UNL d   1      -0.598  -1.426  -1.749  0.00  0.00    -0.732 N 
ATOM      8  C   UNL d   1      -1.787  -2.215  -1.505  0.00  0.00     0.284 C 
ATOM      9  H3  UNL d   1       0.163  -1.610  -1.100  0.00  0.00     0.395 HD
ENDBRANCH   1   7
TORSDOF 1
ENDMDL
