MODEL 1
REMARK minimizedAffinity 12.0649738
REMARK minimizedRMSD -1
REMARK  1 active torsions:
REMARK  status: ('A' for Active; 'I' for Inactive)
REMARK    1  A    between atoms: N_2  and  C1_3 
ROOT
ATOM      1  C1  UNL d   1       0.710  -0.681  -3.635  0.00  0.00     0.143 A 
ATOM      2  C2  UNL d   1       0.829  -1.437  -2.464  0.00  0.00    -0.057 A 
ATOM      3  C3  UNL d   1      -0.295  -1.994  -1.842  0.00  0.00     0.033 A 
ATOM      4  C4  UNL d   1      -1.565  -1.780  -2.368  0.00  0.00    -0.042 A 
ATOM      5  C5  UNL d   1      -1.710  -1.012  -3.517  0.00  0.00     0.033 A 
ATOM      6  C6  UNL d   1      -0.583  -0.464  -4.137  0.00  0.00    -0.057 A 
ENDROOT
BRANCH   1   7
ATOM      7  N   UNL d   1       1.778  -0.019  -4.245  0.00  0.00    -0.732 N 
ATOM      8  C   UNL d   1       3.142  -0.434  -3.996  0.00  0.00     0.284 C 
ATOM      9  H3  UNL d   1       1.586   0.216  -5.216  0.00  0.00     0.395 HD
ENDBRANCH   1   7
TORSDOF 1
ENDMDL
