MODEL 1
REMARK minimizedAffinity -2.21212721
REMARK minimizedRMSD -1
REMARK  0 active torsions:
REMARK  status: ('A' for Active; 'I' for Inactive)
ROOT
ATOM      1  C4' PXY d   1      -1.205  -1.183   1.022  0.00  0.00     0.077 C 
ATOM      2  C1' PXY d   1       1.871   3.707   0.822  0.00  0.00     0.077 C 
ATOM      3  C1  PXY d   1       1.058   2.428   0.863  0.00  0.00    -0.082 A 
ATOM      4  C2  PXY d   1       0.871   1.809   2.018  0.00  0.00     0.003 A 
ATOM      5  C3  PXY d   1       0.165   0.635   2.068  0.00  0.00     0.003 A 
ATOM      6  C4  PXY d   1      -0.399   0.116   0.934  0.00  0.00    -0.082 A 
ATOM      7  C5  PXY d   1      -0.221   0.747  -0.246  0.00  0.00     0.003 A 
ATOM      8  C6  PXY d   1       0.533   1.916  -0.283  0.00  0.00     0.003 A 
ENDROOT
TORSDOF 0
ENDMDL
