MODEL 1
REMARK minimizedAffinity -2.55385756
REMARK minimizedRMSD -1
REMARK  0 active torsions:
REMARK  status: ('A' for Active; 'I' for Inactive)
ROOT
ATOM      1  C4' PXY d   1       1.129   2.049   0.726  0.00  0.00     0.077 C 
ATOM      2  C1' PXY d   1      -0.709  -2.526  -2.291  0.00  0.00     0.077 C 
ATOM      3  C1  PXY d   1      -0.236  -1.329  -1.490  0.00  0.00    -0.082 A 
ATOM      4  C2  PXY d   1       0.337  -0.312  -2.112  0.00  0.00     0.003 A 
ATOM      5  C3  PXY d   1       0.800   0.764  -1.400  0.00  0.00     0.003 A 
ATOM      6  C4  PXY d   1       0.627   0.823  -0.043  0.00  0.00    -0.082 A 
ATOM      7  C5  PXY d   1       0.034  -0.206   0.598  0.00  0.00     0.003 A 
ATOM      8  C6  PXY d   1      -0.392  -1.308  -0.139  0.00  0.00     0.003 A 
ENDROOT
TORSDOF 0
ENDMDL
