MODEL 1
REMARK minimizedAffinity 1.49616933
REMARK minimizedRMSD -1
REMARK  0 active torsions:
REMARK  status: ('A' for Active; 'I' for Inactive)
ROOT
ATOM      1  C4' PXY d   1       0.418  -0.014  -2.747  0.00  0.00     0.077 C 
ATOM      2  C1' PXY d   1      -1.835  -0.997   2.484  0.00  0.00     0.077 C 
ATOM      3  C1  PXY d   1      -1.242  -0.752   1.111  0.00  0.00    -0.082 A 
ATOM      4  C2  PXY d   1      -0.794   0.453   0.798  0.00  0.00     0.003 A 
ATOM      5  C3  PXY d   1      -0.283   0.700  -0.451  0.00  0.00     0.003 A 
ATOM      6  C4  PXY d   1      -0.180  -0.310  -1.370  0.00  0.00    -0.082 A 
ATOM      7  C5  PXY d   1      -0.625  -1.545  -1.054  0.00  0.00     0.003 A 
ATOM      8  C6  PXY d   1      -1.178  -1.765   0.205  0.00  0.00     0.003 A 
ENDROOT
TORSDOF 0
ENDMDL
