MODEL 1
REMARK minimizedAffinity 4.16647768
REMARK minimizedRMSD -1
REMARK  0 active torsions:
REMARK  status: ('A' for Active; 'I' for Inactive)
ROOT
ATOM      1  C4' PXY d   1      -2.787   0.017   2.177  0.00  0.00     0.077 C 
ATOM      2  C1' PXY d   1       1.547   0.137  -1.646  0.00  0.00     0.077 C 
ATOM      3  C1  PXY d   1       0.411   0.092  -0.643  0.00  0.00    -0.082 A 
ATOM      4  C2  PXY d   1      -0.472   1.077  -0.611  0.00  0.00     0.003 A 
ATOM      5  C3  PXY d   1      -1.487   1.068   0.311  0.00  0.00     0.003 A 
ATOM      6  C4  PXY d   1      -1.630   0.015   1.175  0.00  0.00    -0.082 A 
ATOM      7  C5  PXY d   1      -0.739  -0.998   1.141  0.00  0.00     0.003 A 
ATOM      8  C6  PXY d   1       0.308  -0.951   0.225  0.00  0.00     0.003 A 
ENDROOT
TORSDOF 0
ENDMDL
