MODEL 1
REMARK minimizedAffinity -0.0470823199
REMARK minimizedRMSD -1
REMARK  0 active torsions:
REMARK  status: ('A' for Active; 'I' for Inactive)
ROOT
ATOM      1  C4' PXY d   1      -2.457   0.374   1.530  0.00  0.00     0.077 C 
ATOM      2  C1' PXY d   1       2.504  -0.608  -1.271  0.00  0.00     0.077 C 
ATOM      3  C1  PXY d   1       1.207  -0.358  -0.527  0.00  0.00    -0.082 A 
ATOM      4  C2  PXY d   1       0.136   0.039  -1.194  0.00  0.00     0.003 A 
ATOM      5  C3  PXY d   1      -1.037   0.301  -0.533  0.00  0.00     0.003 A 
ATOM      6  C4  PXY d   1      -1.129   0.101   0.819  0.00  0.00    -0.082 A 
ATOM      7  C5  PXY d   1      -0.043  -0.315   1.505  0.00  0.00     0.003 A 
ATOM      8  C6  PXY d   1       1.149  -0.535   0.821  0.00  0.00     0.003 A 
ENDROOT
TORSDOF 0
ENDMDL
