MODEL 1
REMARK minimizedAffinity -4.89957523
REMARK minimizedRMSD -1
REMARK  0 active torsions:
REMARK  status: ('A' for Active; 'I' for Inactive)
ROOT
ATOM      1  C4' PXY d   1      -1.132  -2.008   0.947  0.00  0.00     0.077 C 
ATOM      2  C1' PXY d   1       0.248   3.518  -0.042  0.00  0.00     0.077 C 
ATOM      3  C1  PXY d   1      -0.120   2.072   0.228  0.00  0.00    -0.082 A 
ATOM      4  C2  PXY d   1       0.616   1.102  -0.289  0.00  0.00     0.003 A 
ATOM      5  C3  PXY d   1       0.279  -0.211  -0.081  0.00  0.00     0.003 A 
ATOM      6  C4  PXY d   1      -0.792  -0.534   0.708  0.00  0.00    -0.082 A 
ATOM      7  C5  PXY d   1      -1.542   0.450   1.248  0.00  0.00     0.003 A 
ATOM      8  C6  PXY d   1      -1.207   1.776   0.991  0.00  0.00     0.003 A 
ENDROOT
TORSDOF 0
ENDMDL
