MODEL 1
REMARK minimizedAffinity -3.26583815
REMARK minimizedRMSD -1
REMARK  0 active torsions:
REMARK  status: ('A' for Active; 'I' for Inactive)
ROOT
ATOM      1  C4' PXY d   1       0.748   2.774  -0.004  0.00  0.00     0.077 C 
ATOM      2  C1' PXY d   1      -0.714  -2.800   0.458  0.00  0.00     0.077 C 
ATOM      3  C1  PXY d   1      -0.323  -1.341   0.327  0.00  0.00    -0.082 A 
ATOM      4  C2  PXY d   1      -0.418  -0.541   1.377  0.00  0.00     0.003 A 
ATOM      5  C3  PXY d   1      -0.099   0.788   1.267  0.00  0.00     0.003 A 
ATOM      6  C4  PXY d   1       0.373   1.292   0.085  0.00  0.00    -0.082 A 
ATOM      7  C5  PXY d   1       0.483   0.480  -0.988  0.00  0.00     0.003 A 
ATOM      8  C6  PXY d   1       0.115  -0.857  -0.867  0.00  0.00     0.003 A 
ENDROOT
TORSDOF 0
ENDMDL
