MODEL 1
REMARK minimizedAffinity -1.53442705
REMARK minimizedRMSD -1
REMARK  0 active torsions:
REMARK  status: ('A' for Active; 'I' for Inactive)
ROOT
ATOM      1  C4' PXY d   1       0.819  -0.164  -2.715  0.00  0.00     0.077 C 
ATOM      2  C1' PXY d   1      -2.060   0.123   2.290  0.00  0.00     0.077 C 
ATOM      3  C1  PXY d   1      -1.302   0.061   0.978  0.00  0.00    -0.082 A 
ATOM      4  C2  PXY d   1      -1.591  -0.886   0.101  0.00  0.00     0.003 A 
ATOM      5  C3  PXY d   1      -0.893  -0.977  -1.076  0.00  0.00     0.003 A 
ATOM      6  C4  PXY d   1       0.073  -0.057  -1.382  0.00  0.00    -0.082 A 
ATOM      7  C5  PXY d   1       0.366   0.919  -0.496  0.00  0.00     0.003 A 
ATOM      8  C6  PXY d   1      -0.325   0.969   0.711  0.00  0.00     0.003 A 
ENDROOT
TORSDOF 0
ENDMDL
