MODEL 1
REMARK minimizedAffinity 0.219833523
REMARK minimizedRMSD -1
REMARK  0 active torsions:
REMARK  status: ('A' for Active; 'I' for Inactive)
ROOT
ATOM      1  C4' PXY d   1       1.656   3.373   1.498  0.00  0.00     0.077 C 
ATOM      2  C1' PXY d   1       0.480  -0.740  -2.391  0.00  0.00     0.077 C 
ATOM      3  C1  PXY d   1       0.776   0.343  -1.371  0.00  0.00    -0.082 A 
ATOM      4  C2  PXY d   1       2.020   0.765  -1.207  0.00  0.00     0.003 A 
ATOM      5  C3  PXY d   1       2.310   1.720  -0.268  0.00  0.00     0.003 A 
ATOM      6  C4  PXY d   1       1.309   2.288   0.474  0.00  0.00    -0.082 A 
ATOM      7  C5  PXY d   1       0.036   1.871   0.305  0.00  0.00     0.003 A 
ATOM      8  C6  PXY d   1      -0.231   0.871  -0.624  0.00  0.00     0.003 A 
ENDROOT
TORSDOF 0
ENDMDL
