MODEL 1
REMARK minimizedAffinity -4.53681231
REMARK minimizedRMSD -1
REMARK  0 active torsions:
REMARK  status: ('A' for Active; 'I' for Inactive)
ROOT
ATOM      1  C4' PXY d   1       0.750   2.704   0.179  0.00  0.00     0.077 C 
ATOM      2  C1' PXY d   1      -0.852  -2.761  -0.813  0.00  0.00     0.077 C 
ATOM      3  C1  PXY d   1      -0.425  -1.328  -0.564  0.00  0.00    -0.082 A 
ATOM      4  C2  PXY d   1      -0.405  -0.857   0.672  0.00  0.00     0.003 A 
ATOM      5  C3  PXY d   1      -0.052   0.446   0.912  0.00  0.00     0.003 A 
ATOM      6  C4  PXY d   1       0.335   1.260  -0.119  0.00  0.00    -0.082 A 
ATOM      7  C5  PXY d   1       0.327   0.784  -1.382  0.00  0.00     0.003 A 
ATOM      8  C6  PXY d   1      -0.074  -0.530  -1.608  0.00  0.00     0.003 A 
ENDROOT
TORSDOF 0
ENDMDL
