MODEL 1
REMARK minimizedAffinity -4.64933872
REMARK minimizedRMSD -1
REMARK  0 active torsions:
REMARK  status: ('A' for Active; 'I' for Inactive)
ROOT
ATOM      1  C4' PXY d   1       1.568   2.915   0.289  0.00  0.00     0.077 C 
ATOM      2  C1' PXY d   1      -1.082  -2.222   0.213  0.00  0.00     0.077 C 
ATOM      3  C1  PXY d   1      -0.393  -0.872   0.221  0.00  0.00    -0.082 A 
ATOM      4  C2  PXY d   1       0.736  -0.718   0.894  0.00  0.00     0.003 A 
ATOM      5  C3  PXY d   1       1.355   0.504   0.939  0.00  0.00     0.003 A 
ATOM      6  C4  PXY d   1       0.842   1.567   0.245  0.00  0.00    -0.082 A 
ATOM      7  C5  PXY d   1      -0.303   1.415  -0.453  0.00  0.00     0.003 A 
ATOM      8  C6  PXY d   1      -0.939   0.177  -0.452  0.00  0.00     0.003 A 
ENDROOT
TORSDOF 0
ENDMDL
