MODEL 1
REMARK minimizedAffinity -1.66139758
REMARK minimizedRMSD -1
REMARK  0 active torsions:
REMARK  status: ('A' for Active; 'I' for Inactive)
ROOT
ATOM      1  C4' PXY d   1       1.214   3.216   0.747  0.00  0.00     0.077 C 
ATOM      2  C1' PXY d   1      -1.363  -1.908   0.029  0.00  0.00     0.077 C 
ATOM      3  C1  PXY d   1      -0.680  -0.566   0.206  0.00  0.00    -0.082 A 
ATOM      4  C2  PXY d   1      -0.561  -0.048   1.418  0.00  0.00     0.003 A 
ATOM      5  C3  PXY d   1       0.025   1.179   1.592  0.00  0.00     0.003 A 
ATOM      6  C4  PXY d   1       0.541   1.859   0.522  0.00  0.00    -0.082 A 
ATOM      7  C5  PXY d   1       0.432   1.333  -0.716  0.00  0.00     0.003 A 
ATOM      8  C6  PXY d   1      -0.203   0.104  -0.877  0.00  0.00     0.003 A 
ENDROOT
TORSDOF 0
ENDMDL
