MODEL 1
REMARK minimizedAffinity -2.03647733
REMARK minimizedRMSD -1
REMARK  0 active torsions:
REMARK  status: ('A' for Active; 'I' for Inactive)
ROOT
ATOM      1  C4' PXY d   1       0.852   2.714   0.396  0.00  0.00     0.077 C 
ATOM      2  C1' PXY d   1      -1.527  -2.550   0.609  0.00  0.00     0.077 C 
ATOM      3  C1  PXY d   1      -0.900  -1.172   0.541  0.00  0.00    -0.082 A 
ATOM      4  C2  PXY d   1      -0.513  -0.574   1.655  0.00  0.00     0.003 A 
ATOM      5  C3  PXY d   1       0.028   0.686   1.615  0.00  0.00     0.003 A 
ATOM      6  C4  PXY d   1       0.222   1.318   0.416  0.00  0.00    -0.082 A 
ATOM      7  C5  PXY d   1      -0.160   0.710  -0.726  0.00  0.00     0.003 A 
ATOM      8  C6  PXY d   1      -0.745  -0.552  -0.660  0.00  0.00     0.003 A 
ENDROOT
TORSDOF 0
ENDMDL
