MODEL 1
REMARK minimizedAffinity 5.05616808
REMARK minimizedRMSD -1
REMARK  0 active torsions:
REMARK  status: ('A' for Active; 'I' for Inactive)
ROOT
ATOM      1  C4' PXY d   1       0.522  -0.342  -2.401  0.00  0.00     0.077 C 
ATOM      2  C1' PXY d   1      -1.905  -0.062   2.838  0.00  0.00     0.077 C 
ATOM      3  C1  PXY d   1      -1.267  -0.122   1.464  0.00  0.00    -0.082 A 
ATOM      4  C2  PXY d   1      -1.530  -1.143   0.665  0.00  0.00     0.003 A 
ATOM      5  C3  PXY d   1      -0.937  -1.230  -0.568  0.00  0.00     0.003 A 
ATOM      6  C4  PXY d   1      -0.107  -0.235  -1.009  0.00  0.00    -0.082 A 
ATOM      7  C5  PXY d   1       0.158   0.816  -0.204  0.00  0.00     0.003 A 
ATOM      8  C6  PXY d   1      -0.422   0.865   1.060  0.00  0.00     0.003 A 
ENDROOT
TORSDOF 0
ENDMDL
