MODEL 1
REMARK minimizedAffinity -0.869743109
REMARK minimizedRMSD -1
REMARK  0 active torsions:
REMARK  status: ('A' for Active; 'I' for Inactive)
ROOT
ATOM      1  C4' PXY d   1      -1.596  -2.019   1.189  0.00  0.00     0.077 C 
ATOM      2  C1' PXY d   1       1.317   2.888   0.271  0.00  0.00     0.077 C 
ATOM      3  C1  PXY d   1       0.542   1.608   0.513  0.00  0.00    -0.082 A 
ATOM      4  C2  PXY d   1       1.161   0.554   1.019  0.00  0.00     0.003 A 
ATOM      5  C3  PXY d   1       0.483  -0.622   1.214  0.00  0.00     0.003 A 
ATOM      6  C4  PXY d   1      -0.855  -0.703   0.937  0.00  0.00    -0.082 A 
ATOM      7  C5  PXY d   1      -1.497   0.371   0.430  0.00  0.00     0.003 A 
ATOM      8  C6  PXY d   1      -0.781   1.542   0.201  0.00  0.00     0.003 A 
ENDROOT
TORSDOF 0
ENDMDL
