MODEL 1
REMARK minimizedAffinity -5.66854811
REMARK minimizedRMSD -1
REMARK  0 active torsions:
REMARK  status: ('A' for Active; 'I' for Inactive)
ROOT
ATOM      1  C4' PXY d   1       0.068   1.629  -0.204  0.00  0.00     0.077 C 
ATOM      2  C1' PXY d   1      -0.104  -4.143  -0.478  0.00  0.00     0.077 C 
ATOM      3  C1  PXY d   1      -0.068  -2.629  -0.397  0.00  0.00    -0.082 A 
ATOM      4  C2  PXY d   1       0.382  -1.930  -1.426  0.00  0.00     0.003 A 
ATOM      5  C3  PXY d   1       0.451  -0.562  -1.358  0.00  0.00     0.003 A 
ATOM      6  C4  PXY d   1       0.005   0.099  -0.245  0.00  0.00    -0.082 A 
ATOM      7  C5  PXY d   1      -0.466  -0.607   0.805  0.00  0.00     0.003 A 
ATOM      8  C6  PXY d   1      -0.489  -1.996   0.731  0.00  0.00     0.003 A 
ENDROOT
TORSDOF 0
ENDMDL
