MODEL 1
REMARK minimizedAffinity -2.7915082
REMARK minimizedRMSD -1
REMARK  0 active torsions:
REMARK  status: ('A' for Active; 'I' for Inactive)
ROOT
ATOM      1  C4' PXY d   1       0.451   2.494   0.026  0.00  0.00     0.077 C 
ATOM      2  C1' PXY d   1      -0.354  -3.226   0.234  0.00  0.00     0.077 C 
ATOM      3  C1  PXY d   1      -0.132  -1.728   0.172  0.00  0.00    -0.082 A 
ATOM      4  C2  PXY d   1      -0.607  -0.956   1.136  0.00  0.00     0.003 A 
ATOM      5  C3  PXY d   1      -0.443   0.404   1.079  0.00  0.00     0.003 A 
ATOM      6  C4  PXY d   1       0.260   0.975   0.052  0.00  0.00    -0.082 A 
ATOM      7  C5  PXY d   1       0.756   0.194  -0.930  0.00  0.00     0.003 A 
ATOM      8  C6  PXY d   1       0.544  -1.181  -0.875  0.00  0.00     0.003 A 
ENDROOT
TORSDOF 0
ENDMDL
