MODEL 1
REMARK minimizedAffinity -5.17677546
REMARK minimizedRMSD -1
REMARK  0 active torsions:
REMARK  status: ('A' for Active; 'I' for Inactive)
ROOT
ATOM      1  C4' PXY d   1      -1.054  -2.277   0.943  0.00  0.00     0.077 C 
ATOM      2  C1' PXY d   1       0.651   3.174   0.054  0.00  0.00     0.077 C 
ATOM      3  C1  PXY d   1       0.214   1.741   0.279  0.00  0.00    -0.082 A 
ATOM      4  C2  PXY d   1      -1.032   1.487   0.644  0.00  0.00     0.003 A 
ATOM      5  C3  PXY d   1      -1.436   0.199   0.883  0.00  0.00     0.003 A 
ATOM      6  C4  PXY d   1      -0.570  -0.845   0.695  0.00  0.00    -0.082 A 
ATOM      7  C5  PXY d   1       0.700  -0.595   0.312  0.00  0.00     0.003 A 
ATOM      8  C6  PXY d   1       1.101   0.723   0.115  0.00  0.00     0.003 A 
ENDROOT
TORSDOF 0
ENDMDL
