MODEL 1
REMARK minimizedAffinity -5.23374891
REMARK minimizedRMSD -1
REMARK  0 active torsions:
REMARK  status: ('A' for Active; 'I' for Inactive)
ROOT
ATOM      1  C4' PXY d   1       0.370   1.897  -0.244  0.00  0.00     0.077 C 
ATOM      2  C1' PXY d   1       0.123  -3.877  -0.337  0.00  0.00     0.077 C 
ATOM      3  C1  PXY d   1       0.182  -2.363  -0.301  0.00  0.00    -0.082 A 
ATOM      4  C2  PXY d   1       0.239  -1.683  -1.435  0.00  0.00     0.003 A 
ATOM      5  C3  PXY d   1       0.325  -0.315  -1.419  0.00  0.00     0.003 A 
ATOM      6  C4  PXY d   1       0.299   0.368  -0.233  0.00  0.00    -0.082 A 
ATOM      7  C5  PXY d   1       0.230  -0.318   0.928  0.00  0.00     0.003 A 
ATOM      8  C6  PXY d   1       0.185  -1.709   0.892  0.00  0.00     0.003 A 
ENDROOT
TORSDOF 0
ENDMDL
