MODEL 1
REMARK minimizedAffinity -2.05471468
REMARK minimizedRMSD -1
REMARK  0 active torsions:
REMARK  status: ('A' for Active; 'I' for Inactive)
ROOT
ATOM      1  C4' PXY d   1      -0.890  -3.601  -1.526  0.00  0.00     0.077 C 
ATOM      2  C1' PXY d   1      -0.047   1.761   0.463  0.00  0.00     0.077 C 
ATOM      3  C1  PXY d   1      -0.268   0.350  -0.046  0.00  0.00    -0.082 A 
ATOM      4  C2  PXY d   1       0.048   0.049  -1.295  0.00  0.00     0.003 A 
ATOM      5  C3  PXY d   1      -0.175  -1.213  -1.782  0.00  0.00     0.003 A 
ATOM      6  C4  PXY d   1      -0.676  -2.192  -0.966  0.00  0.00    -0.082 A 
ATOM      7  C5  PXY d   1      -0.990  -1.895   0.313  0.00  0.00     0.003 A 
ATOM      8  C6  PXY d   1      -0.795  -0.597   0.776  0.00  0.00     0.003 A 
ENDROOT
TORSDOF 0
ENDMDL
