MODEL 1
REMARK minimizedAffinity -5.01582289
REMARK minimizedRMSD -1
REMARK  0 active torsions:
REMARK  status: ('A' for Active; 'I' for Inactive)
ROOT
ATOM      1  C   UNL d   1      -0.981   1.133  -0.033  0.00  0.00     0.078 C 
ATOM      2  C1  UNL d   1      -0.035  -0.015   0.154  0.00  0.00    -0.077 A 
ATOM      3  C2  UNL d   1       1.344   0.150  -0.027  0.00  0.00    -0.001 A 
ATOM      4  C3  UNL d   1       2.212  -0.930   0.142  0.00  0.00     0.003 A 
ATOM      5  C4  UNL d   1       1.711  -2.183   0.491  0.00  0.00    -0.005 A 
ATOM      6  C5  UNL d   1       0.341  -2.357   0.671  0.00  0.00     0.003 A 
ATOM      7  C6  UNL d   1      -0.529  -1.278   0.503  0.00  0.00    -0.001 A 
ENDROOT
TORSDOF 0
ENDMDL
