MODEL 1
REMARK minimizedAffinity -4.94583702
REMARK minimizedRMSD -1
REMARK  0 active torsions:
REMARK  status: ('A' for Active; 'I' for Inactive)
ROOT
ATOM      1  C   UNL d   1       1.010  -2.873   0.426  0.00  0.00     0.078 C 
ATOM      2  C1  UNL d   1       0.820  -1.391   0.307  0.00  0.00    -0.077 A 
ATOM      3  C2  UNL d   1      -0.431  -0.804   0.528  0.00  0.00    -0.001 A 
ATOM      4  C3  UNL d   1      -0.596   0.577   0.405  0.00  0.00     0.003 A 
ATOM      5  C4  UNL d   1       0.488   1.382   0.059  0.00  0.00    -0.005 A 
ATOM      6  C5  UNL d   1       1.737   0.807  -0.165  0.00  0.00     0.003 A 
ATOM      7  C6  UNL d   1       1.903  -0.573  -0.042  0.00  0.00    -0.001 A 
ENDROOT
TORSDOF 0
ENDMDL
