MODEL 1
REMARK minimizedAffinity -5.4406743
REMARK minimizedRMSD -1
REMARK  0 active torsions:
REMARK  status: ('A' for Active; 'I' for Inactive)
ROOT
ATOM      1  C   UNL d   1       1.439  -2.524   0.833  0.00  0.00     0.078 C 
ATOM      2  C1  UNL d   1       0.774  -1.183   0.737  0.00  0.00    -0.077 A 
ATOM      3  C2  UNL d   1      -0.423  -0.922   1.415  0.00  0.00    -0.001 A 
ATOM      4  C3  UNL d   1      -1.036   0.327   1.309  0.00  0.00     0.003 A 
ATOM      5  C4  UNL d   1      -0.461   1.325   0.524  0.00  0.00    -0.005 A 
ATOM      6  C5  UNL d   1       0.729   1.073  -0.156  0.00  0.00     0.003 A 
ATOM      7  C6  UNL d   1       1.344  -0.175  -0.051  0.00  0.00    -0.001 A 
ENDROOT
TORSDOF 0
ENDMDL
