MODEL 1
REMARK minimizedAffinity -3.67541218
REMARK minimizedRMSD -1
REMARK  0 active torsions:
REMARK  status: ('A' for Active; 'I' for Inactive)
ROOT
ATOM      1  C   UNL d   1       1.704  -2.816   0.727  0.00  0.00     0.078 C 
ATOM      2  C1  UNL d   1       1.063  -1.524   0.315  0.00  0.00    -0.077 A 
ATOM      3  C2  UNL d   1       1.762  -0.586  -0.455  0.00  0.00    -0.001 A 
ATOM      4  C3  UNL d   1       1.156   0.616  -0.824  0.00  0.00     0.003 A 
ATOM      5  C4  UNL d   1      -0.151   0.892  -0.426  0.00  0.00    -0.005 A 
ATOM      6  C5  UNL d   1      -0.853  -0.035   0.341  0.00  0.00     0.003 A 
ATOM      7  C6  UNL d   1      -0.249  -1.237   0.711  0.00  0.00    -0.001 A 
ENDROOT
TORSDOF 0
ENDMDL
