MODEL 1
REMARK minimizedAffinity -5.52964306
REMARK minimizedRMSD -1
REMARK  0 active torsions:
REMARK  status: ('A' for Active; 'I' for Inactive)
ROOT
ATOM      1  C   UNL d   1       1.103  -2.586   0.887  0.00  0.00     0.078 C 
ATOM      2  C1  UNL d   1       0.301  -1.323   0.783  0.00  0.00    -0.077 A 
ATOM      3  C2  UNL d   1       0.458  -0.456  -0.305  0.00  0.00    -0.001 A 
ATOM      4  C3  UNL d   1      -0.288   0.721  -0.384  0.00  0.00     0.003 A 
ATOM      5  C4  UNL d   1      -1.196   1.042   0.623  0.00  0.00    -0.005 A 
ATOM      6  C5  UNL d   1      -1.358   0.187   1.711  0.00  0.00     0.003 A 
ATOM      7  C6  UNL d   1      -0.613  -0.990   1.791  0.00  0.00    -0.001 A 
ENDROOT
TORSDOF 0
ENDMDL
