MODEL 1
REMARK minimizedAffinity -4.3308506
REMARK minimizedRMSD -1
REMARK  0 active torsions:
REMARK  status: ('A' for Active; 'I' for Inactive)
ROOT
ATOM      1  C   UNL d   1      -1.125   1.500  -0.264  0.00  0.00     0.078 C 
ATOM      2  C1  UNL d   1      -0.072   0.465  -0.000  0.00  0.00    -0.077 A 
ATOM      3  C2  UNL d   1       1.281   0.735  -0.241  0.00  0.00    -0.001 A 
ATOM      4  C3  UNL d   1       2.249  -0.241   0.000  0.00  0.00     0.003 A 
ATOM      5  C4  UNL d   1       1.875  -1.493   0.483  0.00  0.00    -0.005 A 
ATOM      6  C5  UNL d   1       0.531  -1.772   0.724  0.00  0.00     0.003 A 
ATOM      7  C6  UNL d   1      -0.439  -0.797   0.483  0.00  0.00    -0.001 A 
ENDROOT
TORSDOF 0
ENDMDL
