MODEL 1
REMARK minimizedAffinity -4.6159668
REMARK minimizedRMSD -1
REMARK  0 active torsions:
REMARK  status: ('A' for Active; 'I' for Inactive)
ROOT
ATOM      1  C   UNL d   1      -0.805   1.621  -0.471  0.00  0.00     0.078 C 
ATOM      2  C1  UNL d   1       0.088   0.486  -0.066  0.00  0.00    -0.077 A 
ATOM      3  C2  UNL d   1       1.435   0.458  -0.448  0.00  0.00    -0.001 A 
ATOM      4  C3  UNL d   1       2.253  -0.609  -0.072  0.00  0.00     0.003 A 
ATOM      5  C4  UNL d   1       1.732  -1.657   0.685  0.00  0.00    -0.005 A 
ATOM      6  C5  UNL d   1       0.392  -1.638   1.068  0.00  0.00     0.003 A 
ATOM      7  C6  UNL d   1      -0.427  -0.572   0.693  0.00  0.00    -0.001 A 
ENDROOT
TORSDOF 0
ENDMDL
