MODEL 1
REMARK minimizedAffinity -4.69462013
REMARK minimizedRMSD -1
REMARK  0 active torsions:
REMARK  status: ('A' for Active; 'I' for Inactive)
ROOT
ATOM      1  C   UNL d   1       1.468  -2.592   0.817  0.00  0.00     0.078 C 
ATOM      2  C1  UNL d   1       0.730  -1.327   0.500  0.00  0.00    -0.077 A 
ATOM      3  C2  UNL d   1       1.310  -0.335  -0.300  0.00  0.00    -0.001 A 
ATOM      4  C3  UNL d   1       0.615   0.843  -0.580  0.00  0.00     0.003 A 
ATOM      5  C4  UNL d   1      -0.664   1.040  -0.063  0.00  0.00    -0.005 A 
ATOM      6  C5  UNL d   1      -1.249   0.060   0.736  0.00  0.00     0.003 A 
ATOM      7  C6  UNL d   1      -0.555  -1.119   1.017  0.00  0.00    -0.001 A 
ENDROOT
TORSDOF 0
ENDMDL
