MODEL 1
REMARK minimizedAffinity -4.08684778
REMARK minimizedRMSD -1
REMARK  0 active torsions:
REMARK  status: ('A' for Active; 'I' for Inactive)
ROOT
ATOM      1  C   UNL d   1      -0.710   1.310  -0.443  0.00  0.00     0.078 C 
ATOM      2  C1  UNL d   1       0.016   0.056  -0.057  0.00  0.00    -0.077 A 
ATOM      3  C2  UNL d   1       1.335  -0.170  -0.470  0.00  0.00    -0.001 A 
ATOM      4  C3  UNL d   1       1.995  -1.346  -0.112  0.00  0.00     0.003 A 
ATOM      5  C4  UNL d   1       1.345  -2.306   0.660  0.00  0.00    -0.005 A 
ATOM      6  C5  UNL d   1       0.032  -2.091   1.074  0.00  0.00     0.003 A 
ATOM      7  C6  UNL d   1      -0.630  -0.916   0.717  0.00  0.00    -0.001 A 
ENDROOT
TORSDOF 0
ENDMDL
