MODEL 1
REMARK minimizedAffinity -5.16763306
REMARK minimizedRMSD -1
REMARK  0 active torsions:
REMARK  status: ('A' for Active; 'I' for Inactive)
ROOT
ATOM      1  C   UNL d   1       1.577  -2.717   0.635  0.00  0.00     0.078 C 
ATOM      2  C1  UNL d   1       0.970  -1.388   0.296  0.00  0.00    -0.077 A 
ATOM      3  C2  UNL d   1       1.669  -0.452  -0.476  0.00  0.00    -0.001 A 
ATOM      4  C3  UNL d   1       1.096   0.785  -0.775  0.00  0.00     0.003 A 
ATOM      5  C4  UNL d   1      -0.178   1.098  -0.305  0.00  0.00    -0.005 A 
ATOM      6  C5  UNL d   1      -0.881   0.174   0.465  0.00  0.00     0.003 A 
ATOM      7  C6  UNL d   1      -0.309  -1.064   0.766  0.00  0.00    -0.001 A 
ENDROOT
TORSDOF 0
ENDMDL
