MODEL 1
REMARK minimizedAffinity -5.07974291
REMARK minimizedRMSD -1
REMARK  0 active torsions:
REMARK  status: ('A' for Active; 'I' for Inactive)
ROOT
ATOM      1  C   UNL d   1      -0.765   1.143   0.021  0.00  0.00     0.078 C 
ATOM      2  C1  UNL d   1       0.131  -0.059   0.002  0.00  0.00    -0.077 A 
ATOM      3  C2  UNL d   1       1.422   0.012  -0.535  0.00  0.00    -0.001 A 
ATOM      4  C3  UNL d   1       2.242  -1.118  -0.554  0.00  0.00     0.003 A 
ATOM      5  C4  UNL d   1       1.779  -2.327  -0.039  0.00  0.00    -0.005 A 
ATOM      6  C5  UNL d   1       0.495  -2.408   0.495  0.00  0.00     0.003 A 
ATOM      7  C6  UNL d   1      -0.326  -1.280   0.516  0.00  0.00    -0.001 A 
ENDROOT
TORSDOF 0
ENDMDL
