MODEL 1
REMARK minimizedAffinity -3.86748171
REMARK minimizedRMSD -1
REMARK  0 active torsions:
REMARK  status: ('A' for Active; 'I' for Inactive)
ROOT
ATOM      1  C   UNL d   1      -0.948   1.252  -1.034  0.00  0.00     0.078 C 
ATOM      2  C1  UNL d   1      -0.009   0.295  -0.363  0.00  0.00    -0.077 A 
ATOM      3  C2  UNL d   1       1.372   0.367  -0.583  0.00  0.00    -0.001 A 
ATOM      4  C3  UNL d   1       2.234  -0.537   0.041  0.00  0.00     0.003 A 
ATOM      5  C4  UNL d   1       1.724  -1.519   0.887  0.00  0.00    -0.005 A 
ATOM      6  C5  UNL d   1       0.351  -1.600   1.110  0.00  0.00     0.003 A 
ATOM      7  C6  UNL d   1      -0.512  -0.697   0.487  0.00  0.00    -0.001 A 
ENDROOT
TORSDOF 0
ENDMDL
