MODEL 1
REMARK minimizedAffinity 13.2708473
REMARK minimizedRMSD -1
REMARK  0 active torsions:
REMARK  status: ('A' for Active; 'I' for Inactive)
ROOT
ATOM      1  C4' PXY d   1      -5.879   3.105   4.189  0.00  0.00     0.077 C 
ATOM      2  C1' PXY d   1      -0.716   1.306   2.312  0.00  0.00     0.077 C 
ATOM      3  C1  PXY d   1      -2.075   1.766   2.801  0.00  0.00    -0.082 A 
ATOM      4  C2  PXY d   1      -2.355   3.059   2.836  0.00  0.00     0.003 A 
ATOM      5  C3  PXY d   1      -3.567   3.495   3.306  0.00  0.00     0.003 A 
ATOM      6  C4  PXY d   1      -4.523   2.595   3.694  0.00  0.00    -0.082 A 
ATOM      7  C5  PXY d   1      -4.250   1.273   3.652  0.00  0.00     0.003 A 
ATOM      8  C6  PXY d   1      -2.998   0.854   3.211  0.00  0.00     0.003 A 
ENDROOT
TORSDOF 0
ENDMDL
