MODEL 1
REMARK minimizedAffinity -3.31084633
REMARK minimizedRMSD -1
REMARK  0 active torsions:
REMARK  status: ('A' for Active; 'I' for Inactive)
ROOT
ATOM      1  C4' PXY d   1       5.951  -4.262   0.413  0.00  0.00     0.077 C 
ATOM      2  C1' PXY d   1       1.164  -4.241  -2.827  0.00  0.00     0.077 C 
ATOM      3  C1  PXY d   1       2.413  -4.243  -1.967  0.00  0.00    -0.082 A 
ATOM      4  C2  PXY d   1       3.598  -4.088  -2.534  0.00  0.00     0.003 A 
ATOM      5  C3  PXY d   1       4.739  -4.119  -1.775  0.00  0.00     0.003 A 
ATOM      6  C4  PXY d   1       4.663  -4.257  -0.415  0.00  0.00    -0.082 A 
ATOM      7  C5  PXY d   1       3.457  -4.404   0.172  0.00  0.00     0.003 A 
ATOM      8  C6  PXY d   1       2.313  -4.411  -0.620  0.00  0.00     0.003 A 
ENDROOT
TORSDOF 0
ENDMDL
