MODEL 1
REMARK minimizedAffinity 6.94599915
REMARK minimizedRMSD -1
REMARK  0 active torsions:
REMARK  status: ('A' for Active; 'I' for Inactive)
ROOT
ATOM      1  C4' PXY d   1      -0.258  -3.109  -1.878  0.00  0.00     0.077 C 
ATOM      2  C1' PXY d   1       3.122   1.576  -2.097  0.00  0.00     0.077 C 
ATOM      3  C1  PXY d   1       2.242   0.343  -2.030  0.00  0.00    -0.082 A 
ATOM      4  C2  PXY d   1       1.601  -0.063  -3.113  0.00  0.00     0.003 A 
ATOM      5  C3  PXY d   1       0.776  -1.157  -3.062  0.00  0.00     0.003 A 
ATOM      6  C4  PXY d   1       0.648  -1.875  -1.903  0.00  0.00    -0.082 A 
ATOM      7  C5  PXY d   1       1.308  -1.473  -0.795  0.00  0.00     0.003 A 
ATOM      8  C6  PXY d   1       2.108  -0.336  -0.858  0.00  0.00     0.003 A 
ENDROOT
TORSDOF 0
ENDMDL
