MODEL 1
REMARK minimizedAffinity 17.2016582
REMARK minimizedRMSD -1
REMARK  0 active torsions:
REMARK  status: ('A' for Active; 'I' for Inactive)
ROOT
ATOM      1  C4' PXY d   1       4.023   0.594   0.333  0.00  0.00     0.077 C 
ATOM      2  C1' PXY d   1      -1.034   1.346   3.031  0.00  0.00     0.077 C 
ATOM      3  C1  PXY d   1       0.287   1.139   2.317  0.00  0.00    -0.082 A 
ATOM      4  C2  PXY d   1       1.408   1.561   2.879  0.00  0.00     0.003 A 
ATOM      5  C3  PXY d   1       2.608   1.410   2.233  0.00  0.00     0.003 A 
ATOM      6  C4  PXY d   1       2.667   0.774   1.022  0.00  0.00    -0.082 A 
ATOM      7  C5  PXY d   1       1.529   0.331   0.446  0.00  0.00     0.003 A 
ATOM      8  C6  PXY d   1       0.317   0.530   1.100  0.00  0.00     0.003 A 
ENDROOT
TORSDOF 0
ENDMDL
