MODEL 1
REMARK minimizedAffinity -2.20392466
REMARK minimizedRMSD -1
REMARK  0 active torsions:
REMARK  status: ('A' for Active; 'I' for Inactive)
ROOT
ATOM      1  C4' PXY d   1       2.624  -0.866  -1.723  0.00  0.00     0.077 C 
ATOM      2  C1' PXY d   1       1.004   4.615  -0.856  0.00  0.00     0.077 C 
ATOM      3  C1  PXY d   1       1.431   3.180  -1.096  0.00  0.00    -0.082 A 
ATOM      4  C2  PXY d   1       1.008   2.227  -0.281  0.00  0.00     0.003 A 
ATOM      5  C3  PXY d   1       1.410   0.929  -0.465  0.00  0.00     0.003 A 
ATOM      6  C4  PXY d   1       2.211   0.595  -1.525  0.00  0.00    -0.082 A 
ATOM      7  C5  PXY d   1       2.638   1.560  -2.366  0.00  0.00     0.003 A 
ATOM      8  C6  PXY d   1       2.252   2.878  -2.139  0.00  0.00     0.003 A 
ENDROOT
TORSDOF 0
ENDMDL
