MODEL 1
REMARK minimizedAffinity 7.33635664
REMARK minimizedRMSD -1
REMARK  0 active torsions:
REMARK  status: ('A' for Active; 'I' for Inactive)
ROOT
ATOM      1  C4' PXY d   1       2.421   4.025  -2.255  0.00  0.00     0.077 C 
ATOM      2  C1' PXY d   1       1.971  -1.738  -2.352  0.00  0.00     0.077 C 
ATOM      3  C1  PXY d   1       2.087  -0.226  -2.339  0.00  0.00    -0.082 A 
ATOM      4  C2  PXY d   1       2.807   0.367  -1.401  0.00  0.00     0.003 A 
ATOM      5  C3  PXY d   1       2.896   1.735  -1.356  0.00  0.00     0.003 A 
ATOM      6  C4  PXY d   1       2.284   2.501  -2.312  0.00  0.00    -0.082 A 
ATOM      7  C5  PXY d   1       1.556   1.902  -3.278  0.00  0.00     0.003 A 
ATOM      8  C6  PXY d   1       1.445   0.515  -3.283  0.00  0.00     0.003 A 
ENDROOT
TORSDOF 0
ENDMDL
