MODEL 1
REMARK minimizedAffinity -3.08343363
REMARK minimizedRMSD -1
REMARK  0 active torsions:
REMARK  status: ('A' for Active; 'I' for Inactive)
ROOT
ATOM      1  C4' PXY d   1       0.757   6.000  -0.511  0.00  0.00     0.077 C 
ATOM      2  C1' PXY d   1       2.370   0.534  -1.481  0.00  0.00     0.077 C 
ATOM      3  C1  PXY d   1       1.957   1.972  -1.233  0.00  0.00    -0.082 A 
ATOM      4  C2  PXY d   1       1.196   2.264  -0.191  0.00  0.00     0.003 A 
ATOM      5  C3  PXY d   1       0.787   3.554   0.030  0.00  0.00     0.003 A 
ATOM      6  C4  PXY d   1       1.205   4.564  -0.794  0.00  0.00    -0.082 A 
ATOM      7  C5  PXY d   1       1.991   4.276  -1.854  0.00  0.00     0.003 A 
ATOM      8  C6  PXY d   1       2.361   2.954  -2.084  0.00  0.00     0.003 A 
ENDROOT
TORSDOF 0
ENDMDL
