MODEL 1
REMARK minimizedAffinity 15.21348
REMARK minimizedRMSD -1
REMARK  0 active torsions:
REMARK  status: ('A' for Active; 'I' for Inactive)
ROOT
ATOM      1  C4' PXY d   1       2.290  -1.715  -5.999  0.00  0.00     0.077 C 
ATOM      2  C1' PXY d   1       0.906  -0.162  -0.606  0.00  0.00     0.077 C 
ATOM      3  C1  PXY d   1       1.262  -0.559  -2.025  0.00  0.00    -0.082 A 
ATOM      4  C2  PXY d   1       1.548  -1.821  -2.298  0.00  0.00     0.003 A 
ATOM      5  C3  PXY d   1       1.904  -2.192  -3.570  0.00  0.00     0.003 A 
ATOM      6  C4  PXY d   1       1.915  -1.270  -4.582  0.00  0.00    -0.082 A 
ATOM      7  C5  PXY d   1       1.614   0.018  -4.313  0.00  0.00     0.003 A 
ATOM      8  C6  PXY d   1       1.296   0.381  -3.008  0.00  0.00     0.003 A 
ENDROOT
TORSDOF 0
ENDMDL
