MODEL 1
REMARK minimizedAffinity -1.55144429
REMARK minimizedRMSD -1
REMARK  0 active torsions:
REMARK  status: ('A' for Active; 'I' for Inactive)
ROOT
ATOM      1  C4' PXY d   1       0.743   6.000  -0.455  0.00  0.00     0.077 C 
ATOM      2  C1' PXY d   1       2.263   0.477  -1.235  0.00  0.00     0.077 C 
ATOM      3  C1  PXY d   1       1.852   1.922  -1.028  0.00  0.00    -0.082 A 
ATOM      4  C2  PXY d   1       2.586   2.891  -1.550  0.00  0.00     0.003 A 
ATOM      5  C3  PXY d   1       2.246   4.204  -1.346  0.00  0.00     0.003 A 
ATOM      6  C4  PXY d   1       1.115   4.527  -0.646  0.00  0.00    -0.082 A 
ATOM      7  C5  PXY d   1       0.355   3.543  -0.120  0.00  0.00     0.003 A 
ATOM      8  C6  PXY d   1       0.739   2.218  -0.303  0.00  0.00     0.003 A 
ENDROOT
TORSDOF 0
ENDMDL
