MODEL 1
REMARK minimizedAffinity 3.62423897
REMARK minimizedRMSD -1
REMARK  0 active torsions:
REMARK  status: ('A' for Active; 'I' for Inactive)
ROOT
ATOM      1  C4' PXY d   1      -0.131  -3.310  -1.494  0.00  0.00     0.077 C 
ATOM      2  C1' PXY d   1       4.161   0.541  -1.096  0.00  0.00     0.077 C 
ATOM      3  C1  PXY d   1       3.043  -0.478  -1.195  0.00  0.00    -0.082 A 
ATOM      4  C2  PXY d   1       2.078  -0.305  -2.084  0.00  0.00     0.003 A 
ATOM      5  C3  PXY d   1       1.043  -1.200  -2.165  0.00  0.00     0.003 A 
ATOM      6  C4  PXY d   1       1.023  -2.311  -1.365  0.00  0.00    -0.082 A 
ATOM      7  C5  PXY d   1       2.009  -2.500  -0.463  0.00  0.00     0.003 A 
ATOM      8  C6  PXY d   1       3.030  -1.558  -0.368  0.00  0.00     0.003 A 
ENDROOT
TORSDOF 0
ENDMDL
