MODEL 1
REMARK minimizedAffinity 1.07253277
REMARK minimizedRMSD -1
REMARK  0 active torsions:
REMARK  status: ('A' for Active; 'I' for Inactive)
ROOT
ATOM      1  C4' PXY d   1       0.010   6.000   0.161  0.00  0.00     0.077 C 
ATOM      2  C1' PXY d   1       1.926   0.930  -1.849  0.00  0.00     0.077 C 
ATOM      3  C1  PXY d   1       1.411   2.256  -1.325  0.00  0.00    -0.082 A 
ATOM      4  C2  PXY d   1       2.205   3.314  -1.331  0.00  0.00     0.003 A 
ATOM      5  C3  PXY d   1       1.766   4.513  -0.830  0.00  0.00     0.003 A 
ATOM      6  C4  PXY d   1       0.484   4.643  -0.368  0.00  0.00    -0.082 A 
ATOM      7  C5  PXY d   1      -0.335   3.571  -0.368  0.00  0.00     0.003 A 
ATOM      8  C6  PXY d   1       0.143   2.352  -0.842  0.00  0.00     0.003 A 
ENDROOT
TORSDOF 0
ENDMDL
