MODEL 1
REMARK minimizedAffinity 7.7752943
REMARK minimizedRMSD -1
REMARK  0 active torsions:
REMARK  status: ('A' for Active; 'I' for Inactive)
ROOT
ATOM      1  C4' PXY d   1      -6.000  -1.214   3.462  0.00  0.00     0.077 C 
ATOM      2  C1' PXY d   1      -3.274  -5.994   1.691  0.00  0.00     0.077 C 
ATOM      3  C1  PXY d   1      -3.998  -4.742   2.146  0.00  0.00    -0.082 A 
ATOM      4  C2  PXY d   1      -3.327  -3.790   2.773  0.00  0.00     0.003 A 
ATOM      5  C3  PXY d   1      -3.972  -2.666   3.220  0.00  0.00     0.003 A 
ATOM      6  C4  PXY d   1      -5.308  -2.491   2.976  0.00  0.00    -0.082 A 
ATOM      7  C5  PXY d   1      -5.998  -3.453   2.328  0.00  0.00     0.003 A 
ATOM      8  C6  PXY d   1      -5.333  -4.605   1.919  0.00  0.00     0.003 A 
ENDROOT
TORSDOF 0
ENDMDL
