MODEL 1
REMARK minimizedAffinity 19.3380871
REMARK minimizedRMSD -1
REMARK  0 active torsions:
REMARK  status: ('A' for Active; 'I' for Inactive)
ROOT
ATOM      1  C4' PXY d   1       3.079   0.916   0.406  0.00  0.00     0.077 C 
ATOM      2  C1' PXY d   1       0.377  -3.167  -2.667  0.00  0.00     0.077 C 
ATOM      3  C1  PXY d   1       1.085  -2.088  -1.871  0.00  0.00    -0.082 A 
ATOM      4  C2  PXY d   1       1.818  -2.424  -0.822  0.00  0.00     0.003 A 
ATOM      5  C3  PXY d   1       2.439  -1.459  -0.072  0.00  0.00     0.003 A 
ATOM      6  C4  PXY d   1       2.354  -0.140  -0.432  0.00  0.00    -0.082 A 
ATOM      7  C5  PXY d   1       1.617   0.209  -1.508  0.00  0.00     0.003 A 
ATOM      8  C6  PXY d   1       0.960  -0.782  -2.231  0.00  0.00     0.003 A 
ENDROOT
TORSDOF 0
ENDMDL
