MODEL 1
REMARK minimizedAffinity 0.543483853
REMARK minimizedRMSD -1
REMARK  0 active torsions:
REMARK  status: ('A' for Active; 'I' for Inactive)
ROOT
ATOM      1  C4' PXY d   1      -0.489   2.964  -5.970  0.00  0.00     0.077 C 
ATOM      2  C1' PXY d   1      -6.000   4.707  -5.874  0.00  0.00     0.077 C 
ATOM      3  C1  PXY d   1      -4.558   4.239  -5.894  0.00  0.00    -0.082 A 
ATOM      4  C2  PXY d   1      -3.581   5.130  -5.920  0.00  0.00     0.003 A 
ATOM      5  C3  PXY d   1      -2.272   4.724  -5.970  0.00  0.00     0.003 A 
ATOM      6  C4  PXY d   1      -1.959   3.391  -5.940  0.00  0.00    -0.082 A 
ATOM      7  C5  PXY d   1      -2.951   2.476  -5.903  0.00  0.00     0.003 A 
ATOM      8  C6  PXY d   1      -4.273   2.908  -5.894  0.00  0.00     0.003 A 
ENDROOT
TORSDOF 0
ENDMDL
