MODEL 1
REMARK minimizedAffinity 10.1739426
REMARK minimizedRMSD -1
REMARK  0 active torsions:
REMARK  status: ('A' for Active; 'I' for Inactive)
ROOT
ATOM      1  C4' PXY d   1      -1.650  -4.698   0.075  0.00  0.00     0.077 C 
ATOM      2  C1' PXY d   1      -2.117  -3.316  -5.518  0.00  0.00     0.077 C 
ATOM      3  C1  PXY d   1      -1.996  -3.691  -4.054  0.00  0.00    -0.082 A 
ATOM      4  C2  PXY d   1      -2.292  -2.798  -3.124  0.00  0.00     0.003 A 
ATOM      5  C3  PXY d   1      -2.157  -3.110  -1.795  0.00  0.00     0.003 A 
ATOM      6  C4  PXY d   1      -1.767  -4.366  -1.415  0.00  0.00    -0.082 A 
ATOM      7  C5  PXY d   1      -1.474  -5.286  -2.359  0.00  0.00     0.003 A 
ATOM      8  C6  PXY d   1      -1.577  -4.936  -3.702  0.00  0.00     0.003 A 
ENDROOT
TORSDOF 0
ENDMDL
