MODEL 1
REMARK minimizedAffinity 6.06204271
REMARK minimizedRMSD -1
REMARK  0 active torsions:
REMARK  status: ('A' for Active; 'I' for Inactive)
ROOT
ATOM      1  C4' PXY d   1       1.683  -0.703  -2.763  0.00  0.00     0.077 C 
ATOM      2  C1' PXY d   1       1.844   4.800  -1.002  0.00  0.00     0.077 C 
ATOM      3  C1  PXY d   1       1.814   3.355  -1.460  0.00  0.00    -0.082 A 
ATOM      4  C2  PXY d   1       0.989   2.993  -2.429  0.00  0.00     0.003 A 
ATOM      5  C3  PXY d   1       0.926   1.684  -2.833  0.00  0.00     0.003 A 
ATOM      6  C4  PXY d   1       1.754   0.747  -2.276  0.00  0.00    -0.082 A 
ATOM      7  C5  PXY d   1       2.606   1.111  -1.294  0.00  0.00     0.003 A 
ATOM      8  C6  PXY d   1       2.626   2.436  -0.870  0.00  0.00     0.003 A 
ENDROOT
TORSDOF 0
ENDMDL
