MODEL 1
REMARK minimizedAffinity 5.49631071
REMARK minimizedRMSD -1
REMARK  0 active torsions:
REMARK  status: ('A' for Active; 'I' for Inactive)
ROOT
ATOM      1  C4' PXY d   1      -1.495  -5.810  -1.504  0.00  0.00     0.077 C 
ATOM      2  C1' PXY d   1      -2.374  -2.285  -6.000  0.00  0.00     0.077 C 
ATOM      3  C1  PXY d   1      -2.132  -3.204  -4.819  0.00  0.00    -0.082 A 
ATOM      4  C2  PXY d   1      -2.749  -4.373  -4.762  0.00  0.00     0.003 A 
ATOM      5  C3  PXY d   1      -2.566  -5.202  -3.686  0.00  0.00     0.003 A 
ATOM      6  C4  PXY d   1      -1.702  -4.854  -2.682  0.00  0.00    -0.082 A 
ATOM      7  C5  PXY d   1      -1.061  -3.668  -2.738  0.00  0.00     0.003 A 
ATOM      8  C6  PXY d   1      -1.292  -2.822  -3.819  0.00  0.00     0.003 A 
ENDROOT
TORSDOF 0
ENDMDL
