MODEL 1
REMARK minimizedAffinity 10.5850143
REMARK minimizedRMSD -1
REMARK  0 active torsions:
REMARK  status: ('A' for Active; 'I' for Inactive)
ROOT
ATOM      1  C4' PXY d   1       0.635  -1.575   4.187  0.00  0.00     0.077 C 
ATOM      2  C1' PXY d   1      -4.284  -4.138   2.558  0.00  0.00     0.077 C 
ATOM      3  C1  PXY d   1      -2.987  -3.477   2.981  0.00  0.00    -0.082 A 
ATOM      4  C2  PXY d   1      -3.008  -2.522   3.897  0.00  0.00     0.003 A 
ATOM      5  C3  PXY d   1      -1.849  -1.891   4.269  0.00  0.00     0.003 A 
ATOM      6  C4  PXY d   1      -0.648  -2.278   3.735  0.00  0.00    -0.082 A 
ATOM      7  C5  PXY d   1      -0.617  -3.258   2.808  0.00  0.00     0.003 A 
ATOM      8  C6  PXY d   1      -1.810  -3.857   2.414  0.00  0.00     0.003 A 
ENDROOT
TORSDOF 0
ENDMDL
