MODEL 1
REMARK minimizedAffinity 4.90152359
REMARK minimizedRMSD -1
REMARK  0 active torsions:
REMARK  status: ('A' for Active; 'I' for Inactive)
ROOT
ATOM      1  C4' PXY d   1       1.588   0.291  -1.877  0.00  0.00     0.077 C 
ATOM      2  C1' PXY d   1       1.662   5.999  -0.967  0.00  0.00     0.077 C 
ATOM      3  C1  PXY d   1       1.648   4.500  -1.194  0.00  0.00    -0.082 A 
ATOM      4  C2  PXY d   1       1.599   4.026  -2.428  0.00  0.00     0.003 A 
ATOM      5  C3  PXY d   1       1.554   2.674  -2.651  0.00  0.00     0.003 A 
ATOM      6  C4  PXY d   1       1.613   1.797  -1.601  0.00  0.00    -0.082 A 
ATOM      7  C5  PXY d   1       1.674   2.272  -0.339  0.00  0.00     0.003 A 
ATOM      8  C6  PXY d   1       1.678   3.649  -0.133  0.00  0.00     0.003 A 
ENDROOT
TORSDOF 0
ENDMDL
