MODEL 1
REMARK minimizedAffinity 5.40408278
REMARK minimizedRMSD -1
REMARK  0 active torsions:
REMARK  status: ('A' for Active; 'I' for Inactive)
ROOT
ATOM      1  C4' PXY d   1      -1.085  -3.898  -1.817  0.00  0.00     0.077 C 
ATOM      2  C1' PXY d   1      -1.421  -2.724   3.833  0.00  0.00     0.077 C 
ATOM      3  C1  PXY d   1      -1.323  -3.024   2.350  0.00  0.00    -0.082 A 
ATOM      4  C2  PXY d   1      -2.381  -3.487   1.705  0.00  0.00     0.003 A 
ATOM      5  C3  PXY d   1      -2.301  -3.793   0.371  0.00  0.00     0.003 A 
ATOM      6  C4  PXY d   1      -1.141  -3.573  -0.322  0.00  0.00    -0.082 A 
ATOM      7  C5  PXY d   1      -0.060  -3.090   0.327  0.00  0.00     0.003 A 
ATOM      8  C6  PXY d   1      -0.150  -2.824   1.690  0.00  0.00     0.003 A 
ENDROOT
TORSDOF 0
ENDMDL
