MODEL 1
REMARK minimizedAffinity -4.86753035
REMARK minimizedRMSD -1
REMARK  0 active torsions:
REMARK  status: ('A' for Active; 'I' for Inactive)
ROOT
ATOM      1  C1  BNZ d   1       1.120   1.822   0.218  0.00  0.00     0.000 A 
ATOM      2  C2  BNZ d   1       2.378   1.557   0.689  0.00  0.00     0.000 A 
ATOM      3  C3  BNZ d   1       2.810   0.270   0.847  0.00  0.00     0.000 A 
ATOM      4  C4  BNZ d   1       1.971  -0.749   0.571  0.00  0.00     0.000 A 
ATOM      5  C5  BNZ d   1       0.696  -0.498   0.104  0.00  0.00     0.000 A 
ATOM      6  C6  BNZ d   1       0.278   0.798  -0.091  0.00  0.00     0.000 A 
ENDROOT
TORSDOF 0
ENDMDL
