MODEL 1
REMARK minimizedAffinity -4.16500807
REMARK minimizedRMSD -1
REMARK  0 active torsions:
REMARK  status: ('A' for Active; 'I' for Inactive)
ROOT
ATOM      1  C1  BNZ d   1       2.055  -0.762   0.267  0.00  0.00     0.000 A 
ATOM      2  C2  BNZ d   1       2.862   0.319   0.503  0.00  0.00     0.000 A 
ATOM      3  C3  BNZ d   1       2.337   1.577   0.599  0.00  0.00     0.000 A 
ATOM      4  C4  BNZ d   1       1.012   1.758   0.420  0.00  0.00     0.000 A 
ATOM      5  C5  BNZ d   1       0.187   0.679   0.172  0.00  0.00     0.000 A 
ATOM      6  C6  BNZ d   1       0.714  -0.590   0.114  0.00  0.00     0.000 A 
ENDROOT
TORSDOF 0
ENDMDL
