MODEL 1
REMARK minimizedAffinity -5.06296968
REMARK minimizedRMSD -1
REMARK  0 active torsions:
REMARK  status: ('A' for Active; 'I' for Inactive)
ROOT
ATOM      1  C1  BNZ d   1       2.564   0.201   0.606  0.00  0.00     0.000 A 
ATOM      2  C2  BNZ d   1       2.490  -1.000   1.260  0.00  0.00     0.000 A 
ATOM      3  C3  BNZ d   1       1.349  -1.751   1.218  0.00  0.00     0.000 A 
ATOM      4  C4  BNZ d   1       0.271  -1.282   0.557  0.00  0.00     0.000 A 
ATOM      5  C5  BNZ d   1       0.326  -0.069  -0.099  0.00  0.00     0.000 A 
ATOM      6  C6  BNZ d   1       1.489   0.666  -0.087  0.00  0.00     0.000 A 
ENDROOT
TORSDOF 0
ENDMDL
