MODEL 1
REMARK minimizedAffinity -4.87246132
REMARK minimizedRMSD -1
REMARK  0 active torsions:
REMARK  status: ('A' for Active; 'I' for Inactive)
ROOT
ATOM      1  C1  BNZ d   1       1.525   1.454   0.298  0.00  0.00     0.000 A 
ATOM      2  C2  BNZ d   1       2.700   1.016   0.849  0.00  0.00     0.000 A 
ATOM      3  C3  BNZ d   1       2.953  -0.321   0.986  0.00  0.00     0.000 A 
ATOM      4  C4  BNZ d   1       2.015  -1.215   0.611  0.00  0.00     0.000 A 
ATOM      5  C5  BNZ d   1       0.822  -0.788   0.063  0.00  0.00     0.000 A 
ATOM      6  C6  BNZ d   1       0.587   0.557  -0.109  0.00  0.00     0.000 A 
ENDROOT
TORSDOF 0
ENDMDL
