MODEL 1
REMARK minimizedAffinity -2.23641419
REMARK minimizedRMSD -1
REMARK  0 active torsions:
REMARK  status: ('A' for Active; 'I' for Inactive)
ROOT
ATOM      1  C1  BNZ d   1       0.717  -0.033   0.770  0.00  0.00     0.000 A 
ATOM      2  C2  BNZ d   1       2.004  -0.282   1.165  0.00  0.00     0.000 A 
ATOM      3  C3  BNZ d   1       2.973   0.673   1.034  0.00  0.00     0.000 A 
ATOM      4  C4  BNZ d   1       2.663   1.860   0.473  0.00  0.00     0.000 A 
ATOM      5  C5  BNZ d   1       1.372   2.123   0.062  0.00  0.00     0.000 A 
ATOM      6  C6  BNZ d   1       0.390   1.173   0.230  0.00  0.00     0.000 A 
ENDROOT
TORSDOF 0
ENDMDL
