MODEL 1
REMARK minimizedAffinity -3.44924593
REMARK minimizedRMSD -1
REMARK  0 active torsions:
REMARK  status: ('A' for Active; 'I' for Inactive)
ROOT
ATOM      1  C1  BNZ d   1       2.175   1.849   0.843  0.00  0.00     0.000 A 
ATOM      2  C2  BNZ d   1       0.975   2.185   0.276  0.00  0.00     0.000 A 
ATOM      3  C3  BNZ d   1       0.034   1.230   0.011  0.00  0.00     0.000 A 
ATOM      4  C4  BNZ d   1       0.309  -0.063   0.276  0.00  0.00     0.000 A 
ATOM      5  C5  BNZ d   1       1.518  -0.419   0.839  0.00  0.00     0.000 A 
ATOM      6  C6  BNZ d   1       2.448   0.549   1.140  0.00  0.00     0.000 A 
ENDROOT
TORSDOF 0
ENDMDL
