MODEL 1
REMARK minimizedAffinity -5.02029705
REMARK minimizedRMSD -1
REMARK  0 active torsions:
REMARK  status: ('A' for Active; 'I' for Inactive)
ROOT
ATOM      1  C1  BNZ d   1       2.238   1.555   1.021  0.00  0.00     0.000 A 
ATOM      2  C2  BNZ d   1       2.771   0.294   1.069  0.00  0.00     0.000 A 
ATOM      3  C3  BNZ d   1       2.166  -0.746   0.421  0.00  0.00     0.000 A 
ATOM      4  C4  BNZ d   1       1.011  -0.533  -0.242  0.00  0.00     0.000 A 
ATOM      5  C5  BNZ d   1       0.457   0.730  -0.292  0.00  0.00     0.000 A 
ATOM      6  C6  BNZ d   1       1.089   1.783   0.329  0.00  0.00     0.000 A 
ENDROOT
TORSDOF 0
ENDMDL
