MODEL 1
REMARK minimizedAffinity 1.51206362
REMARK minimizedRMSD -1
REMARK  0 active torsions:
REMARK  status: ('A' for Active; 'I' for Inactive)
ROOT
ATOM      1  C1  BNZ d   1       0.383   1.692   0.564  0.00  0.00     0.000 A 
ATOM      2  C2  BNZ d   1       1.674   1.284   0.766  0.00  0.00     0.000 A 
ATOM      3  C3  BNZ d   1       2.702   2.185   0.766  0.00  0.00     0.000 A 
ATOM      4  C4  BNZ d   1       2.442   3.486   0.525  0.00  0.00     0.000 A 
ATOM      5  C5  BNZ d   1       1.147   3.913   0.310  0.00  0.00     0.000 A 
ATOM      6  C6  BNZ d   1       0.110   3.008   0.349  0.00  0.00     0.000 A 
ENDROOT
TORSDOF 0
ENDMDL
