MODEL 1
REMARK minimizedAffinity 9.4917593
REMARK minimizedRMSD -1
REMARK  2 active torsions:
REMARK  status: ('A' for Active; 'I' for Inactive)
REMARK    1  A    between atoms: C1_2  and  C2_3 
REMARK    2  A    between atoms: C2_3  and  C3_4 
ROOT
ATOM      1  C3  UNL d   1       1.420  -0.626   4.057  0.00  0.00    -0.075 A 
ATOM      2  C4  UNL d   1       0.953   0.654   4.389  0.00  0.00     0.002 A 
ATOM      3  C5  UNL d   1       0.152   1.369   3.498  0.00  0.00     0.002 A 
ATOM      4  C6  UNL d   1      -0.183   0.820   2.263  0.00  0.00    -0.004 A 
ATOM      5  C7  UNL d   1       0.289  -0.444   1.915  0.00  0.00     0.002 A 
ATOM      6  C8  UNL d   1       1.087  -1.164   2.806  0.00  0.00     0.002 A 
ENDROOT
BRANCH   1   7
ATOM      7  C2  UNL d   1       2.263  -1.417   5.028  0.00  0.00     0.056 C 
BRANCH   7   8
ATOM      8  C1  UNL d   1       3.448  -0.636   5.605  0.00  0.00     0.007 C 
ATOM      9  C   UNL d   1       4.622  -1.525   5.994  0.00  0.00     0.009 C 
ENDBRANCH   7   8
ENDBRANCH   1   7
TORSDOF 2
ENDMDL
