MODEL 1
REMARK minimizedAffinity 8.08283329
REMARK minimizedRMSD -1
REMARK  2 active torsions:
REMARK  status: ('A' for Active; 'I' for Inactive)
REMARK    1  A    between atoms: C1_2  and  C2_3 
REMARK    2  A    between atoms: C2_3  and  C3_4 
ROOT
ATOM      1  C3  UNL d   1      -1.410   0.272   3.113  0.00  0.00    -0.075 A 
ATOM      2  C4  UNL d   1      -1.954  -0.938   3.568  0.00  0.00     0.002 A 
ATOM      3  C5  UNL d   1      -3.260  -1.298   3.233  0.00  0.00     0.002 A 
ATOM      4  C6  UNL d   1      -4.040  -0.450   2.450  0.00  0.00    -0.004 A 
ATOM      5  C7  UNL d   1      -3.516   0.762   2.006  0.00  0.00     0.002 A 
ATOM      6  C8  UNL d   1      -2.208   1.123   2.336  0.00  0.00     0.002 A 
ENDROOT
BRANCH   1   7
ATOM      7  C2  UNL d   1       0.012   0.654   3.447  0.00  0.00     0.056 C 
BRANCH   7   8
ATOM      8  C1  UNL d   1       1.066  -0.047   2.583  0.00  0.00     0.007 C 
ATOM      9  C   UNL d   1       1.886  -1.075   3.351  0.00  0.00     0.009 C 
ENDBRANCH   7   8
ENDBRANCH   1   7
TORSDOF 2
ENDMDL
