MODEL 1
REMARK minimizedAffinity -5.16686249
REMARK minimizedRMSD -1
REMARK  0 active torsions:
REMARK  status: ('A' for Active; 'I' for Inactive)
ROOT
ATOM      1  C   UNL d   1       0.184  -2.614   0.170  0.00  0.00     0.077 C 
ATOM      2  C1  UNL d   1       0.433  -1.195  -0.247  0.00  0.00    -0.074 A 
ATOM      3  C2  UNL d   1       0.084  -0.129   0.588  0.00  0.00    -0.005 A 
ATOM      4  C3  UNL d   1       0.331   1.185   0.191  0.00  0.00     0.006 A 
ATOM      5  C4  UNL d   1       0.928   1.446  -1.042  0.00  0.00    -0.005 A 
ATOM      6  C5  UNL d   1       1.285   0.393  -1.890  0.00  0.00    -0.074 A 
ATOM      7  C6  UNL d   1       1.937   0.655  -3.215  0.00  0.00     0.077 C 
ATOM      8  C7  UNL d   1       1.040  -0.925  -1.481  0.00  0.00    -0.001 A 
ENDROOT
TORSDOF 0
ENDMDL
