MODEL 1
REMARK minimizedAffinity -3.50756049
REMARK minimizedRMSD -1
REMARK  0 active torsions:
REMARK  status: ('A' for Active; 'I' for Inactive)
ROOT
ATOM      1  C   UNL d   1      -1.399  -0.756   1.578  0.00  0.00     0.077 C 
ATOM      2  C1  UNL d   1      -0.336  -0.125   0.729  0.00  0.00    -0.074 A 
ATOM      3  C2  UNL d   1       0.168  -0.782  -0.398  0.00  0.00    -0.005 A 
ATOM      4  C3  UNL d   1       1.149  -0.178  -1.184  0.00  0.00     0.006 A 
ATOM      5  C4  UNL d   1       1.635   1.087  -0.853  0.00  0.00    -0.005 A 
ATOM      6  C5  UNL d   1       1.141   1.761   0.270  0.00  0.00    -0.074 A 
ATOM      7  C6  UNL d   1       1.645   3.125   0.634  0.00  0.00     0.077 C 
ATOM      8  C7  UNL d   1       0.151   1.150   1.051  0.00  0.00    -0.001 A 
ENDROOT
TORSDOF 0
ENDMDL
