MODEL 1
REMARK minimizedAffinity -5.69985056
REMARK minimizedRMSD -1
REMARK  0 active torsions:
REMARK  status: ('A' for Active; 'I' for Inactive)
ROOT
ATOM      1  C   UNL d   1       1.682  -2.965  -1.471  0.00  0.00     0.077 C 
ATOM      2  C1  UNL d   1       1.596  -1.473  -1.605  0.00  0.00    -0.074 A 
ATOM      3  C2  UNL d   1       1.989  -0.834  -2.785  0.00  0.00    -0.005 A 
ATOM      4  C3  UNL d   1       1.894   0.553  -2.898  0.00  0.00     0.006 A 
ATOM      5  C4  UNL d   1       1.406   1.313  -1.835  0.00  0.00    -0.005 A 
ATOM      6  C5  UNL d   1       1.007   0.691  -0.647  0.00  0.00    -0.074 A 
ATOM      7  C6  UNL d   1       0.471   1.493   0.501  0.00  0.00     0.077 C 
ATOM      8  C7  UNL d   1       1.099  -0.703  -0.544  0.00  0.00    -0.001 A 
ENDROOT
TORSDOF 0
ENDMDL
