MODEL 1
REMARK minimizedAffinity -6.17783165
REMARK minimizedRMSD -1
REMARK  0 active torsions:
REMARK  status: ('A' for Active; 'I' for Inactive)
ROOT
ATOM      1  C   UNL d   1       1.246   3.213   0.267  0.00  0.00     0.077 C 
ATOM      2  C1  UNL d   1       0.955   1.808  -0.170  0.00  0.00    -0.074 A 
ATOM      3  C2  UNL d   1       0.190   0.952   0.628  0.00  0.00    -0.005 A 
ATOM      4  C3  UNL d   1      -0.081  -0.350   0.205  0.00  0.00     0.006 A 
ATOM      5  C4  UNL d   1       0.410  -0.806  -1.019  0.00  0.00    -0.005 A 
ATOM      6  C5  UNL d   1       1.176   0.036  -1.831  0.00  0.00    -0.074 A 
ATOM      7  C6  UNL d   1       1.703  -0.436  -3.153  0.00  0.00     0.077 C 
ATOM      8  C7  UNL d   1       1.438   1.345  -1.401  0.00  0.00    -0.001 A 
ENDROOT
TORSDOF 0
ENDMDL
