MODEL 1
REMARK minimizedAffinity -2.56501985
REMARK minimizedRMSD -1
REMARK  0 active torsions:
REMARK  status: ('A' for Active; 'I' for Inactive)
ROOT
ATOM      1  C   UNL d   1      -1.657   0.725   2.018  0.00  0.00     0.077 C 
ATOM      2  C1  UNL d   1      -0.738  -0.012   1.091  0.00  0.00    -0.074 A 
ATOM      3  C2  UNL d   1      -0.339  -1.324   1.367  0.00  0.00    -0.005 A 
ATOM      4  C3  UNL d   1       0.509  -2.001   0.490  0.00  0.00     0.006 A 
ATOM      5  C4  UNL d   1       0.965  -1.374  -0.670  0.00  0.00    -0.005 A 
ATOM      6  C5  UNL d   1       0.577  -0.063  -0.963  0.00  0.00    -0.074 A 
ATOM      7  C6  UNL d   1       1.050   0.622  -2.211  0.00  0.00     0.077 C 
ATOM      8  C7  UNL d   1      -0.281   0.608  -0.081  0.00  0.00    -0.001 A 
ENDROOT
TORSDOF 0
ENDMDL
