MODEL 1
REMARK minimizedAffinity -4.86689949
REMARK minimizedRMSD -1
REMARK  0 active torsions:
REMARK  status: ('A' for Active; 'I' for Inactive)
ROOT
ATOM      1  C   UNL d   1       1.792  -0.246  -3.186  0.00  0.00     0.077 C 
ATOM      2  C1  UNL d   1       1.318   0.422  -1.929  0.00  0.00    -0.074 A 
ATOM      3  C2  UNL d   1       1.791   1.686  -1.563  0.00  0.00    -0.005 A 
ATOM      4  C3  UNL d   1       1.334   2.298  -0.397  0.00  0.00     0.006 A 
ATOM      5  C4  UNL d   1       0.400   1.653   0.416  0.00  0.00    -0.005 A 
ATOM      6  C5  UNL d   1      -0.085   0.389   0.066  0.00  0.00    -0.074 A 
ATOM      7  C6  UNL d   1      -1.097  -0.313   0.922  0.00  0.00     0.077 C 
ATOM      8  C7  UNL d   1       0.374  -0.216  -1.112  0.00  0.00    -0.001 A 
ENDROOT
TORSDOF 0
ENDMDL
