MODEL 1
REMARK minimizedAffinity -4.06240797
REMARK minimizedRMSD -1
REMARK  0 active torsions:
REMARK  status: ('A' for Active; 'I' for Inactive)
ROOT
ATOM      1  C   UNL d   1      -0.975   0.054   0.275  0.00  0.00     0.077 C 
ATOM      2  C1  UNL d   1       0.279   0.407  -0.469  0.00  0.00    -0.074 A 
ATOM      3  C2  UNL d   1       1.237   1.254   0.098  0.00  0.00    -0.005 A 
ATOM      4  C3  UNL d   1       2.402   1.566  -0.602  0.00  0.00     0.006 A 
ATOM      5  C4  UNL d   1       2.622   1.036  -1.873  0.00  0.00    -0.005 A 
ATOM      6  C5  UNL d   1       1.676   0.186  -2.456  0.00  0.00    -0.074 A 
ATOM      7  C6  UNL d   1       1.901  -0.401  -3.818  0.00  0.00     0.077 C 
ATOM      8  C7  UNL d   1       0.510  -0.128  -1.744  0.00  0.00    -0.001 A 
ENDROOT
TORSDOF 0
ENDMDL
