MODEL 1
REMARK minimizedAffinity -3.70962381
REMARK minimizedRMSD -1
REMARK  0 active torsions:
REMARK  status: ('A' for Active; 'I' for Inactive)
ROOT
ATOM      1  C   UNL d   1       3.724   1.431  -1.288  0.00  0.00     0.077 C 
ATOM      2  C1  UNL d   1       2.400   0.748  -1.460  0.00  0.00    -0.074 A 
ATOM      3  C2  UNL d   1       2.063   0.127  -2.666  0.00  0.00    -0.005 A 
ATOM      4  C3  UNL d   1       0.831  -0.513  -2.808  0.00  0.00     0.006 A 
ATOM      5  C4  UNL d   1      -0.074  -0.538  -1.746  0.00  0.00    -0.005 A 
ATOM      6  C5  UNL d   1       0.246   0.077  -0.532  0.00  0.00    -0.074 A 
ATOM      7  C6  UNL d   1      -0.711   0.051   0.623  0.00  0.00     0.077 C 
ATOM      8  C7  UNL d   1       1.489   0.712  -0.395  0.00  0.00    -0.001 A 
ENDROOT
TORSDOF 0
ENDMDL
