MODEL 1
REMARK minimizedAffinity -4.11145353
REMARK minimizedRMSD -1
REMARK  0 active torsions:
REMARK  status: ('A' for Active; 'I' for Inactive)
ROOT
ATOM      1  C   UNL d   1       1.475  -2.584  -1.481  0.00  0.00     0.077 C 
ATOM      2  C1  UNL d   1       1.106  -1.203  -1.025  0.00  0.00    -0.074 A 
ATOM      3  C2  UNL d   1       1.727  -0.076  -1.572  0.00  0.00    -0.005 A 
ATOM      4  C3  UNL d   1       1.367   1.202  -1.145  0.00  0.00     0.006 A 
ATOM      5  C4  UNL d   1       0.384   1.365  -0.168  0.00  0.00    -0.005 A 
ATOM      6  C5  UNL d   1      -0.248   0.249   0.390  0.00  0.00    -0.074 A 
ATOM      7  C6  UNL d   1      -1.314   0.407   1.434  0.00  0.00     0.077 C 
ATOM      8  C7  UNL d   1       0.114  -1.031  -0.050  0.00  0.00    -0.001 A 
ENDROOT
TORSDOF 0
ENDMDL
