MODEL 1
REMARK minimizedAffinity -3.74300122
REMARK minimizedRMSD -1
REMARK  0 active torsions:
REMARK  status: ('A' for Active; 'I' for Inactive)
ROOT
ATOM      1  C   UNL d   1       1.618   0.324  -3.499  0.00  0.00     0.077 C 
ATOM      2  C1  UNL d   1       1.376   0.654  -2.056  0.00  0.00    -0.074 A 
ATOM      3  C2  UNL d   1       1.813   1.867  -1.514  0.00  0.00    -0.005 A 
ATOM      4  C3  UNL d   1       1.573   2.164  -0.172  0.00  0.00     0.006 A 
ATOM      5  C4  UNL d   1       0.895   1.253   0.639  0.00  0.00    -0.005 A 
ATOM      6  C5  UNL d   1       0.450   0.036   0.113  0.00  0.00    -0.074 A 
ATOM      7  C6  UNL d   1      -0.289  -0.950   0.969  0.00  0.00     0.077 C 
ATOM      8  C7  UNL d   1       0.689  -0.252  -1.237  0.00  0.00    -0.001 A 
ENDROOT
TORSDOF 0
ENDMDL
