MODEL 1
REMARK minimizedAffinity -4.79996538
REMARK minimizedRMSD -1
REMARK  0 active torsions:
REMARK  status: ('A' for Active; 'I' for Inactive)
ROOT
ATOM      1  C   UNL d   1       1.001   0.684  -1.498  0.00  0.00     0.077 C 
ATOM      2  C1  UNL d   1       0.357  -0.168  -0.444  0.00  0.00    -0.074 A 
ATOM      3  C2  UNL d   1       0.466  -1.562  -0.481  0.00  0.00    -0.005 A 
ATOM      4  C3  UNL d   1      -0.131  -2.340   0.511  0.00  0.00     0.006 A 
ATOM      5  C4  UNL d   1      -0.840  -1.734   1.548  0.00  0.00    -0.005 A 
ATOM      6  C5  UNL d   1      -0.959  -0.341   1.602  0.00  0.00    -0.074 A 
ATOM      7  C6  UNL d   1      -1.709   0.327   2.716  0.00  0.00     0.077 C 
ATOM      8  C7  UNL d   1      -0.351   0.434   0.606  0.00  0.00    -0.001 A 
ENDROOT
TORSDOF 0
ENDMDL
