MODEL 1
REMARK minimizedAffinity -4.21720695
REMARK minimizedRMSD -1
REMARK  0 active torsions:
REMARK  status: ('A' for Active; 'I' for Inactive)
ROOT
ATOM      1  C   UNL d   1       1.598  -0.014  -2.493  0.00  0.00     0.077 C 
ATOM      2  C1  UNL d   1       0.837  -0.684  -1.388  0.00  0.00    -0.074 A 
ATOM      3  C2  UNL d   1       0.777  -2.079  -1.300  0.00  0.00    -0.005 A 
ATOM      4  C3  UNL d   1       0.073  -2.689  -0.262  0.00  0.00     0.006 A 
ATOM      5  C4  UNL d   1      -0.577  -1.911   0.698  0.00  0.00    -0.005 A 
ATOM      6  C5  UNL d   1      -0.528  -0.516   0.626  0.00  0.00    -0.074 A 
ATOM      7  C6  UNL d   1      -1.213   0.335   1.655  0.00  0.00     0.077 C 
ATOM      8  C7  UNL d   1       0.188   0.090  -0.416  0.00  0.00    -0.001 A 
ENDROOT
TORSDOF 0
ENDMDL
