MODEL 1
REMARK minimizedAffinity -4.79258156
REMARK minimizedRMSD -1
REMARK  0 active torsions:
REMARK  status: ('A' for Active; 'I' for Inactive)
ROOT
ATOM      1  C   UNL d   1      -1.046   0.125   2.020  0.00  0.00     0.077 C 
ATOM      2  C1  UNL d   1      -0.362  -0.502   0.842  0.00  0.00    -0.074 A 
ATOM      3  C2  UNL d   1      -0.170  -1.885   0.775  0.00  0.00    -0.005 A 
ATOM      4  C3  UNL d   1       0.460  -2.455  -0.332  0.00  0.00     0.006 A 
ATOM      5  C4  UNL d   1       0.903  -1.648  -1.380  0.00  0.00    -0.005 A 
ATOM      6  C5  UNL d   1       0.719  -0.263  -1.331  0.00  0.00    -0.074 A 
ATOM      7  C6  UNL d   1       1.181   0.618  -2.454  0.00  0.00     0.077 C 
ATOM      8  C7  UNL d   1       0.079   0.301  -0.219  0.00  0.00    -0.001 A 
ENDROOT
TORSDOF 0
ENDMDL
