MODEL 1
REMARK minimizedAffinity -3.90299249
REMARK minimizedRMSD -1
REMARK  0 active torsions:
REMARK  status: ('A' for Active; 'I' for Inactive)
ROOT
ATOM      1  C   UNL d   1       0.267   0.056  -1.919  0.00  0.00     0.077 C 
ATOM      2  C1  UNL d   1      -0.307   0.077  -0.534  0.00  0.00    -0.074 A 
ATOM      3  C2  UNL d   1       0.515   0.269   0.582  0.00  0.00    -0.005 A 
ATOM      4  C3  UNL d   1      -0.035   0.295   1.864  0.00  0.00     0.006 A 
ATOM      5  C4  UNL d   1      -1.409   0.130   2.043  0.00  0.00    -0.005 A 
ATOM      6  C5  UNL d   1      -2.246  -0.062   0.939  0.00  0.00    -0.074 A 
ATOM      7  C6  UNL d   1      -3.726  -0.231   1.113  0.00  0.00     0.077 C 
ATOM      8  C7  UNL d   1      -1.687  -0.080  -0.346  0.00  0.00    -0.001 A 
ENDROOT
TORSDOF 0
ENDMDL
