MODEL 1
REMARK minimizedAffinity -5.11014509
REMARK minimizedRMSD -1
REMARK  0 active torsions:
REMARK  status: ('A' for Active; 'I' for Inactive)
ROOT
ATOM      1  C   UNL d   1       1.616   2.434  -0.043  0.00  0.00     0.077 C 
ATOM      2  C1  UNL d   1       1.263   1.050  -0.503  0.00  0.00    -0.074 A 
ATOM      3  C2  UNL d   1       1.628   0.601  -1.776  0.00  0.00    -0.005 A 
ATOM      4  C3  UNL d   1       1.301  -0.692  -2.186  0.00  0.00     0.006 A 
ATOM      5  C4  UNL d   1       0.609  -1.547  -1.328  0.00  0.00    -0.005 A 
ATOM      6  C5  UNL d   1       0.237  -1.116  -0.051  0.00  0.00    -0.074 A 
ATOM      7  C6  UNL d   1      -0.499  -2.025   0.887  0.00  0.00     0.077 C 
ATOM      8  C7  UNL d   1       0.575   0.182   0.356  0.00  0.00    -0.001 A 
ENDROOT
TORSDOF 0
ENDMDL
