MODEL 1
REMARK minimizedAffinity -2.69742012
REMARK minimizedRMSD -1
REMARK  0 active torsions:
REMARK  status: ('A' for Active; 'I' for Inactive)
ROOT
ATOM      1  C   UNL d   1       1.786  -0.505  -3.250  0.00  0.00     0.077 C 
ATOM      2  C1  UNL d   1       1.397   0.037  -1.906  0.00  0.00    -0.074 A 
ATOM      3  C2  UNL d   1       1.753   1.334  -1.524  0.00  0.00    -0.005 A 
ATOM      4  C3  UNL d   1       1.376   1.827  -0.275  0.00  0.00     0.006 A 
ATOM      5  C4  UNL d   1       0.641   1.030   0.603  0.00  0.00    -0.005 A 
ATOM      6  C5  UNL d   1       0.275  -0.269   0.238  0.00  0.00    -0.074 A 
ATOM      7  C6  UNL d   1      -0.523  -1.136   1.166  0.00  0.00     0.077 C 
ATOM      8  C7  UNL d   1       0.652  -0.756  -1.022  0.00  0.00    -0.001 A 
ENDROOT
TORSDOF 0
ENDMDL
