MODEL 1
REMARK minimizedAffinity -4.8133893
REMARK minimizedRMSD -1
REMARK  0 active torsions:
REMARK  status: ('A' for Active; 'I' for Inactive)
ROOT
ATOM      1  C   UNL d   1       1.379   3.536  -0.111  0.00  0.00     0.077 C 
ATOM      2  C1  UNL d   1       1.002   2.127  -0.459  0.00  0.00    -0.074 A 
ATOM      3  C2  UNL d   1       1.469   1.527  -1.633  0.00  0.00    -0.005 A 
ATOM      4  C3  UNL d   1       1.117   0.212  -1.940  0.00  0.00     0.006 A 
ATOM      5  C4  UNL d   1       0.296  -0.515  -1.077  0.00  0.00    -0.005 A 
ATOM      6  C5  UNL d   1      -0.180   0.068   0.102  0.00  0.00    -0.074 A 
ATOM      7  C6  UNL d   1      -1.055  -0.703   1.045  0.00  0.00     0.077 C 
ATOM      8  C7  UNL d   1       0.184   1.387   0.406  0.00  0.00    -0.001 A 
ENDROOT
TORSDOF 0
ENDMDL
