MODEL 1
REMARK minimizedAffinity -5.37136173
REMARK minimizedRMSD -1
REMARK  0 active torsions:
REMARK  status: ('A' for Active; 'I' for Inactive)
ROOT
ATOM      1  C   UNL d   1       1.493   3.516   0.700  0.00  0.00     0.077 C 
ATOM      2  C1  UNL d   1       1.020   2.199   0.158  0.00  0.00    -0.074 A 
ATOM      3  C2  UNL d   1       0.187   1.368   0.914  0.00  0.00    -0.005 A 
ATOM      4  C3  UNL d   1      -0.252   0.151   0.393  0.00  0.00     0.006 A 
ATOM      5  C4  UNL d   1       0.136  -0.246  -0.887  0.00  0.00    -0.005 A 
ATOM      6  C5  UNL d   1       0.967   0.572  -1.658  0.00  0.00    -0.074 A 
ATOM      7  C6  UNL d   1       1.385   0.165  -3.039  0.00  0.00     0.077 C 
ATOM      8  C7  UNL d   1       1.399   1.797  -1.130  0.00  0.00    -0.001 A 
ENDROOT
TORSDOF 0
ENDMDL
