MODEL 1
REMARK minimizedAffinity -4.716959
REMARK minimizedRMSD -1
REMARK  0 active torsions:
REMARK  status: ('A' for Active; 'I' for Inactive)
ROOT
ATOM      1  C   UNL d   1       1.104   2.740   0.889  0.00  0.00     0.077 C 
ATOM      2  C1  UNL d   1       0.714   1.403   0.334  0.00  0.00    -0.074 A 
ATOM      3  C2  UNL d   1      -0.115   0.539   1.056  0.00  0.00    -0.005 A 
ATOM      4  C3  UNL d   1      -0.477  -0.698   0.523  0.00  0.00     0.006 A 
ATOM      5  C4  UNL d   1      -0.014  -1.083  -0.736  0.00  0.00    -0.005 A 
ATOM      6  C5  UNL d   1       0.815  -0.232  -1.473  0.00  0.00    -0.074 A 
ATOM      7  C6  UNL d   1       1.313  -0.627  -2.832  0.00  0.00     0.077 C 
ATOM      8  C7  UNL d   1       1.169   1.012  -0.934  0.00  0.00    -0.001 A 
ENDROOT
TORSDOF 0
ENDMDL
