MODEL 1
REMARK minimizedAffinity -4.77693224
REMARK minimizedRMSD -1
REMARK  0 active torsions:
REMARK  status: ('A' for Active; 'I' for Inactive)
ROOT
ATOM      1  C   UNL d   1       2.244  -2.183  -2.060  0.00  0.00     0.077 C 
ATOM      2  C1  UNL d   1       1.759  -0.918  -1.418  0.00  0.00    -0.074 A 
ATOM      3  C2  UNL d   1       2.210   0.331  -1.858  0.00  0.00    -0.005 A 
ATOM      4  C3  UNL d   1       1.743   1.500  -1.258  0.00  0.00     0.006 A 
ATOM      5  C4  UNL d   1       0.821   1.432  -0.212  0.00  0.00    -0.005 A 
ATOM      6  C5  UNL d   1       0.357   0.193   0.241  0.00  0.00    -0.074 A 
ATOM      7  C6  UNL d   1      -0.641   0.103   1.357  0.00  0.00     0.077 C 
ATOM      8  C7  UNL d   1       0.827  -0.977  -0.372  0.00  0.00    -0.001 A 
ENDROOT
TORSDOF 0
ENDMDL
