MODEL 1
REMARK minimizedAffinity 3.53809023
REMARK minimizedRMSD -1
REMARK  0 active torsions:
REMARK  status: ('A' for Active; 'I' for Inactive)
ROOT
ATOM      1  N1  IND d   1      -2.493   0.375  -6.000  0.00  0.00    -0.196 N 
ATOM      2  C2  IND d   1      -2.922   1.586  -5.532  0.00  0.00     0.054 A 
ATOM      3  C3  IND d   1      -4.147   1.466  -4.971  0.00  0.00    -0.031 A 
ATOM      4  C4  IND d   1      -5.587  -0.639  -4.622  0.00  0.00     0.051 A 
ATOM      5  C5  IND d   1      -5.634  -1.973  -4.914  0.00  0.00    -0.031 A 
ATOM      6  C6  IND d   1      -4.614  -2.606  -5.595  0.00  0.00     0.015 A 
ATOM      7  C7  IND d   1      -3.499  -1.928  -6.000  0.00  0.00    -0.016 A 
ATOM      8  C8  IND d   1      -3.452  -0.571  -5.711  0.00  0.00    -0.047 A 
ATOM      9  C9  IND d   1      -4.503   0.086  -5.059  0.00  0.00    -0.096 A 
ATOM     10  HN1 IND d   1      -1.750   0.229  -6.406  0.00  0.00     0.298 HD
ENDROOT
TORSDOF 0
ENDMDL
