MODEL 1
REMARK minimizedAffinity -3.64073157
REMARK minimizedRMSD -1
REMARK  0 active torsions:
REMARK  status: ('A' for Active; 'I' for Inactive)
ROOT
ATOM      1  N1  IND d   1      -2.258   1.661  -5.832  0.00  0.00    -0.196 N 
ATOM      2  C2  IND d   1      -2.928   2.843  -5.683  0.00  0.00     0.054 A 
ATOM      3  C3  IND d   1      -4.261   2.625  -5.629  0.00  0.00    -0.031 A 
ATOM      4  C4  IND d   1      -5.557   0.401  -5.664  0.00  0.00     0.051 A 
ATOM      5  C5  IND d   1      -5.383  -0.945  -5.822  0.00  0.00    -0.031 A 
ATOM      6  C6  IND d   1      -4.132  -1.503  -5.993  0.00  0.00     0.015 A 
ATOM      7  C7  IND d   1      -3.003  -0.733  -6.000  0.00  0.00    -0.016 A 
ATOM      8  C8  IND d   1      -3.178   0.635  -5.846  0.00  0.00    -0.047 A 
ATOM      9  C9  IND d   1      -4.448   1.211  -5.715  0.00  0.00    -0.096 A 
ATOM     10  HN1 IND d   1      -1.406   1.573  -5.904  0.00  0.00     0.298 HD
ENDROOT
TORSDOF 0
ENDMDL
