MODEL 1
REMARK minimizedAffinity -0.597806215
REMARK minimizedRMSD -1
REMARK  0 active torsions:
REMARK  status: ('A' for Active; 'I' for Inactive)
ROOT
ATOM      1  N1  IND d   1      -4.724   3.459  -5.972  0.00  0.00    -0.196 N 
ATOM      2  C2  IND d   1      -3.680   4.340  -5.938  0.00  0.00     0.054 A 
ATOM      3  C3  IND d   1      -2.504   3.674  -5.904  0.00  0.00    -0.031 A 
ATOM      4  C4  IND d   1      -2.055   1.141  -5.999  0.00  0.00     0.051 A 
ATOM      5  C5  IND d   1      -2.695  -0.067  -5.999  0.00  0.00    -0.031 A 
ATOM      6  C6  IND d   1      -4.071  -0.163  -5.993  0.00  0.00     0.015 A 
ATOM      7  C7  IND d   1      -4.863   0.950  -5.998  0.00  0.00    -0.016 A 
ATOM      8  C8  IND d   1      -4.217   2.178  -5.991  0.00  0.00    -0.047 A 
ATOM      9  C9  IND d   1      -2.821   2.282  -5.954  0.00  0.00    -0.096 A 
ATOM     10  HN1 IND d   1      -5.558   3.670  -5.981  0.00  0.00     0.298 HD
ENDROOT
TORSDOF 0
ENDMDL
