MODEL 1
REMARK minimizedAffinity 0.713610172
REMARK minimizedRMSD -1
REMARK  0 active torsions:
REMARK  status: ('A' for Active; 'I' for Inactive)
ROOT
ATOM      1  N1  IND d   1      -3.534  -0.190  -6.000  0.00  0.00    -0.196 N 
ATOM      2  C2  IND d   1      -4.835  -0.607  -5.990  0.00  0.00     0.054 A 
ATOM      3  C3  IND d   1      -5.670   0.456  -5.950  0.00  0.00    -0.031 A 
ATOM      4  C4  IND d   1      -5.118   2.970  -5.998  0.00  0.00     0.051 A 
ATOM      5  C5  IND d   1      -4.067   3.843  -5.970  0.00  0.00    -0.031 A 
ATOM      6  C6  IND d   1      -2.757   3.407  -5.953  0.00  0.00     0.015 A 
ATOM      7  C7  IND d   1      -2.449   2.076  -5.975  0.00  0.00    -0.016 A 
ATOM      8  C8  IND d   1      -3.514   1.187  -5.996  0.00  0.00    -0.047 A 
ATOM      9  C9  IND d   1      -4.845   1.623  -5.970  0.00  0.00    -0.096 A 
ATOM     10  HN1 IND d   1      -2.843  -0.702  -6.007  0.00  0.00     0.298 HD
ENDROOT
TORSDOF 0
ENDMDL
