MODEL 1
REMARK minimizedAffinity -2.69466591
REMARK minimizedRMSD -1
REMARK  0 active torsions:
REMARK  status: ('A' for Active; 'I' for Inactive)
ROOT
ATOM      1  N1  IND d   1      -3.629   3.305  -5.952  0.00  0.00    -0.196 N 
ATOM      2  C2  IND d   1      -4.958   3.628  -5.953  0.00  0.00     0.054 A 
ATOM      3  C3  IND d   1      -5.714   2.508  -5.986  0.00  0.00    -0.031 A 
ATOM      4  C4  IND d   1      -4.984   0.039  -5.940  0.00  0.00     0.051 A 
ATOM      5  C5  IND d   1      -3.873  -0.756  -5.974  0.00  0.00    -0.031 A 
ATOM      6  C6  IND d   1      -2.598  -0.228  -6.000  0.00  0.00     0.015 A 
ATOM      7  C7  IND d   1      -2.386   1.121  -5.982  0.00  0.00    -0.016 A 
ATOM      8  C8  IND d   1      -3.512   1.932  -5.954  0.00  0.00    -0.047 A 
ATOM      9  C9  IND d   1      -4.809   1.403  -5.970  0.00  0.00    -0.096 A 
ATOM     10  HN1 IND d   1      -2.977   3.865  -5.950  0.00  0.00     0.298 HD
ENDROOT
TORSDOF 0
ENDMDL
