MODEL 1
REMARK minimizedAffinity 0.329057723
REMARK minimizedRMSD -1
REMARK  0 active torsions:
REMARK  status: ('A' for Active; 'I' for Inactive)
ROOT
ATOM      1  N1  IND d   1      -3.773   4.283  -5.973  0.00  0.00    -0.196 N 
ATOM      2  C2  IND d   1      -4.956   4.969  -5.975  0.00  0.00     0.054 A 
ATOM      3  C3  IND d   1      -5.999   4.110  -5.999  0.00  0.00    -0.031 A 
ATOM      4  C4  IND d   1      -5.999   1.536  -5.935  0.00  0.00     0.051 A 
ATOM      5  C5  IND d   1      -5.160   0.458  -5.964  0.00  0.00    -0.031 A 
ATOM      6  C6  IND d   1      -3.788   0.602  -5.995  0.00  0.00     0.015 A 
ATOM      7  C7  IND d   1      -3.201   1.836  -5.987  0.00  0.00    -0.016 A 
ATOM      8  C8  IND d   1      -4.050   2.933  -5.965  0.00  0.00    -0.047 A 
ATOM      9  C9  IND d   1      -5.444   2.793  -5.976  0.00  0.00    -0.096 A 
ATOM     10  HN1 IND d   1      -2.989   4.635  -5.976  0.00  0.00     0.298 HD
ENDROOT
TORSDOF 0
ENDMDL
