MODEL 1
REMARK minimizedAffinity -2.54432058
REMARK minimizedRMSD -1
REMARK  0 active torsions:
REMARK  status: ('A' for Active; 'I' for Inactive)
ROOT
ATOM      1  N1  IND d   1      -2.319   1.745  -5.651  0.00  0.00    -0.196 N 
ATOM      2  C2  IND d   1      -3.000   2.921  -5.806  0.00  0.00     0.054 A 
ATOM      3  C3  IND d   1      -4.316   2.680  -6.000  0.00  0.00    -0.031 A 
ATOM      4  C4  IND d   1      -5.587   0.441  -6.000  0.00  0.00     0.051 A 
ATOM      5  C5  IND d   1      -5.389  -0.910  -5.936  0.00  0.00    -0.031 A 
ATOM      6  C6  IND d   1      -4.133  -1.456  -5.767  0.00  0.00     0.015 A 
ATOM      7  C7  IND d   1      -3.024  -0.667  -5.645  0.00  0.00    -0.016 A 
ATOM      8  C8  IND d   1      -3.220   0.705  -5.717  0.00  0.00    -0.047 A 
ATOM      9  C9  IND d   1      -4.487   1.263  -5.930  0.00  0.00    -0.096 A 
ATOM     10  HN1 IND d   1      -1.471   1.669  -5.533  0.00  0.00     0.298 HD
ENDROOT
TORSDOF 0
ENDMDL
