MODEL 1
REMARK minimizedAffinity -2.15550399
REMARK minimizedRMSD -1
REMARK  0 active torsions:
REMARK  status: ('A' for Active; 'I' for Inactive)
ROOT
ATOM      1  N1  IND d   1      -2.966   4.111  -5.929  0.00  0.00    -0.196 N 
ATOM      2  C2  IND d   1      -4.135   4.821  -5.941  0.00  0.00     0.054 A 
ATOM      3  C3  IND d   1      -5.194   3.982  -5.994  0.00  0.00    -0.031 A 
ATOM      4  C4  IND d   1      -5.245   1.408  -5.963  0.00  0.00     0.051 A 
ATOM      5  C5  IND d   1      -4.426   0.314  -5.993  0.00  0.00    -0.031 A 
ATOM      6  C6  IND d   1      -3.051   0.432  -6.000  0.00  0.00     0.015 A 
ATOM      7  C7  IND d   1      -2.441   1.654  -5.966  0.00  0.00    -0.016 A 
ATOM      8  C8  IND d   1      -3.269   2.767  -5.943  0.00  0.00    -0.047 A 
ATOM      9  C9  IND d   1      -4.665   2.655  -5.979  0.00  0.00    -0.096 A 
ATOM     10  HN1 IND d   1      -2.175   4.448  -5.914  0.00  0.00     0.298 HD
ENDROOT
TORSDOF 0
ENDMDL
