MODEL 1
REMARK minimizedAffinity -1.70794868
REMARK minimizedRMSD -1
REMARK  0 active torsions:
REMARK  status: ('A' for Active; 'I' for Inactive)
ROOT
ATOM      1  N1  IND d   1      -3.698   4.634  -5.943  0.00  0.00    -0.196 N 
ATOM      2  C2  IND d   1      -4.886   5.309  -5.955  0.00  0.00     0.054 A 
ATOM      3  C3  IND d   1      -5.921   4.440  -6.000  0.00  0.00    -0.031 A 
ATOM      4  C4  IND d   1      -5.898   1.866  -5.959  0.00  0.00     0.051 A 
ATOM      5  C5  IND d   1      -5.048   0.796  -5.987  0.00  0.00    -0.031 A 
ATOM      6  C6  IND d   1      -3.678   0.953  -5.999  0.00  0.00     0.015 A 
ATOM      7  C7  IND d   1      -3.103   2.193  -5.973  0.00  0.00    -0.016 A 
ATOM      8  C8  IND d   1      -3.962   3.282  -5.951  0.00  0.00    -0.047 A 
ATOM      9  C9  IND d   1      -5.354   3.129  -5.982  0.00  0.00    -0.096 A 
ATOM     10  HN1 IND d   1      -2.917   4.993  -5.933  0.00  0.00     0.298 HD
ENDROOT
TORSDOF 0
ENDMDL
