MODEL 1
REMARK minimizedAffinity -2.13779497
REMARK minimizedRMSD -1
REMARK  0 active torsions:
REMARK  status: ('A' for Active; 'I' for Inactive)
ROOT
ATOM      1  N1  IND d   1      -5.276   0.221  -5.922  0.00  0.00    -0.196 N 
ATOM      2  C2  IND d   1      -4.091  -0.461  -5.940  0.00  0.00     0.054 A 
ATOM      3  C3  IND d   1      -3.052   0.403  -6.000  0.00  0.00    -0.031 A 
ATOM      4  C4  IND d   1      -3.063   2.978  -5.973  0.00  0.00     0.051 A 
ATOM      5  C5  IND d   1      -3.908   4.052  -6.000  0.00  0.00    -0.031 A 
ATOM      6  C6  IND d   1      -5.279   3.901  -5.999  0.00  0.00     0.015 A 
ATOM      7  C7  IND d   1      -5.860   2.664  -5.960  0.00  0.00    -0.016 A 
ATOM      8  C8  IND d   1      -5.005   1.571  -5.940  0.00  0.00    -0.047 A 
ATOM      9  C9  IND d   1      -3.613   1.717  -5.984  0.00  0.00    -0.096 A 
ATOM     10  HN1 IND d   1      -6.058  -0.135  -5.902  0.00  0.00     0.298 HD
ENDROOT
TORSDOF 0
ENDMDL
