MODEL 1
REMARK minimizedAffinity -2.5227108
REMARK minimizedRMSD -1
REMARK  0 active torsions:
REMARK  status: ('A' for Active; 'I' for Inactive)
ROOT
ATOM      1  N1  IND d   1      -2.782   0.925  -5.996  0.00  0.00    -0.196 N 
ATOM      2  C2  IND d   1      -3.758  -0.032  -5.977  0.00  0.00     0.054 A 
ATOM      3  C3  IND d   1      -4.980   0.544  -5.935  0.00  0.00    -0.031 A 
ATOM      4  C4  IND d   1      -5.616   3.038  -5.992  0.00  0.00     0.051 A 
ATOM      5  C5  IND d   1      -5.068   4.290  -5.973  0.00  0.00    -0.031 A 
ATOM      6  C6  IND d   1      -3.703   4.489  -5.963  0.00  0.00     0.015 A 
ATOM      7  C7  IND d   1      -2.830   3.437  -5.983  0.00  0.00    -0.016 A 
ATOM      8  C8  IND d   1      -3.383   2.165  -5.996  0.00  0.00    -0.047 A 
ATOM      9  C9  IND d   1      -4.767   1.957  -5.963  0.00  0.00    -0.096 A 
ATOM     10  HN1 IND d   1      -1.934   0.778  -6.006  0.00  0.00     0.298 HD
ENDROOT
TORSDOF 0
ENDMDL
