MODEL 1
REMARK minimizedAffinity -1.65165758
REMARK minimizedRMSD -1
REMARK  0 active torsions:
REMARK  status: ('A' for Active; 'I' for Inactive)
ROOT
ATOM      1  N1  IND d   1      -5.640  -0.155  -5.980  0.00  0.00    -0.196 N 
ATOM      2  C2  IND d   1      -4.801  -1.234  -5.980  0.00  0.00     0.054 A 
ATOM      3  C3  IND d   1      -3.512  -0.827  -6.000  0.00  0.00    -0.031 A 
ATOM      4  C4  IND d   1      -2.550   1.560  -5.934  0.00  0.00     0.051 A 
ATOM      5  C5  IND d   1      -2.925   2.874  -5.964  0.00  0.00    -0.031 A 
ATOM      6  C6  IND d   1      -4.251   3.253  -6.000  0.00  0.00     0.015 A 
ATOM      7  C7  IND d   1      -5.257   2.328  -5.994  0.00  0.00    -0.016 A 
ATOM      8  C8  IND d   1      -4.879   0.993  -5.970  0.00  0.00    -0.047 A 
ATOM      9  C9  IND d   1      -3.534   0.602  -5.977  0.00  0.00    -0.096 A 
ATOM     10  HN1 IND d   1      -6.500  -0.188  -5.986  0.00  0.00     0.298 HD
ENDROOT
TORSDOF 0
ENDMDL
