MODEL 1
REMARK minimizedAffinity -1.91991246
REMARK minimizedRMSD -1
REMARK  0 active torsions:
REMARK  status: ('A' for Active; 'I' for Inactive)
ROOT
ATOM      1  N1  IND d   1      -3.171   1.289  -5.982  0.00  0.00    -0.196 N 
ATOM      2  C2  IND d   1      -4.488   0.921  -6.000  0.00  0.00     0.054 A 
ATOM      3  C3  IND d   1      -5.283   2.014  -5.972  0.00  0.00    -0.031 A 
ATOM      4  C4  IND d   1      -4.637   4.506  -6.000  0.00  0.00     0.051 A 
ATOM      5  C5  IND d   1      -3.555   5.339  -5.948  0.00  0.00    -0.031 A 
ATOM      6  C6  IND d   1      -2.263   4.855  -5.906  0.00  0.00     0.015 A 
ATOM      7  C7  IND d   1      -2.005   3.514  -5.927  0.00  0.00    -0.016 A 
ATOM      8  C8  IND d   1      -3.101   2.665  -5.973  0.00  0.00    -0.047 A 
ATOM      9  C9  IND d   1      -4.416   3.149  -5.972  0.00  0.00    -0.096 A 
ATOM     10  HN1 IND d   1      -2.500   0.752  -5.977  0.00  0.00     0.298 HD
ENDROOT
TORSDOF 0
ENDMDL
