MODEL 1
REMARK minimizedAffinity -0.202526689
REMARK minimizedRMSD -1
REMARK  0 active torsions:
REMARK  status: ('A' for Active; 'I' for Inactive)
ROOT
ATOM      1  N1  IND d   1      -4.540  -1.947  -4.162  0.00  0.00    -0.196 N 
ATOM      2  C2  IND d   1      -5.513  -1.910  -5.120  0.00  0.00     0.054 A 
ATOM      3  C3  IND d   1      -5.348  -2.925  -5.998  0.00  0.00    -0.031 A 
ATOM      4  C4  IND d   1      -3.610  -4.823  -5.995  0.00  0.00     0.051 A 
ATOM      5  C5  IND d   1      -2.492  -5.259  -5.340  0.00  0.00    -0.031 A 
ATOM      6  C6  IND d   1      -1.992  -4.602  -4.235  0.00  0.00     0.015 A 
ATOM      7  C7  IND d   1      -2.599  -3.485  -3.734  0.00  0.00    -0.016 A 
ATOM      8  C8  IND d   1      -3.730  -3.035  -4.401  0.00  0.00    -0.047 A 
ATOM      9  C9  IND d   1      -4.218  -3.674  -5.549  0.00  0.00    -0.096 A 
ATOM     10  HN1 IND d   1      -4.448  -1.385  -3.518  0.00  0.00     0.298 HD
ENDROOT
TORSDOF 0
ENDMDL
