MODEL 1
REMARK minimizedAffinity -0.101551592
REMARK minimizedRMSD -1
REMARK  0 active torsions:
REMARK  status: ('A' for Active; 'I' for Inactive)
ROOT
ATOM      1  N1  IND d   1      -3.734  -5.907  -5.986  0.00  0.00    -0.196 N 
ATOM      2  C2  IND d   1      -2.391  -5.732  -5.803  0.00  0.00     0.054 A 
ATOM      3  C3  IND d   1      -2.110  -4.425  -5.599  0.00  0.00    -0.031 A 
ATOM      4  C4  IND d   1      -3.711  -2.416  -5.425  0.00  0.00     0.051 A 
ATOM      5  C5  IND d   1      -5.027  -2.072  -5.561  0.00  0.00    -0.031 A 
ATOM      6  C6  IND d   1      -5.999  -3.008  -5.848  0.00  0.00     0.015 A 
ATOM      7  C7  IND d   1      -5.692  -4.331  -6.000  0.00  0.00    -0.016 A 
ATOM      8  C8  IND d   1      -4.356  -4.683  -5.870  0.00  0.00    -0.047 A 
ATOM      9  C9  IND d   1      -3.359  -3.731  -5.621  0.00  0.00    -0.096 A 
ATOM     10  HN1 IND d   1      -4.126  -6.655  -6.147  0.00  0.00     0.298 HD
ENDROOT
TORSDOF 0
ENDMDL
