MODEL 1
REMARK minimizedAffinity 2.77325249
REMARK minimizedRMSD -1
REMARK  0 active torsions:
REMARK  status: ('A' for Active; 'I' for Inactive)
ROOT
ATOM      1  N1  IND d   1      -4.668   5.026  -5.999  0.00  0.00    -0.196 N 
ATOM      2  C2  IND d   1      -3.330   5.307  -5.982  0.00  0.00     0.054 A 
ATOM      3  C3  IND d   1      -2.610   4.163  -5.942  0.00  0.00    -0.031 A 
ATOM      4  C4  IND d   1      -3.416   1.719  -6.000  0.00  0.00     0.051 A 
ATOM      5  C5  IND d   1      -4.552   0.959  -5.979  0.00  0.00    -0.031 A 
ATOM      6  C6  IND d   1      -5.810   1.527  -5.966  0.00  0.00     0.015 A 
ATOM      7  C7  IND d   1      -5.979   2.882  -5.985  0.00  0.00    -0.016 A 
ATOM      8  C8  IND d   1      -4.829   3.657  -5.999  0.00  0.00    -0.047 A 
ATOM      9  C9  IND d   1      -3.549   3.087  -5.969  0.00  0.00    -0.096 A 
ATOM     10  HN1 IND d   1      -5.303   5.606  -6.007  0.00  0.00     0.298 HD
ENDROOT
TORSDOF 0
ENDMDL
