MODEL 1
REMARK minimizedAffinity 0.826435983
REMARK minimizedRMSD -1
REMARK  0 active torsions:
REMARK  status: ('A' for Active; 'I' for Inactive)
ROOT
ATOM      1  N1  IND d   1      -5.600  -4.038  -6.000  0.00  0.00    -0.196 N 
ATOM      2  C2  IND d   1      -5.799  -2.864  -5.327  0.00  0.00     0.054 A 
ATOM      3  C3  IND d   1      -4.759  -2.615  -4.500  0.00  0.00    -0.031 A 
ATOM      4  C4  IND d   1      -2.579  -3.943  -4.165  0.00  0.00     0.051 A 
ATOM      5  C5  IND d   1      -1.958  -5.104  -4.532  0.00  0.00    -0.031 A 
ATOM      6  C6  IND d   1      -2.529  -5.985  -5.427  0.00  0.00     0.015 A 
ATOM      7  C7  IND d   1      -3.743  -5.731  -6.000  0.00  0.00    -0.016 A 
ATOM      8  C8  IND d   1      -4.380  -4.557  -5.624  0.00  0.00    -0.047 A 
ATOM      9  C9  IND d   1      -3.825  -3.680  -4.684  0.00  0.00    -0.096 A 
ATOM     10  HN1 IND d   1      -6.145  -4.392  -6.563  0.00  0.00     0.298 HD
ENDROOT
TORSDOF 0
ENDMDL
