MODEL 1
REMARK minimizedAffinity 6.02923059
REMARK minimizedRMSD -1
REMARK  0 active torsions:
REMARK  status: ('A' for Active; 'I' for Inactive)
ROOT
ATOM      1  C   UNL d   1      -6.000   1.770  -4.766  0.00  0.00    -0.002 A 
ATOM      2  C1  UNL d   1      -5.867   3.028  -4.194  0.00  0.00     0.010 A 
ATOM      3  C2  UNL d   1      -4.773   3.326  -3.379  0.00  0.00     0.041 A 
ATOM      4  C3  UNL d   1      -3.804   2.330  -3.148  0.00  0.00    -0.075 A 
ATOM      5  S   UNL d   1      -2.381   2.468  -2.186  0.00  0.00     0.015 SA
ATOM      6  C4  UNL d   1      -1.914   0.861  -2.511  0.00  0.00     0.022 A 
ATOM      7  C5  UNL d   1      -2.812   0.220  -3.332  0.00  0.00     0.026 A 
ATOM      8  C6  UNL d   1      -3.916   1.056  -3.713  0.00  0.00    -0.082 A 
ATOM      9  C7  UNL d   1      -5.037   0.785  -4.534  0.00  0.00     0.045 A 
ENDROOT
TORSDOF 0
ENDMDL
