MODEL 1
REMARK minimizedAffinity 6.16262579
REMARK minimizedRMSD -1
REMARK  0 active torsions:
REMARK  status: ('A' for Active; 'I' for Inactive)
ROOT
ATOM      1  C   UNL d   1      -6.000   2.305  -0.730  0.00  0.00    -0.002 A 
ATOM      2  C1  UNL d   1      -6.000   1.035  -0.172  0.00  0.00     0.010 A 
ATOM      3  C2  UNL d   1      -5.270   0.000  -0.761  0.00  0.00     0.041 A 
ATOM      4  C3  UNL d   1      -4.531   0.267  -1.931  0.00  0.00    -0.075 A 
ATOM      5  S   UNL d   1      -3.563  -0.844  -2.825  0.00  0.00     0.015 SA
ATOM      6  C4  UNL d   1      -3.125   0.342  -3.968  0.00  0.00     0.022 A 
ATOM      7  C5  UNL d   1      -3.696   1.561  -3.690  0.00  0.00     0.026 A 
ATOM      8  C6  UNL d   1      -4.515   1.539  -2.511  0.00  0.00    -0.082 A 
ATOM      9  C7  UNL d   1      -5.266   2.566  -1.890  0.00  0.00     0.045 A 
ENDROOT
TORSDOF 0
ENDMDL
