MODEL 1
REMARK minimizedAffinity 10.0182695
REMARK minimizedRMSD -1
REMARK  0 active torsions:
REMARK  status: ('A' for Active; 'I' for Inactive)
ROOT
ATOM      1  C   UNL d   1       3.179   0.747  -1.105  0.00  0.00    -0.002 A 
ATOM      2  C1  UNL d   1       2.328   0.876  -0.016  0.00  0.00     0.010 A 
ATOM      3  C2  UNL d   1       2.688   1.667   1.076  0.00  0.00     0.041 A 
ATOM      4  C3  UNL d   1       3.928   2.335   1.056  0.00  0.00    -0.075 A 
ATOM      5  S   UNL d   1       4.578   3.359   2.281  0.00  0.00     0.015 SA
ATOM      6  C4  UNL d   1       6.000   3.650   1.388  0.00  0.00     0.022 A 
ATOM      7  C5  UNL d   1       5.996   2.990   0.182  0.00  0.00     0.026 A 
ATOM      8  C6  UNL d   1       4.801   2.222  -0.029  0.00  0.00    -0.082 A 
ATOM      9  C7  UNL d   1       4.409   1.411  -1.122  0.00  0.00     0.045 A 
ENDROOT
TORSDOF 0
ENDMDL
