MODEL 1
REMARK minimizedAffinity 5.37124586
REMARK minimizedRMSD -1
REMARK  0 active torsions:
REMARK  status: ('A' for Active; 'I' for Inactive)
ROOT
ATOM      1  C1  BNZ d   1       4.928  -4.250   0.952  0.00  0.00     0.000 A 
ATOM      2  C2  BNZ d   1       3.814  -3.737   0.343  0.00  0.00     0.000 A 
ATOM      3  C3  BNZ d   1       2.707  -3.405   1.073  0.00  0.00     0.000 A 
ATOM      4  C4  BNZ d   1       2.700  -3.623   2.403  0.00  0.00     0.000 A 
ATOM      5  C5  BNZ d   1       3.812  -4.148   3.031  0.00  0.00     0.000 A 
ATOM      6  C6  BNZ d   1       4.939  -4.445   2.299  0.00  0.00     0.000 A 
ENDROOT
TORSDOF 0
ENDMDL
