MODEL 1
REMARK minimizedAffinity -0.924780726
REMARK minimizedRMSD -1
REMARK  0 active torsions:
REMARK  status: ('A' for Active; 'I' for Inactive)
ROOT
ATOM      1  C1  BNZ d   1      -5.133   0.337  -4.387  0.00  0.00     0.000 A 
ATOM      2  C2  BNZ d   1      -5.112  -0.396  -3.231  0.00  0.00     0.000 A 
ATOM      3  C3  BNZ d   1      -4.034  -1.176  -2.916  0.00  0.00     0.000 A 
ATOM      4  C4  BNZ d   1      -2.997  -1.252  -3.776  0.00  0.00     0.000 A 
ATOM      5  C5  BNZ d   1      -3.007  -0.525  -4.950  0.00  0.00     0.000 A 
ATOM      6  C6  BNZ d   1      -4.077   0.288  -5.245  0.00  0.00     0.000 A 
ENDROOT
TORSDOF 0
ENDMDL
