MODEL 1
REMARK minimizedAffinity -3.93555665
REMARK minimizedRMSD -1
REMARK  0 active torsions:
REMARK  status: ('A' for Active; 'I' for Inactive)
ROOT
ATOM      1  C1  BNZ d   1      -4.919   0.419  -4.944  0.00  0.00     0.000 A 
ATOM      2  C2  BNZ d   1      -3.621   0.822  -5.111  0.00  0.00     0.000 A 
ATOM      3  C3  BNZ d   1      -2.586   0.072  -4.626  0.00  0.00     0.000 A 
ATOM      4  C4  BNZ d   1      -2.852  -1.058  -3.940  0.00  0.00     0.000 A 
ATOM      5  C5  BNZ d   1      -4.155  -1.474  -3.755  0.00  0.00     0.000 A 
ATOM      6  C6  BNZ d   1      -5.192  -0.737  -4.279  0.00  0.00     0.000 A 
ENDROOT
TORSDOF 0
ENDMDL
