MODEL 1
REMARK minimizedAffinity -2.58573771
REMARK minimizedRMSD -1
REMARK  0 active torsions:
REMARK  status: ('A' for Active; 'I' for Inactive)
ROOT
ATOM      1  C1  BNZ d   1      -4.317   0.356  -5.118  0.00  0.00     0.000 A 
ATOM      2  C2  BNZ d   1      -4.314  -0.715  -4.265  0.00  0.00     0.000 A 
ATOM      3  C3  BNZ d   1      -4.031  -0.552  -2.937  0.00  0.00     0.000 A 
ATOM      4  C4  BNZ d   1      -3.713   0.674  -2.473  0.00  0.00     0.000 A 
ATOM      5  C5  BNZ d   1      -3.702   1.762  -3.322  0.00  0.00     0.000 A 
ATOM      6  C6  BNZ d   1      -4.025   1.601  -4.650  0.00  0.00     0.000 A 
ENDROOT
TORSDOF 0
ENDMDL
