MODEL 1
REMARK minimizedAffinity -3.82734323
REMARK minimizedRMSD -1
REMARK  0 active torsions:
REMARK  status: ('A' for Active; 'I' for Inactive)
ROOT
ATOM      1  C1  BNZ d   1      -3.391  -1.025  -4.136  0.00  0.00     0.000 A 
ATOM      2  C2  BNZ d   1      -4.678  -0.922  -3.679  0.00  0.00     0.000 A 
ATOM      3  C3  BNZ d   1      -5.563  -0.060  -4.264  0.00  0.00     0.000 A 
ATOM      4  C4  BNZ d   1      -5.149   0.726  -5.279  0.00  0.00     0.000 A 
ATOM      5  C5  BNZ d   1      -3.852   0.641  -5.745  0.00  0.00     0.000 A 
ATOM      6  C6  BNZ d   1      -2.976  -0.256  -5.179  0.00  0.00     0.000 A 
ENDROOT
TORSDOF 0
ENDMDL
