MODEL 1
REMARK minimizedAffinity -1.52823532
REMARK minimizedRMSD -1
REMARK  0 active torsions:
REMARK  status: ('A' for Active; 'I' for Inactive)
ROOT
ATOM      1  C1  BNZ d   1       2.933   0.161   0.051  0.00  0.00     0.000 A 
ATOM      2  C2  BNZ d   1       3.742   1.265   0.073  0.00  0.00     0.000 A 
ATOM      3  C3  BNZ d   1       5.101   1.137   0.150  0.00  0.00     0.000 A 
ATOM      4  C4  BNZ d   1       5.646  -0.093   0.245  0.00  0.00     0.000 A 
ATOM      5  C5  BNZ d   1       4.843  -1.217   0.233  0.00  0.00     0.000 A 
ATOM      6  C6  BNZ d   1       3.479  -1.084   0.116  0.00  0.00     0.000 A 
ENDROOT
TORSDOF 0
ENDMDL
