MODEL 1
REMARK minimizedAffinity -0.667696536
REMARK minimizedRMSD -1
REMARK  0 active torsions:
REMARK  status: ('A' for Active; 'I' for Inactive)
ROOT
ATOM      1  C1  BNZ d   1      -3.190   0.869  -5.691  0.00  0.00     0.000 A 
ATOM      2  C2  BNZ d   1      -2.401  -0.243  -5.819  0.00  0.00     0.000 A 
ATOM      3  C3  BNZ d   1      -2.311  -1.157  -4.807  0.00  0.00     0.000 A 
ATOM      4  C4  BNZ d   1      -2.977  -0.938  -3.655  0.00  0.00     0.000 A 
ATOM      5  C5  BNZ d   1      -3.769   0.183  -3.507  0.00  0.00     0.000 A 
ATOM      6  C6  BNZ d   1      -3.888   1.081  -4.543  0.00  0.00     0.000 A 
ENDROOT
TORSDOF 0
ENDMDL
