MODEL 1
REMARK minimizedAffinity 11.4874239
REMARK minimizedRMSD -1
REMARK  0 active torsions:
REMARK  status: ('A' for Active; 'I' for Inactive)
ROOT
ATOM      1  C   UNL d   1      -1.103   2.723  -0.255  0.00  0.00     0.077 C 
ATOM      2  C1  UNL d   1      -0.947   1.300  -0.700  0.00  0.00    -0.074 A 
ATOM      3  C2  UNL d   1      -2.063   0.473  -0.867  0.00  0.00    -0.005 A 
ATOM      4  C3  UNL d   1      -1.903  -0.847  -1.291  0.00  0.00     0.006 A 
ATOM      5  C4  UNL d   1      -0.628  -1.352  -1.551  0.00  0.00    -0.005 A 
ATOM      6  C5  UNL d   1       0.499  -0.539  -1.390  0.00  0.00    -0.074 A 
ATOM      7  C6  UNL d   1       1.875  -1.063  -1.675  0.00  0.00     0.077 C 
ATOM      8  C7  UNL d   1       0.329   0.787  -0.971  0.00  0.00    -0.001 A 
ENDROOT
TORSDOF 0
ENDMDL
