MODEL 1
REMARK minimizedAffinity -3.14727449
REMARK minimizedRMSD -1
REMARK  0 active torsions:
REMARK  status: ('A' for Active; 'I' for Inactive)
ROOT
ATOM      1  C   UNL d   1       0.080  -1.740  -3.754  0.00  0.00     0.077 C 
ATOM      2  C1  UNL d   1       0.947  -2.275  -2.653  0.00  0.00    -0.074 A 
ATOM      3  C2  UNL d   1       0.410  -3.075  -1.639  0.00  0.00    -0.005 A 
ATOM      4  C3  UNL d   1       1.230  -3.572  -0.627  0.00  0.00     0.006 A 
ATOM      5  C4  UNL d   1       2.593  -3.276  -0.618  0.00  0.00    -0.005 A 
ATOM      6  C5  UNL d   1       3.149  -2.479  -1.624  0.00  0.00    -0.074 A 
ATOM      7  C6  UNL d   1       4.614  -2.159  -1.635  0.00  0.00     0.077 C 
ATOM      8  C7  UNL d   1       2.319  -1.988  -2.641  0.00  0.00    -0.001 A 
ENDROOT
TORSDOF 0
ENDMDL
