MODEL 1
REMARK minimizedAffinity 8.88874149
REMARK minimizedRMSD -1
REMARK  0 active torsions:
REMARK  status: ('A' for Active; 'I' for Inactive)
ROOT
ATOM      1  C   UNL d   1      -2.839  -2.681  -6.000  0.00  0.00     0.077 C 
ATOM      2  C1  UNL d   1      -1.864  -3.771  -5.665  0.00  0.00    -0.074 A 
ATOM      3  C2  UNL d   1      -2.303  -4.992  -5.143  0.00  0.00    -0.005 A 
ATOM      4  C3  UNL d   1      -1.385  -6.000  -4.846  0.00  0.00     0.006 A 
ATOM      5  C4  UNL d   1      -0.022  -5.797  -5.066  0.00  0.00    -0.005 A 
ATOM      6  C5  UNL d   1       0.435  -4.583  -5.588  0.00  0.00    -0.074 A 
ATOM      7  C6  UNL d   1       1.895  -4.352  -5.841  0.00  0.00     0.077 C 
ATOM      8  C7  UNL d   1      -0.494  -3.578  -5.891  0.00  0.00    -0.001 A 
ENDROOT
TORSDOF 0
ENDMDL
