MODEL 1
REMARK minimizedAffinity 1.38030577
REMARK minimizedRMSD -1
REMARK  0 active torsions:
REMARK  status: ('A' for Active; 'I' for Inactive)
ROOT
ATOM      1  C   UNL d   1       2.496  -3.520  -0.068  0.00  0.00     0.077 C 
ATOM      2  C1  UNL d   1       3.629  -3.021  -0.915  0.00  0.00    -0.074 A 
ATOM      3  C2  UNL d   1       4.956  -3.172  -0.502  0.00  0.00    -0.005 A 
ATOM      4  C3  UNL d   1       6.000  -2.711  -1.305  0.00  0.00     0.006 A 
ATOM      5  C4  UNL d   1       5.726  -2.095  -2.527  0.00  0.00    -0.005 A 
ATOM      6  C5  UNL d   1       4.405  -1.937  -2.957  0.00  0.00    -0.074 A 
ATOM      7  C6  UNL d   1       4.095  -1.286  -4.272  0.00  0.00     0.077 C 
ATOM      8  C7  UNL d   1       3.363  -2.409  -2.148  0.00  0.00    -0.001 A 
ENDROOT
TORSDOF 0
ENDMDL
