MODEL 1
REMARK minimizedAffinity -4.04585266
REMARK minimizedRMSD -1
REMARK  0 active torsions:
REMARK  status: ('A' for Active; 'I' for Inactive)
ROOT
ATOM      1  C   UNL d   1       6.000  -5.463  -0.208  0.00  0.00     0.077 C 
ATOM      2  C1  UNL d   1       5.230  -4.489  -1.050  0.00  0.00    -0.074 A 
ATOM      3  C2  UNL d   1       5.170  -3.134  -0.709  0.00  0.00    -0.005 A 
ATOM      4  C3  UNL d   1       4.458  -2.239  -1.507  0.00  0.00     0.006 A 
ATOM      5  C4  UNL d   1       3.800  -2.689  -2.653  0.00  0.00    -0.005 A 
ATOM      6  C5  UNL d   1       3.851  -4.040  -3.011  0.00  0.00    -0.074 A 
ATOM      7  C6  UNL d   1       3.158  -4.538  -4.244  0.00  0.00     0.077 C 
ATOM      8  C7  UNL d   1       4.574  -4.932  -2.207  0.00  0.00    -0.001 A 
ENDROOT
TORSDOF 0
ENDMDL
