MODEL 1
REMARK minimizedAffinity 4.0581727
REMARK minimizedRMSD -1
REMARK  0 active torsions:
REMARK  status: ('A' for Active; 'I' for Inactive)
ROOT
ATOM      1  C   UNL d   1       2.213  -5.947  -1.909  0.00  0.00     0.077 C 
ATOM      2  C1  UNL d   1       3.017  -4.704  -1.668  0.00  0.00    -0.074 A 
ATOM      3  C2  UNL d   1       3.728  -4.528  -0.476  0.00  0.00    -0.005 A 
ATOM      4  C3  UNL d   1       4.480  -3.372  -0.270  0.00  0.00     0.006 A 
ATOM      5  C4  UNL d   1       4.528  -2.381  -1.251  0.00  0.00    -0.005 A 
ATOM      6  C5  UNL d   1       3.824  -2.539  -2.449  0.00  0.00    -0.074 A 
ATOM      7  C6  UNL d   1       3.873  -1.488  -3.518  0.00  0.00     0.077 C 
ATOM      8  C7  UNL d   1       3.077  -3.707  -2.652  0.00  0.00    -0.001 A 
ENDROOT
TORSDOF 0
ENDMDL
