MODEL 1
REMARK minimizedAffinity -2.92437243
REMARK minimizedRMSD -1
REMARK  2 active torsions:
REMARK  status: ('A' for Active; 'I' for Inactive)
REMARK    1  A    between atoms: C2'_3  and  C1'_4 
REMARK    2  A    between atoms: C1'_4  and  C1_5 
ROOT
ATOM      1  C1  I4B d   1      -0.503   0.377  -0.222  0.00  0.00    -0.075 A 
ATOM      2  C2  I4B d   1      -1.149  -0.624   0.460  0.00  0.00     0.003 A 
ATOM      3  C3  I4B d   1      -0.423  -1.737   0.949  0.00  0.00     0.002 A 
ATOM      4  C4  I4B d   1       0.929  -1.833   0.691  0.00  0.00    -0.004 A 
ATOM      5  C5  I4B d   1       1.587  -0.806   0.018  0.00  0.00     0.002 A 
ATOM      6  C6  I4B d   1       0.869   0.312  -0.430  0.00  0.00     0.003 A 
ENDROOT
BRANCH   1   7
ATOM      7  C1' I4B d   1      -1.306   1.522  -0.753  0.00  0.00     0.060 C 
BRANCH   7   8
ATOM      8  C2' I4B d   1      -1.715   1.186  -2.173  0.00  0.00    -0.013 C 
ATOM      9  C4' I4B d   1      -3.143   0.710  -2.231  0.00  0.00     0.013 C 
ATOM     10  C3' I4B d   1      -1.519   2.413  -3.013  0.00  0.00     0.013 C 
ENDBRANCH   7   8
ENDBRANCH   1   7
TORSDOF 2
ENDMDL
