MODEL 1
REMARK minimizedAffinity -3.16440511
REMARK minimizedRMSD -1
REMARK  2 active torsions:
REMARK  status: ('A' for Active; 'I' for Inactive)
REMARK    1  A    between atoms: C2'_3  and  C1'_4 
REMARK    2  A    between atoms: C1'_4  and  C1_5 
ROOT
ATOM      1  C1  I4B d   1       0.071   0.518  -0.704  0.00  0.00    -0.075 A 
ATOM      2  C2  I4B d   1       1.205   0.714   0.044  0.00  0.00     0.003 A 
ATOM      3  C3  I4B d   1       1.985  -0.392   0.461  0.00  0.00     0.002 A 
ATOM      4  C4  I4B d   1       1.568  -1.671   0.153  0.00  0.00    -0.004 A 
ATOM      5  C5  I4B d   1       0.431  -1.867  -0.625  0.00  0.00     0.002 A 
ATOM      6  C6  I4B d   1      -0.316  -0.766  -1.067  0.00  0.00     0.003 A 
ENDROOT
BRANCH   1   7
ATOM      7  C1' I4B d   1      -0.746   1.706  -1.100  0.00  0.00     0.060 C 
BRANCH   7   8
ATOM      8  C2' I4B d   1      -1.719   1.267  -2.175  0.00  0.00    -0.013 C 
ATOM      9  C4' I4B d   1      -3.122   1.715  -1.857  0.00  0.00     0.013 C 
ATOM     10  C3' I4B d   1      -1.253   1.834  -3.482  0.00  0.00     0.013 C 
ENDBRANCH   7   8
ENDBRANCH   1   7
TORSDOF 2
ENDMDL
