MODEL 1
REMARK minimizedAffinity -5.68530273
REMARK minimizedRMSD -1
REMARK  2 active torsions:
REMARK  status: ('A' for Active; 'I' for Inactive)
REMARK    1  A    between atoms: C2'_3  and  C1'_4 
REMARK    2  A    between atoms: C1'_4  and  C1_5 
ROOT
ATOM      1  C1  I4B d   1      -0.065   0.250  -0.642  0.00  0.00    -0.075 A 
ATOM      2  C2  I4B d   1      -0.801  -0.761  -0.076  0.00  0.00     0.003 A 
ATOM      3  C3  I4B d   1      -0.158  -1.925   0.411  0.00  0.00     0.002 A 
ATOM      4  C4  I4B d   1       1.208  -2.057   0.268  0.00  0.00    -0.004 A 
ATOM      5  C5  I4B d   1       1.956  -1.021  -0.285  0.00  0.00     0.002 A 
ATOM      6  C6  I4B d   1       1.317   0.145  -0.732  0.00  0.00     0.003 A 
ENDROOT
BRANCH   1   7
ATOM      7  C1' I4B d   1      -0.779   1.450  -1.176  0.00  0.00     0.060 C 
BRANCH   7   8
ATOM      8  C2' I4B d   1      -1.819   0.971  -2.169  0.00  0.00    -0.013 C 
ATOM      9  C4' I4B d   1      -3.135   1.673  -1.961  0.00  0.00     0.013 C 
ATOM     10  C3' I4B d   1      -1.287   1.216  -3.550  0.00  0.00     0.013 C 
ENDBRANCH   7   8
ENDBRANCH   1   7
TORSDOF 2
ENDMDL
