MODEL 1
REMARK minimizedAffinity -3.47491074
REMARK minimizedRMSD -1
REMARK  2 active torsions:
REMARK  status: ('A' for Active; 'I' for Inactive)
REMARK    1  A    between atoms: C2'_3  and  C1'_4 
REMARK    2  A    between atoms: C1'_4  and  C1_5 
ROOT
ATOM      1  C1  I4B d   1      -0.166   0.121   0.095  0.00  0.00    -0.075 A 
ATOM      2  C2  I4B d   1      -0.364  -0.864   1.030  0.00  0.00     0.003 A 
ATOM      3  C3  I4B d   1       0.651  -1.816   1.289  0.00  0.00     0.002 A 
ATOM      4  C4  I4B d   1       1.821  -1.777   0.559  0.00  0.00    -0.004 A 
ATOM      5  C5  I4B d   1       2.030  -0.765  -0.373  0.00  0.00     0.002 A 
ATOM      6  C6  I4B d   1       1.035   0.198  -0.598  0.00  0.00     0.003 A 
ENDROOT
BRANCH   1   7
ATOM      7  C1' I4B d   1      -1.272   1.090  -0.177  0.00  0.00     0.060 C 
BRANCH   7   8
ATOM      8  C2' I4B d   1      -1.546   1.080  -1.668  0.00  0.00    -0.013 C 
ATOM      9  C4' I4B d   1      -2.954   0.631  -1.960  0.00  0.00     0.013 C 
ATOM     10  C3' I4B d   1      -1.298   2.462  -2.194  0.00  0.00     0.013 C 
ENDBRANCH   7   8
ENDBRANCH   1   7
TORSDOF 2
ENDMDL
