MODEL 1
REMARK minimizedAffinity -5.48763371
REMARK minimizedRMSD -1
REMARK  2 active torsions:
REMARK  status: ('A' for Active; 'I' for Inactive)
REMARK    1  A    between atoms: C2'_3  and  C1'_4 
REMARK    2  A    between atoms: C1'_4  and  C1_5 
ROOT
ATOM      1  C1  I4B d   1      -0.029   0.032   0.011  0.00  0.00    -0.075 A 
ATOM      2  C2  I4B d   1       1.291   0.319  -0.235  0.00  0.00     0.003 A 
ATOM      3  C3  I4B d   1       2.285  -0.667  -0.024  0.00  0.00     0.002 A 
ATOM      4  C4  I4B d   1       1.924  -1.901   0.477  0.00  0.00    -0.004 A 
ATOM      5  C5  I4B d   1       0.583  -2.197   0.704  0.00  0.00     0.002 A 
ATOM      6  C6  I4B d   1      -0.401  -1.229   0.458  0.00  0.00     0.003 A 
ENDROOT
BRANCH   1   7
ATOM      7  C1' I4B d   1      -1.049   1.107  -0.191  0.00  0.00     0.060 C 
BRANCH   7   8
ATOM      8  C2' I4B d   1      -1.155   1.378  -1.678  0.00  0.00    -0.013 C 
ATOM      9  C4' I4B d   1      -2.463   0.876  -2.231  0.00  0.00     0.013 C 
ATOM     10  C3' I4B d   1      -1.007   2.854  -1.891  0.00  0.00     0.013 C 
ENDBRANCH   7   8
ENDBRANCH   1   7
TORSDOF 2
ENDMDL
