MODEL 1
REMARK minimizedAffinity -6.57359314
REMARK minimizedRMSD -1
REMARK  2 active torsions:
REMARK  status: ('A' for Active; 'I' for Inactive)
REMARK    1  A    between atoms: C2'_3  and  C1'_4 
REMARK    2  A    between atoms: C1'_4  and  C1_5 
ROOT
ATOM      1  C1  I4B d   1       0.104   0.001  -0.383  0.00  0.00    -0.075 A 
ATOM      2  C2  I4B d   1      -0.595  -0.961   0.301  0.00  0.00     0.003 A 
ATOM      3  C3  I4B d   1       0.062  -2.128   0.762  0.00  0.00     0.002 A 
ATOM      4  C4  I4B d   1       1.398  -2.313   0.474  0.00  0.00    -0.004 A 
ATOM      5  C5  I4B d   1       2.111  -1.326  -0.201  0.00  0.00     0.002 A 
ATOM      6  C6  I4B d   1       1.463  -0.156  -0.621  0.00  0.00     0.003 A 
ENDROOT
BRANCH   1   7
ATOM      7  C1' I4B d   1      -0.628   1.206  -0.884  0.00  0.00     0.060 C 
BRANCH   7   8
ATOM      8  C2' I4B d   1      -1.718   0.732  -1.824  0.00  0.00    -0.013 C 
ATOM      9  C4' I4B d   1      -3.067   1.253  -1.402  0.00  0.00     0.013 C 
ATOM     10  C3' I4B d   1      -1.369   1.192  -3.208  0.00  0.00     0.013 C 
ENDBRANCH   7   8
ENDBRANCH   1   7
TORSDOF 2
ENDMDL
