MODEL 1
REMARK minimizedAffinity -4.48692846
REMARK minimizedRMSD -1
REMARK  2 active torsions:
REMARK  status: ('A' for Active; 'I' for Inactive)
REMARK    1  A    between atoms: C2'_3  and  C1'_4 
REMARK    2  A    between atoms: C1'_4  and  C1_5 
ROOT
ATOM      1  C1  I4B d   1      -0.032   0.348  -0.299  0.00  0.00    -0.075 A 
ATOM      2  C2  I4B d   1       1.318   0.552  -0.440  0.00  0.00     0.003 A 
ATOM      3  C3  I4B d   1       2.239  -0.399   0.062  0.00  0.00     0.002 A 
ATOM      4  C4  I4B d   1       1.771  -1.508   0.737  0.00  0.00    -0.004 A 
ATOM      5  C5  I4B d   1       0.401  -1.725   0.859  0.00  0.00     0.002 A 
ATOM      6  C6  I4B d   1      -0.507  -0.797   0.327  0.00  0.00     0.003 A 
ENDROOT
BRANCH   1   7
ATOM      7  C1' I4B d   1      -0.976   1.390  -0.811  0.00  0.00     0.060 C 
BRANCH   7   8
ATOM      8  C2' I4B d   1      -1.852   0.747  -1.867  0.00  0.00    -0.013 C 
ATOM      9  C4' I4B d   1      -3.245   0.507  -1.348  0.00  0.00     0.013 C 
ATOM     10  C3' I4B d   1      -1.868   1.648  -3.066  0.00  0.00     0.013 C 
ENDBRANCH   7   8
ENDBRANCH   1   7
TORSDOF 2
ENDMDL
