MODEL 1
REMARK minimizedAffinity 12.6785641
REMARK minimizedRMSD -1
REMARK  2 active torsions:
REMARK  status: ('A' for Active; 'I' for Inactive)
REMARK    1  A    between atoms: C2'_3  and  C1'_4 
REMARK    2  A    between atoms: C1'_4  and  C1_5 
ROOT
ATOM      1  C1  I4B d   1       4.090   1.358  -1.341  0.00  0.00    -0.075 A 
ATOM      2  C2  I4B d   1       4.173   1.798  -2.638  0.00  0.00     0.003 A 
ATOM      3  C3  I4B d   1       5.157   2.747  -3.007  0.00  0.00     0.002 A 
ATOM      4  C4  I4B d   1       5.998   3.264  -2.044  0.00  0.00    -0.004 A 
ATOM      5  C5  I4B d   1       5.928   2.800  -0.733  0.00  0.00     0.002 A 
ATOM      6  C6  I4B d   1       4.976   1.831  -0.382  0.00  0.00     0.003 A 
ENDROOT
BRANCH   1   7
ATOM      7  C1' I4B d   1       3.018   0.379  -0.978  0.00  0.00     0.060 C 
BRANCH   7   8
ATOM      8  C2' I4B d   1       2.225   0.962   0.174  0.00  0.00    -0.013 C 
ATOM      9  C4' I4B d   1       0.762   1.064  -0.169  0.00  0.00     0.013 C 
ATOM     10  C3' I4B d   1       2.441   0.088   1.373  0.00  0.00     0.013 C 
ENDBRANCH   7   8
ENDBRANCH   1   7
TORSDOF 2
ENDMDL
