MODEL 1
REMARK minimizedAffinity 15.6495771
REMARK minimizedRMSD -1
REMARK  2 active torsions:
REMARK  status: ('A' for Active; 'I' for Inactive)
REMARK    1  A    between atoms: C2'_3  and  C1'_4 
REMARK    2  A    between atoms: C1'_4  and  C1_5 
ROOT
ATOM      1  C1  I4B d   1      -1.946  -3.226  -3.088  0.00  0.00    -0.075 A 
ATOM      2  C2  I4B d   1      -1.945  -1.861  -3.225  0.00  0.00     0.003 A 
ATOM      3  C3  I4B d   1      -1.351  -1.045  -2.231  0.00  0.00     0.002 A 
ATOM      4  C4  I4B d   1      -0.818  -1.631  -1.101  0.00  0.00    -0.004 A 
ATOM      5  C5  I4B d   1      -0.800  -3.017  -0.975  0.00  0.00     0.002 A 
ATOM      6  C6  I4B d   1      -1.356  -3.821  -1.980  0.00  0.00     0.003 A 
ENDROOT
BRANCH   1   7
ATOM      7  C1' I4B d   1      -2.611  -4.056  -4.141  0.00  0.00     0.060 C 
BRANCH   7   8
ATOM      8  C2' I4B d   1      -3.885  -3.349  -4.556  0.00  0.00    -0.013 C 
ATOM      9  C4' I4B d   1      -3.687  -2.570  -5.829  0.00  0.00     0.013 C 
ATOM     10  C3' I4B d   1      -4.957  -4.385  -4.717  0.00  0.00     0.013 C 
ENDBRANCH   7   8
ENDBRANCH   1   7
TORSDOF 2
ENDMDL
