MODEL 1
REMARK minimizedAffinity 6.41644478
REMARK minimizedRMSD -1
REMARK  2 active torsions:
REMARK  status: ('A' for Active; 'I' for Inactive)
REMARK    1  A    between atoms: C2'_3  and  C1'_4 
REMARK    2  A    between atoms: C1'_4  and  C1_5 
ROOT
ATOM      1  C1  I4B d   1       2.260   3.274   2.101  0.00  0.00    -0.075 A 
ATOM      2  C2  I4B d   1       2.099   3.249   3.464  0.00  0.00     0.003 A 
ATOM      3  C3  I4B d   1       1.073   4.009   4.075  0.00  0.00     0.002 A 
ATOM      4  C4  I4B d   1       0.269   4.815   3.296  0.00  0.00    -0.004 A 
ATOM      5  C5  I4B d   1       0.418   4.823   1.913  0.00  0.00     0.002 A 
ATOM      6  C6  I4B d   1       1.412   4.038   1.310  0.00  0.00     0.003 A 
ENDROOT
BRANCH   1   7
ATOM      7  C1' I4B d   1       3.375   2.485   1.492  0.00  0.00     0.060 C 
BRANCH   7   8
ATOM      8  C2' I4B d   1       2.776   1.557   0.453  0.00  0.00    -0.013 C 
ATOM      9  C4' I4B d   1       3.660   1.458  -0.762  0.00  0.00     0.013 C 
ATOM     10  C3' I4B d   1       2.578   0.215   1.091  0.00  0.00     0.013 C 
ENDBRANCH   7   8
ENDBRANCH   1   7
TORSDOF 2
ENDMDL
