MODEL 1
REMARK minimizedAffinity 19.1114788
REMARK minimizedRMSD -1
REMARK  2 active torsions:
REMARK  status: ('A' for Active; 'I' for Inactive)
REMARK    1  A    between atoms: C2'_3  and  C1'_4 
REMARK    2  A    between atoms: C1'_4  and  C1_5 
ROOT
ATOM      1  C1  I4B d   1       3.384  -0.144   1.807  0.00  0.00    -0.075 A 
ATOM      2  C2  I4B d   1       4.195   0.465   0.883  0.00  0.00     0.003 A 
ATOM      3  C3  I4B d   1       3.779   0.578  -0.466  0.00  0.00     0.002 A 
ATOM      4  C4  I4B d   1       2.574   0.028  -0.854  0.00  0.00    -0.004 A 
ATOM      5  C5  I4B d   1       1.743  -0.568   0.090  0.00  0.00     0.002 A 
ATOM      6  C6  I4B d   1       2.144  -0.644   1.431  0.00  0.00     0.003 A 
ENDROOT
BRANCH   1   7
ATOM      7  C1' I4B d   1       3.869  -0.276   3.216  0.00  0.00     0.060 C 
BRANCH   7   8
ATOM      8  C2' I4B d   1       5.176  -1.042   3.190  0.00  0.00    -0.013 C 
ATOM      9  C4' I4B d   1       5.699  -1.277   4.583  0.00  0.00     0.013 C 
ATOM     10  C3' I4B d   1       4.939  -2.338   2.474  0.00  0.00     0.013 C 
ENDBRANCH   7   8
ENDBRANCH   1   7
TORSDOF 2
ENDMDL
