MODEL 1
REMARK minimizedAffinity 15.6075335
REMARK minimizedRMSD -1
REMARK  2 active torsions:
REMARK  status: ('A' for Active; 'I' for Inactive)
REMARK    1  A    between atoms: C2'_3  and  C1'_4 
REMARK    2  A    between atoms: C1'_4  and  C1_5 
ROOT
ATOM      1  C1  I4B d   1       1.368   2.957   3.087  0.00  0.00    -0.075 A 
ATOM      2  C2  I4B d   1       2.425   2.088   2.974  0.00  0.00     0.003 A 
ATOM      3  C3  I4B d   1       2.600   1.053   3.924  0.00  0.00     0.002 A 
ATOM      4  C4  I4B d   1       1.731   0.955   4.992  0.00  0.00    -0.004 A 
ATOM      5  C5  I4B d   1       0.648   1.823   5.092  0.00  0.00     0.002 A 
ATOM      6  C6  I4B d   1       0.458   2.823   4.127  0.00  0.00     0.003 A 
ENDROOT
BRANCH   1   7
ATOM      7  C1' I4B d   1       1.232   4.059   2.085  0.00  0.00     0.060 C 
BRANCH   7   8
ATOM      8  C2' I4B d   1      -0.223   4.482   2.052  0.00  0.00    -0.013 C 
ATOM      9  C4' I4B d   1      -0.355   5.982   2.082  0.00  0.00     0.013 C 
ATOM     10  C3' I4B d   1      -0.844   3.909   0.813  0.00  0.00     0.013 C 
ENDBRANCH   7   8
ENDBRANCH   1   7
TORSDOF 2
ENDMDL
