MODEL 1
REMARK minimizedAffinity -2.62475395
REMARK minimizedRMSD -1
REMARK  0 active torsions:
REMARK  status: ('A' for Active; 'I' for Inactive)
ROOT
ATOM      1  C   UNL d   1       0.659   2.197  -0.425  0.00  0.00     0.023 A 
ATOM      2  C1  UNL d   1      -0.399   1.565  -1.079  0.00  0.00     0.003 A 
ATOM      3  C2  UNL d   1      -0.878   0.339  -0.613  0.00  0.00     0.048 A 
ATOM      4  C3  UNL d   1      -0.294  -0.250   0.508  0.00  0.00     0.023 A 
ATOM      5  C4  UNL d   1       0.764   0.379   1.166  0.00  0.00     0.048 A 
ATOM      6  C5  UNL d   1       1.240   1.604   0.696  0.00  0.00     0.003 A 
ATOM      7  I   UNL d   1      -1.005  -2.075   1.203  0.00  0.00    -0.146 I 
ENDROOT
TORSDOF 0
ENDMDL
