MODEL 1
REMARK minimizedAffinity 5.82923508
REMARK minimizedRMSD -1
REMARK  0 active torsions:
REMARK  status: ('A' for Active; 'I' for Inactive)
ROOT
ATOM      1  C   UNL d   1       1.475  -1.054  -1.526  0.00  0.00     0.023 A 
ATOM      2  C1  UNL d   1       2.651  -0.320  -1.375  0.00  0.00     0.003 A 
ATOM      3  C2  UNL d   1       2.711   0.722  -0.448  0.00  0.00     0.048 A 
ATOM      4  C3  UNL d   1       1.591   1.024   0.327  0.00  0.00     0.023 A 
ATOM      5  C4  UNL d   1       0.412   0.291   0.180  0.00  0.00     0.048 A 
ATOM      6  C5  UNL d   1       0.357  -0.749  -0.749  0.00  0.00     0.003 A 
ATOM      7  I   UNL d   1       1.678   2.574   1.708  0.00  0.00    -0.146 I 
ENDROOT
TORSDOF 0
ENDMDL
