MODEL 1
REMARK minimizedAffinity -0.294927269
REMARK minimizedRMSD -1
REMARK  0 active torsions:
REMARK  status: ('A' for Active; 'I' for Inactive)
ROOT
ATOM      1  C   UNL d   1       0.930   2.104   0.897  0.00  0.00     0.023 A 
ATOM      2  C1  UNL d   1       0.264   1.967   2.115  0.00  0.00     0.003 A 
ATOM      3  C2  UNL d   1      -0.234   0.721   2.503  0.00  0.00     0.048 A 
ATOM      4  C3  UNL d   1      -0.062  -0.383   1.668  0.00  0.00     0.023 A 
ATOM      5  C4  UNL d   1       0.604  -0.250   0.449  0.00  0.00     0.048 A 
ATOM      6  C5  UNL d   1       1.100   0.998   0.065  0.00  0.00     0.003 A 
ATOM      7  I   UNL d   1      -0.803  -2.237   2.244  0.00  0.00    -0.146 I 
ENDROOT
TORSDOF 0
ENDMDL
