MODEL 1
REMARK minimizedAffinity -1.1171205
REMARK minimizedRMSD -1
REMARK  0 active torsions:
REMARK  status: ('A' for Active; 'I' for Inactive)
ROOT
ATOM      1  C   UNL d   1       0.799   1.029   1.368  0.00  0.00     0.023 A 
ATOM      2  C1  UNL d   1       1.109   1.561   0.116  0.00  0.00     0.003 A 
ATOM      3  C2  UNL d   1       0.310   1.261  -0.989  0.00  0.00     0.048 A 
ATOM      4  C3  UNL d   1      -0.799   0.430  -0.836  0.00  0.00     0.023 A 
ATOM      5  C4  UNL d   1      -1.114  -0.104   0.415  0.00  0.00     0.048 A 
ATOM      6  C5  UNL d   1      -0.312   0.198   1.517  0.00  0.00     0.003 A 
ATOM      7  I   UNL d   1      -1.989  -0.018  -2.479  0.00  0.00    -0.146 I 
ENDROOT
TORSDOF 0
ENDMDL
