MODEL 1
REMARK minimizedAffinity 2.12784767
REMARK minimizedRMSD -1
REMARK  0 active torsions:
REMARK  status: ('A' for Active; 'I' for Inactive)
ROOT
ATOM      1  C   UNL d   1       0.319   1.119  -0.279  0.00  0.00     0.023 A 
ATOM      2  C1  UNL d   1       0.896   2.226   0.342  0.00  0.00     0.003 A 
ATOM      3  C2  UNL d   1       1.212   2.180   1.702  0.00  0.00     0.048 A 
ATOM      4  C3  UNL d   1       0.949   1.023   2.434  0.00  0.00     0.023 A 
ATOM      5  C4  UNL d   1       0.373  -0.088   1.816  0.00  0.00     0.048 A 
ATOM      6  C5  UNL d   1       0.057  -0.037   0.457  0.00  0.00     0.003 A 
ATOM      7  I   UNL d   1       1.419   0.952   4.457  0.00  0.00    -0.146 I 
ENDROOT
TORSDOF 0
ENDMDL
