MODEL 1
REMARK minimizedAffinity -0.602012455
REMARK minimizedRMSD -1
REMARK  0 active torsions:
REMARK  status: ('A' for Active; 'I' for Inactive)
ROOT
ATOM      1  C   UNL d   1       0.106  -1.263  -0.502  0.00  0.00     0.023 A 
ATOM      2  C1  UNL d   1      -0.723  -0.353   0.153  0.00  0.00     0.003 A 
ATOM      3  C2  UNL d   1      -0.190   0.823   0.685  0.00  0.00     0.048 A 
ATOM      4  C3  UNL d   1       1.174   1.083   0.556  0.00  0.00     0.023 A 
ATOM      5  C4  UNL d   1       2.008   0.176  -0.100  0.00  0.00     0.048 A 
ATOM      6  C5  UNL d   1       1.470  -0.999  -0.629  0.00  0.00     0.003 A 
ATOM      7  I   UNL d   1       1.971   2.833   1.347  0.00  0.00    -0.146 I 
ENDROOT
TORSDOF 0
ENDMDL
