MODEL 1
REMARK minimizedAffinity -4.57459068
REMARK minimizedRMSD -1
REMARK  0 active torsions:
REMARK  status: ('A' for Active; 'I' for Inactive)
ROOT
ATOM      1  C   UNL d   1       1.879   1.351   0.305  0.00  0.00     0.023 A 
ATOM      2  C1  UNL d   1       0.602   1.901   0.191  0.00  0.00     0.003 A 
ATOM      3  C2  UNL d   1      -0.436   1.151  -0.364  0.00  0.00     0.048 A 
ATOM      4  C3  UNL d   1      -0.190  -0.150  -0.804  0.00  0.00     0.023 A 
ATOM      5  C4  UNL d   1       1.086  -0.705  -0.691  0.00  0.00     0.048 A 
ATOM      6  C5  UNL d   1       2.121   0.050  -0.136  0.00  0.00     0.003 A 
ATOM      7  I   UNL d   1      -1.733  -1.269  -1.631  0.00  0.00    -0.146 I 
ENDROOT
TORSDOF 0
ENDMDL
