MODEL 1
REMARK minimizedAffinity -0.196700439
REMARK minimizedRMSD -1
REMARK  0 active torsions:
REMARK  status: ('A' for Active; 'I' for Inactive)
ROOT
ATOM      1  C   UNL d   1       0.580   1.691   0.714  0.00  0.00     0.023 A 
ATOM      2  C1  UNL d   1       0.208   0.569  -0.026  0.00  0.00     0.003 A 
ATOM      3  C2  UNL d   1      -0.403  -0.516   0.606  0.00  0.00     0.048 A 
ATOM      4  C3  UNL d   1      -0.639  -0.471   1.980  0.00  0.00     0.023 A 
ATOM      5  C4  UNL d   1      -0.270   0.650   2.725  0.00  0.00     0.048 A 
ATOM      6  C5  UNL d   1       0.341   1.732   2.088  0.00  0.00     0.003 A 
ATOM      7  I   UNL d   1      -1.548  -2.085   2.924  0.00  0.00    -0.146 I 
ENDROOT
TORSDOF 0
ENDMDL
