MODEL 1
REMARK minimizedAffinity -3.55497766
REMARK minimizedRMSD -1
REMARK  0 active torsions:
REMARK  status: ('A' for Active; 'I' for Inactive)
ROOT
ATOM      1  C   UNL d   1       0.854   2.204   2.203  0.00  0.00     0.023 A 
ATOM      2  C1  UNL d   1       0.017   1.127   2.496  0.00  0.00     0.003 A 
ATOM      3  C2  UNL d   1      -0.446   0.302   1.469  0.00  0.00     0.048 A 
ATOM      4  C3  UNL d   1      -0.067   0.559   0.152  0.00  0.00     0.023 A 
ATOM      5  C4  UNL d   1       0.771   1.635  -0.146  0.00  0.00     0.048 A 
ATOM      6  C5  UNL d   1       1.230   2.458   0.884  0.00  0.00     0.003 A 
ATOM      7  I   UNL d   1      -0.755  -0.668  -1.378  0.00  0.00    -0.146 I 
ENDROOT
TORSDOF 0
ENDMDL
