MODEL 1
REMARK minimizedAffinity -3.14704275
REMARK minimizedRMSD -1
REMARK  0 active torsions:
REMARK  status: ('A' for Active; 'I' for Inactive)
ROOT
ATOM      1  C   UNL d   1       0.767   2.175   2.016  0.00  0.00     0.023 A 
ATOM      2  C1  UNL d   1      -0.337   1.336   2.170  0.00  0.00     0.003 A 
ATOM      3  C2  UNL d   1      -0.718   0.483   1.131  0.00  0.00     0.048 A 
ATOM      4  C3  UNL d   1       0.011   0.473  -0.058  0.00  0.00     0.023 A 
ATOM      5  C4  UNL d   1       1.116   1.310  -0.216  0.00  0.00     0.048 A 
ATOM      6  C5  UNL d   1       1.493   2.162   0.824  0.00  0.00     0.003 A 
ATOM      7  I   UNL d   1      -0.554  -0.795  -1.604  0.00  0.00    -0.146 I 
ENDROOT
TORSDOF 0
ENDMDL
