MODEL 1
REMARK minimizedAffinity 9.06512165
REMARK minimizedRMSD -1
REMARK  0 active torsions:
REMARK  status: ('A' for Active; 'I' for Inactive)
ROOT
ATOM      1  C   UNL d   1       5.999   3.751  -4.338  0.00  0.00     0.023 A 
ATOM      2  C1  UNL d   1       4.858   3.902  -5.126  0.00  0.00     0.003 A 
ATOM      3  C2  UNL d   1       3.593   3.692  -4.573  0.00  0.00     0.048 A 
ATOM      4  C3  UNL d   1       3.477   3.333  -3.231  0.00  0.00     0.023 A 
ATOM      5  C4  UNL d   1       4.615   3.181  -2.438  0.00  0.00     0.048 A 
ATOM      6  C5  UNL d   1       5.878   3.391  -2.995  0.00  0.00     0.003 A 
ATOM      7  I   UNL d   1       1.595   3.021  -2.405  0.00  0.00    -0.146 I 
ENDROOT
TORSDOF 0
ENDMDL
