MODEL 1
REMARK minimizedAffinity 10.5711241
REMARK minimizedRMSD -1
REMARK  0 active torsions:
REMARK  status: ('A' for Active; 'I' for Inactive)
ROOT
ATOM      1  C   UNL d   1       0.612   3.808  -2.836  0.00  0.00     0.023 A 
ATOM      2  C1  UNL d   1       1.555   2.793  -2.671  0.00  0.00     0.003 A 
ATOM      3  C2  UNL d   1       1.400   1.854  -1.650  0.00  0.00     0.048 A 
ATOM      4  C3  UNL d   1       0.300   1.935  -0.797  0.00  0.00     0.023 A 
ATOM      5  C4  UNL d   1      -0.646   2.949  -0.958  0.00  0.00     0.048 A 
ATOM      6  C5  UNL d   1      -0.487   3.886  -1.981  0.00  0.00     0.003 A 
ATOM      7  I   UNL d   1       0.067   0.538   0.724  0.00  0.00    -0.146 I 
ENDROOT
TORSDOF 0
ENDMDL
