MODEL 1
REMARK minimizedAffinity -2.77642107
REMARK minimizedRMSD -1
REMARK  0 active torsions:
REMARK  status: ('A' for Active; 'I' for Inactive)
ROOT
ATOM      1  C   UNL d   1       0.910   5.999  -5.127  0.00  0.00     0.023 A 
ATOM      2  C1  UNL d   1       1.051   5.810  -3.752  0.00  0.00     0.003 A 
ATOM      3  C2  UNL d   1       2.182   5.164  -3.248  0.00  0.00     0.048 A 
ATOM      4  C3  UNL d   1       3.167   4.710  -4.124  0.00  0.00     0.023 A 
ATOM      5  C4  UNL d   1       3.030   4.898  -5.500  0.00  0.00     0.048 A 
ATOM      6  C5  UNL d   1       1.898   5.544  -6.000  0.00  0.00     0.003 A 
ATOM      7  I   UNL d   1       4.851   3.749  -3.376  0.00  0.00    -0.146 I 
ENDROOT
TORSDOF 0
ENDMDL
