MODEL 1
REMARK minimizedAffinity -1.86548698
REMARK minimizedRMSD -1
REMARK  0 active torsions:
REMARK  status: ('A' for Active; 'I' for Inactive)
ROOT
ATOM      1  C   UNL d   1       3.203   1.670   3.760  0.00  0.00     0.023 A 
ATOM      2  C1  UNL d   1       3.413   1.405   2.406  0.00  0.00     0.003 A 
ATOM      3  C2  UNL d   1       2.329   1.120   1.573  0.00  0.00     0.048 A 
ATOM      4  C3  UNL d   1       1.038   1.104   2.100  0.00  0.00     0.023 A 
ATOM      5  C4  UNL d   1       0.823   1.369   3.453  0.00  0.00     0.048 A 
ATOM      6  C5  UNL d   1       1.910   1.652   4.282  0.00  0.00     0.003 A 
ATOM      7  I   UNL d   1      -0.577   0.681   0.862  0.00  0.00    -0.146 I 
ENDROOT
TORSDOF 0
ENDMDL
