MODEL 1
REMARK minimizedAffinity 7.94037819
REMARK minimizedRMSD -1
REMARK  0 active torsions:
REMARK  status: ('A' for Active; 'I' for Inactive)
ROOT
ATOM      1  C   UNL d   1      -0.604  -1.027  -4.732  0.00  0.00     0.023 A 
ATOM      2  C1  UNL d   1       0.071  -1.291  -3.540  0.00  0.00     0.003 A 
ATOM      3  C2  UNL d   1       0.919  -0.328  -2.989  0.00  0.00     0.048 A 
ATOM      4  C3  UNL d   1       1.086   0.897  -3.633  0.00  0.00     0.023 A 
ATOM      5  C4  UNL d   1       0.411   1.166  -4.825  0.00  0.00     0.048 A 
ATOM      6  C5  UNL d   1      -0.434   0.200  -5.374  0.00  0.00     0.003 A 
ATOM      7  I   UNL d   1       2.346   2.332  -2.814  0.00  0.00    -0.146 I 
ENDROOT
TORSDOF 0
ENDMDL
