MODEL 1
REMARK minimizedAffinity -3.24026799
REMARK minimizedRMSD -1
REMARK  1 active torsions:
REMARK  status: ('A' for Active; 'I' for Inactive)
REMARK    1  A    between atoms: C1_2  and  C2_3 
ROOT
ATOM      1  C2  UNL d   1      -0.250  -0.890   1.116  0.00  0.00    -0.077 A 
ATOM      2  C3  UNL d   1       0.134  -1.205   2.428  0.00  0.00     0.002 A 
ATOM      3  C4  UNL d   1       1.474  -1.121   2.811  0.00  0.00     0.002 A 
ATOM      4  C5  UNL d   1       2.440  -0.720   1.891  0.00  0.00    -0.004 A 
ATOM      5  C6  UNL d   1       2.069  -0.407   0.584  0.00  0.00     0.002 A 
ATOM      6  C7  UNL d   1       0.730  -0.491   0.199  0.00  0.00     0.002 A 
ENDROOT
BRANCH   1   7
ATOM      7  C1  UNL d   1      -1.701  -0.933   0.714  0.00  0.00     0.055 C 
ATOM      8  C   UNL d   1      -2.572  -0.174   1.705  0.00  0.00     0.019 C 
ENDBRANCH   1   7
TORSDOF 1
ENDMDL
