MODEL 1
REMARK minimizedAffinity -4.03682566
REMARK minimizedRMSD -1
REMARK  1 active torsions:
REMARK  status: ('A' for Active; 'I' for Inactive)
REMARK    1  A    between atoms: C1_2  and  C2_3 
ROOT
ATOM      1  C2  UNL d   1      -0.498   0.110  -0.587  0.00  0.00    -0.077 A 
ATOM      2  C3  UNL d   1      -1.189  -0.141   0.606  0.00  0.00     0.002 A 
ATOM      3  C4  UNL d   1      -0.508  -0.609   1.732  0.00  0.00     0.002 A 
ATOM      4  C5  UNL d   1       0.867  -0.826   1.676  0.00  0.00    -0.004 A 
ATOM      5  C6  UNL d   1       1.563  -0.582   0.494  0.00  0.00     0.002 A 
ATOM      6  C7  UNL d   1       0.884  -0.115  -0.633  0.00  0.00     0.002 A 
ENDROOT
BRANCH   1   7
ATOM      7  C1  UNL d   1      -1.222   0.661  -1.787  0.00  0.00     0.055 C 
ATOM      8  C   UNL d   1      -0.584   1.955  -2.272  0.00  0.00     0.019 C 
ENDBRANCH   1   7
TORSDOF 1
ENDMDL
