MODEL 1
REMARK minimizedAffinity -5.41826296
REMARK minimizedRMSD -1
REMARK  1 active torsions:
REMARK  status: ('A' for Active; 'I' for Inactive)
REMARK    1  A    between atoms: C1_2  and  C2_3 
ROOT
ATOM      1  C2  UNL d   1       1.026  -0.460   0.430  0.00  0.00    -0.077 A 
ATOM      2  C3  UNL d   1       2.186  -1.238   0.547  0.00  0.00     0.002 A 
ATOM      3  C4  UNL d   1       2.637  -1.651   1.802  0.00  0.00     0.002 A 
ATOM      4  C5  UNL d   1       1.931  -1.295   2.949  0.00  0.00    -0.004 A 
ATOM      5  C6  UNL d   1       0.776  -0.520   2.844  0.00  0.00     0.002 A 
ATOM      6  C7  UNL d   1       0.325  -0.105   1.590  0.00  0.00     0.002 A 
ENDROOT
BRANCH   1   7
ATOM      7  C1  UNL d   1       0.511  -0.055  -0.927  0.00  0.00     0.055 C 
ATOM      8  C   UNL d   1      -1.009   0.007  -0.946  0.00  0.00     0.019 C 
ENDBRANCH   1   7
TORSDOF 1
ENDMDL
