MODEL 1
REMARK minimizedAffinity -3.55979347
REMARK minimizedRMSD -1
REMARK  1 active torsions:
REMARK  status: ('A' for Active; 'I' for Inactive)
REMARK    1  A    between atoms: C1_2  and  C2_3 
ROOT
ATOM      1  C2  UNL d   1       1.039  -0.693   0.423  0.00  0.00    -0.077 A 
ATOM      2  C3  UNL d   1       1.497  -1.077   1.691  0.00  0.00     0.002 A 
ATOM      3  C4  UNL d   1       0.589  -1.421   2.695  0.00  0.00     0.002 A 
ATOM      4  C5  UNL d   1      -0.780  -1.388   2.440  0.00  0.00    -0.004 A 
ATOM      5  C6  UNL d   1      -1.245  -1.005   1.182  0.00  0.00     0.002 A 
ATOM      6  C7  UNL d   1      -0.339  -0.660   0.178  0.00  0.00     0.002 A 
ENDROOT
BRANCH   1   7
ATOM      7  C1  UNL d   1       2.018  -0.370  -0.676  0.00  0.00     0.055 C 
ATOM      8  C   UNL d   1       2.183  -1.542  -1.632  0.00  0.00     0.019 C 
ENDBRANCH   1   7
TORSDOF 1
ENDMDL
