MODEL 1
REMARK minimizedAffinity -4.89309645
REMARK minimizedRMSD -1
REMARK  1 active torsions:
REMARK  status: ('A' for Active; 'I' for Inactive)
REMARK    1  A    between atoms: C3_4  and  O_7 
ROOT
ATOM      1  C   UNL d   1       3.993   4.592  -4.532  0.00  0.00    -0.033 A 
ATOM      2  C1  UNL d   1       5.299   4.162  -4.290  0.00  0.00     0.039 A 
ATOM      3  C2  UNL d   1       5.990   4.619  -3.166  0.00  0.00    -0.080 A 
ATOM      4  C3  UNL d   1       5.364   5.503  -2.292  0.00  0.00     0.150 A 
ATOM      5  C4  UNL d   1       4.062   5.933  -2.524  0.00  0.00    -0.007 A 
ATOM      6  C5  UNL d   1       3.374   5.476  -3.648  0.00  0.00     0.039 A 
ENDROOT
BRANCH   4   7
ATOM      7  O   UNL d   1       6.000   5.980  -1.185  0.00  0.00    -0.526 OA
ATOM      8  H5  UNL d   1       6.902   5.620  -1.169  0.00  0.00     0.418 HD
ENDBRANCH   4   7
TORSDOF 1
ENDMDL
