MODEL 1
REMARK minimizedAffinity -0.892950237
REMARK minimizedRMSD -1
REMARK  1 active torsions:
REMARK  status: ('A' for Active; 'I' for Inactive)
REMARK    1  A    between atoms: C3_4  and  O_7 
ROOT
ATOM      1  C   UNL d   1       4.503  -3.529  -4.121  0.00  0.00    -0.033 A 
ATOM      2  C1  UNL d   1       3.775  -2.565  -3.422  0.00  0.00     0.039 A 
ATOM      3  C2  UNL d   1       4.156  -2.200  -2.129  0.00  0.00    -0.080 A 
ATOM      4  C3  UNL d   1       5.267  -2.806  -1.548  0.00  0.00     0.150 A 
ATOM      5  C4  UNL d   1       6.000  -3.765  -2.240  0.00  0.00    -0.007 A 
ATOM      6  C5  UNL d   1       5.617  -4.128  -3.531  0.00  0.00     0.039 A 
ENDROOT
BRANCH   4   7
ATOM      7  O   UNL d   1       5.675  -2.487  -0.287  0.00  0.00    -0.526 OA
ATOM      8  H5  UNL d   1       5.058  -1.832   0.079  0.00  0.00     0.418 HD
ENDBRANCH   4   7
TORSDOF 1
ENDMDL
