MODEL 1
REMARK minimizedAffinity 3.53519368
REMARK minimizedRMSD -1
REMARK  1 active torsions:
REMARK  status: ('A' for Active; 'I' for Inactive)
REMARK    1  A    between atoms: C3_4  and  O_7 
ROOT
ATOM      1  C   UNL d   1       3.868  -2.609  -4.539  0.00  0.00    -0.033 A 
ATOM      2  C1  UNL d   1       5.264  -2.594  -4.579  0.00  0.00     0.039 A 
ATOM      3  C2  UNL d   1       5.998  -2.550  -3.392  0.00  0.00    -0.080 A 
ATOM      4  C3  UNL d   1       5.326  -2.524  -2.173  0.00  0.00     0.150 A 
ATOM      5  C4  UNL d   1       3.936  -2.543  -2.126  0.00  0.00    -0.007 A 
ATOM      6  C5  UNL d   1       3.204  -2.585  -3.312  0.00  0.00     0.039 A 
ENDROOT
BRANCH   4   7
ATOM      7  O   UNL d   1       5.999  -2.477  -0.989  0.00  0.00    -0.526 OA
ATOM      8  H5  UNL d   1       6.952  -2.439  -1.178  0.00  0.00     0.418 HD
ENDBRANCH   4   7
TORSDOF 1
ENDMDL
