MODEL 1
REMARK minimizedAffinity -3.7925458
REMARK minimizedRMSD -1
REMARK  1 active torsions:
REMARK  status: ('A' for Active; 'I' for Inactive)
REMARK    1  A    between atoms: C3_4  and  O_7 
ROOT
ATOM      1  C   UNL d   1       4.087   3.884  -4.796  0.00  0.00    -0.033 A 
ATOM      2  C1  UNL d   1       3.285   4.261  -3.717  0.00  0.00     0.039 A 
ATOM      3  C2  UNL d   1       3.839   4.963  -2.645  0.00  0.00    -0.080 A 
ATOM      4  C3  UNL d   1       5.193   5.284  -2.665  0.00  0.00     0.150 A 
ATOM      5  C4  UNL d   1       5.997   4.915  -3.739  0.00  0.00    -0.007 A 
ATOM      6  C5  UNL d   1       5.442   4.213  -4.808  0.00  0.00     0.039 A 
ENDROOT
BRANCH   4   7
ATOM      7  O   UNL d   1       5.780   5.964  -1.640  0.00  0.00    -0.526 OA
ATOM      8  H5  UNL d   1       5.109   6.127  -0.956  0.00  0.00     0.418 HD
ENDBRANCH   4   7
TORSDOF 1
ENDMDL
