MODEL 1
REMARK minimizedAffinity 2.7064569
REMARK minimizedRMSD -1
REMARK  1 active torsions:
REMARK  status: ('A' for Active; 'I' for Inactive)
REMARK    1  A    between atoms: C3_4  and  O_7 
ROOT
ATOM      1  C   UNL d   1       3.929  -2.264  -4.863  0.00  0.00    -0.033 A 
ATOM      2  C1  UNL d   1       5.284  -2.588  -4.943  0.00  0.00     0.039 A 
ATOM      3  C2  UNL d   1       5.998  -2.907  -3.786  0.00  0.00    -0.080 A 
ATOM      4  C3  UNL d   1       5.344  -2.899  -2.557  0.00  0.00     0.150 A 
ATOM      5  C4  UNL d   1       3.993  -2.582  -2.470  0.00  0.00    -0.007 A 
ATOM      6  C5  UNL d   1       3.282  -2.262  -3.626  0.00  0.00     0.039 A 
ENDROOT
BRANCH   4   7
ATOM      7  O   UNL d   1       5.999  -3.199  -1.399  0.00  0.00    -0.526 OA
ATOM      8  H5  UNL d   1       6.933  -3.370  -1.610  0.00  0.00     0.418 HD
ENDBRANCH   4   7
TORSDOF 1
ENDMDL
