MODEL 1
REMARK minimizedAffinity 0.30883801
REMARK minimizedRMSD -1
REMARK  1 active torsions:
REMARK  status: ('A' for Active; 'I' for Inactive)
REMARK    1  A    between atoms: C3_4  and  O_7 
ROOT
ATOM      1  C   UNL d   1       3.910  -1.467  -4.451  0.00  0.00    -0.033 A 
ATOM      2  C1  UNL d   1       3.258  -2.626  -4.025  0.00  0.00     0.039 A 
ATOM      3  C2  UNL d   1       3.947  -3.579  -3.271  0.00  0.00    -0.080 A 
ATOM      4  C3  UNL d   1       5.284  -3.361  -2.951  0.00  0.00     0.150 A 
ATOM      5  C4  UNL d   1       5.938  -2.207  -3.369  0.00  0.00    -0.007 A 
ATOM      6  C5  UNL d   1       5.249  -1.257  -4.122  0.00  0.00     0.039 A 
ENDROOT
BRANCH   4   7
ATOM      7  O   UNL d   1       5.998  -4.265  -2.222  0.00  0.00    -0.526 OA
ATOM      8  H5  UNL d   1       5.425  -5.025  -2.028  0.00  0.00     0.418 HD
ENDBRANCH   4   7
TORSDOF 1
ENDMDL
