MODEL 1
REMARK minimizedAffinity 0.158757508
REMARK minimizedRMSD -1
REMARK  1 active torsions:
REMARK  status: ('A' for Active; 'I' for Inactive)
REMARK    1  A    between atoms: C3_4  and  O_7 
ROOT
ATOM      1  C   UNL d   1      -0.875  -4.577  -2.020  0.00  0.00    -0.033 A 
ATOM      2  C1  UNL d   1      -0.808  -3.860  -3.216  0.00  0.00     0.039 A 
ATOM      3  C2  UNL d   1      -0.418  -2.520  -3.208  0.00  0.00    -0.080 A 
ATOM      4  C3  UNL d   1      -0.097  -1.909  -1.998  0.00  0.00     0.150 A 
ATOM      5  C4  UNL d   1      -0.159  -2.619  -0.803  0.00  0.00    -0.007 A 
ATOM      6  C5  UNL d   1      -0.549  -3.957  -0.814  0.00  0.00     0.039 A 
ENDROOT
BRANCH   4   7
ATOM      7  O   UNL d   1       0.284  -0.602  -1.939  0.00  0.00    -0.526 OA
ATOM      8  H5  UNL d   1       0.253  -0.231  -2.837  0.00  0.00     0.418 HD
ENDBRANCH   4   7
TORSDOF 1
ENDMDL
