MODEL 1
REMARK minimizedAffinity 4.23235369
REMARK minimizedRMSD -1
REMARK  1 active torsions:
REMARK  status: ('A' for Active; 'I' for Inactive)
REMARK    1  A    between atoms: C3_4  and  O_7 
ROOT
ATOM      1  C   UNL d   1      -1.443  -2.678  -0.029  0.00  0.00    -0.033 A 
ATOM      2  C1  UNL d   1      -2.470  -2.119  -0.791  0.00  0.00     0.039 A 
ATOM      3  C2  UNL d   1      -3.770  -2.067  -0.284  0.00  0.00    -0.080 A 
ATOM      4  C3  UNL d   1      -4.028  -2.576   0.986  0.00  0.00     0.150 A 
ATOM      5  C4  UNL d   1      -3.009  -3.130   1.753  0.00  0.00    -0.007 A 
ATOM      6  C5  UNL d   1      -1.712  -3.182   1.244  0.00  0.00     0.039 A 
ENDROOT
BRANCH   4   7
ATOM      7  O   UNL d   1      -5.282  -2.552   1.522  0.00  0.00    -0.526 OA
ATOM      8  H5  UNL d   1      -5.888  -2.166   0.868  0.00  0.00     0.418 HD
ENDBRANCH   4   7
TORSDOF 1
ENDMDL
