MODEL 1
REMARK minimizedAffinity 5.05164385
REMARK minimizedRMSD -1
REMARK  1 active torsions:
REMARK  status: ('A' for Active; 'I' for Inactive)
REMARK    1  A    between atoms: C3_4  and  O_7 
ROOT
ATOM      1  C   UNL d   1       3.937   5.882  -1.690  0.00  0.00    -0.033 A 
ATOM      2  C1  UNL d   1       3.235   4.795  -2.216  0.00  0.00     0.039 A 
ATOM      3  C2  UNL d   1       3.914   3.793  -2.911  0.00  0.00    -0.080 A 
ATOM      4  C3  UNL d   1       5.293   3.888  -3.073  0.00  0.00     0.150 A 
ATOM      5  C4  UNL d   1       6.000   4.965  -2.549  0.00  0.00    -0.007 A 
ATOM      6  C5  UNL d   1       5.320   5.966  -1.856  0.00  0.00     0.039 A 
ENDROOT
BRANCH   4   7
ATOM      7  O   UNL d   1       5.999   2.936  -3.748  0.00  0.00    -0.526 OA
ATOM      8  H5  UNL d   1       5.376   2.268  -4.078  0.00  0.00     0.418 HD
ENDBRANCH   4   7
TORSDOF 1
ENDMDL
