MODEL 1
REMARK minimizedAffinity 1.59648967
REMARK minimizedRMSD -1
REMARK  1 active torsions:
REMARK  status: ('A' for Active; 'I' for Inactive)
REMARK    1  A    between atoms: C3_4  and  O_7 
ROOT
ATOM      1  C   UNL d   1       4.184   4.843  -3.323  0.00  0.00    -0.033 A 
ATOM      2  C1  UNL d   1       3.579   4.520  -2.107  0.00  0.00     0.039 A 
ATOM      3  C2  UNL d   1       4.176   4.903  -0.904  0.00  0.00    -0.080 A 
ATOM      4  C3  UNL d   1       5.376   5.609  -0.931  0.00  0.00     0.150 A 
ATOM      5  C4  UNL d   1       5.982   5.937  -2.139  0.00  0.00    -0.007 A 
ATOM      6  C5  UNL d   1       5.385   5.553  -3.339  0.00  0.00     0.039 A 
ENDROOT
BRANCH   4   7
ATOM      7  O   UNL d   1       5.998   6.000   0.217  0.00  0.00    -0.526 OA
ATOM      8  H5  UNL d   1       5.479   5.679   0.973  0.00  0.00     0.418 HD
ENDBRANCH   4   7
TORSDOF 1
ENDMDL
