MODEL 1
REMARK minimizedAffinity 4.70644522
REMARK minimizedRMSD -1
REMARK  1 active torsions:
REMARK  status: ('A' for Active; 'I' for Inactive)
REMARK    1  A    between atoms: C3_4  and  O_7 
ROOT
ATOM      1  C   UNL d   1       5.070   1.189  -4.875  0.00  0.00    -0.033 A 
ATOM      2  C1  UNL d   1       3.733   0.807  -4.994  0.00  0.00     0.039 A 
ATOM      3  C2  UNL d   1       3.323  -0.453  -4.554  0.00  0.00    -0.080 A 
ATOM      4  C3  UNL d   1       4.259  -1.320  -3.997  0.00  0.00     0.150 A 
ATOM      5  C4  UNL d   1       5.592  -0.945  -3.871  0.00  0.00    -0.007 A 
ATOM      6  C5  UNL d   1       6.000   0.313  -4.312  0.00  0.00     0.039 A 
ENDROOT
BRANCH   4   7
ATOM      7  O   UNL d   1       3.907  -2.562  -3.558  0.00  0.00    -0.526 OA
ATOM      8  H5  UNL d   1       2.960  -2.694  -3.734  0.00  0.00     0.418 HD
ENDBRANCH   4   7
TORSDOF 1
ENDMDL
