MODEL 1
REMARK minimizedAffinity 4.56448221
REMARK minimizedRMSD -1
REMARK  1 active torsions:
REMARK  status: ('A' for Active; 'I' for Inactive)
REMARK    1  A    between atoms: C3_4  and  O_7 
ROOT
ATOM      1  C   UNL d   1       1.712   4.594  -1.893  0.00  0.00    -0.033 A 
ATOM      2  C1  UNL d   1       2.564   5.085  -2.883  0.00  0.00     0.039 A 
ATOM      3  C2  UNL d   1       3.902   5.351  -2.587  0.00  0.00    -0.080 A 
ATOM      4  C3  UNL d   1       4.375   5.120  -1.298  0.00  0.00     0.150 A 
ATOM      5  C4  UNL d   1       3.532   4.627  -0.307  0.00  0.00    -0.007 A 
ATOM      6  C5  UNL d   1       2.196   4.363  -0.605  0.00  0.00     0.039 A 
ENDROOT
BRANCH   4   7
ATOM      7  O   UNL d   1       5.672   5.369  -0.960  0.00  0.00    -0.526 OA
ATOM      8  H5  UNL d   1       6.128   5.733  -1.736  0.00  0.00     0.418 HD
ENDBRANCH   4   7
TORSDOF 1
ENDMDL
