MODEL 1
REMARK minimizedAffinity 0.934400499
REMARK minimizedRMSD -1
REMARK  1 active torsions:
REMARK  status: ('A' for Active; 'I' for Inactive)
REMARK    1  A    between atoms: C3_4  and  O_7 
ROOT
ATOM      1  C   UNL d   1       5.969   4.568  -4.664  0.00  0.00    -0.033 A 
ATOM      2  C1  UNL d   1       5.930   3.444  -3.837  0.00  0.00     0.039 A 
ATOM      3  C2  UNL d   1       5.925   3.596  -2.449  0.00  0.00    -0.080 A 
ATOM      4  C3  UNL d   1       5.959   4.875  -1.902  0.00  0.00     0.150 A 
ATOM      5  C4  UNL d   1       5.994   6.000  -2.720  0.00  0.00    -0.007 A 
ATOM      6  C5  UNL d   1       6.000   5.846  -4.105  0.00  0.00     0.039 A 
ENDROOT
BRANCH   4   7
ATOM      7  O   UNL d   1       5.960   5.073  -0.553  0.00  0.00    -0.526 OA
ATOM      8  H5  UNL d   1       5.963   4.206  -0.115  0.00  0.00     0.418 HD
ENDBRANCH   4   7
TORSDOF 1
ENDMDL
