MODEL 1
REMARK minimizedAffinity -0.489756137
REMARK minimizedRMSD -1
REMARK  1 active torsions:
REMARK  status: ('A' for Active; 'I' for Inactive)
REMARK    1  A    between atoms: C1_2  and  C2_3 
ROOT
ATOM      1  C2  UNL d   1       0.505  -0.968  -0.945  0.00  0.00    -0.073 A 
ATOM      2  C3  UNL d   1       0.791   0.206  -1.649  0.00  0.00    -0.002 A 
ATOM      3  C4  UNL d   1       0.434   1.449  -1.123  0.00  0.00     0.004 A 
ATOM      4  C5  UNL d   1      -0.206   1.530   0.114  0.00  0.00    -0.004 A 
ATOM      5  C6  UNL d   1      -0.490   0.368   0.838  0.00  0.00    -0.075 A 
ATOM      6  C7  UNL d   1      -1.179   0.438   2.169  0.00  0.00     0.076 C 
ATOM      7  C8  UNL d   1      -0.130  -0.876   0.302  0.00  0.00     0.001 A 
ENDROOT
BRANCH   1   8
ATOM      8  C1  UNL d   1       0.894  -2.312  -1.506  0.00  0.00     0.053 C 
ATOM      9  C   UNL d   1       0.392  -2.503  -2.928  0.00  0.00     0.018 C 
ENDBRANCH   1   8
TORSDOF 1
ENDMDL
