MODEL 1
REMARK minimizedAffinity -4.49270725
REMARK minimizedRMSD -1
REMARK  1 active torsions:
REMARK  status: ('A' for Active; 'I' for Inactive)
REMARK    1  A    between atoms: C1_2  and  C2_3 
ROOT
ATOM      1  C2  UNL d   1      -1.509   1.440   1.432  0.00  0.00    -0.073 A 
ATOM      2  C3  UNL d   1      -1.016   0.345   2.150  0.00  0.00    -0.002 A 
ATOM      3  C4  UNL d   1       0.162  -0.288   1.751  0.00  0.00     0.004 A 
ATOM      4  C5  UNL d   1       0.861   0.171   0.635  0.00  0.00    -0.004 A 
ATOM      5  C6  UNL d   1       0.391   1.271  -0.089  0.00  0.00    -0.075 A 
ATOM      6  C7  UNL d   1       1.131   1.776  -1.293  0.00  0.00     0.076 C 
ATOM      7  C8  UNL d   1      -0.794   1.900   0.317  0.00  0.00     0.001 A 
ENDROOT
BRANCH   1   8
ATOM      8  C1  UNL d   1      -2.777   2.131   1.863  0.00  0.00     0.053 C 
ATOM      9  C   UNL d   1      -2.748   3.620   1.556  0.00  0.00     0.018 C 
ENDBRANCH   1   8
TORSDOF 1
ENDMDL
