MODEL 1
REMARK minimizedAffinity -4.96060419
REMARK minimizedRMSD -1
REMARK  1 active torsions:
REMARK  status: ('A' for Active; 'I' for Inactive)
REMARK    1  A    between atoms: C1_2  and  C2_3 
ROOT
ATOM      1  C2  UNL d   1       0.096   0.616   0.500  0.00  0.00    -0.073 A 
ATOM      2  C3  UNL d   1       0.840   1.097  -0.583  0.00  0.00    -0.002 A 
ATOM      3  C4  UNL d   1       0.560   2.350  -1.130  0.00  0.00     0.004 A 
ATOM      4  C5  UNL d   1      -0.460   3.137  -0.596  0.00  0.00    -0.004 A 
ATOM      5  C6  UNL d   1      -1.207   2.680   0.494  0.00  0.00    -0.075 A 
ATOM      6  C7  UNL d   1      -2.309   3.513   1.079  0.00  0.00     0.076 C 
ATOM      7  C8  UNL d   1      -0.922   1.419   1.036  0.00  0.00     0.001 A 
ENDROOT
BRANCH   1   8
ATOM      8  C1  UNL d   1       0.398  -0.733   1.098  0.00  0.00     0.053 C 
ATOM      9  C   UNL d   1       0.707  -0.642   2.584  0.00  0.00     0.018 C 
ENDBRANCH   1   8
TORSDOF 1
ENDMDL
