MODEL 1
REMARK minimizedAffinity -5.18009233
REMARK minimizedRMSD -1
REMARK  1 active torsions:
REMARK  status: ('A' for Active; 'I' for Inactive)
REMARK    1  A    between atoms: C1_2  and  C2_3 
ROOT
ATOM      1  C2  UNL d   1      -1.177   1.297   0.746  0.00  0.00    -0.073 A 
ATOM      2  C3  UNL d   1      -0.771  -0.014   1.016  0.00  0.00    -0.002 A 
ATOM      3  C4  UNL d   1       0.399  -0.521   0.448  0.00  0.00     0.004 A 
ATOM      4  C5  UNL d   1       1.177   0.280  -0.388  0.00  0.00    -0.004 A 
ATOM      5  C6  UNL d   1       0.794   1.597  -0.660  0.00  0.00    -0.075 A 
ATOM      6  C7  UNL d   1       1.619   2.471  -1.559  0.00  0.00     0.076 C 
ATOM      7  C8  UNL d   1      -0.383   2.097  -0.088  0.00  0.00     0.001 A 
ENDROOT
BRANCH   1   8
ATOM      8  C1  UNL d   1      -2.436   1.850   1.362  0.00  0.00     0.053 C 
ATOM      9  C   UNL d   1      -2.445   3.371   1.372  0.00  0.00     0.018 C 
ENDBRANCH   1   8
TORSDOF 1
ENDMDL
