MODEL 1
REMARK minimizedAffinity -3.9791193
REMARK minimizedRMSD -1
REMARK  1 active torsions:
REMARK  status: ('A' for Active; 'I' for Inactive)
REMARK    1  A    between atoms: C1_2  and  C2_3 
ROOT
ATOM      1  C2  UNL d   1      -0.024   2.432   0.191  0.00  0.00    -0.073 A 
ATOM      2  C3  UNL d   1      -0.578   2.344   1.473  0.00  0.00    -0.002 A 
ATOM      3  C4  UNL d   1      -0.624   1.118   2.138  0.00  0.00     0.004 A 
ATOM      4  C5  UNL d   1      -0.112  -0.029   1.533  0.00  0.00    -0.004 A 
ATOM      5  C6  UNL d   1       0.456   0.041   0.256  0.00  0.00    -0.075 A 
ATOM      6  C7  UNL d   1       1.009  -1.185  -0.410  0.00  0.00     0.076 C 
ATOM      7  C8  UNL d   1       0.496   1.275  -0.406  0.00  0.00     0.001 A 
ENDROOT
BRANCH   1   8
ATOM      8  C1  UNL d   1       0.034   3.755  -0.529  0.00  0.00     0.053 C 
ATOM      9  C   UNL d   1       0.039   3.582  -2.039  0.00  0.00     0.018 C 
ENDBRANCH   1   8
TORSDOF 1
ENDMDL
