MODEL 1
REMARK minimizedAffinity -5.99592113
REMARK minimizedRMSD -1
REMARK  1 active torsions:
REMARK  status: ('A' for Active; 'I' for Inactive)
REMARK    1  A    between atoms: C1_2  and  C2_3 
ROOT
ATOM      1  C2  UNL d   1      -0.699   1.591   0.379  0.00  0.00    -0.073 A 
ATOM      2  C3  UNL d   1      -0.845   1.490   1.767  0.00  0.00    -0.002 A 
ATOM      3  C4  UNL d   1      -0.436   0.336   2.437  0.00  0.00     0.004 A 
ATOM      4  C5  UNL d   1       0.128  -0.725   1.728  0.00  0.00    -0.004 A 
ATOM      5  C6  UNL d   1       0.293  -0.638   0.342  0.00  0.00    -0.075 A 
ATOM      6  C7  UNL d   1       0.896  -1.771  -0.435  0.00  0.00     0.076 C 
ATOM      7  C8  UNL d   1      -0.123   0.523  -0.324  0.00  0.00     0.001 A 
ENDROOT
BRANCH   1   8
ATOM      8  C1  UNL d   1      -1.133   2.837  -0.348  0.00  0.00     0.053 C 
ATOM      9  C   UNL d   1       0.008   3.466  -1.132  0.00  0.00     0.018 C 
ENDBRANCH   1   8
TORSDOF 1
ENDMDL
