MODEL 1
REMARK minimizedAffinity -6.45988131
REMARK minimizedRMSD -1
REMARK  1 active torsions:
REMARK  status: ('A' for Active; 'I' for Inactive)
REMARK    1  A    between atoms: C1_2  and  C2_3 
ROOT
ATOM      1  C2  UNL d   1       0.033   0.150  -0.240  0.00  0.00    -0.073 A 
ATOM      2  C3  UNL d   1      -1.030  -0.042   0.649  0.00  0.00    -0.002 A 
ATOM      3  C4  UNL d   1      -1.744   1.052   1.141  0.00  0.00     0.004 A 
ATOM      4  C5  UNL d   1      -1.406   2.346   0.745  0.00  0.00    -0.004 A 
ATOM      5  C6  UNL d   1      -0.354   2.557  -0.152  0.00  0.00    -0.075 A 
ATOM      6  C7  UNL d   1       0.024   3.943  -0.586  0.00  0.00     0.076 C 
ATOM      7  C8  UNL d   1       0.360   1.454  -0.639  0.00  0.00     0.001 A 
ENDROOT
BRANCH   1   8
ATOM      8  C1  UNL d   1       0.802  -1.029  -0.779  0.00  0.00     0.053 C 
ATOM      9  C   UNL d   1       0.038  -1.755  -1.875  0.00  0.00     0.018 C 
ENDBRANCH   1   8
TORSDOF 1
ENDMDL
