MODEL 1
REMARK minimizedAffinity -5.32854986
REMARK minimizedRMSD -1
REMARK  1 active torsions:
REMARK  status: ('A' for Active; 'I' for Inactive)
REMARK    1  A    between atoms: C1_2  and  C2_3 
ROOT
ATOM      1  C2  UNL d   1       0.104   0.316   0.158  0.00  0.00    -0.073 A 
ATOM      2  C3  UNL d   1      -0.433   0.357   1.450  0.00  0.00    -0.002 A 
ATOM      3  C4  UNL d   1      -0.946   1.549   1.962  0.00  0.00     0.004 A 
ATOM      4  C5  UNL d   1      -0.934   2.709   1.188  0.00  0.00    -0.004 A 
ATOM      5  C6  UNL d   1      -0.413   2.685  -0.110  0.00  0.00    -0.075 A 
ATOM      6  C7  UNL d   1      -0.391   3.925  -0.956  0.00  0.00     0.076 C 
ATOM      7  C8  UNL d   1       0.103   1.485  -0.617  0.00  0.00     0.001 A 
ENDROOT
BRANCH   1   8
ATOM      8  C1  UNL d   1       0.653  -0.971  -0.402  0.00  0.00     0.053 C 
ATOM      9  C   UNL d   1      -0.405  -1.762  -1.156  0.00  0.00     0.018 C 
ENDBRANCH   1   8
TORSDOF 1
ENDMDL
