MODEL 1
REMARK minimizedAffinity 14.7752647
REMARK minimizedRMSD -1
REMARK  0 active torsions:
REMARK  status: ('A' for Active; 'I' for Inactive)
ROOT
ATOM      1  C1  DEN d   1      -6.000  -1.394  -1.879  0.00  0.00     0.130 A 
ATOM      2  C2  DEN d   1      -5.385  -2.283  -2.861  0.00  0.00    -0.031 A 
ATOM      3  C3  DEN d   1      -4.682  -3.355  -2.128  0.00  0.00     0.027 A 
ATOM      4  C4  DEN d   1      -4.491  -3.726   0.417  0.00  0.00     0.027 A 
ATOM      5  C5  DEN d   1      -4.838  -3.227   1.653  0.00  0.00    -0.003 A 
ATOM      6  C6  DEN d   1      -5.560  -2.073   1.798  0.00  0.00     0.001 A 
ATOM      7  C7  DEN d   1      -6.000  -1.403   0.687  0.00  0.00     0.017 A 
ATOM      8  C8  DEN d   1      -5.648  -1.896  -0.563  0.00  0.00    -0.094 A 
ATOM      9  C9  DEN d   1      -4.927  -3.071  -0.688  0.00  0.00    -0.072 A 
ENDROOT
TORSDOF 0
ENDMDL
