MODEL 1
REMARK minimizedAffinity 7.41544056
REMARK minimizedRMSD -1
REMARK  0 active torsions:
REMARK  status: ('A' for Active; 'I' for Inactive)
ROOT
ATOM      1  C1  DEN d   1      -3.173  -2.319   0.196  0.00  0.00     0.130 A 
ATOM      2  C2  DEN d   1      -3.232  -2.102  -1.247  0.00  0.00    -0.031 A 
ATOM      3  C3  DEN d   1      -2.600  -0.799  -1.539  0.00  0.00     0.027 A 
ATOM      4  C4  DEN d   1      -1.538   0.892   0.093  0.00  0.00     0.027 A 
ATOM      5  C5  DEN d   1      -1.262   1.152   1.417  0.00  0.00    -0.003 A 
ATOM      6  C6  DEN d   1      -1.630   0.296   2.422  0.00  0.00     0.001 A 
ATOM      7  C7  DEN d   1      -2.256  -0.883   2.114  0.00  0.00     0.017 A 
ATOM      8  C8  DEN d   1      -2.545  -1.148   0.782  0.00  0.00    -0.094 A 
ATOM      9  C9  DEN d   1      -2.153  -0.277  -0.220  0.00  0.00    -0.072 A 
ENDROOT
TORSDOF 0
ENDMDL
