MODEL 1
REMARK minimizedAffinity 7.2022748
REMARK minimizedRMSD -1
REMARK  0 active torsions:
REMARK  status: ('A' for Active; 'I' for Inactive)
ROOT
ATOM      1  C1  DEN d   1      -5.440  -3.736  -0.586  0.00  0.00     0.130 A 
ATOM      2  C2  DEN d   1      -5.249  -2.621   0.338  0.00  0.00    -0.031 A 
ATOM      3  C3  DEN d   1      -5.345  -1.367  -0.434  0.00  0.00     0.027 A 
ATOM      4  C4  DEN d   1      -5.775  -1.043  -2.957  0.00  0.00     0.027 A 
ATOM      5  C5  DEN d   1      -5.988  -1.694  -4.152  0.00  0.00    -0.003 A 
ATOM      6  C6  DEN d   1      -5.999  -3.061  -4.247  0.00  0.00     0.001 A 
ATOM      7  C7  DEN d   1      -5.839  -3.821  -3.119  0.00  0.00     0.017 A 
ATOM      8  C8  DEN d   1      -5.616  -3.172  -1.912  0.00  0.00    -0.094 A 
ATOM      9  C9  DEN d   1      -5.620  -1.789  -1.834  0.00  0.00    -0.072 A 
ENDROOT
TORSDOF 0
ENDMDL
