MODEL 1
REMARK minimizedAffinity 17.388073
REMARK minimizedRMSD -1
REMARK  0 active torsions:
REMARK  status: ('A' for Active; 'I' for Inactive)
ROOT
ATOM      1  C1  DEN d   1      -0.830  -0.159  -5.817  0.00  0.00     0.130 A 
ATOM      2  C2  DEN d   1      -1.957   0.769  -5.857  0.00  0.00    -0.031 A 
ATOM      3  C3  DEN d   1      -3.200  -0.025  -5.938  0.00  0.00     0.027 A 
ATOM      4  C4  DEN d   1      -3.486  -2.588  -6.000  0.00  0.00     0.027 A 
ATOM      5  C5  DEN d   1      -2.818  -3.792  -6.000  0.00  0.00    -0.003 A 
ATOM      6  C6  DEN d   1      -1.450  -3.869  -5.974  0.00  0.00     0.001 A 
ATOM      7  C7  DEN d   1      -0.708  -2.720  -5.900  0.00  0.00     0.017 A 
ATOM      8  C8  DEN d   1      -1.374  -1.502  -5.907  0.00  0.00    -0.094 A 
ATOM      9  C9  DEN d   1      -2.757  -1.446  -5.922  0.00  0.00    -0.072 A 
ENDROOT
TORSDOF 0
ENDMDL
