MODEL 1
REMARK minimizedAffinity 7.85150623
REMARK minimizedRMSD -1
REMARK  0 active torsions:
REMARK  status: ('A' for Active; 'I' for Inactive)
ROOT
ATOM      1  C1  DEN d   1      -4.821  -2.928  -6.000  0.00  0.00     0.130 A 
ATOM      2  C2  DEN d   1      -5.422  -4.259  -5.999  0.00  0.00    -0.031 A 
ATOM      3  C3  DEN d   1      -5.988  -4.504  -4.658  0.00  0.00     0.027 A 
ATOM      4  C4  DEN d   1      -5.996  -2.958  -2.593  0.00  0.00     0.027 A 
ATOM      5  C5  DEN d   1      -5.596  -1.733  -2.106  0.00  0.00    -0.003 A 
ATOM      6  C6  DEN d   1      -4.886  -0.842  -2.866  0.00  0.00     0.001 A 
ATOM      7  C7  DEN d   1      -4.592  -1.144  -4.169  0.00  0.00     0.017 A 
ATOM      8  C8  DEN d   1      -4.986  -2.380  -4.665  0.00  0.00    -0.094 A 
ATOM      9  C9  DEN d   1      -5.714  -3.262  -3.885  0.00  0.00    -0.072 A 
ENDROOT
TORSDOF 0
ENDMDL
