MODEL 1
REMARK minimizedAffinity 3.06067514
REMARK minimizedRMSD -1
REMARK  0 active torsions:
REMARK  status: ('A' for Active; 'I' for Inactive)
ROOT
ATOM      1  C1  DEN d   1      -1.527   1.208   2.489  0.00  0.00     0.130 A 
ATOM      2  C2  DEN d   1      -1.811  -0.215   2.319  0.00  0.00    -0.031 A 
ATOM      3  C3  DEN d   1      -3.222  -0.352   1.905  0.00  0.00     0.027 A 
ATOM      4  C4  DEN d   1      -4.984   1.490   1.510  0.00  0.00     0.027 A 
ATOM      5  C5  DEN d   1      -5.215   2.847   1.540  0.00  0.00    -0.003 A 
ATOM      6  C6  DEN d   1      -4.251   3.744   1.918  0.00  0.00     0.001 A 
ATOM      7  C7  DEN d   1      -2.996   3.296   2.238  0.00  0.00     0.017 A 
ATOM      8  C8  DEN d   1      -2.758   1.928   2.217  0.00  0.00    -0.094 A 
ATOM      9  C9  DEN d   1      -3.742   1.039   1.821  0.00  0.00    -0.072 A 
ENDROOT
TORSDOF 0
ENDMDL
