MODEL 1
REMARK minimizedAffinity 11.9999504
REMARK minimizedRMSD -1
REMARK  0 active torsions:
REMARK  status: ('A' for Active; 'I' for Inactive)
ROOT
ATOM      1  C1  DEN d   1      -6.000  -1.456  -2.249  0.00  0.00     0.130 A 
ATOM      2  C2  DEN d   1      -5.774  -2.738  -2.911  0.00  0.00    -0.031 A 
ATOM      3  C3  DEN d   1      -5.534  -3.755  -1.868  0.00  0.00     0.027 A 
ATOM      4  C4  DEN d   1      -5.497  -3.473   0.695  0.00  0.00     0.027 A 
ATOM      5  C5  DEN d   1      -5.624  -2.569   1.727  0.00  0.00    -0.003 A 
ATOM      6  C6  DEN d   1      -5.849  -1.236   1.507  0.00  0.00     0.001 A 
ATOM      7  C7  DEN d   1      -6.000  -0.776   0.225  0.00  0.00     0.017 A 
ATOM      8  C8  DEN d   1      -5.866  -1.680  -0.821  0.00  0.00    -0.094 A 
ATOM      9  C9  DEN d   1      -5.650  -3.026  -0.577  0.00  0.00    -0.072 A 
ENDROOT
TORSDOF 0
ENDMDL
