MODEL 1
REMARK minimizedAffinity 7.78449965
REMARK minimizedRMSD -1
REMARK  0 active torsions:
REMARK  status: ('A' for Active; 'I' for Inactive)
ROOT
ATOM      1  C1  DEN d   1      -5.514  -3.723  -2.458  0.00  0.00     0.130 A 
ATOM      2  C2  DEN d   1      -6.000  -2.639  -1.609  0.00  0.00    -0.031 A 
ATOM      3  C3  DEN d   1      -5.987  -1.395  -2.405  0.00  0.00     0.027 A 
ATOM      4  C4  DEN d   1      -5.271  -1.046  -4.858  0.00  0.00     0.027 A 
ATOM      5  C5  DEN d   1      -4.775  -1.669  -5.982  0.00  0.00    -0.003 A 
ATOM      6  C6  DEN d   1      -4.462  -3.003  -6.000  0.00  0.00     0.001 A 
ATOM      7  C7  DEN d   1      -4.683  -3.767  -4.885  0.00  0.00     0.017 A 
ATOM      8  C8  DEN d   1      -5.176  -3.144  -3.745  0.00  0.00    -0.094 A 
ATOM      9  C9  DEN d   1      -5.498  -1.798  -3.751  0.00  0.00    -0.072 A 
ENDROOT
TORSDOF 0
ENDMDL
