MODEL 1
REMARK minimizedAffinity 12.6667032
REMARK minimizedRMSD -1
REMARK  0 active torsions:
REMARK  status: ('A' for Active; 'I' for Inactive)
ROOT
ATOM      1  C1  DEN d   1      -5.226  -4.568  -4.796  0.00  0.00     0.130 A 
ATOM      2  C2  DEN d   1      -5.624  -3.754  -5.941  0.00  0.00    -0.031 A 
ATOM      3  C3  DEN d   1      -6.000  -2.416  -5.441  0.00  0.00     0.027 A 
ATOM      4  C4  DEN d   1      -5.999  -1.530  -3.019  0.00  0.00     0.027 A 
ATOM      5  C5  DEN d   1      -5.751  -1.856  -1.704  0.00  0.00    -0.003 A 
ATOM      6  C6  DEN d   1      -5.347  -3.110  -1.327  0.00  0.00     0.001 A 
ATOM      7  C7  DEN d   1      -5.135  -4.070  -2.281  0.00  0.00     0.017 A 
ATOM      8  C8  DEN d   1      -5.390  -3.750  -3.608  0.00  0.00    -0.094 A 
ATOM      9  C9  DEN d   1      -5.786  -2.474  -3.970  0.00  0.00    -0.072 A 
ENDROOT
TORSDOF 0
ENDMDL
