MODEL 1
REMARK minimizedAffinity 25.4340992
REMARK minimizedRMSD -1
REMARK  0 active torsions:
REMARK  status: ('A' for Active; 'I' for Inactive)
ROOT
ATOM      1  C1  DEN d   1      -1.222  -0.221   3.086  0.00  0.00     0.130 A 
ATOM      2  C2  DEN d   1      -0.111   0.722   2.990  0.00  0.00    -0.031 A 
ATOM      3  C3  DEN d   1      -0.119   1.299   1.630  0.00  0.00     0.027 A 
ATOM      4  C4  DEN d   1      -1.737   0.830  -0.323  0.00  0.00     0.027 A 
ATOM      5  C5  DEN d   1      -2.833   0.096  -0.721  0.00  0.00    -0.003 A 
ATOM      6  C6  DEN d   1      -3.442  -0.812   0.104  0.00  0.00     0.001 A 
ATOM      7  C7  DEN d   1      -2.988  -0.977   1.385  0.00  0.00     0.017 A 
ATOM      8  C8  DEN d   1      -1.879  -0.247   1.792  0.00  0.00    -0.094 A 
ATOM      9  C9  DEN d   1      -1.284   0.675   0.947  0.00  0.00    -0.072 A 
ENDROOT
TORSDOF 0
ENDMDL
