MODEL 1
REMARK minimizedAffinity 14.9207983
REMARK minimizedRMSD -1
REMARK  0 active torsions:
REMARK  status: ('A' for Active; 'I' for Inactive)
ROOT
ATOM      1  C1  DEN d   1      -5.373  -4.989  -4.632  0.00  0.00     0.130 A 
ATOM      2  C2  DEN d   1      -5.173  -4.510  -5.997  0.00  0.00    -0.031 A 
ATOM      3  C3  DEN d   1      -5.242  -3.035  -5.978  0.00  0.00     0.027 A 
ATOM      4  C4  DEN d   1      -5.634  -1.455  -3.977  0.00  0.00     0.027 A 
ATOM      5  C5  DEN d   1      -5.869  -1.398  -2.621  0.00  0.00    -0.003 A 
ATOM      6  C6  DEN d   1      -5.988  -2.525  -1.852  0.00  0.00     0.001 A 
ATOM      7  C7  DEN d   1      -5.827  -3.758  -2.427  0.00  0.00     0.017 A 
ATOM      8  C8  DEN d   1      -5.598  -3.824  -3.795  0.00  0.00    -0.094 A 
ATOM      9  C9  DEN d   1      -5.469  -2.673  -4.553  0.00  0.00    -0.072 A 
ENDROOT
TORSDOF 0
ENDMDL
