MODEL 1
REMARK minimizedAffinity 4.22056866
REMARK minimizedRMSD -1
REMARK  0 active torsions:
REMARK  status: ('A' for Active; 'I' for Inactive)
ROOT
ATOM      1  C1  DEN d   1      -0.934  -0.574  -4.581  0.00  0.00     0.130 A 
ATOM      2  C2  DEN d   1      -1.607   0.633  -4.110  0.00  0.00    -0.031 A 
ATOM      3  C3  DEN d   1      -0.589   1.520  -3.512  0.00  0.00     0.027 A 
ATOM      4  C4  DEN d   1       1.952   1.145  -3.276  0.00  0.00     0.027 A 
ATOM      5  C5  DEN d   1       2.984   0.266  -3.517  0.00  0.00    -0.003 A 
ATOM      6  C6  DEN d   1       2.779  -0.960  -4.094  0.00  0.00     0.001 A 
ATOM      7  C7  DEN d   1       1.519  -1.321  -4.490  0.00  0.00     0.017 A 
ATOM      8  C8  DEN d   1       0.472  -0.442  -4.244  0.00  0.00    -0.094 A 
ATOM      9  C9  DEN d   1       0.701   0.797  -3.671  0.00  0.00    -0.072 A 
ENDROOT
TORSDOF 0
ENDMDL
