MODEL 1
REMARK minimizedAffinity 7.39149284
REMARK minimizedRMSD -1
REMARK  0 active torsions:
REMARK  status: ('A' for Active; 'I' for Inactive)
ROOT
ATOM      1  C1  DEN d   1       2.263   1.164  -2.277  0.00  0.00     0.130 A 
ATOM      2  C2  DEN d   1       2.797   0.006  -2.988  0.00  0.00    -0.031 A 
ATOM      3  C3  DEN d   1       1.682  -0.644  -3.706  0.00  0.00     0.027 A 
ATOM      4  C4  DEN d   1      -0.807   0.031  -3.788  0.00  0.00     0.027 A 
ATOM      5  C5  DEN d   1      -1.740   0.937  -3.334  0.00  0.00    -0.003 A 
ATOM      6  C6  DEN d   1      -1.413   1.953  -2.476  0.00  0.00     0.001 A 
ATOM      7  C7  DEN d   1      -0.112   2.116  -2.080  0.00  0.00     0.017 A 
ATOM      8  C8  DEN d   1       0.833   1.202  -2.528  0.00  0.00    -0.094 A 
ATOM      9  C9  DEN d   1       0.486   0.188  -3.405  0.00  0.00    -0.072 A 
ENDROOT
TORSDOF 0
ENDMDL
