MODEL 1
REMARK minimizedAffinity 9.1183567
REMARK minimizedRMSD -1
REMARK  0 active torsions:
REMARK  status: ('A' for Active; 'I' for Inactive)
ROOT
ATOM      1  C1  DEN d   1      -4.972   1.042   2.253  0.00  0.00     0.130 A 
ATOM      2  C2  DEN d   1      -5.389   0.215   3.382  0.00  0.00    -0.031 A 
ATOM      3  C3  DEN d   1      -4.203  -0.513   3.877  0.00  0.00     0.027 A 
ATOM      4  C4  DEN d   1      -1.774  -0.435   3.013  0.00  0.00     0.027 A 
ATOM      5  C5  DEN d   1      -0.936   0.114   2.067  0.00  0.00    -0.003 A 
ATOM      6  C6  DEN d   1      -1.388   0.977   1.104  0.00  0.00     0.001 A 
ATOM      7  C7  DEN d   1      -2.705   1.352   1.093  0.00  0.00     0.017 A 
ATOM      8  C8  DEN d   1      -3.558   0.798   2.038  0.00  0.00    -0.094 A 
ATOM      9  C9  DEN d   1      -3.079  -0.064   3.011  0.00  0.00    -0.072 A 
ENDROOT
TORSDOF 0
ENDMDL
