MODEL 1
REMARK minimizedAffinity 8.66464233
REMARK minimizedRMSD -1
REMARK  0 active torsions:
REMARK  status: ('A' for Active; 'I' for Inactive)
ROOT
ATOM      1  C1  DEN d   1      -2.819   0.392   0.569  0.00  0.00     0.130 A 
ATOM      2  C2  DEN d   1      -1.616   0.988   1.145  0.00  0.00    -0.031 A 
ATOM      3  C3  DEN d   1      -1.906   1.335   2.551  0.00  0.00     0.027 A 
ATOM      4  C4  DEN d   1      -4.088   1.005   3.886  0.00  0.00     0.027 A 
ATOM      5  C5  DEN d   1      -5.387   0.551   3.820  0.00  0.00    -0.003 A 
ATOM      6  C6  DEN d   1      -5.927   0.048   2.666  0.00  0.00     0.001 A 
ATOM      7  C7  DEN d   1      -5.150  -0.056   1.542  0.00  0.00     0.017 A 
ATOM      8  C8  DEN d   1      -3.842   0.407   1.599  0.00  0.00    -0.094 A 
ATOM      9  C9  DEN d   1      -3.311   0.901   2.778  0.00  0.00    -0.072 A 
ENDROOT
TORSDOF 0
ENDMDL
