MODEL 1
REMARK minimizedAffinity -0.717556
REMARK minimizedRMSD -1
REMARK  1 active torsions:
REMARK  status: ('A' for Active; 'I' for Inactive)
REMARK    1  A    between atoms: C3_4  and  O_7 
ROOT
ATOM      1  C   UNL d   1      -1.906  -2.618   1.431  0.00  0.00    -0.033 A 
ATOM      2  C1  UNL d   1      -1.838  -1.354   2.019  0.00  0.00     0.039 A 
ATOM      3  C2  UNL d   1      -0.824  -0.466   1.654  0.00  0.00    -0.080 A 
ATOM      4  C3  UNL d   1       0.114  -0.854   0.701  0.00  0.00     0.150 A 
ATOM      5  C4  UNL d   1       0.050  -2.111   0.109  0.00  0.00    -0.007 A 
ATOM      6  C5  UNL d   1      -0.962  -2.997   0.475  0.00  0.00     0.039 A 
ENDROOT
BRANCH   4   7
ATOM      7  O   UNL d   1       1.124  -0.024   0.317  0.00  0.00    -0.526 OA
ATOM      8  H5  UNL d   1       1.059   0.799   0.830  0.00  0.00     0.418 HD
ENDBRANCH   4   7
TORSDOF 1
ENDMDL
