MODEL 1
REMARK minimizedAffinity 0.895053566
REMARK minimizedRMSD -1
REMARK  1 active torsions:
REMARK  status: ('A' for Active; 'I' for Inactive)
REMARK    1  A    between atoms: C3_4  and  O_7 
ROOT
ATOM      1  C   UNL d   1       1.221   2.877   0.450  0.00  0.00    -0.033 A 
ATOM      2  C1  UNL d   1       1.561   2.231  -0.740  0.00  0.00     0.039 A 
ATOM      3  C2  UNL d   1       1.300   0.868  -0.896  0.00  0.00    -0.080 A 
ATOM      4  C3  UNL d   1       0.698   0.165   0.144  0.00  0.00     0.150 A 
ATOM      5  C4  UNL d   1       0.353   0.803   1.330  0.00  0.00    -0.007 A 
ATOM      6  C5  UNL d   1       0.615   2.164   1.484  0.00  0.00     0.039 A 
ENDROOT
BRANCH   4   7
ATOM      7  O   UNL d   1       0.428  -1.167   0.040  0.00  0.00    -0.526 OA
ATOM      8  H5  UNL d   1       0.747  -1.480  -0.823  0.00  0.00     0.418 HD
ENDBRANCH   4   7
TORSDOF 1
ENDMDL
