MODEL 1
REMARK minimizedAffinity 12.5067329
REMARK minimizedRMSD -1
REMARK  1 active torsions:
REMARK  status: ('A' for Active; 'I' for Inactive)
REMARK    1  A    between atoms: C3_4  and  O_7 
ROOT
ATOM      1  C   UNL d   1      -2.056  -0.053   2.034  0.00  0.00    -0.033 A 
ATOM      2  C1  UNL d   1      -0.729  -0.072   2.467  0.00  0.00     0.039 A 
ATOM      3  C2  UNL d   1       0.294   0.332   1.607  0.00  0.00    -0.080 A 
ATOM      4  C3  UNL d   1      -0.024   0.753   0.318  0.00  0.00     0.150 A 
ATOM      5  C4  UNL d   1      -1.344   0.778  -0.118  0.00  0.00    -0.007 A 
ATOM      6  C5  UNL d   1      -2.364   0.373   0.742  0.00  0.00     0.039 A 
ENDROOT
BRANCH   4   7
ATOM      7  O   UNL d   1       0.941   1.152  -0.559  0.00  0.00    -0.526 OA
ATOM      8  H5  UNL d   1       1.807   1.054  -0.129  0.00  0.00     0.418 HD
ENDBRANCH   4   7
TORSDOF 1
ENDMDL
