MODEL 1
REMARK minimizedAffinity 0.860884547
REMARK minimizedRMSD -1
REMARK  1 active torsions:
REMARK  status: ('A' for Active; 'I' for Inactive)
REMARK    1  A    between atoms: C3_4  and  O_7 
ROOT
ATOM      1  C   UNL d   1       6.000   3.933  -4.794  0.00  0.00    -0.033 A 
ATOM      2  C1  UNL d   1       4.839   3.544  -4.122  0.00  0.00     0.039 A 
ATOM      3  C2  UNL d   1       3.630   4.193  -4.381  0.00  0.00    -0.080 A 
ATOM      4  C3  UNL d   1       3.595   5.228  -5.312  0.00  0.00     0.150 A 
ATOM      5  C4  UNL d   1       4.747   5.618  -5.987  0.00  0.00    -0.007 A 
ATOM      6  C5  UNL d   1       5.953   4.969  -5.727  0.00  0.00     0.039 A 
ENDROOT
BRANCH   4   7
ATOM      7  O   UNL d   1       2.440   5.894  -5.594  0.00  0.00    -0.526 OA
ATOM      8  H5  UNL d   1       1.733   5.536  -5.032  0.00  0.00     0.418 HD
ENDBRANCH   4   7
TORSDOF 1
ENDMDL
