MODEL 1
REMARK minimizedAffinity 7.2795496
REMARK minimizedRMSD -1
REMARK  1 active torsions:
REMARK  status: ('A' for Active; 'I' for Inactive)
REMARK    1  A    between atoms: C3_4  and  O_7 
ROOT
ATOM      1  C   UNL d   1       0.387   1.265   1.588  0.00  0.00    -0.033 A 
ATOM      2  C1  UNL d   1       0.748   1.451   0.252  0.00  0.00     0.039 A 
ATOM      3  C2  UNL d   1       1.964   0.955  -0.220  0.00  0.00    -0.080 A 
ATOM      4  C3  UNL d   1       2.810   0.275   0.652  0.00  0.00     0.150 A 
ATOM      5  C4  UNL d   1       2.455   0.082   1.983  0.00  0.00    -0.007 A 
ATOM      6  C5  UNL d   1       1.240   0.579   2.453  0.00  0.00     0.039 A 
ENDROOT
BRANCH   4   7
ATOM      7  O   UNL d   1       4.009  -0.223   0.238  0.00  0.00    -0.526 OA
ATOM      8  H5  UNL d   1       4.133   0.010  -0.697  0.00  0.00     0.418 HD
ENDBRANCH   4   7
TORSDOF 1
ENDMDL
