MODEL 1
REMARK minimizedAffinity -1.19449461
REMARK minimizedRMSD -1
REMARK  1 active torsions:
REMARK  status: ('A' for Active; 'I' for Inactive)
REMARK    1  A    between atoms: C3_4  and  O_7 
ROOT
ATOM      1  C   UNL d   1       0.359   5.642  -4.984  0.00  0.00    -0.033 A 
ATOM      2  C1  UNL d   1       0.667   4.698  -5.965  0.00  0.00     0.039 A 
ATOM      3  C2  UNL d   1       1.934   4.112  -6.000  0.00  0.00    -0.080 A 
ATOM      4  C3  UNL d   1       2.882   4.479  -5.049  0.00  0.00     0.150 A 
ATOM      5  C4  UNL d   1       2.581   5.416  -4.066  0.00  0.00    -0.007 A 
ATOM      6  C5  UNL d   1       1.315   6.000  -4.033  0.00  0.00     0.039 A 
ENDROOT
BRANCH   4   7
ATOM      7  O   UNL d   1       4.134   3.938  -5.046  0.00  0.00    -0.526 OA
ATOM      8  H5  UNL d   1       4.207   3.328  -5.798  0.00  0.00     0.418 HD
ENDBRANCH   4   7
TORSDOF 1
ENDMDL
