MODEL 1
REMARK minimizedAffinity 3.62454486
REMARK minimizedRMSD -1
REMARK  1 active torsions:
REMARK  status: ('A' for Active; 'I' for Inactive)
REMARK    1  A    between atoms: C3_4  and  O_7 
ROOT
ATOM      1  C   UNL d   1       1.300   3.642   0.223  0.00  0.00    -0.033 A 
ATOM      2  C1  UNL d   1       0.565   3.142   1.299  0.00  0.00     0.039 A 
ATOM      3  C2  UNL d   1       0.379   1.766   1.440  0.00  0.00    -0.080 A 
ATOM      4  C3  UNL d   1       0.933   0.901   0.500  0.00  0.00     0.150 A 
ATOM      5  C4  UNL d   1       1.669   1.392  -0.572  0.00  0.00    -0.007 A 
ATOM      6  C5  UNL d   1       1.853   2.767  -0.712  0.00  0.00     0.039 A 
ENDROOT
BRANCH   4   7
ATOM      7  O   UNL d   1       0.774  -0.450   0.593  0.00  0.00    -0.526 OA
ATOM      8  H5  UNL d   1       0.219  -0.641   1.368  0.00  0.00     0.418 HD
ENDBRANCH   4   7
TORSDOF 1
ENDMDL
