MODEL 1
REMARK minimizedAffinity -0.902251899
REMARK minimizedRMSD -1
REMARK  1 active torsions:
REMARK  status: ('A' for Active; 'I' for Inactive)
REMARK    1  A    between atoms: C3_4  and  O_7 
ROOT
ATOM      1  C   UNL d   1       1.438   2.686  -0.047  0.00  0.00    -0.033 A 
ATOM      2  C1  UNL d   1       1.388   2.118   1.227  0.00  0.00     0.039 A 
ATOM      3  C2  UNL d   1       0.852   0.841   1.404  0.00  0.00    -0.080 A 
ATOM      4  C3  UNL d   1       0.371   0.143   0.299  0.00  0.00     0.150 A 
ATOM      5  C4  UNL d   1       0.422   0.701  -0.974  0.00  0.00    -0.007 A 
ATOM      6  C5  UNL d   1       0.957   1.976  -1.148  0.00  0.00     0.039 A 
ENDROOT
BRANCH   4   7
ATOM      7  O   UNL d   1      -0.165  -1.104   0.423  0.00  0.00    -0.526 OA
ATOM      8  H5  UNL d   1      -0.161  -1.350   1.363  0.00  0.00     0.418 HD
ENDBRANCH   4   7
TORSDOF 1
ENDMDL
