MODEL 1
REMARK minimizedAffinity 2.32661057
REMARK minimizedRMSD -1
REMARK  1 active torsions:
REMARK  status: ('A' for Active; 'I' for Inactive)
REMARK    1  A    between atoms: C3_4  and  O_7 
ROOT
ATOM      1  C   UNL d   1       0.119  -0.122  -0.126  0.00  0.00    -0.033 A 
ATOM      2  C1  UNL d   1      -1.276  -0.133  -0.065  0.00  0.00     0.039 A 
ATOM      3  C2  UNL d   1      -2.028  -0.126  -1.241  0.00  0.00    -0.080 A 
ATOM      4  C3  UNL d   1      -1.375  -0.107  -2.470  0.00  0.00     0.150 A 
ATOM      5  C4  UNL d   1       0.014  -0.100  -2.539  0.00  0.00    -0.007 A 
ATOM      6  C5  UNL d   1       0.764  -0.106  -1.363  0.00  0.00     0.039 A 
ENDROOT
BRANCH   4   7
ATOM      7  O   UNL d   1      -2.067  -0.094  -3.644  0.00  0.00    -0.526 OA
ATOM      8  H5  UNL d   1      -3.017  -0.073  -3.442  0.00  0.00     0.418 HD
ENDBRANCH   4   7
TORSDOF 1
ENDMDL
