MODEL 1
REMARK minimizedAffinity 2.43364811
REMARK minimizedRMSD -1
REMARK  1 active torsions:
REMARK  status: ('A' for Active; 'I' for Inactive)
REMARK    1  A    between atoms: C3_4  and  O_7 
ROOT
ATOM      1  C   UNL d   1       0.715   0.170   0.144  0.00  0.00    -0.033 A 
ATOM      2  C1  UNL d   1      -0.523  -0.142   0.710  0.00  0.00     0.039 A 
ATOM      3  C2  UNL d   1      -0.915   0.455   1.910  0.00  0.00    -0.080 A 
ATOM      4  C3  UNL d   1      -0.061   1.361   2.533  0.00  0.00     0.150 A 
ATOM      5  C4  UNL d   1       1.172   1.679   1.974  0.00  0.00    -0.007 A 
ATOM      6  C5  UNL d   1       1.562   1.081   0.776  0.00  0.00     0.039 A 
ENDROOT
BRANCH   4   7
ATOM      7  O   UNL d   1      -0.397   1.964   3.708  0.00  0.00    -0.526 OA
ATOM      8  H5  UNL d   1      -1.263   1.627   3.991  0.00  0.00     0.418 HD
ENDBRANCH   4   7
TORSDOF 1
ENDMDL
