MODEL 1
REMARK minimizedAffinity 0.0398696028
REMARK minimizedRMSD -1
REMARK  1 active torsions:
REMARK  status: ('A' for Active; 'I' for Inactive)
REMARK    1  A    between atoms: C3_4  and  O_7 
ROOT
ATOM      1  C   UNL d   1       0.586   0.617  -0.181  0.00  0.00    -0.033 A 
ATOM      2  C1  UNL d   1      -0.334   0.082   0.724  0.00  0.00     0.039 A 
ATOM      3  C2  UNL d   1      -0.278   0.440   2.072  0.00  0.00    -0.080 A 
ATOM      4  C3  UNL d   1       0.699   1.333   2.502  0.00  0.00     0.150 A 
ATOM      5  C4  UNL d   1       1.616   1.873   1.606  0.00  0.00    -0.007 A 
ATOM      6  C5  UNL d   1       1.560   1.513   0.260  0.00  0.00     0.039 A 
ENDROOT
BRANCH   4   7
ATOM      7  O   UNL d   1       0.796   1.708   3.809  0.00  0.00    -0.526 OA
ATOM      8  H5  UNL d   1       0.116   1.234   4.317  0.00  0.00     0.418 HD
ENDBRANCH   4   7
TORSDOF 1
ENDMDL
