MODEL 1
REMARK minimizedAffinity 8.30678177
REMARK minimizedRMSD -1
REMARK  1 active torsions:
REMARK  status: ('A' for Active; 'I' for Inactive)
REMARK    1  A    between atoms: C1_2  and  C2_3 
ROOT
ATOM      1  C2  UNL d   1      -4.830   1.728   4.147  0.00  0.00    -0.073 A 
ATOM      2  C3  UNL d   1      -3.467   1.470   4.332  0.00  0.00    -0.002 A 
ATOM      3  C4  UNL d   1      -2.929   0.233   3.975  0.00  0.00     0.004 A 
ATOM      4  C5  UNL d   1      -3.744  -0.754   3.423  0.00  0.00    -0.004 A 
ATOM      5  C6  UNL d   1      -5.106  -0.511   3.219  0.00  0.00    -0.075 A 
ATOM      6  C7  UNL d   1      -5.998  -1.564   2.628  0.00  0.00     0.076 C 
ATOM      7  C8  UNL d   1      -5.640   0.732   3.582  0.00  0.00     0.001 A 
ENDROOT
BRANCH   1   8
ATOM      8  C1  UNL d   1      -5.414   3.064   4.525  0.00  0.00     0.053 C 
ATOM      9  C   UNL d   1      -5.217   3.376   6.000  0.00  0.00     0.018 C 
ENDBRANCH   1   8
TORSDOF 1
ENDMDL
