MODEL 1
REMARK minimizedAffinity 18.1548386
REMARK minimizedRMSD -1
REMARK  1 active torsions:
REMARK  status: ('A' for Active; 'I' for Inactive)
REMARK    1  A    between atoms: C1_2  and  C2_3 
ROOT
ATOM      1  C2  UNL d   1       3.604   0.486  -0.494  0.00  0.00    -0.073 A 
ATOM      2  C3  UNL d   1       4.310  -0.582   0.072  0.00  0.00    -0.002 A 
ATOM      3  C4  UNL d   1       3.844  -1.889  -0.070  0.00  0.00     0.004 A 
ATOM      4  C5  UNL d   1       2.673  -2.143  -0.784  0.00  0.00    -0.004 A 
ATOM      5  C6  UNL d   1       1.959  -1.090  -1.367  0.00  0.00    -0.075 A 
ATOM      6  C7  UNL d   1       0.697  -1.346  -2.136  0.00  0.00     0.076 C 
ATOM      7  C8  UNL d   1       2.433   0.220  -1.217  0.00  0.00     0.001 A 
ENDROOT
BRANCH   1   8
ATOM      8  C1  UNL d   1       4.107   1.899  -0.349  0.00  0.00     0.053 C 
ATOM      9  C   UNL d   1       3.744   2.498   1.001  0.00  0.00     0.018 C 
ENDBRANCH   1   8
TORSDOF 1
ENDMDL
