MODEL 1
REMARK minimizedAffinity 9.00198364
REMARK minimizedRMSD -1
REMARK  1 active torsions:
REMARK  status: ('A' for Active; 'I' for Inactive)
REMARK    1  A    between atoms: C1_2  and  C2_3 
ROOT
ATOM      1  C2  UNL d   1      -2.033   0.157   2.717  0.00  0.00    -0.073 A 
ATOM      2  C3  UNL d   1      -2.963   0.068   1.675  0.00  0.00    -0.002 A 
ATOM      3  C4  UNL d   1      -4.148  -0.648   1.849  0.00  0.00     0.004 A 
ATOM      4  C5  UNL d   1      -4.419  -1.274   3.065  0.00  0.00    -0.004 A 
ATOM      5  C6  UNL d   1      -3.507  -1.186   4.122  0.00  0.00    -0.075 A 
ATOM      6  C7  UNL d   1      -3.782  -1.856   5.436  0.00  0.00     0.076 C 
ATOM      7  C8  UNL d   1      -2.317  -0.468   3.939  0.00  0.00     0.001 A 
ENDROOT
BRANCH   1   8
ATOM      8  C1  UNL d   1      -0.754   0.934   2.536  0.00  0.00     0.053 C 
ATOM      9  C   UNL d   1       0.465   0.134   2.969  0.00  0.00     0.018 C 
ENDBRANCH   1   8
TORSDOF 1
ENDMDL
