MODEL 1
REMARK minimizedAffinity 12.4142733
REMARK minimizedRMSD -1
REMARK  1 active torsions:
REMARK  status: ('A' for Active; 'I' for Inactive)
REMARK    1  A    between atoms: C1_2  and  C2_3 
ROOT
ATOM      1  C2  UNL d   1      -2.577  -3.457  -4.300  0.00  0.00    -0.073 A 
ATOM      2  C3  UNL d   1      -1.206  -3.353  -4.562  0.00  0.00    -0.002 A 
ATOM      3  C4  UNL d   1      -0.283  -4.026  -3.760  0.00  0.00     0.004 A 
ATOM      4  C5  UNL d   1      -0.721  -4.814  -2.695  0.00  0.00    -0.004 A 
ATOM      5  C6  UNL d   1      -2.087  -4.939  -2.425  0.00  0.00    -0.075 A 
ATOM      6  C7  UNL d   1      -2.574  -5.781  -1.282  0.00  0.00     0.076 C 
ATOM      7  C8  UNL d   1      -3.008  -4.258  -3.233  0.00  0.00     0.001 A 
ENDROOT
BRANCH   1   8
ATOM      8  C1  UNL d   1      -3.578  -2.737  -5.167  0.00  0.00     0.053 C 
ATOM      9  C   UNL d   1      -4.830  -3.568  -5.401  0.00  0.00     0.018 C 
ENDBRANCH   1   8
TORSDOF 1
ENDMDL
