MODEL 1
REMARK minimizedAffinity 0.325042009
REMARK minimizedRMSD -1
REMARK  1 active torsions:
REMARK  status: ('A' for Active; 'I' for Inactive)
REMARK    1  A    between atoms: C1_2  and  C2_3 
ROOT
ATOM      1  C2  UNL d   1      -4.194  -4.474  -5.027  0.00  0.00    -0.073 A 
ATOM      2  C3  UNL d   1      -2.929  -3.960  -5.336  0.00  0.00    -0.002 A 
ATOM      3  C4  UNL d   1      -1.873  -4.100  -4.435  0.00  0.00     0.004 A 
ATOM      4  C5  UNL d   1      -2.068  -4.759  -3.222  0.00  0.00    -0.004 A 
ATOM      5  C6  UNL d   1      -3.321  -5.289  -2.900  0.00  0.00    -0.075 A 
ATOM      6  C7  UNL d   1      -3.548  -5.999  -1.598  0.00  0.00     0.076 C 
ATOM      7  C8  UNL d   1      -4.378  -5.143  -3.809  0.00  0.00     0.001 A 
ENDROOT
BRANCH   1   8
ATOM      8  C1  UNL d   1      -5.336  -4.331  -6.000  0.00  0.00     0.053 C 
ATOM      9  C   UNL d   1      -6.000  -2.966  -5.904  0.00  0.00     0.018 C 
ENDBRANCH   1   8
TORSDOF 1
ENDMDL
