MODEL 1
REMARK minimizedAffinity 2.23481083
REMARK minimizedRMSD -1
REMARK  1 active torsions:
REMARK  status: ('A' for Active; 'I' for Inactive)
REMARK    1  A    between atoms: C1_2  and  C2_3 
ROOT
ATOM      1  C2  UNL d   1      -3.739  -4.229  -5.182  0.00  0.00    -0.073 A 
ATOM      2  C3  UNL d   1      -2.524  -3.747  -5.682  0.00  0.00    -0.002 A 
ATOM      3  C4  UNL d   1      -1.356  -3.865  -4.927  0.00  0.00     0.004 A 
ATOM      4  C5  UNL d   1      -1.389  -4.471  -3.672  0.00  0.00    -0.004 A 
ATOM      5  C6  UNL d   1      -2.591  -4.970  -3.161  0.00  0.00    -0.075 A 
ATOM      6  C7  UNL d   1      -2.644  -5.623  -1.811  0.00  0.00     0.076 C 
ATOM      7  C8  UNL d   1      -3.761  -4.845  -3.923  0.00  0.00     0.001 A 
ENDROOT
BRANCH   1   8
ATOM      8  C1  UNL d   1      -5.002  -4.110  -5.996  0.00  0.00     0.053 C 
ATOM      9  C   UNL d   1      -5.802  -5.404  -5.999  0.00  0.00     0.018 C 
ENDBRANCH   1   8
TORSDOF 1
ENDMDL
