MODEL 1
REMARK minimizedAffinity 16.0403652
REMARK minimizedRMSD -1
REMARK  1 active torsions:
REMARK  status: ('A' for Active; 'I' for Inactive)
REMARK    1  A    between atoms: C1_2  and  C2_3 
ROOT
ATOM      1  C2  UNL d   1      -1.703  -4.449  -3.657  0.00  0.00    -0.073 A 
ATOM      2  C3  UNL d   1      -1.157  -3.663  -4.678  0.00  0.00    -0.002 A 
ATOM      3  C4  UNL d   1      -1.981  -3.110  -5.659  0.00  0.00     0.004 A 
ATOM      4  C5  UNL d   1      -3.358  -3.332  -5.626  0.00  0.00    -0.004 A 
ATOM      5  C6  UNL d   1      -3.924  -4.105  -4.608  0.00  0.00    -0.075 A 
ATOM      6  C7  UNL d   1      -5.402  -4.355  -4.559  0.00  0.00     0.076 C 
ATOM      7  C8  UNL d   1      -3.089  -4.659  -3.627  0.00  0.00     0.001 A 
ENDROOT
BRANCH   1   8
ATOM      8  C1  UNL d   1      -0.818  -5.043  -2.592  0.00  0.00     0.053 C 
ATOM      9  C   UNL d   1       0.528  -5.481  -3.148  0.00  0.00     0.018 C 
ENDBRANCH   1   8
TORSDOF 1
ENDMDL
