MODEL 1
REMARK minimizedAffinity 10.1341276
REMARK minimizedRMSD -1
REMARK  1 active torsions:
REMARK  status: ('A' for Active; 'I' for Inactive)
REMARK    1  A    between atoms: C1_2  and  C2_3 
ROOT
ATOM      1  C2  UNL d   1      -3.918  -4.146  -3.649  0.00  0.00    -0.073 A 
ATOM      2  C3  UNL d   1      -4.415  -5.164  -2.828  0.00  0.00    -0.002 A 
ATOM      3  C4  UNL d   1      -3.560  -5.861  -1.973  0.00  0.00     0.004 A 
ATOM      4  C5  UNL d   1      -2.203  -5.544  -1.927  0.00  0.00    -0.004 A 
ATOM      5  C6  UNL d   1      -1.689  -4.522  -2.731  0.00  0.00    -0.075 A 
ATOM      6  C7  UNL d   1      -0.231  -4.171  -2.695  0.00  0.00     0.076 C 
ATOM      7  C8  UNL d   1      -2.553  -3.829  -3.589  0.00  0.00     0.001 A 
ENDROOT
BRANCH   1   8
ATOM      8  C1  UNL d   1      -4.839  -3.386  -4.569  0.00  0.00     0.053 C 
ATOM      9  C   UNL d   1      -5.405  -4.271  -5.667  0.00  0.00     0.018 C 
ENDBRANCH   1   8
TORSDOF 1
ENDMDL
