MODEL 1
REMARK minimizedAffinity 0.448497593
REMARK minimizedRMSD -1
REMARK  1 active torsions:
REMARK  status: ('A' for Active; 'I' for Inactive)
REMARK    1  A    between atoms: C1_2  and  C2_3 
ROOT
ATOM      1  C2  UNL d   1      -1.296  -4.571  -3.582  0.00  0.00    -0.073 A 
ATOM      2  C3  UNL d   1      -1.913  -5.404  -2.641  0.00  0.00    -0.002 A 
ATOM      3  C4  UNL d   1      -3.300  -5.559  -2.639  0.00  0.00     0.004 A 
ATOM      4  C5  UNL d   1      -4.082  -4.891  -3.580  0.00  0.00    -0.004 A 
ATOM      5  C6  UNL d   1      -3.484  -4.064  -4.536  0.00  0.00    -0.075 A 
ATOM      6  C7  UNL d   1      -4.312  -3.336  -5.554  0.00  0.00     0.076 C 
ATOM      7  C8  UNL d   1      -2.091  -3.910  -4.530  0.00  0.00     0.001 A 
ENDROOT
BRANCH   1   8
ATOM      8  C1  UNL d   1       0.201  -4.405  -3.593  0.00  0.00     0.053 C 
ATOM      9  C   UNL d   1       0.911  -5.591  -2.958  0.00  0.00     0.018 C 
ENDBRANCH   1   8
TORSDOF 1
ENDMDL
