MODEL 1
REMARK minimizedAffinity 6.75804281
REMARK minimizedRMSD -1
REMARK  1 active torsions:
REMARK  status: ('A' for Active; 'I' for Inactive)
REMARK    1  A    between atoms: C1_2  and  C2_3 
ROOT
ATOM      1  C2  UNL d   1      -3.252  -4.312  -4.832  0.00  0.00    -0.073 A 
ATOM      2  C3  UNL d   1      -3.819  -5.450  -5.416  0.00  0.00    -0.002 A 
ATOM      3  C4  UNL d   1      -5.088  -5.388  -5.994  0.00  0.00     0.004 A 
ATOM      4  C5  UNL d   1      -5.799  -4.188  -5.999  0.00  0.00    -0.004 A 
ATOM      5  C6  UNL d   1      -5.244  -3.037  -5.431  0.00  0.00    -0.075 A 
ATOM      6  C7  UNL d   1      -5.996  -1.739  -5.426  0.00  0.00     0.076 C 
ATOM      7  C8  UNL d   1      -3.970  -3.108  -4.850  0.00  0.00     0.001 A 
ENDROOT
BRANCH   1   8
ATOM      8  C1  UNL d   1      -1.879  -4.373  -4.213  0.00  0.00     0.053 C 
ATOM      9  C   UNL d   1      -1.800  -5.409  -3.104  0.00  0.00     0.018 C 
ENDBRANCH   1   8
TORSDOF 1
ENDMDL
