MODEL 1
REMARK minimizedAffinity 13.3343182
REMARK minimizedRMSD -1
REMARK  1 active torsions:
REMARK  status: ('A' for Active; 'I' for Inactive)
REMARK    1  A    between atoms: C1_2  and  C2_3 
ROOT
ATOM      1  C2  UNL d   1      -2.916  -0.181   2.360  0.00  0.00    -0.073 A 
ATOM      2  C3  UNL d   1      -2.212  -1.356   2.644  0.00  0.00    -0.002 A 
ATOM      3  C4  UNL d   1      -0.834  -1.317   2.862  0.00  0.00     0.004 A 
ATOM      4  C5  UNL d   1      -0.148  -0.104   2.805  0.00  0.00    -0.004 A 
ATOM      5  C6  UNL d   1      -0.836   1.083   2.533  0.00  0.00    -0.075 A 
ATOM      6  C7  UNL d   1      -0.113   2.396   2.466  0.00  0.00     0.076 C 
ATOM      7  C8  UNL d   1      -2.220   1.035   2.313  0.00  0.00     0.001 A 
ENDROOT
BRANCH   1   8
ATOM      8  C1  UNL d   1      -4.405  -0.218   2.130  0.00  0.00     0.053 C 
ATOM      9  C   UNL d   1      -4.849  -1.514   1.471  0.00  0.00     0.018 C 
ENDBRANCH   1   8
TORSDOF 1
ENDMDL
