MODEL 1
REMARK minimizedAffinity 0.63878268
REMARK minimizedRMSD -1
REMARK  1 active torsions:
REMARK  status: ('A' for Active; 'I' for Inactive)
REMARK    1  A    between atoms: C1_2  and  C2_3 
ROOT
ATOM      1  C2  UNL d   1       1.797  -4.302  -2.535  0.00  0.00    -0.073 A 
ATOM      2  C3  UNL d   1       2.962  -4.975  -2.151  0.00  0.00    -0.002 A 
ATOM      3  C4  UNL d   1       3.840  -4.396  -1.234  0.00  0.00     0.004 A 
ATOM      4  C5  UNL d   1       3.560  -3.144  -0.687  0.00  0.00    -0.004 A 
ATOM      5  C6  UNL d   1       2.394  -2.461  -1.050  0.00  0.00    -0.075 A 
ATOM      6  C7  UNL d   1       2.078  -1.113  -0.472  0.00  0.00     0.076 C 
ATOM      7  C8  UNL d   1       1.518  -3.048  -1.973  0.00  0.00     0.001 A 
ENDROOT
BRANCH   1   8
ATOM      8  C1  UNL d   1       0.842  -4.926  -3.520  0.00  0.00     0.053 C 
ATOM      9  C   UNL d   1      -0.582  -4.427  -3.329  0.00  0.00     0.018 C 
ENDBRANCH   1   8
TORSDOF 1
ENDMDL
