MODEL 1
REMARK minimizedAffinity 1.01023448
REMARK minimizedRMSD -1
REMARK  1 active torsions:
REMARK  status: ('A' for Active; 'I' for Inactive)
REMARK    1  A    between atoms: N_2  and  C1_3 
ROOT
ATOM      1  C1  UNL d   1       3.668  -5.371   2.273  0.00  0.00     0.143 A 
ATOM      2  C2  UNL d   1       4.841  -4.735   1.852  0.00  0.00    -0.057 A 
ATOM      3  C3  UNL d   1       5.999  -4.752   2.640  0.00  0.00     0.033 A 
ATOM      4  C4  UNL d   1       5.995  -5.383   3.879  0.00  0.00    -0.042 A 
ATOM      5  C5  UNL d   1       4.833  -6.000   4.329  0.00  0.00     0.033 A 
ATOM      6  C6  UNL d   1       3.682  -5.985   3.535  0.00  0.00    -0.057 A 
ENDROOT
BRANCH   1   7
ATOM      7  N   UNL d   1       2.457  -5.305   1.581  0.00  0.00    -0.732 N 
ATOM      8  C   UNL d   1       1.200  -5.483   2.276  0.00  0.00     0.284 C 
ATOM      9  H3  UNL d   1       2.446  -4.562   0.886  0.00  0.00     0.395 HD
ENDBRANCH   1   7
TORSDOF 1
ENDMDL
