MODEL 1
REMARK minimizedAffinity -0.0204298105
REMARK minimizedRMSD -1
REMARK  1 active torsions:
REMARK  status: ('A' for Active; 'I' for Inactive)
REMARK    1  A    between atoms: N_2  and  C1_3 
ROOT
ATOM      1  C1  UNL d   1      -2.487   1.265   2.356  0.00  0.00     0.143 A 
ATOM      2  C2  UNL d   1      -1.556   0.248   2.592  0.00  0.00    -0.057 A 
ATOM      3  C3  UNL d   1      -0.359   0.502   3.271  0.00  0.00     0.033 A 
ATOM      4  C4  UNL d   1      -0.057   1.790   3.703  0.00  0.00    -0.042 A 
ATOM      5  C5  UNL d   1      -0.956   2.821   3.458  0.00  0.00     0.033 A 
ATOM      6  C6  UNL d   1      -2.153   2.559   2.784  0.00  0.00    -0.057 A 
ENDROOT
BRANCH   1   7
ATOM      7  N   UNL d   1      -3.649   1.095   1.599  0.00  0.00    -0.732 N 
ATOM      8  C   UNL d   1      -4.052  -0.221   1.152  0.00  0.00     0.284 C 
ATOM      9  H3  UNL d   1      -4.417   1.675   1.932  0.00  0.00     0.395 HD
ENDBRANCH   1   7
TORSDOF 1
ENDMDL
