MODEL 1
REMARK minimizedAffinity 7.36565113
REMARK minimizedRMSD -1
REMARK  1 active torsions:
REMARK  status: ('A' for Active; 'I' for Inactive)
REMARK    1  A    between atoms: N_2  and  C1_3 
ROOT
ATOM      1  C1  UNL d   1      -3.852   0.369   3.395  0.00  0.00     0.143 A 
ATOM      2  C2  UNL d   1      -4.297   0.791   2.138  0.00  0.00    -0.057 A 
ATOM      3  C3  UNL d   1      -3.431   0.834   1.038  0.00  0.00     0.033 A 
ATOM      4  C4  UNL d   1      -2.093   0.482   1.184  0.00  0.00    -0.042 A 
ATOM      5  C5  UNL d   1      -1.623   0.083   2.430  0.00  0.00     0.033 A 
ATOM      6  C6  UNL d   1      -2.494   0.035   3.523  0.00  0.00    -0.057 A 
ENDROOT
BRANCH   1   7
ATOM      7  N   UNL d   1      -4.639   0.398   4.549  0.00  0.00    -0.732 N 
ATOM      8  C   UNL d   1      -4.525  -0.645   5.546  0.00  0.00     0.284 C 
ATOM      9  H3  UNL d   1      -4.727   1.335   4.936  0.00  0.00     0.395 HD
ENDBRANCH   1   7
TORSDOF 1
ENDMDL
