MODEL 1
REMARK minimizedAffinity 1.99468803
REMARK minimizedRMSD -1
REMARK  1 active torsions:
REMARK  status: ('A' for Active; 'I' for Inactive)
REMARK    1  A    between atoms: N_2  and  C1_3 
ROOT
ATOM      1  C1  UNL d   1      -1.343   0.878   2.467  0.00  0.00     0.143 A 
ATOM      2  C2  UNL d   1      -1.672   0.311   1.231  0.00  0.00    -0.057 A 
ATOM      3  C3  UNL d   1      -2.900   0.578   0.613  0.00  0.00     0.033 A 
ATOM      4  C4  UNL d   1      -3.835   1.398   1.236  0.00  0.00    -0.042 A 
ATOM      5  C5  UNL d   1      -3.540   1.952   2.476  0.00  0.00     0.033 A 
ATOM      6  C6  UNL d   1      -2.309   1.687   3.085  0.00  0.00    -0.057 A 
ENDROOT
BRANCH   1   7
ATOM      7  N   UNL d   1      -0.180   0.573   3.178  0.00  0.00    -0.732 N 
ATOM      8  C   UNL d   1       0.186  -0.803   3.436  0.00  0.00     0.284 C 
ATOM      9  H3  UNL d   1       0.602   1.170   2.918  0.00  0.00     0.395 HD
ENDBRANCH   1   7
TORSDOF 1
ENDMDL
