MODEL 1
REMARK minimizedAffinity 3.42375302
REMARK minimizedRMSD -1
REMARK  1 active torsions:
REMARK  status: ('A' for Active; 'I' for Inactive)
REMARK    1  A    between atoms: N_2  and  C1_3 
ROOT
ATOM      1  C1  UNL d   1       3.054  -5.905   2.456  0.00  0.00     0.143 A 
ATOM      2  C2  UNL d   1       3.773  -5.998   3.653  0.00  0.00    -0.057 A 
ATOM      3  C3  UNL d   1       5.173  -6.000   3.661  0.00  0.00     0.033 A 
ATOM      4  C4  UNL d   1       5.881  -5.936   2.466  0.00  0.00    -0.042 A 
ATOM      5  C5  UNL d   1       5.188  -5.868   1.263  0.00  0.00     0.033 A 
ATOM      6  C6  UNL d   1       3.790  -5.861   1.262  0.00  0.00    -0.057 A 
ENDROOT
BRANCH   1   7
ATOM      7  N   UNL d   1       1.663  -5.998   2.375  0.00  0.00    -0.732 N 
ATOM      8  C   UNL d   1       0.997  -5.985   1.091  0.00  0.00     0.284 C 
ATOM      9  H3  UNL d   1       1.279  -6.671   3.036  0.00  0.00     0.395 HD
ENDBRANCH   1   7
TORSDOF 1
ENDMDL
