MODEL 1
REMARK minimizedAffinity 3.06884122
REMARK minimizedRMSD -1
REMARK  1 active torsions:
REMARK  status: ('A' for Active; 'I' for Inactive)
REMARK    1  A    between atoms: N_2  and  C1_3 
ROOT
ATOM      1  C1  UNL d   1      -1.616   0.556   2.070  0.00  0.00     0.143 A 
ATOM      2  C2  UNL d   1      -2.392   0.602   0.906  0.00  0.00    -0.057 A 
ATOM      3  C3  UNL d   1      -3.779   0.419   0.951  0.00  0.00     0.033 A 
ATOM      4  C4  UNL d   1      -4.414   0.158   2.160  0.00  0.00    -0.042 A 
ATOM      5  C5  UNL d   1      -3.660   0.083   3.326  0.00  0.00     0.033 A 
ATOM      6  C6  UNL d   1      -2.276   0.273   3.276  0.00  0.00    -0.057 A 
ENDROOT
BRANCH   1   7
ATOM      7  N   UNL d   1      -0.221   0.632   2.078  0.00  0.00    -0.732 N 
ATOM      8  C   UNL d   1       0.527   0.307   3.273  0.00  0.00     0.284 C 
ATOM      9  H3  UNL d   1       0.192   0.277   1.219  0.00  0.00     0.395 HD
ENDBRANCH   1   7
TORSDOF 1
ENDMDL
