MODEL 1
REMARK minimizedAffinity -0.209164932
REMARK minimizedRMSD -1
REMARK  1 active torsions:
REMARK  status: ('A' for Active; 'I' for Inactive)
REMARK    1  A    between atoms: N_2  and  C1_3 
ROOT
ATOM      1  C1  UNL d   1       2.355   0.221   2.204  0.00  0.00     0.143 A 
ATOM      2  C2  UNL d   1       3.710  -0.120   2.265  0.00  0.00    -0.057 A 
ATOM      3  C3  UNL d   1       4.505  -0.143   1.113  0.00  0.00     0.033 A 
ATOM      4  C4  UNL d   1       3.950   0.147  -0.129  0.00  0.00    -0.042 A 
ATOM      5  C5  UNL d   1       2.599   0.465  -0.216  0.00  0.00     0.033 A 
ATOM      6  C6  UNL d   1       1.812   0.493   0.939  0.00  0.00    -0.057 A 
ENDROOT
BRANCH   1   7
ATOM      7  N   UNL d   1       1.489   0.166   3.300  0.00  0.00    -0.732 N 
ATOM      8  C   UNL d   1       0.417   1.127   3.440  0.00  0.00     0.284 C 
ATOM      9  H3  UNL d   1       1.228  -0.787   3.540  0.00  0.00     0.395 HD
ENDBRANCH   1   7
TORSDOF 1
ENDMDL
