MODEL 1
REMARK minimizedAffinity 6.34689569
REMARK minimizedRMSD -1
REMARK  1 active torsions:
REMARK  status: ('A' for Active; 'I' for Inactive)
REMARK    1  A    between atoms: N_2  and  C1_3 
ROOT
ATOM      1  C1  UNL d   1      -3.767   0.966   2.527  0.00  0.00     0.143 A 
ATOM      2  C2  UNL d   1      -2.380   1.149   2.512  0.00  0.00    -0.057 A 
ATOM      3  C3  UNL d   1      -1.591   0.634   1.476  0.00  0.00     0.033 A 
ATOM      4  C4  UNL d   1      -2.174  -0.102   0.450  0.00  0.00    -0.042 A 
ATOM      5  C5  UNL d   1      -3.547  -0.318   0.458  0.00  0.00     0.033 A 
ATOM      6  C6  UNL d   1      -4.331   0.205   1.491  0.00  0.00    -0.057 A 
ENDROOT
BRANCH   1   7
ATOM      7  N   UNL d   1      -4.593   1.369   3.579  0.00  0.00    -0.732 N 
ATOM      8  C   UNL d   1      -4.807   0.506   4.721  0.00  0.00     0.284 C 
ATOM      9  H3  UNL d   1      -4.469   2.350   3.817  0.00  0.00     0.395 HD
ENDBRANCH   1   7
TORSDOF 1
ENDMDL
