MODEL 1
REMARK minimizedAffinity 3.1908927
REMARK minimizedRMSD -1
REMARK  1 active torsions:
REMARK  status: ('A' for Active; 'I' for Inactive)
REMARK    1  A    between atoms: N_2  and  C1_3 
ROOT
ATOM      1  C1  UNL d   1       3.861  -5.998   3.270  0.00  0.00     0.143 A 
ATOM      2  C2  UNL d   1       3.112  -5.984   2.089  0.00  0.00    -0.057 A 
ATOM      3  C3  UNL d   1       3.734  -6.000   0.835  0.00  0.00     0.033 A 
ATOM      4  C4  UNL d   1       5.122  -6.000   0.740  0.00  0.00    -0.042 A 
ATOM      5  C5  UNL d   1       5.887  -5.988   1.901  0.00  0.00     0.033 A 
ATOM      6  C6  UNL d   1       5.260  -5.979   3.150  0.00  0.00    -0.057 A 
ENDROOT
BRANCH   1   7
ATOM      7  N   UNL d   1       3.303  -5.884   4.546  0.00  0.00    -0.732 N 
ATOM      8  C   UNL d   1       4.134  -5.994   5.726  0.00  0.00     0.284 C 
ATOM      9  H3  UNL d   1       2.601  -5.149   4.599  0.00  0.00     0.395 HD
ENDBRANCH   1   7
TORSDOF 1
ENDMDL
