MODEL 1
REMARK minimizedAffinity 2.29139757
REMARK minimizedRMSD -1
REMARK  0 active torsions:
REMARK  status: ('A' for Active; 'I' for Inactive)
ROOT
ATOM      1  N1  IND d   1       0.886  -0.548   3.136  0.00  0.00    -0.196 N 
ATOM      2  C2  IND d   1       1.680   0.067   2.209  0.00  0.00     0.054 A 
ATOM      3  C3  IND d   1       2.616  -0.793   1.747  0.00  0.00    -0.031 A 
ATOM      4  C4  IND d   1       2.963  -3.283   2.300  0.00  0.00     0.051 A 
ATOM      5  C5  IND d   1       2.508  -4.279   3.119  0.00  0.00    -0.031 A 
ATOM      6  C6  IND d   1       1.466  -4.078   4.001  0.00  0.00     0.015 A 
ATOM      7  C7  IND d   1       0.830  -2.872   4.090  0.00  0.00    -0.016 A 
ATOM      8  C8  IND d   1       1.294  -1.857   3.265  0.00  0.00    -0.047 A 
ATOM      9  C9  IND d   1       2.379  -2.043   2.398  0.00  0.00    -0.096 A 
ATOM     10  HN1 IND d   1       0.240  -0.178   3.567  0.00  0.00     0.298 HD
ENDROOT
TORSDOF 0
ENDMDL
