MODEL 1
REMARK minimizedAffinity 7.61129951
REMARK minimizedRMSD -1
REMARK  0 active torsions:
REMARK  status: ('A' for Active; 'I' for Inactive)
ROOT
ATOM      1  N1  IND d   1       5.960  -5.799  -3.004  0.00  0.00    -0.196 N 
ATOM      2  C2  IND d   1       6.000  -5.875  -4.368  0.00  0.00     0.054 A 
ATOM      3  C3  IND d   1       4.750  -6.000  -4.869  0.00  0.00    -0.031 A 
ATOM      4  C4  IND d   1       2.488  -5.999  -3.639  0.00  0.00     0.051 A 
ATOM      5  C5  IND d   1       1.943  -5.991  -2.386  0.00  0.00    -0.031 A 
ATOM      6  C6  IND d   1       2.725  -5.914  -1.251  0.00  0.00     0.015 A 
ATOM      7  C7  IND d   1       4.087  -5.831  -1.329  0.00  0.00    -0.016 A 
ATOM      8  C8  IND d   1       4.644  -5.846  -2.600  0.00  0.00    -0.047 A 
ATOM      9  C9  IND d   1       3.858  -5.967  -3.753  0.00  0.00    -0.096 A 
ATOM     10  HN1 IND d   1       6.643  -5.734  -2.485  0.00  0.00     0.298 HD
ENDROOT
TORSDOF 0
ENDMDL
