MODEL 1
REMARK minimizedAffinity 6.81463051
REMARK minimizedRMSD -1
REMARK  0 active torsions:
REMARK  status: ('A' for Active; 'I' for Inactive)
ROOT
ATOM      1  N1  IND d   1       1.152  -1.682   2.270  0.00  0.00    -0.196 N 
ATOM      2  C2  IND d   1       2.114  -0.757   1.974  0.00  0.00     0.054 A 
ATOM      3  C3  IND d   1       3.294  -1.109   2.531  0.00  0.00    -0.031 A 
ATOM      4  C4  IND d   1       3.900  -3.214   3.883  0.00  0.00     0.051 A 
ATOM      5  C5  IND d   1       3.347  -4.332   4.442  0.00  0.00    -0.031 A 
ATOM      6  C6  IND d   1       2.007  -4.631   4.301  0.00  0.00     0.015 A 
ATOM      7  C7  IND d   1       1.170  -3.825   3.582  0.00  0.00    -0.016 A 
ATOM      8  C8  IND d   1       1.727  -2.686   3.019  0.00  0.00    -0.047 A 
ATOM      9  C9  IND d   1       3.076  -2.355   3.195  0.00  0.00    -0.096 A 
ATOM     10  HN1 IND d   1       0.328  -1.644   2.030  0.00  0.00     0.298 HD
ENDROOT
TORSDOF 0
ENDMDL
