MODEL 1
REMARK minimizedAffinity 7.53056574
REMARK minimizedRMSD -1
REMARK  0 active torsions:
REMARK  status: ('A' for Active; 'I' for Inactive)
ROOT
ATOM      1  N1  IND d   1      -5.212   4.913   3.442  0.00  0.00    -0.196 N 
ATOM      2  C2  IND d   1      -4.508   5.643   4.360  0.00  0.00     0.054 A 
ATOM      3  C3  IND d   1      -3.182   5.417   4.224  0.00  0.00    -0.031 A 
ATOM      4  C4  IND d   1      -1.939   3.966   2.499  0.00  0.00     0.051 A 
ATOM      5  C5  IND d   1      -2.155   3.079   1.482  0.00  0.00    -0.031 A 
ATOM      6  C6  IND d   1      -3.426   2.755   1.055  0.00  0.00     0.015 A 
ATOM      7  C7  IND d   1      -4.534   3.316   1.625  0.00  0.00    -0.016 A 
ATOM      8  C8  IND d   1      -4.319   4.210   2.664  0.00  0.00    -0.047 A 
ATOM      9  C9  IND d   1      -3.032   4.511   3.129  0.00  0.00    -0.096 A 
ATOM     10  HN1 IND d   1      -6.068   4.896   3.365  0.00  0.00     0.298 HD
ENDROOT
TORSDOF 0
ENDMDL
