MODEL 1
REMARK minimizedAffinity 9.86464214
REMARK minimizedRMSD -1
REMARK  0 active torsions:
REMARK  status: ('A' for Active; 'I' for Inactive)
ROOT
ATOM      1  N1  IND d   1       5.241  -4.098   2.861  0.00  0.00    -0.196 N 
ATOM      2  C2  IND d   1       5.998  -3.280   3.653  0.00  0.00     0.054 A 
ATOM      3  C3  IND d   1       5.207  -2.563   4.482  0.00  0.00    -0.031 A 
ATOM      4  C4  IND d   1       2.651  -2.646   4.780  0.00  0.00     0.051 A 
ATOM      5  C5  IND d   1       1.523  -3.212   4.255  0.00  0.00    -0.031 A 
ATOM      6  C6  IND d   1       1.578  -4.123   3.220  0.00  0.00     0.015 A 
ATOM      7  C7  IND d   1       2.770  -4.512   2.676  0.00  0.00    -0.016 A 
ATOM      8  C8  IND d   1       3.917  -3.934   3.201  0.00  0.00    -0.047 A 
ATOM      9  C9  IND d   1       3.864  -2.977   4.223  0.00  0.00    -0.096 A 
ATOM     10  HN1 IND d   1       5.542  -4.626   2.253  0.00  0.00     0.298 HD
ENDROOT
TORSDOF 0
ENDMDL
