MODEL 1
REMARK minimizedAffinity 8.20625591
REMARK minimizedRMSD -1
REMARK  0 active torsions:
REMARK  status: ('A' for Active; 'I' for Inactive)
ROOT
ATOM      1  N1  IND d   1       1.125  -0.961   2.785  0.00  0.00    -0.196 N 
ATOM      2  C2  IND d   1       2.008  -0.413   1.896  0.00  0.00     0.054 A 
ATOM      3  C3  IND d   1       2.832  -1.365   1.404  0.00  0.00    -0.031 A 
ATOM      4  C4  IND d   1       2.845  -3.902   1.839  0.00  0.00     0.051 A 
ATOM      5  C5  IND d   1       2.250  -4.867   2.603  0.00  0.00    -0.031 A 
ATOM      6  C6  IND d   1       1.228  -4.573   3.483  0.00  0.00     0.015 A 
ATOM      7  C7  IND d   1       0.753  -3.300   3.623  0.00  0.00    -0.016 A 
ATOM      8  C8  IND d   1       1.358  -2.317   2.854  0.00  0.00    -0.047 A 
ATOM      9  C9  IND d   1       2.425  -2.602   1.991  0.00  0.00    -0.096 A 
ATOM     10  HN1 IND d   1       0.526  -0.531   3.226  0.00  0.00     0.298 HD
ENDROOT
TORSDOF 0
ENDMDL
