MODEL 1
REMARK minimizedAffinity 9.22777462
REMARK minimizedRMSD -1
REMARK  0 active torsions:
REMARK  status: ('A' for Active; 'I' for Inactive)
ROOT
ATOM      1  N1  IND d   1       3.769  -5.939  -1.852  0.00  0.00    -0.196 N 
ATOM      2  C2  IND d   1       2.402  -5.915  -1.859  0.00  0.00     0.054 A 
ATOM      3  C3  IND d   1       1.939  -5.895  -3.129  0.00  0.00    -0.031 A 
ATOM      4  C4  IND d   1       3.242  -6.000  -5.347  0.00  0.00     0.051 A 
ATOM      5  C5  IND d   1       4.512  -5.996  -5.851  0.00  0.00    -0.031 A 
ATOM      6  C6  IND d   1       5.622  -5.975  -5.031  0.00  0.00     0.015 A 
ATOM      7  C7  IND d   1       5.502  -5.969  -3.670  0.00  0.00    -0.016 A 
ATOM      8  C8  IND d   1       4.214  -5.966  -3.155  0.00  0.00    -0.047 A 
ATOM      9  C9  IND d   1       3.084  -5.944  -3.982  0.00  0.00    -0.096 A 
ATOM     10  HN1 IND d   1       4.267  -5.938  -1.151  0.00  0.00     0.298 HD
ENDROOT
TORSDOF 0
ENDMDL
