MODEL 1
REMARK minimizedAffinity 7.74848795
REMARK minimizedRMSD -1
REMARK  0 active torsions:
REMARK  status: ('A' for Active; 'I' for Inactive)
ROOT
ATOM      1  N1  IND d   1       1.317  -2.642   2.211  0.00  0.00    -0.196 N 
ATOM      2  C2  IND d   1       1.817  -1.370   2.182  0.00  0.00     0.054 A 
ATOM      3  C3  IND d   1       2.589  -1.143   3.269  0.00  0.00    -0.031 A 
ATOM      4  C4  IND d   1       3.252  -2.749   5.168  0.00  0.00     0.051 A 
ATOM      5  C5  IND d   1       3.014  -4.006   5.648  0.00  0.00    -0.031 A 
ATOM      6  C6  IND d   1       2.183  -4.891   4.993  0.00  0.00     0.015 A 
ATOM      7  C7  IND d   1       1.566  -4.555   3.821  0.00  0.00    -0.016 A 
ATOM      8  C8  IND d   1       1.800  -3.277   3.334  0.00  0.00    -0.047 A 
ATOM      9  C9  IND d   1       2.609  -2.359   4.017  0.00  0.00    -0.096 A 
ATOM     10  HN1 IND d   1       0.790  -2.987   1.626  0.00  0.00     0.298 HD
ENDROOT
TORSDOF 0
ENDMDL
