MODEL 1
REMARK minimizedAffinity 14.6314249
REMARK minimizedRMSD -1
REMARK  0 active torsions:
REMARK  status: ('A' for Active; 'I' for Inactive)
ROOT
ATOM      1  N1  IND d   1       1.007  -0.740   3.006  0.00  0.00    -0.196 N 
ATOM      2  C2  IND d   1       2.049  -0.217   2.293  0.00  0.00     0.054 A 
ATOM      3  C3  IND d   1       2.899  -1.197   1.913  0.00  0.00    -0.031 A 
ATOM      4  C4  IND d   1       2.723  -3.741   2.266  0.00  0.00     0.051 A 
ATOM      5  C5  IND d   1       1.967  -4.692   2.892  0.00  0.00    -0.031 A 
ATOM      6  C6  IND d   1       0.827  -4.368   3.600  0.00  0.00     0.015 A 
ATOM      7  C7  IND d   1       0.394  -3.076   3.699  0.00  0.00    -0.016 A 
ATOM      8  C8  IND d   1       1.163  -2.107   3.071  0.00  0.00    -0.047 A 
ATOM      9  C9  IND d   1       2.344  -2.425   2.387  0.00  0.00    -0.096 A 
ATOM     10  HN1 IND d   1       0.363  -0.291   3.355  0.00  0.00     0.298 HD
ENDROOT
TORSDOF 0
ENDMDL
