MODEL 1
REMARK minimizedAffinity 7.63165283
REMARK minimizedRMSD -1
REMARK  0 active torsions:
REMARK  status: ('A' for Active; 'I' for Inactive)
ROOT
ATOM      1  N1  IND d   1       1.744  -4.099   3.356  0.00  0.00    -0.196 N 
ATOM      2  C2  IND d   1       2.618  -4.693   2.488  0.00  0.00     0.054 A 
ATOM      3  C3  IND d   1       3.082  -3.789   1.595  0.00  0.00    -0.031 A 
ATOM      4  C4  IND d   1       2.619  -1.262   1.436  0.00  0.00     0.051 A 
ATOM      5  C5  IND d   1       1.858  -0.269   1.987  0.00  0.00    -0.031 A 
ATOM      6  C6  IND d   1       1.005  -0.507   3.046  0.00  0.00     0.015 A 
ATOM      7  C7  IND d   1       0.889  -1.749   3.602  0.00  0.00    -0.016 A 
ATOM      8  C8  IND d   1       1.655  -2.761   3.041  0.00  0.00    -0.047 A 
ATOM      9  C9  IND d   1       2.491  -2.535   1.939  0.00  0.00    -0.096 A 
ATOM     10  HN1 IND d   1       1.321  -4.495   3.991  0.00  0.00     0.298 HD
ENDROOT
TORSDOF 0
ENDMDL
