MODEL 1
REMARK minimizedAffinity 7.06208944
REMARK minimizedRMSD -1
REMARK  0 active torsions:
REMARK  status: ('A' for Active; 'I' for Inactive)
ROOT
ATOM      1  N1  IND d   1      -3.502   1.806  -3.666  0.00  0.00    -0.196 N 
ATOM      2  C2  IND d   1      -2.925   1.048  -2.686  0.00  0.00     0.054 A 
ATOM      3  C3  IND d   1      -3.401   1.407  -1.472  0.00  0.00    -0.031 A 
ATOM      4  C4  IND d   1      -5.203   3.144  -0.870  0.00  0.00     0.051 A 
ATOM      5  C5  IND d   1      -5.993   4.113  -1.424  0.00  0.00    -0.031 A 
ATOM      6  C6  IND d   1      -5.995   4.365  -2.780  0.00  0.00     0.015 A 
ATOM      7  C7  IND d   1      -5.212   3.648  -3.639  0.00  0.00    -0.016 A 
ATOM      8  C8  IND d   1      -4.403   2.668  -3.081  0.00  0.00    -0.047 A 
ATOM      9  C9  IND d   1      -4.365   2.436  -1.700  0.00  0.00    -0.096 A 
ATOM     10  HN1 IND d   1      -3.330   1.754  -4.507  0.00  0.00     0.298 HD
ENDROOT
TORSDOF 0
ENDMDL
