MODEL 1
REMARK minimizedAffinity 3.14563131
REMARK minimizedRMSD -1
REMARK  0 active torsions:
REMARK  status: ('A' for Active; 'I' for Inactive)
ROOT
ATOM      1  N1  IND d   1       5.866  -5.930  -4.433  0.00  0.00    -0.196 N 
ATOM      2  C2  IND d   1       5.595  -5.935  -5.773  0.00  0.00     0.054 A 
ATOM      3  C3  IND d   1       4.260  -5.979  -5.983  0.00  0.00    -0.031 A 
ATOM      4  C4  IND d   1       2.334  -5.947  -4.274  0.00  0.00     0.051 A 
ATOM      5  C5  IND d   1       2.086  -5.981  -2.931  0.00  0.00    -0.031 A 
ATOM      6  C6  IND d   1       3.105  -5.998  -2.001  0.00  0.00     0.015 A 
ATOM      7  C7  IND d   1       4.417  -5.969  -2.381  0.00  0.00    -0.016 A 
ATOM      8  C8  IND d   1       4.673  -5.941  -3.744  0.00  0.00    -0.047 A 
ATOM      9  C9  IND d   1       3.644  -5.967  -4.694  0.00  0.00    -0.096 A 
ATOM     10  HN1 IND d   1       6.650  -5.921  -4.080  0.00  0.00     0.298 HD
ENDROOT
TORSDOF 0
ENDMDL
