MODEL 1
REMARK minimizedAffinity 7.43411779
REMARK minimizedRMSD -1
REMARK  0 active torsions:
REMARK  status: ('A' for Active; 'I' for Inactive)
ROOT
ATOM      1  C1  DEN d   1      -0.354  -4.893  -5.950  0.00  0.00     0.130 A 
ATOM      2  C2  DEN d   1       0.102  -3.506  -5.978  0.00  0.00    -0.031 A 
ATOM      3  C3  DEN d   1      -1.090  -2.634  -6.000  0.00  0.00     0.027 A 
ATOM      4  C4  DEN d   1      -3.583  -3.294  -5.988  0.00  0.00     0.027 A 
ATOM      5  C5  DEN d   1      -4.464  -4.352  -5.979  0.00  0.00    -0.003 A 
ATOM      6  C6  DEN d   1      -4.040  -5.655  -5.994  0.00  0.00     0.001 A 
ATOM      7  C7  DEN d   1      -2.699  -5.933  -5.972  0.00  0.00     0.017 A 
ATOM      8  C8  DEN d   1      -1.805  -4.870  -5.989  0.00  0.00    -0.094 A 
ATOM      9  C9  DEN d   1      -2.253  -3.561  -5.962  0.00  0.00    -0.072 A 
ENDROOT
TORSDOF 0
ENDMDL
