MODEL 1
REMARK minimizedAffinity -2.75839877
REMARK minimizedRMSD -1
REMARK  0 active torsions:
REMARK  status: ('A' for Active; 'I' for Inactive)
ROOT
ATOM      1  C1  DEN d   1      -2.751  -5.995  -5.969  0.00  0.00     0.130 A 
ATOM      2  C2  DEN d   1      -4.209  -5.898  -5.954  0.00  0.00    -0.031 A 
ATOM      3  C3  DEN d   1      -4.571  -4.467  -5.960  0.00  0.00     0.027 A 
ATOM      4  C4  DEN d   1      -3.026  -2.402  -5.995  0.00  0.00     0.027 A 
ATOM      5  C5  DEN d   1      -1.714  -1.981  -6.000  0.00  0.00    -0.003 A 
ATOM      6  C6  DEN d   1      -0.665  -2.861  -5.961  0.00  0.00     0.001 A 
ATOM      7  C7  DEN d   1      -0.909  -4.209  -5.961  0.00  0.00     0.017 A 
ATOM      8  C8  DEN d   1      -2.229  -4.640  -5.948  0.00  0.00    -0.094 A 
ATOM      9  C9  DEN d   1      -3.276  -3.736  -6.000  0.00  0.00    -0.072 A 
ENDROOT
TORSDOF 0
ENDMDL
