MODEL 1
REMARK minimizedAffinity 7.72568321
REMARK minimizedRMSD -1
REMARK  0 active torsions:
REMARK  status: ('A' for Active; 'I' for Inactive)
ROOT
ATOM      1  C1  DEN d   1      -1.682  -4.147  -6.000  0.00  0.00     0.130 A 
ATOM      2  C2  DEN d   1      -2.785  -5.103  -5.998  0.00  0.00    -0.031 A 
ATOM      3  C3  DEN d   1      -2.612  -5.999  -4.838  0.00  0.00     0.027 A 
ATOM      4  C4  DEN d   1      -0.753  -5.997  -3.050  0.00  0.00     0.027 A 
ATOM      5  C5  DEN d   1       0.409  -5.380  -2.639  0.00  0.00    -0.003 A 
ATOM      6  C6  DEN d   1       0.969  -4.341  -3.333  0.00  0.00     0.001 A 
ATOM      7  C7  DEN d   1       0.343  -3.855  -4.451  0.00  0.00     0.017 A 
ATOM      8  C8  DEN d   1      -0.825  -4.476  -4.875  0.00  0.00    -0.094 A 
ATOM      9  C9  DEN d   1      -1.381  -5.518  -4.153  0.00  0.00    -0.072 A 
ENDROOT
TORSDOF 0
ENDMDL
