MODEL 1
REMARK minimizedAffinity 8.10476017
REMARK minimizedRMSD -1
REMARK  0 active torsions:
REMARK  status: ('A' for Active; 'I' for Inactive)
ROOT
ATOM      1  C1  DEN d   1      -2.147  -6.000  -5.661  0.00  0.00     0.130 A 
ATOM      2  C2  DEN d   1      -3.592  -5.890  -5.838  0.00  0.00    -0.031 A 
ATOM      3  C3  DEN d   1      -3.926  -4.461  -6.000  0.00  0.00     0.027 A 
ATOM      4  C4  DEN d   1      -2.352  -2.418  -6.000  0.00  0.00     0.027 A 
ATOM      5  C5  DEN d   1      -1.043  -2.009  -5.873  0.00  0.00    -0.003 A 
ATOM      6  C6  DEN d   1      -0.022  -2.891  -5.635  0.00  0.00     0.001 A 
ATOM      7  C7  DEN d   1      -0.289  -4.233  -5.561  0.00  0.00     0.017 A 
ATOM      8  C8  DEN d   1      -1.607  -4.652  -5.680  0.00  0.00    -0.094 A 
ATOM      9  C9  DEN d   1      -2.623  -3.746  -5.933  0.00  0.00    -0.072 A 
ENDROOT
TORSDOF 0
ENDMDL
