MODEL 1
REMARK minimizedAffinity 12.0369778
REMARK minimizedRMSD -1
REMARK  0 active torsions:
REMARK  status: ('A' for Active; 'I' for Inactive)
ROOT
ATOM      1  C1  DEN d   1      -1.252  -2.241  -5.906  0.00  0.00     0.130 A 
ATOM      2  C2  DEN d   1      -2.385  -1.321  -5.948  0.00  0.00    -0.031 A 
ATOM      3  C3  DEN d   1      -3.623  -2.125  -5.994  0.00  0.00     0.027 A 
ATOM      4  C4  DEN d   1      -3.894  -4.690  -5.998  0.00  0.00     0.027 A 
ATOM      5  C5  DEN d   1      -3.219  -5.890  -5.984  0.00  0.00    -0.003 A 
ATOM      6  C6  DEN d   1      -1.850  -5.957  -5.977  0.00  0.00     0.001 A 
ATOM      7  C7  DEN d   1      -1.114  -4.803  -5.938  0.00  0.00     0.017 A 
ATOM      8  C8  DEN d   1      -1.788  -3.589  -5.960  0.00  0.00    -0.094 A 
ATOM      9  C9  DEN d   1      -3.172  -3.542  -5.955  0.00  0.00    -0.072 A 
ENDROOT
TORSDOF 0
ENDMDL
