MODEL 1
REMARK minimizedAffinity 5.72930193
REMARK minimizedRMSD -1
REMARK  0 active torsions:
REMARK  status: ('A' for Active; 'I' for Inactive)
ROOT
ATOM      1  C2' OXE d   1       0.256   2.307  -1.644  0.00  0.00     0.078 C 
ATOM      2  C1' OXE d   1       2.862   2.498  -0.618  0.00  0.00     0.078 C 
ATOM      3  C1  OXE d   1       2.396   1.150  -1.108  0.00  0.00    -0.078 A 
ATOM      4  C2  OXE d   1       1.103   1.055  -1.565  0.00  0.00    -0.078 A 
ATOM      5  C3  OXE d   1       0.641  -0.152  -2.079  0.00  0.00     0.003 A 
ATOM      6  C4  OXE d   1       1.427  -1.307  -1.993  0.00  0.00    -0.002 A 
ATOM      7  C5  OXE d   1       2.733  -1.242  -1.495  0.00  0.00    -0.002 A 
ATOM      8  C6  OXE d   1       3.246  -0.015  -1.088  0.00  0.00     0.003 A 
ENDROOT
TORSDOF 0
ENDMDL
