MODEL 1
REMARK minimizedAffinity 6.59207916
REMARK minimizedRMSD -1
REMARK  0 active torsions:
REMARK  status: ('A' for Active; 'I' for Inactive)
ROOT
ATOM      1  C2' OXE d   1      -0.507   0.689  -0.293  0.00  0.00     0.078 C 
ATOM      2  C1' OXE d   1       1.091  -1.396  -1.283  0.00  0.00     0.078 C 
ATOM      3  C1  OXE d   1       1.265  -0.027  -1.891  0.00  0.00    -0.078 A 
ATOM      4  C2  OXE d   1       0.447   0.977  -1.433  0.00  0.00    -0.078 A 
ATOM      5  C3  OXE d   1       0.603   2.271  -1.921  0.00  0.00     0.003 A 
ATOM      6  C4  OXE d   1       1.481   2.527  -2.982  0.00  0.00    -0.002 A 
ATOM      7  C5  OXE d   1       2.296   1.510  -3.490  0.00  0.00    -0.002 A 
ATOM      8  C6  OXE d   1       2.231   0.240  -2.928  0.00  0.00     0.003 A 
ENDROOT
TORSDOF 0
ENDMDL
