MODEL 1
REMARK minimizedAffinity 11.3591299
REMARK minimizedRMSD -1
REMARK  0 active torsions:
REMARK  status: ('A' for Active; 'I' for Inactive)
ROOT
ATOM      1  C2' OXE d   1      -0.794  -2.290  -1.326  0.00  0.00     0.078 C 
ATOM      2  C1' OXE d   1       0.883  -3.627   0.486  0.00  0.00     0.078 C 
ATOM      3  C1  OXE d   1       1.491  -2.540  -0.364  0.00  0.00    -0.078 A 
ATOM      4  C2  OXE d   1       0.674  -1.923  -1.281  0.00  0.00    -0.078 A 
ATOM      5  C3  OXE d   1       1.170  -0.876  -2.053  0.00  0.00     0.003 A 
ATOM      6  C4  OXE d   1       2.531  -0.550  -2.012  0.00  0.00    -0.002 A 
ATOM      7  C5  OXE d   1       3.389  -1.193  -1.114  0.00  0.00    -0.002 A 
ATOM      8  C6  OXE d   1       2.877  -2.159  -0.255  0.00  0.00     0.003 A 
ENDROOT
TORSDOF 0
ENDMDL
