MODEL 1
REMARK minimizedAffinity -1.21151268
REMARK minimizedRMSD -1
REMARK  0 active torsions:
REMARK  status: ('A' for Active; 'I' for Inactive)
ROOT
ATOM      1  C2' OXE d   1       5.801  -2.346   5.959  0.00  0.00     0.078 C 
ATOM      2  C1' OXE d   1       3.377  -2.289   4.544  0.00  0.00     0.078 C 
ATOM      3  C1  OXE d   1       4.101  -3.608   4.646  0.00  0.00    -0.078 A 
ATOM      4  C2  OXE d   1       5.310  -3.617   5.301  0.00  0.00    -0.078 A 
ATOM      5  C3  OXE d   1       5.992  -4.818   5.471  0.00  0.00     0.003 A 
ATOM      6  C4  OXE d   1       5.536  -5.987   4.850  0.00  0.00    -0.002 A 
ATOM      7  C5  OXE d   1       4.328  -5.991   4.145  0.00  0.00    -0.002 A 
ATOM      8  C6  OXE d   1       3.578  -4.822   4.070  0.00  0.00     0.003 A 
ENDROOT
TORSDOF 0
ENDMDL
