MODEL 1
REMARK minimizedAffinity 4.79904461
REMARK minimizedRMSD -1
REMARK  0 active torsions:
REMARK  status: ('A' for Active; 'I' for Inactive)
ROOT
ATOM      1  C2' OXE d   1      -1.030   1.570  -0.985  0.00  0.00     0.078 C 
ATOM      2  C1' OXE d   1       1.346   1.971  -2.425  0.00  0.00     0.078 C 
ATOM      3  C1  OXE d   1       1.125   0.618  -1.795  0.00  0.00    -0.078 A 
ATOM      4  C2  OXE d   1      -0.019   0.445  -1.054  0.00  0.00    -0.078 A 
ATOM      5  C3  OXE d   1      -0.299  -0.799  -0.497  0.00  0.00     0.003 A 
ATOM      6  C4  OXE d   1       0.646  -1.831  -0.557  0.00  0.00    -0.002 A 
ATOM      7  C5  OXE d   1       1.836  -1.663  -1.274  0.00  0.00    -0.002 A 
ATOM      8  C6  OXE d   1       2.071  -0.462  -1.933  0.00  0.00     0.003 A 
ENDROOT
TORSDOF 0
ENDMDL
