MODEL 1
REMARK minimizedAffinity -3.5252161
REMARK minimizedRMSD -1
REMARK  0 active torsions:
REMARK  status: ('A' for Active; 'I' for Inactive)
ROOT
ATOM      1  C2' OXE d   1      -0.244   1.046  -0.789  0.00  0.00     0.078 C 
ATOM      2  C1' OXE d   1       1.761   1.528  -2.693  0.00  0.00     0.078 C 
ATOM      3  C1  OXE d   1       1.797   0.216  -1.950  0.00  0.00    -0.078 A 
ATOM      4  C2  OXE d   1       0.839   0.008  -0.987  0.00  0.00    -0.078 A 
ATOM      5  C3  OXE d   1       0.794  -1.207  -0.310  0.00  0.00     0.003 A 
ATOM      6  C4  OXE d   1       1.806  -2.158  -0.492  0.00  0.00    -0.002 A 
ATOM      7  C5  OXE d   1       2.814  -1.949  -1.440  0.00  0.00    -0.002 A 
ATOM      8  C6  OXE d   1       2.799  -0.789  -2.205  0.00  0.00     0.003 A 
ENDROOT
TORSDOF 0
ENDMDL
