MODEL 1
REMARK minimizedAffinity 6.4409852
REMARK minimizedRMSD -1
REMARK  0 active torsions:
REMARK  status: ('A' for Active; 'I' for Inactive)
ROOT
ATOM      1  C2' OXE d   1       1.026  -3.320   0.812  0.00  0.00     0.078 C 
ATOM      2  C1' OXE d   1      -0.419  -1.711  -0.978  0.00  0.00     0.078 C 
ATOM      3  C1  OXE d   1       1.081  -1.557  -0.947  0.00  0.00    -0.078 A 
ATOM      4  C2  OXE d   1       1.776  -2.315  -0.035  0.00  0.00    -0.078 A 
ATOM      5  C3  OXE d   1       3.166  -2.251  -0.002  0.00  0.00     0.003 A 
ATOM      6  C4  OXE d   1       3.851  -1.312  -0.781  0.00  0.00    -0.002 A 
ATOM      7  C5  OXE d   1       3.159  -0.502  -1.689  0.00  0.00    -0.002 A 
ATOM      8  C6  OXE d   1       1.782  -0.642  -1.814  0.00  0.00     0.003 A 
ENDROOT
TORSDOF 0
ENDMDL
