MODEL 1
REMARK minimizedAffinity 3.81954861
REMARK minimizedRMSD -1
REMARK  0 active torsions:
REMARK  status: ('A' for Active; 'I' for Inactive)
ROOT
ATOM      1  C2' OXE d   1       2.322   1.555  -2.234  0.00  0.00     0.078 C 
ATOM      2  C1' OXE d   1       3.156  -0.581  -0.615  0.00  0.00     0.078 C 
ATOM      3  C1  OXE d   1       2.491  -0.911  -1.928  0.00  0.00    -0.078 A 
ATOM      4  C2  OXE d   1       2.044   0.140  -2.692  0.00  0.00    -0.078 A 
ATOM      5  C3  OXE d   1       1.473  -0.107  -3.938  0.00  0.00     0.003 A 
ATOM      6  C4  OXE d   1       1.211  -1.419  -4.350  0.00  0.00    -0.002 A 
ATOM      7  C5  OXE d   1       1.622  -2.504  -3.568  0.00  0.00    -0.002 A 
ATOM      8  C6  OXE d   1       2.301  -2.268  -2.377  0.00  0.00     0.003 A 
ENDROOT
TORSDOF 0
ENDMDL
