MODEL 1
REMARK minimizedAffinity 2.76204038
REMARK minimizedRMSD -1
REMARK  0 active torsions:
REMARK  status: ('A' for Active; 'I' for Inactive)
ROOT
ATOM      1  C2' OXE d   1      -0.047   0.378  -0.590  0.00  0.00     0.078 C 
ATOM      2  C1' OXE d   1       2.142  -1.155  -1.449  0.00  0.00     0.078 C 
ATOM      3  C1  OXE d   1       1.930   0.191  -2.095  0.00  0.00    -0.078 A 
ATOM      4  C2  OXE d   1       0.829   0.914  -1.701  0.00  0.00    -0.078 A 
ATOM      5  C3  OXE d   1       0.617   2.186  -2.226  0.00  0.00     0.003 A 
ATOM      6  C4  OXE d   1       1.426   2.671  -3.260  0.00  0.00    -0.002 A 
ATOM      7  C5  OXE d   1       2.529   1.933  -3.703  0.00  0.00    -0.002 A 
ATOM      8  C6  OXE d   1       2.819   0.713  -3.103  0.00  0.00     0.003 A 
ENDROOT
TORSDOF 0
ENDMDL
