MODEL 1
REMARK minimizedAffinity 11.2009382
REMARK minimizedRMSD -1
REMARK  0 active torsions:
REMARK  status: ('A' for Active; 'I' for Inactive)
ROOT
ATOM      1  C2' OXE d   1      -0.848   2.893   0.893  0.00  0.00     0.078 C 
ATOM      2  C1' OXE d   1       1.664   2.151   1.901  0.00  0.00     0.078 C 
ATOM      3  C1  OXE d   1       1.422   1.983   0.422  0.00  0.00    -0.078 A 
ATOM      4  C2  OXE d   1       0.175   2.305  -0.055  0.00  0.00    -0.078 A 
ATOM      5  C3  OXE d   1      -0.084   2.221  -1.420  0.00  0.00     0.003 A 
ATOM      6  C4  OXE d   1       0.864   1.666  -2.288  0.00  0.00    -0.002 A 
ATOM      7  C5  OXE d   1       2.127   1.295  -1.817  0.00  0.00    -0.002 A 
ATOM      8  C6  OXE d   1       2.437   1.486  -0.475  0.00  0.00     0.003 A 
ENDROOT
TORSDOF 0
ENDMDL
