MODEL 1
REMARK minimizedAffinity 8.23749542
REMARK minimizedRMSD -1
REMARK  0 active torsions:
REMARK  status: ('A' for Active; 'I' for Inactive)
ROOT
ATOM      1  C2' OXE d   1       2.318   1.804   1.569  0.00  0.00     0.078 C 
ATOM      2  C1' OXE d   1      -0.354   2.281   0.850  0.00  0.00     0.078 C 
ATOM      3  C1  OXE d   1       0.629   1.981  -0.254  0.00  0.00    -0.078 A 
ATOM      4  C2  OXE d   1       1.943   1.795   0.103  0.00  0.00    -0.078 A 
ATOM      5  C3  OXE d   1       2.881   1.462  -0.871  0.00  0.00     0.003 A 
ATOM      6  C4  OXE d   1       2.529   1.466  -2.226  0.00  0.00    -0.002 A 
ATOM      7  C5  OXE d   1       1.204   1.692  -2.614  0.00  0.00    -0.002 A 
ATOM      8  C6  OXE d   1       0.236   1.908  -1.640  0.00  0.00     0.003 A 
ENDROOT
TORSDOF 0
ENDMDL
