MODEL 1
REMARK minimizedAffinity 2.51418996
REMARK minimizedRMSD -1
REMARK  0 active torsions:
REMARK  status: ('A' for Active; 'I' for Inactive)
ROOT
ATOM      1  C2' OXE d   1       1.478   0.233  -2.518  0.00  0.00     0.078 C 
ATOM      2  C1' OXE d   1      -0.503  -1.691  -2.016  0.00  0.00     0.078 C 
ATOM      3  C1  OXE d   1       0.846  -1.885  -1.369  0.00  0.00    -0.078 A 
ATOM      4  C2  OXE d   1       1.823  -0.963  -1.658  0.00  0.00    -0.078 A 
ATOM      5  C3  OXE d   1       3.069  -1.064  -1.044  0.00  0.00     0.003 A 
ATOM      6  C4  OXE d   1       3.383  -2.179  -0.258  0.00  0.00    -0.002 A 
ATOM      7  C5  OXE d   1       2.414  -3.150   0.016  0.00  0.00    -0.002 A 
ATOM      8  C6  OXE d   1       1.131  -2.996  -0.496  0.00  0.00     0.003 A 
ENDROOT
TORSDOF 0
ENDMDL
