MODEL 1
REMARK minimizedAffinity 1.24621987
REMARK minimizedRMSD -1
REMARK  0 active torsions:
REMARK  status: ('A' for Active; 'I' for Inactive)
ROOT
ATOM      1  C2' OXE d   1      -0.450   1.853  -1.241  0.00  0.00     0.078 C 
ATOM      2  C1' OXE d   1       1.811   2.179  -2.874  0.00  0.00     0.078 C 
ATOM      3  C1  OXE d   1       1.594   0.831  -2.233  0.00  0.00    -0.078 A 
ATOM      4  C2  OXE d   1       0.511   0.694  -1.398  0.00  0.00    -0.078 A 
ATOM      5  C3  OXE d   1       0.234  -0.543  -0.825  0.00  0.00     0.003 A 
ATOM      6  C4  OXE d   1       1.133  -1.607  -0.967  0.00  0.00    -0.002 A 
ATOM      7  C5  OXE d   1       2.263  -1.478  -1.781  0.00  0.00    -0.002 A 
ATOM      8  C6  OXE d   1       2.485  -0.281  -2.453  0.00  0.00     0.003 A 
ENDROOT
TORSDOF 0
ENDMDL
