MODEL 1
REMARK minimizedAffinity -1.37546802
REMARK minimizedRMSD -1
REMARK  0 active torsions:
REMARK  status: ('A' for Active; 'I' for Inactive)
ROOT
ATOM      1  C2' OXE d   1      -0.326   0.529  -1.324  0.00  0.00     0.078 C 
ATOM      2  C1' OXE d   1       2.081   1.327  -2.526  0.00  0.00     0.078 C 
ATOM      3  C1  OXE d   1       2.097   0.076  -1.684  0.00  0.00    -0.078 A 
ATOM      4  C2  OXE d   1       0.925  -0.281  -1.061  0.00  0.00    -0.078 A 
ATOM      5  C3  OXE d   1       0.870  -1.456  -0.317  0.00  0.00     0.003 A 
ATOM      6  C4  OXE d   1       2.034  -2.195  -0.071  0.00  0.00    -0.002 A 
ATOM      7  C5  OXE d   1       3.247  -1.826  -0.663  0.00  0.00    -0.002 A 
ATOM      8  C6  OXE d   1       3.286  -0.720  -1.505  0.00  0.00     0.003 A 
ENDROOT
TORSDOF 0
ENDMDL
