MODEL 1
REMARK minimizedAffinity 2.37715006
REMARK minimizedRMSD -1
REMARK  0 active torsions:
REMARK  status: ('A' for Active; 'I' for Inactive)
ROOT
ATOM      1  C2' OXE d   1      -0.358   1.502  -1.496  0.00  0.00     0.078 C 
ATOM      2  C1' OXE d   1       2.232   2.034  -0.555  0.00  0.00     0.078 C 
ATOM      3  C1  OXE d   1       1.877   0.601  -0.865  0.00  0.00    -0.078 A 
ATOM      4  C2  OXE d   1       0.593   0.345  -1.280  0.00  0.00    -0.078 A 
ATOM      5  C3  OXE d   1       0.228  -0.952  -1.632  0.00  0.00     0.003 A 
ATOM      6  C4  OXE d   1       1.110  -2.018  -1.420  0.00  0.00    -0.002 A 
ATOM      7  C5  OXE d   1       2.410  -1.784  -0.960  0.00  0.00    -0.002 A 
ATOM      8  C6  OXE d   1       2.822  -0.478  -0.718  0.00  0.00     0.003 A 
ENDROOT
TORSDOF 0
ENDMDL
