MODEL 1
REMARK minimizedAffinity 5.26657724
REMARK minimizedRMSD -1
REMARK  0 active torsions:
REMARK  status: ('A' for Active; 'I' for Inactive)
ROOT
ATOM      1  C2' OXE d   1      -0.548   1.399  -1.539  0.00  0.00     0.078 C 
ATOM      2  C1' OXE d   1       2.246   1.227  -1.327  0.00  0.00     0.078 C 
ATOM      3  C1  OXE d   1       1.476   1.707  -0.121  0.00  0.00    -0.078 A 
ATOM      4  C2  OXE d   1       0.114   1.832  -0.249  0.00  0.00    -0.078 A 
ATOM      5  C3  OXE d   1      -0.649   2.217   0.849  0.00  0.00     0.003 A 
ATOM      6  C4  OXE d   1      -0.028   2.626   2.036  0.00  0.00    -0.002 A 
ATOM      7  C5  OXE d   1       1.362   2.544   2.174  0.00  0.00    -0.002 A 
ATOM      8  C6  OXE d   1       2.123   2.047   1.122  0.00  0.00     0.003 A 
ENDROOT
TORSDOF 0
ENDMDL
