MODEL 1
REMARK minimizedAffinity 13.7961922
REMARK minimizedRMSD -1
REMARK  0 active torsions:
REMARK  status: ('A' for Active; 'I' for Inactive)
ROOT
ATOM      1  C2' OXE d   1      -0.742   1.642  -1.064  0.00  0.00     0.078 C 
ATOM      2  C1' OXE d   1       1.050   2.642  -2.979  0.00  0.00     0.078 C 
ATOM      3  C1  OXE d   1       1.283   1.246  -2.458  0.00  0.00    -0.078 A 
ATOM      4  C2  OXE d   1       0.429   0.782  -1.487  0.00  0.00    -0.078 A 
ATOM      5  C3  OXE d   1       0.567  -0.519  -1.011  0.00  0.00     0.003 A 
ATOM      6  C4  OXE d   1       1.659  -1.304  -1.401  0.00  0.00    -0.002 A 
ATOM      7  C5  OXE d   1       2.564  -0.836  -2.359  0.00  0.00    -0.002 A 
ATOM      8  C6  OXE d   1       2.366   0.418  -2.928  0.00  0.00     0.003 A 
ENDROOT
TORSDOF 0
ENDMDL
