MODEL 1
REMARK minimizedAffinity 12.031292
REMARK minimizedRMSD -1
REMARK  3 active torsions:
REMARK  status: ('A' for Active; 'I' for Inactive)
REMARK    1  A    between atoms: C3'_2  and  C2'_3 
REMARK    2  A    between atoms: C2'_3  and  C1'_4 
REMARK    3  A    between atoms: C1'_4  and  C1_5 
ROOT
ATOM      1  C1  N4B d   1      -1.927  -2.342   3.339  0.00  0.00    -0.075 A 
ATOM      2  C2  N4B d   1      -1.123  -1.864   2.281  0.00  0.00     0.002 A 
ATOM      3  C3  N4B d   1      -0.053  -1.045   2.548  0.00  0.00     0.002 A 
ATOM      4  C4  N4B d   1       0.219  -0.678   3.857  0.00  0.00    -0.004 A 
ATOM      5  C5  N4B d   1      -0.547  -1.165   4.875  0.00  0.00     0.002 A 
ATOM      6  C6  N4B d   1      -1.623  -1.992   4.622  0.00  0.00     0.002 A 
ENDROOT
BRANCH   1   7
ATOM      7  C1' N4B d   1      -3.158  -3.170   3.089  0.00  0.00     0.057 C 
BRANCH   7   8
ATOM      8  C2' N4B d   1      -3.832  -2.691   1.807  0.00  0.00     0.009 C 
BRANCH   8   9
ATOM      9  C3' N4B d   1      -4.395  -3.845   0.995  0.00  0.00     0.004 C 
ATOM     10  C4' N4B d   1      -3.645  -4.075  -0.283  0.00  0.00     0.003 C 
ENDBRANCH   8   9
ENDBRANCH   7   8
ENDBRANCH   1   7
TORSDOF 3
ENDMDL
