MODEL 1
REMARK minimizedAffinity 8.89296722
REMARK minimizedRMSD -1
REMARK  3 active torsions:
REMARK  status: ('A' for Active; 'I' for Inactive)
REMARK    1  A    between atoms: C3'_2  and  C2'_3 
REMARK    2  A    between atoms: C2'_3  and  C1'_4 
REMARK    3  A    between atoms: C1'_4  and  C1_5 
ROOT
ATOM      1  C1  N4B d   1      -1.676  -2.073   3.398  0.00  0.00    -0.075 A 
ATOM      2  C2  N4B d   1      -0.508  -2.129   2.605  0.00  0.00     0.002 A 
ATOM      3  C3  N4B d   1       0.530  -1.264   2.850  0.00  0.00     0.002 A 
ATOM      4  C4  N4B d   1       0.416  -0.325   3.864  0.00  0.00    -0.004 A 
ATOM      5  C5  N4B d   1      -0.705  -0.294   4.641  0.00  0.00     0.002 A 
ATOM      6  C6  N4B d   1      -1.754  -1.161   4.410  0.00  0.00     0.002 A 
ENDROOT
BRANCH   1   7
ATOM      7  C1' N4B d   1      -2.871  -2.942   3.114  0.00  0.00     0.057 C 
BRANCH   7   8
ATOM      8  C2' N4B d   1      -2.667  -3.653   1.780  0.00  0.00     0.009 C 
BRANCH   8   9
ATOM      9  C3' N4B d   1      -3.974  -4.174   1.208  0.00  0.00     0.004 C 
ATOM     10  C4' N4B d   1      -3.771  -5.223   0.156  0.00  0.00     0.003 C 
ENDBRANCH   8   9
ENDBRANCH   7   8
ENDBRANCH   1   7
TORSDOF 3
ENDMDL
