MODEL 1
REMARK minimizedAffinity 10.4950914
REMARK minimizedRMSD -1
REMARK  3 active torsions:
REMARK  status: ('A' for Active; 'I' for Inactive)
REMARK    1  A    between atoms: C3'_2  and  C2'_3 
REMARK    2  A    between atoms: C2'_3  and  C1'_4 
REMARK    3  A    between atoms: C1'_4  and  C1_5 
ROOT
ATOM      1  C1  N4B d   1      -4.740  -4.005   1.136  0.00  0.00    -0.075 A 
ATOM      2  C2  N4B d   1      -3.438  -3.557   0.822  0.00  0.00     0.002 A 
ATOM      3  C3  N4B d   1      -2.632  -4.307   0.001  0.00  0.00     0.002 A 
ATOM      4  C4  N4B d   1      -3.098  -5.514  -0.500  0.00  0.00    -0.004 A 
ATOM      5  C5  N4B d   1      -4.366  -5.927  -0.212  0.00  0.00     0.002 A 
ATOM      6  C6  N4B d   1      -5.188  -5.181   0.608  0.00  0.00     0.002 A 
ENDROOT
BRANCH   1   7
ATOM      7  C1' N4B d   1      -5.626  -3.261   2.097  0.00  0.00     0.057 C 
BRANCH   7   8
ATOM      8  C2' N4B d   1      -5.232  -1.787   2.103  0.00  0.00     0.009 C 
BRANCH   8   9
ATOM      9  C3' N4B d   1      -5.999  -0.990   1.062  0.00  0.00     0.004 C 
ATOM     10  C4' N4B d   1      -5.990   0.485   1.337  0.00  0.00     0.003 C 
ENDBRANCH   8   9
ENDBRANCH   7   8
ENDBRANCH   1   7
TORSDOF 3
ENDMDL
