MODEL 1
REMARK minimizedAffinity 6.04383802
REMARK minimizedRMSD -1
REMARK  3 active torsions:
REMARK  status: ('A' for Active; 'I' for Inactive)
REMARK    1  A    between atoms: C3'_2  and  C2'_3 
REMARK    2  A    between atoms: C2'_3  and  C1'_4 
REMARK    3  A    between atoms: C1'_4  and  C1_5 
ROOT
ATOM      1  C1  N4B d   1       1.913  -3.824  -5.015  0.00  0.00    -0.075 A 
ATOM      2  C2  N4B d   1       1.558  -4.773  -5.999  0.00  0.00     0.002 A 
ATOM      3  C3  N4B d   1       0.767  -5.845  -5.666  0.00  0.00     0.002 A 
ATOM      4  C4  N4B d   1       0.336  -5.998  -4.357  0.00  0.00    -0.004 A 
ATOM      5  C5  N4B d   1       0.662  -5.064  -3.418  0.00  0.00     0.002 A 
ATOM      6  C6  N4B d   1       1.454  -3.980  -3.739  0.00  0.00     0.002 A 
ENDROOT
BRANCH   1   7
ATOM      7  C1' N4B d   1       2.847  -2.683  -5.313  0.00  0.00     0.057 C 
BRANCH   7   8
ATOM      8  C2' N4B d   1       3.495  -2.215  -4.013  0.00  0.00     0.009 C 
BRANCH   8   9
ATOM      9  C3' N4B d   1       3.844  -0.737  -4.052  0.00  0.00     0.004 C 
ATOM     10  C4' N4B d   1       4.543  -0.272  -2.810  0.00  0.00     0.003 C 
ENDBRANCH   8   9
ENDBRANCH   7   8
ENDBRANCH   1   7
TORSDOF 3
ENDMDL
