MODEL 1
REMARK minimizedAffinity 10.3687658
REMARK minimizedRMSD -1
REMARK  3 active torsions:
REMARK  status: ('A' for Active; 'I' for Inactive)
REMARK    1  A    between atoms: C3'_2  and  C2'_3 
REMARK    2  A    between atoms: C2'_3  and  C1'_4 
REMARK    3  A    between atoms: C1'_4  and  C1_5 
ROOT
ATOM      1  C1  N4B d   1      -4.359  -4.920   3.241  0.00  0.00    -0.075 A 
ATOM      2  C2  N4B d   1      -5.181  -5.984   3.674  0.00  0.00     0.002 A 
ATOM      3  C3  N4B d   1      -6.000  -5.819   4.764  0.00  0.00     0.002 A 
ATOM      4  C4  N4B d   1      -6.000  -4.611   5.445  0.00  0.00    -0.004 A 
ATOM      5  C5  N4B d   1      -5.223  -3.580   5.005  0.00  0.00     0.002 A 
ATOM      6  C6  N4B d   1      -4.398  -3.730   3.908  0.00  0.00     0.002 A 
ENDROOT
BRANCH   1   7
ATOM      7  C1' N4B d   1      -3.385  -5.081   2.106  0.00  0.00     0.057 C 
BRANCH   7   8
ATOM      8  C2' N4B d   1      -4.042  -4.615   0.811  0.00  0.00     0.009 C 
BRANCH   8   9
ATOM      9  C3' N4B d   1      -3.563  -5.415  -0.389  0.00  0.00     0.004 C 
ATOM     10  C4' N4B d   1      -4.668  -5.739  -1.350  0.00  0.00     0.003 C 
ENDBRANCH   8   9
ENDBRANCH   7   8
ENDBRANCH   1   7
TORSDOF 3
ENDMDL
