MODEL 1
REMARK minimizedAffinity 15.7783718
REMARK minimizedRMSD -1
REMARK  3 active torsions:
REMARK  status: ('A' for Active; 'I' for Inactive)
REMARK    1  A    between atoms: C3'_2  and  C2'_3 
REMARK    2  A    between atoms: C2'_3  and  C1'_4 
REMARK    3  A    between atoms: C1'_4  and  C1_5 
ROOT
ATOM      1  C1  N4B d   1      -0.354  -0.653   3.396  0.00  0.00    -0.075 A 
ATOM      2  C2  N4B d   1       0.553  -0.591   4.477  0.00  0.00     0.002 A 
ATOM      3  C3  N4B d   1       0.082  -0.560   5.767  0.00  0.00     0.002 A 
ATOM      4  C4  N4B d   1      -1.285  -0.569   5.999  0.00  0.00    -0.004 A 
ATOM      5  C5  N4B d   1      -2.154  -0.654   4.951  0.00  0.00     0.002 A 
ATOM      6  C6  N4B d   1      -1.695  -0.691   3.649  0.00  0.00     0.002 A 
ENDROOT
BRANCH   1   7
ATOM      7  C1' N4B d   1       0.110  -0.602   1.966  0.00  0.00     0.057 C 
BRANCH   7   8
ATOM      8  C2' N4B d   1       0.240  -2.026   1.432  0.00  0.00     0.009 C 
BRANCH   8   9
ATOM      9  C3' N4B d   1      -1.068  -2.538   0.854  0.00  0.00     0.004 C 
ATOM     10  C4' N4B d   1      -1.058  -2.597  -0.644  0.00  0.00     0.003 C 
ENDBRANCH   8   9
ENDBRANCH   7   8
ENDBRANCH   1   7
TORSDOF 3
ENDMDL
