MODEL 1
REMARK minimizedAffinity 12.3347435
REMARK minimizedRMSD -1
REMARK  3 active torsions:
REMARK  status: ('A' for Active; 'I' for Inactive)
REMARK    1  A    between atoms: C3'_2  and  C2'_3 
REMARK    2  A    between atoms: C2'_3  and  C1'_4 
REMARK    3  A    between atoms: C1'_4  and  C1_5 
ROOT
ATOM      1  C1  N4B d   1       0.756  -0.405   1.457  0.00  0.00    -0.075 A 
ATOM      2  C2  N4B d   1      -0.103  -0.204   2.560  0.00  0.00     0.002 A 
ATOM      3  C3  N4B d   1      -0.816  -1.259   3.076  0.00  0.00     0.002 A 
ATOM      4  C4  N4B d   1      -0.702  -2.513   2.496  0.00  0.00    -0.004 A 
ATOM      5  C5  N4B d   1       0.149  -2.704   1.447  0.00  0.00     0.002 A 
ATOM      6  C6  N4B d   1       0.875  -1.655   0.921  0.00  0.00     0.002 A 
ENDROOT
BRANCH   1   7
ATOM      7  C1' N4B d   1       1.490   0.734   0.805  0.00  0.00     0.057 C 
BRANCH   7   8
ATOM      8  C2' N4B d   1       0.495   1.594   0.031  0.00  0.00     0.009 C 
BRANCH   8   9
ATOM      9  C3' N4B d   1       1.190   2.543  -0.930  0.00  0.00     0.004 C 
ATOM     10  C4' N4B d   1       1.507   3.870  -0.308  0.00  0.00     0.003 C 
ENDBRANCH   8   9
ENDBRANCH   7   8
ENDBRANCH   1   7
TORSDOF 3
ENDMDL
