MODEL 1
REMARK minimizedAffinity 16.9323635
REMARK minimizedRMSD -1
REMARK  3 active torsions:
REMARK  status: ('A' for Active; 'I' for Inactive)
REMARK    1  A    between atoms: C3'_2  and  C2'_3 
REMARK    2  A    between atoms: C2'_3  and  C1'_4 
REMARK    3  A    between atoms: C1'_4  and  C1_5 
ROOT
ATOM      1  C1  N4B d   1       1.152  -1.379   1.864  0.00  0.00    -0.075 A 
ATOM      2  C2  N4B d   1       0.953  -0.474   2.931  0.00  0.00     0.002 A 
ATOM      3  C3  N4B d   1       1.951   0.401   3.283  0.00  0.00     0.002 A 
ATOM      4  C4  N4B d   1       3.157   0.377   2.599  0.00  0.00    -0.004 A 
ATOM      5  C5  N4B d   1       3.332  -0.482   1.554  0.00  0.00     0.002 A 
ATOM      6  C6  N4B d   1       2.336  -1.365   1.186  0.00  0.00     0.002 A 
ENDROOT
BRANCH   1   7
ATOM      7  C1' N4B d   1       0.122  -2.413   1.498  0.00  0.00     0.057 C 
BRANCH   7   8
ATOM      8  C2' N4B d   1       0.755  -3.799   1.576  0.00  0.00     0.009 C 
BRANCH   8   9
ATOM      9  C3' N4B d   1       0.391  -4.518   2.864  0.00  0.00     0.004 C 
ATOM     10  C4' N4B d   1       0.994  -5.888   2.955  0.00  0.00     0.003 C 
ENDBRANCH   8   9
ENDBRANCH   7   8
ENDBRANCH   1   7
TORSDOF 3
ENDMDL
