MODEL 1
REMARK minimizedAffinity 7.92486
REMARK minimizedRMSD -1
REMARK  3 active torsions:
REMARK  status: ('A' for Active; 'I' for Inactive)
REMARK    1  A    between atoms: C3'_2  and  C2'_3 
REMARK    2  A    between atoms: C2'_3  and  C1'_4 
REMARK    3  A    between atoms: C1'_4  and  C1_5 
ROOT
ATOM      1  C1  N4B d   1       1.224  -1.596   2.579  0.00  0.00    -0.075 A 
ATOM      2  C2  N4B d   1       1.094  -1.137   3.909  0.00  0.00     0.002 A 
ATOM      3  C3  N4B d   1       2.082  -0.364   4.468  0.00  0.00     0.002 A 
ATOM      4  C4  N4B d   1       3.212  -0.054   3.726  0.00  0.00    -0.004 A 
ATOM      5  C5  N4B d   1       3.318  -0.480   2.434  0.00  0.00     0.002 A 
ATOM      6  C6  N4B d   1       2.331  -1.254   1.858  0.00  0.00     0.002 A 
ENDROOT
BRANCH   1   7
ATOM      7  C1' N4B d   1       0.210  -2.515   1.954  0.00  0.00     0.057 C 
BRANCH   7   8
ATOM      8  C2' N4B d   1       0.859  -3.259   0.791  0.00  0.00     0.009 C 
BRANCH   8   9
ATOM      9  C3' N4B d   1       1.460  -4.584   1.228  0.00  0.00     0.004 C 
ATOM     10  C4' N4B d   1       0.781  -5.159   2.436  0.00  0.00     0.003 C 
ENDBRANCH   8   9
ENDBRANCH   7   8
ENDBRANCH   1   7
TORSDOF 3
ENDMDL
