MODEL 1
REMARK minimizedAffinity 13.7749634
REMARK minimizedRMSD -1
REMARK  3 active torsions:
REMARK  status: ('A' for Active; 'I' for Inactive)
REMARK    1  A    between atoms: C3'_2  and  C2'_3 
REMARK    2  A    between atoms: C2'_3  and  C1'_4 
REMARK    3  A    between atoms: C1'_4  and  C1_5 
ROOT
ATOM      1  C1  N4B d   1      -1.673   3.699  -3.362  0.00  0.00    -0.075 A 
ATOM      2  C2  N4B d   1      -1.484   5.065  -3.059  0.00  0.00     0.002 A 
ATOM      3  C3  N4B d   1      -1.497   5.999  -4.066  0.00  0.00     0.002 A 
ATOM      4  C4  N4B d   1      -1.678   5.591  -5.378  0.00  0.00    -0.004 A 
ATOM      5  C5  N4B d   1      -1.886   4.273  -5.660  0.00  0.00     0.002 A 
ATOM      6  C6  N4B d   1      -1.879   3.323  -4.658  0.00  0.00     0.002 A 
ENDROOT
BRANCH   1   7
ATOM      7  C1' N4B d   1      -1.581   2.631  -2.307  0.00  0.00     0.057 C 
BRANCH   7   8
ATOM      8  C2' N4B d   1      -0.112   2.323  -2.032  0.00  0.00     0.009 C 
BRANCH   8   9
ATOM      9  C3' N4B d   1       0.261   2.578  -0.582  0.00  0.00     0.004 C 
ATOM     10  C4' N4B d   1       1.192   3.741  -0.418  0.00  0.00     0.003 C 
ENDBRANCH   8   9
ENDBRANCH   7   8
ENDBRANCH   1   7
TORSDOF 3
ENDMDL
