MODEL 1
REMARK minimizedAffinity 17.5299606
REMARK minimizedRMSD -1
REMARK  3 active torsions:
REMARK  status: ('A' for Active; 'I' for Inactive)
REMARK    1  A    between atoms: C3'_2  and  C2'_3 
REMARK    2  A    between atoms: C2'_3  and  C1'_4 
REMARK    3  A    between atoms: C1'_4  and  C1_5 
ROOT
ATOM      1  C1  N4B d   1      -2.864   3.622  -2.387  0.00  0.00    -0.075 A 
ATOM      2  C2  N4B d   1      -4.025   3.041  -1.831  0.00  0.00     0.002 A 
ATOM      3  C3  N4B d   1      -4.942   3.829  -1.179  0.00  0.00     0.002 A 
ATOM      4  C4  N4B d   1      -4.711   5.190  -1.054  0.00  0.00    -0.004 A 
ATOM      5  C5  N4B d   1      -3.600   5.748  -1.616  0.00  0.00     0.002 A 
ATOM      6  C6  N4B d   1      -2.672   4.969  -2.278  0.00  0.00     0.002 A 
ENDROOT
BRANCH   1   7
ATOM      7  C1' N4B d   1      -1.791   2.789  -3.034  0.00  0.00     0.057 C 
BRANCH   7   8
ATOM      8  C2' N4B d   1      -1.023   2.034  -1.953  0.00  0.00     0.009 C 
BRANCH   8   9
ATOM      9  C3' N4B d   1       0.320   2.678  -1.655  0.00  0.00     0.004 C 
ATOM     10  C4' N4B d   1       0.818   2.371  -0.274  0.00  0.00     0.003 C 
ENDBRANCH   8   9
ENDBRANCH   7   8
ENDBRANCH   1   7
TORSDOF 3
ENDMDL
