MODEL 1
REMARK minimizedAffinity 8.45006084
REMARK minimizedRMSD -1
REMARK  0 active torsions:
REMARK  status: ('A' for Active; 'I' for Inactive)
ROOT
ATOM      1  N1  IND d   1       0.271   1.115  -1.242  0.00  0.00    -0.196 N 
ATOM      2  C2  IND d   1       0.317   2.366  -1.791  0.00  0.00     0.054 A 
ATOM      3  C3  IND d   1       1.486   2.551  -2.444  0.00  0.00    -0.031 A 
ATOM      4  C4  IND d   1       3.425   0.900  -2.824  0.00  0.00     0.051 A 
ATOM      5  C5  IND d   1       3.857  -0.351  -2.484  0.00  0.00    -0.031 A 
ATOM      6  C6  IND d   1       3.100  -1.195  -1.698  0.00  0.00     0.015 A 
ATOM      7  C7  IND d   1       1.871  -0.823  -1.232  0.00  0.00    -0.016 A 
ATOM      8  C8  IND d   1       1.432   0.450  -1.569  0.00  0.00    -0.047 A 
ATOM      9  C9  IND d   1       2.215   1.327  -2.331  0.00  0.00    -0.096 A 
ATOM     10  HN1 IND d   1      -0.375   0.797  -0.771  0.00  0.00     0.298 HD
ENDROOT
TORSDOF 0
ENDMDL
