MODEL 1
REMARK minimizedAffinity 12.8167982
REMARK minimizedRMSD -1
REMARK  0 active torsions:
REMARK  status: ('A' for Active; 'I' for Inactive)
ROOT
ATOM      1  N1  IND d   1       0.119  -3.483   0.731  0.00  0.00    -0.196 N 
ATOM      2  C2  IND d   1       1.086  -4.032   1.526  0.00  0.00     0.054 A 
ATOM      3  C3  IND d   1       2.307  -3.582   1.161  0.00  0.00    -0.031 A 
ATOM      4  C4  IND d   1       2.943  -1.863  -0.647  0.00  0.00     0.051 A 
ATOM      5  C5  IND d   1       2.408  -1.112  -1.656  0.00  0.00    -0.031 A 
ATOM      6  C6  IND d   1       1.054  -1.112  -1.924  0.00  0.00     0.015 A 
ATOM      7  C7  IND d   1       0.181  -1.856  -1.184  0.00  0.00    -0.016 A 
ATOM      8  C8  IND d   1       0.722  -2.625  -0.163  0.00  0.00    -0.047 A 
ATOM      9  C9  IND d   1       2.099  -2.662   0.088  0.00  0.00    -0.096 A 
ATOM     10  HN1 IND d   1      -0.724  -3.646   0.780  0.00  0.00     0.298 HD
ENDROOT
TORSDOF 0
ENDMDL
