MODEL 1
REMARK minimizedAffinity 3.899014
REMARK minimizedRMSD -1
REMARK  0 active torsions:
REMARK  status: ('A' for Active; 'I' for Inactive)
ROOT
ATOM      1  N1  IND d   1      -3.424  -0.056   2.838  0.00  0.00    -0.196 N 
ATOM      2  C2  IND d   1      -2.830  -1.187   3.324  0.00  0.00     0.054 A 
ATOM      3  C3  IND d   1      -3.322  -1.489   4.547  0.00  0.00    -0.031 A 
ATOM      4  C4  IND d   1      -5.180  -0.322   5.894  0.00  0.00     0.051 A 
ATOM      5  C5  IND d   1      -5.996   0.774   5.878  0.00  0.00    -0.031 A 
ATOM      6  C6  IND d   1      -5.999   1.666   4.825  0.00  0.00     0.015 A 
ATOM      7  C7  IND d   1      -5.189   1.488   3.739  0.00  0.00    -0.016 A 
ATOM      8  C8  IND d   1      -4.354   0.380   3.755  0.00  0.00    -0.047 A 
ATOM      9  C9  IND d   1      -4.317  -0.506   4.840  0.00  0.00    -0.096 A 
ATOM     10  HN1 IND d   1      -3.246   0.319   2.085  0.00  0.00     0.298 HD
ENDROOT
TORSDOF 0
ENDMDL
