MODEL 1
REMARK minimizedAffinity 7.42798424
REMARK minimizedRMSD -1
REMARK  0 active torsions:
REMARK  status: ('A' for Active; 'I' for Inactive)
ROOT
ATOM      1  N1  IND d   1       1.065   0.064  -0.443  0.00  0.00    -0.196 N 
ATOM      2  C2  IND d   1       1.770  -1.071  -0.729  0.00  0.00     0.054 A 
ATOM      3  C3  IND d   1       2.382  -0.955  -1.929  0.00  0.00    -0.031 A 
ATOM      4  C4  IND d   1       2.446   1.048  -3.545  0.00  0.00     0.051 A 
ATOM      5  C5  IND d   1       1.923   2.296  -3.735  0.00  0.00    -0.031 A 
ATOM      6  C6  IND d   1       1.073   2.877  -2.817  0.00  0.00     0.015 A 
ATOM      7  C7  IND d   1       0.720   2.233  -1.665  0.00  0.00    -0.016 A 
ATOM      8  C8  IND d   1       1.244   0.962  -1.472  0.00  0.00    -0.047 A 
ATOM      9  C9  IND d   1       2.074   0.350  -2.420  0.00  0.00    -0.096 A 
ATOM     10  HN1 IND d   1       0.589   0.196   0.261  0.00  0.00     0.298 HD
ENDROOT
TORSDOF 0
ENDMDL
