MODEL 1
REMARK minimizedAffinity 4.66200256
REMARK minimizedRMSD -1
REMARK  0 active torsions:
REMARK  status: ('A' for Active; 'I' for Inactive)
ROOT
ATOM      1  N1  IND d   1       0.926  -2.944  -2.165  0.00  0.00    -0.196 N 
ATOM      2  C2  IND d   1       0.785  -3.432  -3.434  0.00  0.00     0.054 A 
ATOM      3  C3  IND d   1       0.743  -2.417  -4.326  0.00  0.00    -0.031 A 
ATOM      4  C4  IND d   1       0.990   0.116  -3.935  0.00  0.00     0.051 A 
ATOM      5  C5  IND d   1       1.101   1.046  -2.940  0.00  0.00    -0.031 A 
ATOM      6  C6  IND d   1       1.164   0.687  -1.609  0.00  0.00     0.015 A 
ATOM      7  C7  IND d   1       1.128  -0.623  -1.223  0.00  0.00    -0.016 A 
ATOM      8  C8  IND d   1       1.008  -1.570  -2.230  0.00  0.00    -0.047 A 
ATOM      9  C9  IND d   1       0.902  -1.210  -3.579  0.00  0.00    -0.096 A 
ATOM     10  HN1 IND d   1       0.957  -3.416  -1.447  0.00  0.00     0.298 HD
ENDROOT
TORSDOF 0
ENDMDL
