MODEL 1
REMARK minimizedAffinity 2.40699697
REMARK minimizedRMSD -1
REMARK  0 active torsions:
REMARK  status: ('A' for Active; 'I' for Inactive)
ROOT
ATOM      1  N1  IND d   1      -0.862  -0.223   3.903  0.00  0.00    -0.196 N 
ATOM      2  C2  IND d   1      -0.643  -1.211   2.984  0.00  0.00     0.054 A 
ATOM      3  C3  IND d   1      -1.818  -1.682   2.511  0.00  0.00    -0.031 A 
ATOM      4  C4  IND d   1      -4.218  -0.908   3.029  0.00  0.00     0.051 A 
ATOM      5  C5  IND d   1      -4.926  -0.059   3.833  0.00  0.00    -0.031 A 
ATOM      6  C6  IND d   1      -4.303   0.797   4.717  0.00  0.00     0.015 A 
ATOM      7  C7  IND d   1      -2.942   0.846   4.822  0.00  0.00    -0.016 A 
ATOM      8  C8  IND d   1      -2.220  -0.020   4.013  0.00  0.00    -0.047 A 
ATOM      9  C9  IND d   1      -2.848  -0.921   3.144  0.00  0.00    -0.096 A 
ATOM     10  HN1 IND d   1      -0.253   0.201   4.338  0.00  0.00     0.298 HD
ENDROOT
TORSDOF 0
ENDMDL
