MODEL 1
REMARK minimizedAffinity 6.18588305
REMARK minimizedRMSD -1
REMARK  0 active torsions:
REMARK  status: ('A' for Active; 'I' for Inactive)
ROOT
ATOM      1  N1  IND d   1       1.217  -0.497  -3.269  0.00  0.00    -0.196 N 
ATOM      2  C2  IND d   1       1.965   0.644  -3.185  0.00  0.00     0.054 A 
ATOM      3  C3  IND d   1       2.817   0.571  -2.137  0.00  0.00    -0.031 A 
ATOM      4  C4  IND d   1       3.223  -1.366  -0.491  0.00  0.00     0.051 A 
ATOM      5  C5  IND d   1       2.754  -2.602  -0.145  0.00  0.00    -0.031 A 
ATOM      6  C6  IND d   1       1.729  -3.214  -0.839  0.00  0.00     0.015 A 
ATOM      7  C7  IND d   1       1.141  -2.613  -1.916  0.00  0.00    -0.016 A 
ATOM      8  C8  IND d   1       1.610  -1.355  -2.266  0.00  0.00    -0.047 A 
ATOM      9  C9  IND d   1       2.620  -0.712  -1.539  0.00  0.00    -0.096 A 
ATOM     10  HN1 IND d   1       0.603  -0.653  -3.851  0.00  0.00     0.298 HD
ENDROOT
TORSDOF 0
ENDMDL
