MODEL 1
REMARK minimizedAffinity 4.78024149
REMARK minimizedRMSD -1
REMARK  0 active torsions:
REMARK  status: ('A' for Active; 'I' for Inactive)
ROOT
ATOM      1  N1  IND d   1       1.117   1.561  -4.661  0.00  0.00    -0.196 N 
ATOM      2  C2  IND d   1       1.325   1.251  -3.346  0.00  0.00     0.054 A 
ATOM      3  C3  IND d   1       1.784   2.331  -2.674  0.00  0.00    -0.031 A 
ATOM      4  C4  IND d   1       2.171   4.734  -3.512  0.00  0.00     0.051 A 
ATOM      5  C5  IND d   1       2.156   5.494  -4.647  0.00  0.00    -0.031 A 
ATOM      6  C6  IND d   1       1.783   4.973  -5.869  0.00  0.00     0.015 A 
ATOM      7  C7  IND d   1       1.399   3.668  -6.000  0.00  0.00    -0.016 A 
ATOM      8  C8  IND d   1       1.420   2.891  -4.850  0.00  0.00    -0.047 A 
ATOM      9  C9  IND d   1       1.839   3.404  -3.616  0.00  0.00    -0.096 A 
ATOM     10  HN1 IND d   1       0.842   1.017  -5.267  0.00  0.00     0.298 HD
ENDROOT
TORSDOF 0
ENDMDL
