MODEL 1
REMARK minimizedAffinity -1.91962039
REMARK minimizedRMSD -1
REMARK  0 active torsions:
REMARK  status: ('A' for Active; 'I' for Inactive)
ROOT
ATOM      1  N1  IND d   1      -0.321   0.949  -0.944  0.00  0.00    -0.196 N 
ATOM      2  C2  IND d   1      -0.774  -0.196  -0.351  0.00  0.00     0.054 A 
ATOM      3  C3  IND d   1       0.111  -1.202  -0.533  0.00  0.00    -0.031 A 
ATOM      4  C4  IND d   1       2.415  -1.165  -1.682  0.00  0.00     0.051 A 
ATOM      5  C5  IND d   1       3.245  -0.356  -2.405  0.00  0.00    -0.031 A 
ATOM      6  C6  IND d   1       2.924   0.958  -2.681  0.00  0.00     0.015 A 
ATOM      7  C7  IND d   1       1.760   1.516  -2.233  0.00  0.00    -0.016 A 
ATOM      8  C8  IND d   1       0.912   0.695  -1.504  0.00  0.00    -0.047 A 
ATOM      9  C9  IND d   1       1.212  -0.651  -1.257  0.00  0.00    -0.096 A 
ATOM     10  HN1 IND d   1      -0.736   1.702  -0.963  0.00  0.00     0.298 HD
ENDROOT
TORSDOF 0
ENDMDL
