MODEL 1
REMARK minimizedAffinity 6.10548449
REMARK minimizedRMSD -1
REMARK  0 active torsions:
REMARK  status: ('A' for Active; 'I' for Inactive)
ROOT
ATOM      1  N1  IND d   1       0.271  -1.643  -3.778  0.00  0.00    -0.196 N 
ATOM      2  C2  IND d   1       0.396  -2.748  -2.983  0.00  0.00     0.054 A 
ATOM      3  C3  IND d   1       1.281  -2.514  -1.989  0.00  0.00    -0.031 A 
ATOM      4  C4  IND d   1       2.565  -0.358  -1.416  0.00  0.00     0.051 A 
ATOM      5  C5  IND d   1       2.806   0.907  -1.875  0.00  0.00    -0.031 A 
ATOM      6  C6  IND d   1       2.199   1.397  -3.013  0.00  0.00     0.015 A 
ATOM      7  C7  IND d   1       1.316   0.641  -3.732  0.00  0.00    -0.016 A 
ATOM      8  C8  IND d   1       1.075  -0.646  -3.273  0.00  0.00    -0.047 A 
ATOM      9  C9  IND d   1       1.721  -1.164  -2.142  0.00  0.00    -0.096 A 
ATOM     10  HN1 IND d   1      -0.227  -1.581  -4.476  0.00  0.00     0.298 HD
ENDROOT
TORSDOF 0
ENDMDL
