MODEL 1
REMARK minimizedAffinity -1.62933803
REMARK minimizedRMSD -1
REMARK  0 active torsions:
REMARK  status: ('A' for Active; 'I' for Inactive)
ROOT
ATOM      1  N1  IND d   1       0.741   1.865  -2.950  0.00  0.00    -0.196 N 
ATOM      2  C2  IND d   1       2.059   1.736  -3.287  0.00  0.00     0.054 A 
ATOM      3  C3  IND d   1       2.837   1.819  -2.184  0.00  0.00    -0.031 A 
ATOM      4  C4  IND d   1       2.152   2.065   0.286  0.00  0.00     0.051 A 
ATOM      5  C5  IND d   1       1.062   2.259   1.087  0.00  0.00    -0.031 A 
ATOM      6  C6  IND d   1      -0.217   2.330   0.574  0.00  0.00     0.015 A 
ATOM      7  C7  IND d   1      -0.456   2.198  -0.765  0.00  0.00    -0.016 A 
ATOM      8  C8  IND d   1       0.649   2.008  -1.582  0.00  0.00    -0.047 A 
ATOM      9  C9  IND d   1       1.954   1.978  -1.072  0.00  0.00    -0.096 A 
ATOM     10  HN1 IND d   1       0.079   1.858  -3.499  0.00  0.00     0.298 HD
ENDROOT
TORSDOF 0
ENDMDL
