MODEL 1
REMARK minimizedAffinity 6.54852819
REMARK minimizedRMSD -1
REMARK  0 active torsions:
REMARK  status: ('A' for Active; 'I' for Inactive)
ROOT
ATOM      1  N1  IND d   1       0.392   1.101  -2.709  0.00  0.00    -0.196 N 
ATOM      2  C2  IND d   1       1.728   0.813  -2.733  0.00  0.00     0.054 A 
ATOM      3  C3  IND d   1       2.296   1.116  -1.544  0.00  0.00    -0.031 A 
ATOM      4  C4  IND d   1       1.203   1.996   0.613  0.00  0.00     0.051 A 
ATOM      5  C5  IND d   1       0.012   2.445   1.112  0.00  0.00    -0.031 A 
ATOM      6  C6  IND d   1      -1.137   2.467   0.348  0.00  0.00     0.015 A 
ATOM      7  C7  IND d   1      -1.140   2.027  -0.946  0.00  0.00    -0.016 A 
ATOM      8  C8  IND d   1       0.069   1.578  -1.458  0.00  0.00    -0.047 A 
ATOM      9  C9  IND d   1       1.247   1.593  -0.700  0.00  0.00    -0.096 A 
ATOM     10  HN1 IND d   1      -0.155   1.000  -3.365  0.00  0.00     0.298 HD
ENDROOT
TORSDOF 0
ENDMDL
