MODEL 1
REMARK minimizedAffinity 7.22278214
REMARK minimizedRMSD -1
REMARK  0 active torsions:
REMARK  status: ('A' for Active; 'I' for Inactive)
ROOT
ATOM      1  N1  IND d   1       0.316   2.072  -2.392  0.00  0.00    -0.196 N 
ATOM      2  C2  IND d   1       1.501   2.582  -2.845  0.00  0.00     0.054 A 
ATOM      3  C3  IND d   1       2.498   1.687  -2.664  0.00  0.00    -0.031 A 
ATOM      4  C4  IND d   1       2.394  -0.713  -1.739  0.00  0.00     0.051 A 
ATOM      5  C5  IND d   1       1.538  -1.610  -1.163  0.00  0.00    -0.031 A 
ATOM      6  C6  IND d   1       0.203  -1.320  -0.967  0.00  0.00     0.015 A 
ATOM      7  C7  IND d   1      -0.330  -0.122  -1.350  0.00  0.00    -0.016 A 
ATOM      8  C8  IND d   1       0.538   0.793  -1.928  0.00  0.00    -0.047 A 
ATOM      9  C9  IND d   1       1.902   0.521  -2.092  0.00  0.00    -0.096 A 
ATOM     10  HN1 IND d   1      -0.440   2.480  -2.396  0.00  0.00     0.298 HD
ENDROOT
TORSDOF 0
ENDMDL
