MODEL 1
REMARK minimizedAffinity 4.25129032
REMARK minimizedRMSD -1
REMARK  0 active torsions:
REMARK  status: ('A' for Active; 'I' for Inactive)
ROOT
ATOM      1  N1  IND d   1       0.323   1.987  -1.720  0.00  0.00    -0.196 N 
ATOM      2  C2  IND d   1       0.630   3.112  -2.435  0.00  0.00     0.054 A 
ATOM      3  C3  IND d   1       1.830   2.971  -3.041  0.00  0.00    -0.031 A 
ATOM      4  C4  IND d   1       3.415   0.943  -3.080  0.00  0.00     0.051 A 
ATOM      5  C5  IND d   1       3.582  -0.304  -2.546  0.00  0.00    -0.031 A 
ATOM      6  C6  IND d   1       2.652  -0.863  -1.694  0.00  0.00     0.015 A 
ATOM      7  C7  IND d   1       1.509  -0.197  -1.352  0.00  0.00    -0.016 A 
ATOM      8  C8  IND d   1       1.339   1.072  -1.887  0.00  0.00    -0.047 A 
ATOM      9  C9  IND d   1       2.300   1.661  -2.718  0.00  0.00    -0.096 A 
ATOM     10  HN1 IND d   1      -0.385   1.872  -1.247  0.00  0.00     0.298 HD
ENDROOT
TORSDOF 0
ENDMDL
