MODEL 1
REMARK minimizedAffinity 9.40766621
REMARK minimizedRMSD -1
REMARK  0 active torsions:
REMARK  status: ('A' for Active; 'I' for Inactive)
ROOT
ATOM      1  N1  IND d   1       1.106   0.097  -1.964  0.00  0.00    -0.196 N 
ATOM      2  C2  IND d   1       2.391   0.485  -1.701  0.00  0.00     0.054 A 
ATOM      3  C3  IND d   1       2.992  -0.403  -0.878  0.00  0.00    -0.031 A 
ATOM      4  C4  IND d   1       2.090  -2.617   0.078  0.00  0.00     0.051 A 
ATOM      5  C5  IND d   1       0.957  -3.378   0.148  0.00  0.00    -0.031 A 
ATOM      6  C6  IND d   1      -0.207  -3.014  -0.498  0.00  0.00     0.015 A 
ATOM      7  C7  IND d   1      -0.278  -1.875  -1.251  0.00  0.00    -0.016 A 
ATOM      8  C8  IND d   1       0.869  -1.097  -1.318  0.00  0.00    -0.047 A 
ATOM      9  C9  IND d   1       2.040  -1.439  -0.630  0.00  0.00    -0.096 A 
ATOM     10  HN1 IND d   1       0.542   0.525  -2.451  0.00  0.00     0.298 HD
ENDROOT
TORSDOF 0
ENDMDL
