MODEL 1
REMARK minimizedAffinity 5.80925798
REMARK minimizedRMSD -1
REMARK  1 active torsions:
REMARK  status: ('A' for Active; 'I' for Inactive)
REMARK    1  A    between atoms: C1_2  and  C2_3 
ROOT
ATOM      1  C2  UNL d   1       4.498  -5.519  -4.066  0.00  0.00    -0.073 A 
ATOM      2  C3  UNL d   1       5.796  -5.413  -3.553  0.00  0.00    -0.002 A 
ATOM      3  C4  UNL d   1       5.999  -5.130  -2.202  0.00  0.00     0.004 A 
ATOM      4  C5  UNL d   1       4.909  -4.957  -1.349  0.00  0.00    -0.004 A 
ATOM      5  C6  UNL d   1       3.604  -5.071  -1.840  0.00  0.00    -0.075 A 
ATOM      6  C7  UNL d   1       2.421  -4.886  -0.936  0.00  0.00     0.076 C 
ATOM      7  C8  UNL d   1       3.408  -5.353  -3.199  0.00  0.00     0.001 A 
ENDROOT
BRANCH   1   8
ATOM      8  C1  UNL d   1       4.274  -5.831  -5.523  0.00  0.00     0.053 C 
ATOM      9  C   UNL d   1       2.820  -5.645  -5.928  0.00  0.00     0.018 C 
ENDBRANCH   1   8
TORSDOF 1
ENDMDL
