MODEL 1
REMARK minimizedAffinity 10.6146946
REMARK minimizedRMSD -1
REMARK  1 active torsions:
REMARK  status: ('A' for Active; 'I' for Inactive)
REMARK    1  A    between atoms: C1_2  and  C2_3 
ROOT
ATOM      1  C2  UNL d   1       4.031   2.606   3.189  0.00  0.00    -0.073 A 
ATOM      2  C3  UNL d   1       5.268   2.952   2.633  0.00  0.00    -0.002 A 
ATOM      3  C4  UNL d   1       6.000   4.021   3.152  0.00  0.00     0.004 A 
ATOM      4  C5  UNL d   1       5.507   4.749   4.235  0.00  0.00    -0.004 A 
ATOM      5  C6  UNL d   1       4.279   4.411   4.812  0.00  0.00    -0.075 A 
ATOM      6  C7  UNL d   1       3.734   5.185   5.976  0.00  0.00     0.076 C 
ATOM      7  C8  UNL d   1       3.548   3.338   4.283  0.00  0.00     0.001 A 
ENDROOT
BRANCH   1   8
ATOM      8  C1  UNL d   1       3.240   1.449   2.636  0.00  0.00     0.053 C 
ATOM      9  C   UNL d   1       2.371   1.864   1.458  0.00  0.00     0.018 C 
ENDBRANCH   1   8
TORSDOF 1
ENDMDL
