MODEL 1
REMARK minimizedAffinity 3.30983782
REMARK minimizedRMSD -1
REMARK  1 active torsions:
REMARK  status: ('A' for Active; 'I' for Inactive)
REMARK    1  A    between atoms: C1_2  and  C2_3 
ROOT
ATOM      1  C2  UNL d   1      -3.175   3.502  -5.364  0.00  0.00    -0.073 A 
ATOM      2  C3  UNL d   1      -3.898   4.536  -5.969  0.00  0.00    -0.002 A 
ATOM      3  C4  UNL d   1      -5.293   4.497  -5.999  0.00  0.00     0.004 A 
ATOM      4  C5  UNL d   1      -5.978   3.430  -5.419  0.00  0.00    -0.004 A 
ATOM      5  C6  UNL d   1      -5.274   2.393  -4.799  0.00  0.00    -0.075 A 
ATOM      6  C7  UNL d   1      -5.996   1.237  -4.172  0.00  0.00     0.076 C 
ATOM      7  C8  UNL d   1      -3.873   2.437  -4.776  0.00  0.00     0.001 A 
ENDROOT
BRANCH   1   8
ATOM      8  C1  UNL d   1      -1.669   3.542  -5.324  0.00  0.00     0.053 C 
ATOM      9  C   UNL d   1      -1.137   3.532  -3.900  0.00  0.00     0.018 C 
ENDBRANCH   1   8
TORSDOF 1
ENDMDL
