MODEL 1
REMARK minimizedAffinity 10.2085266
REMARK minimizedRMSD -1
REMARK  1 active torsions:
REMARK  status: ('A' for Active; 'I' for Inactive)
REMARK    1  A    between atoms: C1_2  and  C2_3 
ROOT
ATOM      1  C2  UNL d   1       2.325   1.348   0.463  0.00  0.00    -0.073 A 
ATOM      2  C3  UNL d   1       2.567   2.567  -0.181  0.00  0.00    -0.002 A 
ATOM      3  C4  UNL d   1       3.547   2.659  -1.170  0.00  0.00     0.004 A 
ATOM      4  C5  UNL d   1       4.288   1.534  -1.531  0.00  0.00    -0.004 A 
ATOM      5  C6  UNL d   1       4.053   0.304  -0.907  0.00  0.00    -0.075 A 
ATOM      6  C7  UNL d   1       4.844  -0.915  -1.282  0.00  0.00     0.076 C 
ATOM      7  C8  UNL d   1       3.069   0.220   0.087  0.00  0.00     0.001 A 
ENDROOT
BRANCH   1   8
ATOM      8  C1  UNL d   1       1.263   1.242   1.527  0.00  0.00     0.053 C 
ATOM      9  C   UNL d   1      -0.130   1.486   0.969  0.00  0.00     0.018 C 
ENDBRANCH   1   8
TORSDOF 1
ENDMDL
