MODEL 1
REMARK minimizedAffinity 6.14130592
REMARK minimizedRMSD -1
REMARK  1 active torsions:
REMARK  status: ('A' for Active; 'I' for Inactive)
REMARK    1  A    between atoms: C1_2  and  C2_3 
ROOT
ATOM      1  C2  UNL d   1       3.427  -5.297  -5.331  0.00  0.00    -0.073 A 
ATOM      2  C3  UNL d   1       4.474  -6.000  -5.937  0.00  0.00    -0.002 A 
ATOM      3  C4  UNL d   1       5.753  -5.445  -5.997  0.00  0.00     0.004 A 
ATOM      4  C5  UNL d   1       6.000  -4.188  -5.446  0.00  0.00    -0.004 A 
ATOM      5  C6  UNL d   1       4.969  -3.475  -4.826  0.00  0.00    -0.075 A 
ATOM      6  C7  UNL d   1       5.217  -2.121  -4.230  0.00  0.00     0.076 C 
ATOM      7  C8  UNL d   1       3.686  -4.038  -4.772  0.00  0.00     0.001 A 
ENDROOT
BRANCH   1   8
ATOM      8  C1  UNL d   1       2.045  -5.895  -5.258  0.00  0.00     0.053 C 
ATOM      9  C   UNL d   1       1.519  -5.941  -3.832  0.00  0.00     0.018 C 
ENDBRANCH   1   8
TORSDOF 1
ENDMDL
