MODEL 1
REMARK minimizedAffinity -0.338540077
REMARK minimizedRMSD -1
REMARK  1 active torsions:
REMARK  status: ('A' for Active; 'I' for Inactive)
REMARK    1  A    between atoms: C1_2  and  C2_3 
ROOT
ATOM      1  C2  UNL d   1       3.258  -5.361  -4.799  0.00  0.00    -0.073 A 
ATOM      2  C3  UNL d   1       3.976  -5.940  -5.851  0.00  0.00    -0.002 A 
ATOM      3  C4  UNL d   1       5.340  -5.682  -6.000  0.00  0.00     0.004 A 
ATOM      4  C5  UNL d   1       6.000  -4.851  -5.095  0.00  0.00    -0.004 A 
ATOM      5  C6  UNL d   1       5.302  -4.273  -4.030  0.00  0.00    -0.075 A 
ATOM      6  C7  UNL d   1       5.997  -3.375  -3.049  0.00  0.00     0.076 C 
ATOM      7  C8  UNL d   1       3.933  -4.534  -3.889  0.00  0.00     0.001 A 
ENDROOT
BRANCH   1   8
ATOM      8  C1  UNL d   1       1.787  -5.641  -4.630  0.00  0.00     0.053 C 
ATOM      9  C   UNL d   1       1.118  -5.987  -5.951  0.00  0.00     0.018 C 
ENDBRANCH   1   8
TORSDOF 1
ENDMDL
