MODEL 1
REMARK minimizedAffinity 18.6690636
REMARK minimizedRMSD -1
REMARK  1 active torsions:
REMARK  status: ('A' for Active; 'I' for Inactive)
REMARK    1  A    between atoms: C1_2  and  C2_3 
ROOT
ATOM      1  C2  UNL d   1      -2.612  -4.890   2.437  0.00  0.00    -0.073 A 
ATOM      2  C3  UNL d   1      -2.237  -3.703   3.077  0.00  0.00    -0.002 A 
ATOM      3  C4  UNL d   1      -1.620  -2.679   2.358  0.00  0.00     0.004 A 
ATOM      4  C5  UNL d   1      -1.378  -2.827   0.993  0.00  0.00    -0.004 A 
ATOM      5  C6  UNL d   1      -1.756  -4.001   0.333  0.00  0.00    -0.075 A 
ATOM      6  C7  UNL d   1      -1.501  -4.177  -1.136  0.00  0.00     0.076 C 
ATOM      7  C8  UNL d   1      -2.373  -5.026   1.062  0.00  0.00     0.001 A 
ENDROOT
BRANCH   1   8
ATOM      8  C1  UNL d   1      -3.285  -5.996   3.208  0.00  0.00     0.053 C 
ATOM      9  C   UNL d   1      -4.791  -6.000   3.003  0.00  0.00     0.018 C 
ENDBRANCH   1   8
TORSDOF 1
ENDMDL
