MODEL 1
REMARK minimizedAffinity 16.0200214
REMARK minimizedRMSD -1
REMARK  1 active torsions:
REMARK  status: ('A' for Active; 'I' for Inactive)
REMARK    1  A    between atoms: C1_2  and  C2_3 
ROOT
ATOM      1  C2  UNL d   1       4.658  -4.359  -3.733  0.00  0.00    -0.073 A 
ATOM      2  C3  UNL d   1       5.776  -4.772  -4.466  0.00  0.00    -0.002 A 
ATOM      3  C4  UNL d   1       5.621  -5.585  -5.590  0.00  0.00     0.004 A 
ATOM      4  C5  UNL d   1       4.349  -5.987  -5.996  0.00  0.00    -0.004 A 
ATOM      5  C6  UNL d   1       3.218  -5.574  -5.283  0.00  0.00    -0.075 A 
ATOM      6  C7  UNL d   1       1.842  -6.000  -5.705  0.00  0.00     0.076 C 
ATOM      7  C8  UNL d   1       3.382  -4.760  -4.154  0.00  0.00     0.001 A 
ENDROOT
BRANCH   1   8
ATOM      8  C1  UNL d   1       4.819  -3.476  -2.523  0.00  0.00     0.053 C 
ATOM      9  C   UNL d   1       5.903  -2.427  -2.723  0.00  0.00     0.018 C 
ENDBRANCH   1   8
TORSDOF 1
ENDMDL
