MODEL 1
REMARK minimizedAffinity 11.7989388
REMARK minimizedRMSD -1
REMARK  1 active torsions:
REMARK  status: ('A' for Active; 'I' for Inactive)
REMARK    1  A    between atoms: C1_2  and  C2_3 
ROOT
ATOM      1  C2  UNL d   1       2.421   1.803   1.031  0.00  0.00    -0.073 A 
ATOM      2  C3  UNL d   1       2.790   2.040   2.360  0.00  0.00    -0.002 A 
ATOM      3  C4  UNL d   1       4.044   2.572   2.660  0.00  0.00     0.004 A 
ATOM      4  C5  UNL d   1       4.940   2.879   1.635  0.00  0.00    -0.004 A 
ATOM      5  C6  UNL d   1       4.585   2.660   0.300  0.00  0.00    -0.075 A 
ATOM      6  C7  UNL d   1       5.538   2.983  -0.814  0.00  0.00     0.076 C 
ATOM      7  C8  UNL d   1       3.324   2.123   0.007  0.00  0.00     0.001 A 
ENDROOT
BRANCH   1   8
ATOM      8  C1  UNL d   1       1.065   1.235   0.702  0.00  0.00     0.053 C 
ATOM      9  C   UNL d   1      -0.020   2.299   0.725  0.00  0.00     0.018 C 
ENDBRANCH   1   8
TORSDOF 1
ENDMDL
