MODEL 1
REMARK minimizedAffinity -0.669128239
REMARK minimizedRMSD -1
REMARK  0 active torsions:
REMARK  status: ('A' for Active; 'I' for Inactive)
ROOT
ATOM      1  C   UNL d   1       1.886  -0.416  -1.464  0.00  0.00     0.124 A 
ATOM      2  C1  UNL d   1       2.268  -0.793  -0.184  0.00  0.00     0.062 A 
ATOM      3  C2  UNL d   1       1.488  -0.437   0.913  0.00  0.00     0.162 A 
ATOM      4  C3  UNL d   1       0.317   0.301   0.735  0.00  0.00    -0.034 A 
ATOM      5  C4  UNL d   1      -0.060   0.677  -0.555  0.00  0.00     0.162 A 
ATOM      6  C5  UNL d   1       0.723   0.319  -1.648  0.00  0.00     0.062 A 
ATOM      7  F   UNL d   1       0.352   0.685  -2.884  0.00  0.00    -0.097 F 
ATOM      8  F1  UNL d   1      -1.179   1.387  -0.763  0.00  0.00    -0.096 F 
ATOM      9  I   UNL d   1      -0.851   0.835   2.372  0.00  0.00    -0.060 I 
ATOM     10  F2  UNL d   1       1.881  -0.815   2.138  0.00  0.00    -0.096 F 
ATOM     11  F3  UNL d   1       3.391  -1.502  -0.002  0.00  0.00    -0.097 F 
ATOM     12  F4  UNL d   1       2.638  -0.759  -2.517  0.00  0.00    -0.092 F 
ENDROOT
TORSDOF 0
ENDMDL
