MODEL 1
REMARK minimizedAffinity -1.57174206
REMARK minimizedRMSD -1
REMARK  0 active torsions:
REMARK  status: ('A' for Active; 'I' for Inactive)
ROOT
ATOM      1  C   UNL d   1      -1.162   0.884   2.534  0.00  0.00     0.124 A 
ATOM      2  C1  UNL d   1      -1.970   0.129   1.695  0.00  0.00     0.062 A 
ATOM      3  C2  UNL d   1      -1.565  -0.144   0.392  0.00  0.00     0.162 A 
ATOM      4  C3  UNL d   1      -0.344   0.338  -0.082  0.00  0.00    -0.034 A 
ATOM      5  C4  UNL d   1       0.463   1.098   0.767  0.00  0.00     0.162 A 
ATOM      6  C5  UNL d   1       0.054   1.368   2.069  0.00  0.00     0.062 A 
ATOM      7  F   UNL d   1       0.836   2.097   2.878  0.00  0.00    -0.097 F 
ATOM      8  F1  UNL d   1       1.642   1.576   0.345  0.00  0.00    -0.096 F 
ATOM      9  I   UNL d   1       0.265  -0.068  -2.030  0.00  0.00    -0.060 I 
ATOM     10  F2  UNL d   1      -2.366  -0.876  -0.397  0.00  0.00    -0.096 F 
ATOM     11  F3  UNL d   1      -3.145  -0.338   2.141  0.00  0.00    -0.097 F 
ATOM     12  F4  UNL d   1      -1.554   1.146   3.787  0.00  0.00    -0.092 F 
ENDROOT
TORSDOF 0
ENDMDL
