MODEL 1
REMARK minimizedAffinity -1.48504686
REMARK minimizedRMSD -1
REMARK  0 active torsions:
REMARK  status: ('A' for Active; 'I' for Inactive)
ROOT
ATOM      1  C   UNL d   1      -0.404   0.626   2.366  0.00  0.00     0.124 A 
ATOM      2  C1  UNL d   1      -1.560   0.359   1.647  0.00  0.00     0.062 A 
ATOM      3  C2  UNL d   1      -1.480  -0.041   0.316  0.00  0.00     0.162 A 
ATOM      4  C3  UNL d   1      -0.238  -0.177  -0.304  0.00  0.00    -0.034 A 
ATOM      5  C4  UNL d   1       0.920   0.094   0.426  0.00  0.00     0.162 A 
ATOM      6  C5  UNL d   1       0.835   0.493   1.756  0.00  0.00     0.062 A 
ATOM      7  F   UNL d   1       1.953   0.750   2.449  0.00  0.00    -0.097 F 
ATOM      8  F1  UNL d   1       2.131  -0.028  -0.140  0.00  0.00    -0.096 F 
ATOM      9  I   UNL d   1      -0.114  -0.775  -2.294  0.00  0.00    -0.060 I 
ATOM     10  F2  UNL d   1      -2.614  -0.292  -0.355  0.00  0.00    -0.096 F 
ATOM     11  F3  UNL d   1      -2.759   0.488   2.235  0.00  0.00    -0.097 F 
ATOM     12  F4  UNL d   1      -0.484   1.011   3.647  0.00  0.00    -0.092 F 
ENDROOT
TORSDOF 0
ENDMDL
