MODEL 1
REMARK minimizedAffinity -1.20764291
REMARK minimizedRMSD -1
REMARK  0 active torsions:
REMARK  status: ('A' for Active; 'I' for Inactive)
ROOT
ATOM      1  C   UNL d   1      -0.185   0.498   2.021  0.00  0.00     0.124 A 
ATOM      2  C1  UNL d   1       0.925  -0.140   1.484  0.00  0.00     0.062 A 
ATOM      3  C2  UNL d   1       1.092  -0.210   0.104  0.00  0.00     0.162 A 
ATOM      4  C3  UNL d   1       0.148   0.361  -0.749  0.00  0.00    -0.034 A 
ATOM      5  C4  UNL d   1      -0.966   1.000  -0.202  0.00  0.00     0.162 A 
ATOM      6  C5  UNL d   1      -1.129   1.067   1.178  0.00  0.00     0.062 A 
ATOM      7  F   UNL d   1      -2.201   1.684   1.695  0.00  0.00    -0.097 F 
ATOM      8  F1  UNL d   1      -1.893   1.560  -0.993  0.00  0.00    -0.096 F 
ATOM      9  I   UNL d   1       0.395   0.259  -2.813  0.00  0.00    -0.060 I 
ATOM     10  F2  UNL d   1       2.174  -0.832  -0.387  0.00  0.00    -0.096 F 
ATOM     11  F3  UNL d   1       1.838  -0.691   2.296  0.00  0.00    -0.097 F 
ATOM     12  F4  UNL d   1      -0.344   0.563   3.349  0.00  0.00    -0.092 F 
ENDROOT
TORSDOF 0
ENDMDL
