MODEL 1
REMARK minimizedAffinity -0.591530502
REMARK minimizedRMSD -1
REMARK  0 active torsions:
REMARK  status: ('A' for Active; 'I' for Inactive)
ROOT
ATOM      1  C   UNL d   1       0.012   0.242   2.809  0.00  0.00     0.124 A 
ATOM      2  C1  UNL d   1      -0.848   0.953   1.984  0.00  0.00     0.062 A 
ATOM      3  C2  UNL d   1      -0.794   0.783   0.604  0.00  0.00     0.162 A 
ATOM      4  C3  UNL d   1       0.122  -0.104   0.039  0.00  0.00    -0.034 A 
ATOM      5  C4  UNL d   1       0.985  -0.815   0.875  0.00  0.00     0.162 A 
ATOM      6  C5  UNL d   1       0.927  -0.642   2.254  0.00  0.00     0.062 A 
ATOM      7  F   UNL d   1       1.759  -1.330   3.049  0.00  0.00    -0.097 F 
ATOM      8  F1  UNL d   1       1.878  -1.676   0.365  0.00  0.00    -0.096 F 
ATOM      9  I   UNL d   1       0.205  -0.361  -2.025  0.00  0.00    -0.060 I 
ATOM     10  F2  UNL d   1      -1.637   1.484  -0.169  0.00  0.00    -0.096 F 
ATOM     11  F3  UNL d   1      -1.732   1.808   2.518  0.00  0.00    -0.097 F 
ATOM     12  F4  UNL d   1      -0.041   0.408   4.137  0.00  0.00    -0.092 F 
ENDROOT
TORSDOF 0
ENDMDL
