MODEL 1
REMARK minimizedAffinity 1.11285293
REMARK minimizedRMSD -1
REMARK  0 active torsions:
REMARK  status: ('A' for Active; 'I' for Inactive)
ROOT
ATOM      1  C   UNL d   1      -0.381   0.512   3.054  0.00  0.00     0.124 A 
ATOM      2  C1  UNL d   1      -1.346   0.794   2.097  0.00  0.00     0.062 A 
ATOM      3  C2  UNL d   1      -1.097   0.529   0.753  0.00  0.00     0.162 A 
ATOM      4  C3  UNL d   1       0.121  -0.024   0.359  0.00  0.00    -0.034 A 
ATOM      5  C4  UNL d   1       1.087  -0.304   1.327  0.00  0.00     0.162 A 
ATOM      6  C5  UNL d   1       0.834  -0.036   2.669  0.00  0.00     0.062 A 
ATOM      7  F   UNL d   1       1.767  -0.309   3.592  0.00  0.00    -0.097 F 
ATOM      8  F1  UNL d   1       2.269  -0.835   0.983  0.00  0.00    -0.096 F 
ATOM      9  I   UNL d   1       0.497  -0.423  -1.649  0.00  0.00    -0.060 I 
ATOM     10  F2  UNL d   1      -2.048   0.811  -0.150  0.00  0.00    -0.096 F 
ATOM     11  F3  UNL d   1      -2.520   1.325   2.466  0.00  0.00    -0.097 F 
ATOM     12  F4  UNL d   1      -0.622   0.770   4.346  0.00  0.00    -0.092 F 
ENDROOT
TORSDOF 0
ENDMDL
