MODEL 1
REMARK minimizedAffinity 1.7645756
REMARK minimizedRMSD -1
REMARK  0 active torsions:
REMARK  status: ('A' for Active; 'I' for Inactive)
ROOT
ATOM      1  C   UNL d   1       0.630  -0.157   1.487  0.00  0.00     0.124 A 
ATOM      2  C1  UNL d   1      -0.514   0.384   0.917  0.00  0.00     0.062 A 
ATOM      3  C2  UNL d   1      -0.622   0.496  -0.466  0.00  0.00     0.162 A 
ATOM      4  C3  UNL d   1       0.418   0.065  -1.290  0.00  0.00    -0.034 A 
ATOM      5  C4  UNL d   1       1.566  -0.478  -0.710  0.00  0.00     0.162 A 
ATOM      6  C5  UNL d   1       1.669  -0.587   0.673  0.00  0.00     0.062 A 
ATOM      7  F   UNL d   1       2.775  -1.111   1.221  0.00  0.00    -0.097 F 
ATOM      8  F1  UNL d   1       2.584  -0.902  -1.473  0.00  0.00    -0.096 F 
ATOM      9  I   UNL d   1       0.260   0.230  -3.359  0.00  0.00    -0.060 I 
ATOM     10  F2  UNL d   1      -1.739   1.023  -0.989  0.00  0.00    -0.096 F 
ATOM     11  F3  UNL d   1      -1.519   0.801   1.701  0.00  0.00    -0.097 F 
ATOM     12  F4  UNL d   1       0.732  -0.263   2.818  0.00  0.00    -0.092 F 
ENDROOT
TORSDOF 0
ENDMDL
