MODEL 1
REMARK minimizedAffinity 15.0445118
REMARK minimizedRMSD -1
REMARK  1 active torsions:
REMARK  status: ('A' for Active; 'I' for Inactive)
REMARK    1  A    between atoms: C1_2  and  C2_3 
ROOT
ATOM      1  C2  UNL d   1       2.518   0.478   2.143  0.00  0.00    -0.076 A 
ATOM      2  C3  UNL d   1       2.567  -0.879   1.777  0.00  0.00     0.004 A 
ATOM      3  C4  UNL d   1       2.271  -1.882   2.698  0.00  0.00    -0.003 A 
ATOM      4  C5  UNL d   1       1.919  -1.544   4.001  0.00  0.00     0.000 A 
ATOM      5  C6  UNL d   1       1.847  -0.203   4.376  0.00  0.00     0.000 A 
ATOM      6  C7  UNL d   1       2.127   0.821   3.455  0.00  0.00    -0.073 A 
ATOM      7  C8  UNL d   1       2.041   2.250   3.916  0.00  0.00     0.078 C 
ENDROOT
BRANCH   1   8
ATOM      8  C1  UNL d   1       2.876   1.520   1.108  0.00  0.00     0.053 C 
ATOM      9  C   UNL d   1       3.749   0.961  -0.005  0.00  0.00     0.018 C 
ENDBRANCH   1   8
TORSDOF 1
ENDMDL
