MODEL 1
REMARK minimizedAffinity 7.43538427
REMARK minimizedRMSD -1
REMARK  1 active torsions:
REMARK  status: ('A' for Active; 'I' for Inactive)
REMARK    1  A    between atoms: C1_2  and  C2_3 
ROOT
ATOM      1  C2  UNL d   1       3.541  -5.937  -3.766  0.00  0.00    -0.076 A 
ATOM      2  C3  UNL d   1       4.830  -5.918  -3.203  0.00  0.00     0.004 A 
ATOM      3  C4  UNL d   1       5.966  -5.946  -4.011  0.00  0.00    -0.003 A 
ATOM      4  C5  UNL d   1       5.832  -5.991  -5.394  0.00  0.00     0.000 A 
ATOM      5  C6  UNL d   1       4.562  -5.992  -5.970  0.00  0.00     0.000 A 
ATOM      6  C7  UNL d   1       3.407  -5.948  -5.171  0.00  0.00    -0.073 A 
ATOM      7  C8  UNL d   1       2.062  -5.957  -5.845  0.00  0.00     0.078 C 
ENDROOT
BRANCH   1   8
ATOM      8  C1  UNL d   1       2.346  -5.933  -2.840  0.00  0.00     0.053 C 
ATOM      9  C   UNL d   1       2.745  -5.858  -1.374  0.00  0.00     0.018 C 
ENDBRANCH   1   8
TORSDOF 1
ENDMDL
