MODEL 1
REMARK minimizedAffinity 17.6612434
REMARK minimizedRMSD -1
REMARK  1 active torsions:
REMARK  status: ('A' for Active; 'I' for Inactive)
REMARK    1  A    between atoms: C1_2  and  C2_3 
ROOT
ATOM      1  C2  UNL d   1       2.885  -2.500   4.426  0.00  0.00    -0.076 A 
ATOM      2  C3  UNL d   1       2.511  -1.148   4.507  0.00  0.00     0.004 A 
ATOM      3  C4  UNL d   1       2.111  -0.444   3.373  0.00  0.00    -0.003 A 
ATOM      4  C5  UNL d   1       2.078  -1.082   2.138  0.00  0.00     0.000 A 
ATOM      5  C6  UNL d   1       2.428  -2.429   2.041  0.00  0.00     0.000 A 
ATOM      6  C7  UNL d   1       2.818  -3.157   3.178  0.00  0.00    -0.073 A 
ATOM      7  C8  UNL d   1       3.192  -4.605   3.016  0.00  0.00     0.078 C 
ENDROOT
BRANCH   1   8
ATOM      8  C1  UNL d   1       3.336  -3.204   5.686  0.00  0.00     0.053 C 
ATOM      9  C   UNL d   1       4.838  -3.101   5.905  0.00  0.00     0.018 C 
ENDBRANCH   1   8
TORSDOF 1
ENDMDL
