MODEL 1
REMARK minimizedAffinity 10.5315456
REMARK minimizedRMSD -1
REMARK  1 active torsions:
REMARK  status: ('A' for Active; 'I' for Inactive)
REMARK    1  A    between atoms: C1_2  and  C2_3 
ROOT
ATOM      1  C2  UNL d   1       1.457   2.200   1.153  0.00  0.00    -0.076 A 
ATOM      2  C3  UNL d   1       2.699   1.555   1.019  0.00  0.00     0.004 A 
ATOM      3  C4  UNL d   1       2.813   0.176   1.187  0.00  0.00    -0.003 A 
ATOM      4  C5  UNL d   1       1.686  -0.581   1.490  0.00  0.00     0.000 A 
ATOM      5  C6  UNL d   1       0.443   0.040   1.610  0.00  0.00     0.000 A 
ATOM      6  C7  UNL d   1       0.308   1.427   1.428  0.00  0.00    -0.073 A 
ATOM      7  C8  UNL d   1      -1.055   2.045   1.574  0.00  0.00     0.078 C 
ENDROOT
BRANCH   1   8
ATOM      8  C1  UNL d   1       1.399   3.701   0.987  0.00  0.00     0.053 C 
ATOM      9  C   UNL d   1       1.734   4.145  -0.428  0.00  0.00     0.018 C 
ENDBRANCH   1   8
TORSDOF 1
ENDMDL
