MODEL 1
REMARK minimizedAffinity 5.20324564
REMARK minimizedRMSD -1
REMARK  1 active torsions:
REMARK  status: ('A' for Active; 'I' for Inactive)
REMARK    1  A    between atoms: C1_2  and  C2_3 
ROOT
ATOM      1  C2  UNL d   1       2.591  -4.174   4.990  0.00  0.00    -0.076 A 
ATOM      2  C3  UNL d   1       3.525  -5.036   5.590  0.00  0.00     0.004 A 
ATOM      3  C4  UNL d   1       4.889  -4.754   5.554  0.00  0.00    -0.003 A 
ATOM      4  C5  UNL d   1       5.342  -3.604   4.918  0.00  0.00     0.000 A 
ATOM      5  C6  UNL d   1       4.429  -2.728   4.332  0.00  0.00     0.000 A 
ATOM      6  C7  UNL d   1       3.049  -2.989   4.374  0.00  0.00    -0.073 A 
ATOM      7  C8  UNL d   1       2.109  -2.013   3.721  0.00  0.00     0.078 C 
ENDROOT
BRANCH   1   8
ATOM      8  C1  UNL d   1       1.126  -4.546   5.037  0.00  0.00     0.053 C 
ATOM      9  C   UNL d   1       0.851  -5.712   5.973  0.00  0.00     0.018 C 
ENDBRANCH   1   8
TORSDOF 1
ENDMDL
