MODEL 1
REMARK minimizedAffinity 11.251112
REMARK minimizedRMSD -1
REMARK  1 active torsions:
REMARK  status: ('A' for Active; 'I' for Inactive)
REMARK    1  A    between atoms: C1_2  and  C2_3 
ROOT
ATOM      1  C2  UNL d   1       2.223   3.191   0.873  0.00  0.00    -0.076 A 
ATOM      2  C3  UNL d   1       2.167   3.244  -0.531  0.00  0.00     0.004 A 
ATOM      3  C4  UNL d   1       1.882   4.437  -1.192  0.00  0.00    -0.003 A 
ATOM      4  C5  UNL d   1       1.649   5.597  -0.461  0.00  0.00     0.000 A 
ATOM      5  C6  UNL d   1       1.718   5.566   0.931  0.00  0.00     0.000 A 
ATOM      6  C7  UNL d   1       2.020   4.375   1.613  0.00  0.00    -0.073 A 
ATOM      7  C8  UNL d   1       2.076   4.398   3.116  0.00  0.00     0.078 C 
ENDROOT
BRANCH   1   8
ATOM      8  C1  UNL d   1       2.509   1.862   1.536  0.00  0.00     0.053 C 
ATOM      9  C   UNL d   1       3.268   0.908   0.626  0.00  0.00     0.018 C 
ENDBRANCH   1   8
TORSDOF 1
ENDMDL
