MODEL 1
REMARK minimizedAffinity 11.6443748
REMARK minimizedRMSD -1
REMARK  1 active torsions:
REMARK  status: ('A' for Active; 'I' for Inactive)
REMARK    1  A    between atoms: C1_2  and  C2_3 
ROOT
ATOM      1  C2  UNL d   1       2.567  -0.264   4.671  0.00  0.00    -0.076 A 
ATOM      2  C3  UNL d   1       2.095   0.340   3.492  0.00  0.00     0.004 A 
ATOM      3  C4  UNL d   1       2.110  -0.347   2.279  0.00  0.00    -0.003 A 
ATOM      4  C5  UNL d   1       2.596  -1.649   2.225  0.00  0.00     0.000 A 
ATOM      5  C6  UNL d   1       3.051  -2.269   3.388  0.00  0.00     0.000 A 
ATOM      6  C7  UNL d   1       3.028  -1.597   4.622  0.00  0.00    -0.073 A 
ATOM      7  C8  UNL d   1       3.537  -2.312   5.844  0.00  0.00     0.078 C 
ENDROOT
BRANCH   1   8
ATOM      8  C1  UNL d   1       2.551   0.539   5.952  0.00  0.00     0.053 C 
ATOM      9  C   UNL d   1       2.834   2.015   5.717  0.00  0.00     0.018 C 
ENDBRANCH   1   8
TORSDOF 1
ENDMDL
