MODEL 1
REMARK minimizedAffinity 6.75115728
REMARK minimizedRMSD -1
REMARK  3 active torsions:
REMARK  status: ('A' for Active; 'I' for Inactive)
REMARK    1  A    between atoms: C3'_2  and  C2'_3 
REMARK    2  A    between atoms: C2'_3  and  C1'_4 
REMARK    3  A    between atoms: C1'_4  and  C1_5 
ROOT
ATOM      1  C1  N4B d   1       2.165  -1.530  -3.892  0.00  0.00    -0.075 A 
ATOM      2  C2  N4B d   1       2.268  -0.126  -3.774  0.00  0.00     0.002 A 
ATOM      3  C3  N4B d   1       2.098   0.475  -2.551  0.00  0.00     0.002 A 
ATOM      4  C4  N4B d   1       1.806  -0.302  -1.440  0.00  0.00    -0.004 A 
ATOM      5  C5  N4B d   1       1.733  -1.659  -1.557  0.00  0.00     0.002 A 
ATOM      6  C6  N4B d   1       1.907  -2.277  -2.779  0.00  0.00     0.002 A 
ENDROOT
BRANCH   1   7
ATOM      7  C1' N4B d   1       2.259  -2.225  -5.223  0.00  0.00     0.057 C 
BRANCH   7   8
ATOM      8  C2' N4B d   1       3.592  -1.875  -5.878  0.00  0.00     0.009 C 
BRANCH   8   9
ATOM      9  C3' N4B d   1       4.766  -2.503  -5.148  0.00  0.00     0.004 C 
ATOM     10  C4' N4B d   1       6.000  -2.586  -5.996  0.00  0.00     0.003 C 
ENDBRANCH   8   9
ENDBRANCH   7   8
ENDBRANCH   1   7
TORSDOF 3
ENDMDL
