MODEL 1
REMARK minimizedAffinity 15.3911076
REMARK minimizedRMSD -1
REMARK  3 active torsions:
REMARK  status: ('A' for Active; 'I' for Inactive)
REMARK    1  A    between atoms: C3'_2  and  C2'_3 
REMARK    2  A    between atoms: C2'_3  and  C1'_4 
REMARK    3  A    between atoms: C1'_4  and  C1_5 
ROOT
ATOM      1  C1  N4B d   1       3.716  -3.685   0.260  0.00  0.00    -0.075 A 
ATOM      2  C2  N4B d   1       3.404  -5.059   0.366  0.00  0.00     0.002 A 
ATOM      3  C3  N4B d   1       4.396  -6.000   0.235  0.00  0.00     0.002 A 
ATOM      4  C4  N4B d   1       5.697  -5.594  -0.020  0.00  0.00    -0.004 A 
ATOM      5  C5  N4B d   1       5.994  -4.264  -0.096  0.00  0.00     0.002 A 
ATOM      6  C6  N4B d   1       5.008  -3.308   0.038  0.00  0.00     0.002 A 
ENDROOT
BRANCH   1   7
ATOM      7  C1' N4B d   1       2.651  -2.623   0.311  0.00  0.00     0.057 C 
BRANCH   7   8
ATOM      8  C2' N4B d   1       2.188  -2.310  -1.108  0.00  0.00     0.009 C 
BRANCH   8   9
ATOM      9  C3' N4B d   1       2.027  -0.817  -1.337  0.00  0.00     0.004 C 
ATOM     10  C4' N4B d   1       2.621   0.007  -0.233  0.00  0.00     0.003 C 
ENDBRANCH   8   9
ENDBRANCH   7   8
ENDBRANCH   1   7
TORSDOF 3
ENDMDL
