MODEL 1
REMARK minimizedAffinity 19.6152706
REMARK minimizedRMSD -1
REMARK  3 active torsions:
REMARK  status: ('A' for Active; 'I' for Inactive)
REMARK    1  A    between atoms: C3'_2  and  C2'_3 
REMARK    2  A    between atoms: C2'_3  and  C1'_4 
REMARK    3  A    between atoms: C1'_4  and  C1_5 
ROOT
ATOM      1  C1  N4B d   1      -4.008   1.520   3.764  0.00  0.00    -0.075 A 
ATOM      2  C2  N4B d   1      -5.031   2.493   3.776  0.00  0.00     0.002 A 
ATOM      3  C3  N4B d   1      -5.217   3.279   4.887  0.00  0.00     0.002 A 
ATOM      4  C4  N4B d   1      -4.409   3.097   5.999  0.00  0.00    -0.004 A 
ATOM      5  C5  N4B d   1      -3.407   2.172   5.970  0.00  0.00     0.002 A 
ATOM      6  C6  N4B d   1      -3.206   1.378   4.859  0.00  0.00     0.002 A 
ENDROOT
BRANCH   1   7
ATOM      7  C1' N4B d   1      -3.821   0.579   2.605  0.00  0.00     0.057 C 
BRANCH   7   8
ATOM      8  C2' N4B d   1      -4.283  -0.817   3.014  0.00  0.00     0.009 C 
BRANCH   8   9
ATOM      9  C3' N4B d   1      -5.754  -1.040   2.709  0.00  0.00     0.004 C 
ATOM     10  C4' N4B d   1      -5.996  -2.269   1.885  0.00  0.00     0.003 C 
ENDBRANCH   8   9
ENDBRANCH   7   8
ENDBRANCH   1   7
TORSDOF 3
ENDMDL
