MODEL 1
REMARK minimizedAffinity 8.70727634
REMARK minimizedRMSD -1
REMARK  3 active torsions:
REMARK  status: ('A' for Active; 'I' for Inactive)
REMARK    1  A    between atoms: C3'_2  and  C2'_3 
REMARK    2  A    between atoms: C2'_3  and  C1'_4 
REMARK    3  A    between atoms: C1'_4  and  C1_5 
ROOT
ATOM      1  C1  N4B d   1       3.846   0.733  -0.971  0.00  0.00    -0.075 A 
ATOM      2  C2  N4B d   1       3.678   1.234   0.339  0.00  0.00     0.002 A 
ATOM      3  C3  N4B d   1       4.557   2.165   0.836  0.00  0.00     0.002 A 
ATOM      4  C4  N4B d   1       5.617   2.594   0.052  0.00  0.00    -0.004 A 
ATOM      5  C5  N4B d   1       5.757   2.125  -1.222  0.00  0.00     0.002 A 
ATOM      6  C6  N4B d   1       4.879   1.192  -1.735  0.00  0.00     0.002 A 
ENDROOT
BRANCH   1   7
ATOM      7  C1' N4B d   1       2.961  -0.349  -1.527  0.00  0.00     0.057 C 
BRANCH   7   8
ATOM      8  C2' N4B d   1       3.210  -1.644  -0.758  0.00  0.00     0.009 C 
BRANCH   8   9
ATOM      9  C3' N4B d   1       4.628  -1.721  -0.220  0.00  0.00     0.004 C 
ATOM     10  C4' N4B d   1       5.263  -3.061  -0.445  0.00  0.00     0.003 C 
ENDBRANCH   8   9
ENDBRANCH   7   8
ENDBRANCH   1   7
TORSDOF 3
ENDMDL
