MODEL 1
REMARK minimizedAffinity 12.4234791
REMARK minimizedRMSD -1
REMARK  3 active torsions:
REMARK  status: ('A' for Active; 'I' for Inactive)
REMARK    1  A    between atoms: C3'_2  and  C2'_3 
REMARK    2  A    between atoms: C2'_3  and  C1'_4 
REMARK    3  A    between atoms: C1'_4  and  C1_5 
ROOT
ATOM      1  C1  N4B d   1       2.871  -3.430  -1.256  0.00  0.00    -0.075 A 
ATOM      2  C2  N4B d   1       3.157  -4.349  -0.222  0.00  0.00     0.002 A 
ATOM      3  C3  N4B d   1       2.654  -5.626  -0.280  0.00  0.00     0.002 A 
ATOM      4  C4  N4B d   1       1.851  -5.999  -1.347  0.00  0.00    -0.004 A 
ATOM      5  C5  N4B d   1       1.600  -5.113  -2.354  0.00  0.00     0.002 A 
ATOM      6  C6  N4B d   1       2.102  -3.828  -2.311  0.00  0.00     0.002 A 
ENDROOT
BRANCH   1   7
ATOM      7  C1' N4B d   1       3.327  -1.998  -1.194  0.00  0.00     0.057 C 
BRANCH   7   8
ATOM      8  C2' N4B d   1       2.557  -1.182  -2.228  0.00  0.00     0.009 C 
BRANCH   8   9
ATOM      9  C3' N4B d   1       2.192   0.197  -1.706  0.00  0.00     0.004 C 
ATOM     10  C4' N4B d   1       3.267   0.797  -0.849  0.00  0.00     0.003 C 
ENDBRANCH   8   9
ENDBRANCH   7   8
ENDBRANCH   1   7
TORSDOF 3
ENDMDL
