MODEL 1
REMARK minimizedAffinity 15.6009274
REMARK minimizedRMSD -1
REMARK  3 active torsions:
REMARK  status: ('A' for Active; 'I' for Inactive)
REMARK    1  A    between atoms: C3'_2  and  C2'_3 
REMARK    2  A    between atoms: C2'_3  and  C1'_4 
REMARK    3  A    between atoms: C1'_4  and  C1_5 
ROOT
ATOM      1  C1  N4B d   1       1.304   2.683   2.089  0.00  0.00    -0.075 A 
ATOM      2  C2  N4B d   1       2.025   2.324   3.249  0.00  0.00     0.002 A 
ATOM      3  C3  N4B d   1       1.432   1.547   4.213  0.00  0.00     0.002 A 
ATOM      4  C4  N4B d   1       0.118   1.134   4.048  0.00  0.00    -0.004 A 
ATOM      5  C5  N4B d   1      -0.563   1.464   2.913  0.00  0.00     0.002 A 
ATOM      6  C6  N4B d   1       0.022   2.242   1.934  0.00  0.00     0.002 A 
ENDROOT
BRANCH   1   7
ATOM      7  C1' N4B d   1       1.882   3.602   1.048  0.00  0.00     0.057 C 
BRANCH   7   8
ATOM      8  C2' N4B d   1       0.991   4.834   0.917  0.00  0.00     0.009 C 
BRANCH   8   9
ATOM      9  C3' N4B d   1       1.589   5.872  -0.017  0.00  0.00     0.004 C 
ATOM     10  C4' N4B d   1       1.584   5.434  -1.451  0.00  0.00     0.003 C 
ENDBRANCH   8   9
ENDBRANCH   7   8
ENDBRANCH   1   7
TORSDOF 3
ENDMDL
