MODEL 1
REMARK minimizedAffinity 15.212163
REMARK minimizedRMSD -1
REMARK  3 active torsions:
REMARK  status: ('A' for Active; 'I' for Inactive)
REMARK    1  A    between atoms: C3'_2  and  C2'_3 
REMARK    2  A    between atoms: C2'_3  and  C1'_4 
REMARK    3  A    between atoms: C1'_4  and  C1_5 
ROOT
ATOM      1  C1  N4B d   1      -3.757   1.609   3.709  0.00  0.00    -0.075 A 
ATOM      2  C2  N4B d   1      -3.414   1.566   5.079  0.00  0.00     0.002 A 
ATOM      3  C3  N4B d   1      -4.182   2.235   6.000  0.00  0.00     0.002 A 
ATOM      4  C4  N4B d   1      -5.282   2.966   5.575  0.00  0.00    -0.004 A 
ATOM      5  C5  N4B d   1      -5.621   2.982   4.254  0.00  0.00     0.002 A 
ATOM      6  C6  N4B d   1      -4.861   2.310   3.317  0.00  0.00     0.002 A 
ENDROOT
BRANCH   1   7
ATOM      7  C1' N4B d   1      -2.900   0.964   2.655  0.00  0.00     0.057 C 
BRANCH   7   8
ATOM      8  C2' N4B d   1      -1.709   1.870   2.356  0.00  0.00     0.009 C 
BRANCH   8   9
ATOM      9  C3' N4B d   1      -0.481   1.478   3.159  0.00  0.00     0.004 C 
ATOM     10  C4' N4B d   1       0.773   1.466   2.335  0.00  0.00     0.003 C 
ENDBRANCH   8   9
ENDBRANCH   7   8
ENDBRANCH   1   7
TORSDOF 3
ENDMDL
