MODEL 1
REMARK minimizedAffinity 12.8005543
REMARK minimizedRMSD -1
REMARK  3 active torsions:
REMARK  status: ('A' for Active; 'I' for Inactive)
REMARK    1  A    between atoms: C3'_2  and  C2'_3 
REMARK    2  A    between atoms: C2'_3  and  C1'_4 
REMARK    3  A    between atoms: C1'_4  and  C1_5 
ROOT
ATOM      1  C1  N4B d   1       1.820  -0.679  -0.379  0.00  0.00    -0.075 A 
ATOM      2  C2  N4B d   1       1.411  -0.511  -1.721  0.00  0.00     0.002 A 
ATOM      3  C3  N4B d   1       1.304  -1.602  -2.548  0.00  0.00     0.002 A 
ATOM      4  C4  N4B d   1       1.617  -2.863  -2.063  0.00  0.00    -0.004 A 
ATOM      5  C5  N4B d   1       1.987  -3.020  -0.760  0.00  0.00     0.002 A 
ATOM      6  C6  N4B d   1       2.095  -1.933   0.084  0.00  0.00     0.002 A 
ENDROOT
BRANCH   1   7
ATOM      7  C1' N4B d   1       2.035   0.493   0.538  0.00  0.00     0.057 C 
BRANCH   7   8
ATOM      8  C2' N4B d   1       2.918   1.522  -0.161  0.00  0.00     0.009 C 
BRANCH   8   9
ATOM      9  C3' N4B d   1       4.321   1.556   0.421  0.00  0.00     0.004 C 
ATOM     10  C4' N4B d   1       5.379   1.752  -0.624  0.00  0.00     0.003 C 
ENDBRANCH   8   9
ENDBRANCH   7   8
ENDBRANCH   1   7
TORSDOF 3
ENDMDL
