MODEL 1
REMARK minimizedAffinity 1.39707267
REMARK minimizedRMSD -1
REMARK  3 active torsions:
REMARK  status: ('A' for Active; 'I' for Inactive)
REMARK    1  A    between atoms: C3'_2  and  C2'_3 
REMARK    2  A    between atoms: C2'_3  and  C1'_4 
REMARK    3  A    between atoms: C1'_4  and  C1_5 
ROOT
ATOM      1  C1  N4B d   1      -3.429  -4.937  -5.885  0.00  0.00    -0.075 A 
ATOM      2  C2  N4B d   1      -3.108  -3.567  -5.760  0.00  0.00     0.002 A 
ATOM      3  C3  N4B d   1      -4.107  -2.625  -5.762  0.00  0.00     0.002 A 
ATOM      4  C4  N4B d   1      -5.427  -3.025  -5.906  0.00  0.00    -0.004 A 
ATOM      5  C5  N4B d   1      -5.730  -4.352  -6.000  0.00  0.00     0.002 A 
ATOM      6  C6  N4B d   1      -4.737  -5.310  -5.995  0.00  0.00     0.002 A 
ENDROOT
BRANCH   1   7
ATOM      7  C1' N4B d   1      -2.365  -5.997  -5.974  0.00  0.00     0.057 C 
BRANCH   7   8
ATOM      8  C2' N4B d   1      -1.330  -5.761  -4.878  0.00  0.00     0.009 C 
BRANCH   8   9
ATOM      9  C3' N4B d   1      -1.953  -5.169  -3.626  0.00  0.00     0.004 C 
ATOM     10  C4' N4B d   1      -1.043  -5.239  -2.436  0.00  0.00     0.003 C 
ENDBRANCH   8   9
ENDBRANCH   7   8
ENDBRANCH   1   7
TORSDOF 3
ENDMDL
