MODEL 1
REMARK minimizedAffinity -3.38915944
REMARK minimizedRMSD -1
REMARK  1 active torsions:
REMARK  status: ('A' for Active; 'I' for Inactive)
REMARK    1  A    between atoms: C1_2  and  C2_3 
ROOT
ATOM      1  C2  UNL d   1       0.122  -0.906  -0.101  0.00  0.00    -0.076 A 
ATOM      2  C3  UNL d   1       0.156  -1.990   0.794  0.00  0.00     0.004 A 
ATOM      3  C4  UNL d   1      -0.903  -2.893   0.866  0.00  0.00    -0.003 A 
ATOM      4  C5  UNL d   1      -2.012  -2.728   0.044  0.00  0.00     0.000 A 
ATOM      5  C6  UNL d   1      -2.055  -1.668  -0.862  0.00  0.00     0.000 A 
ATOM      6  C7  UNL d   1      -0.988  -0.758  -0.959  0.00  0.00    -0.073 A 
ATOM      7  C8  UNL d   1      -1.090   0.370  -1.949  0.00  0.00     0.078 C 
ENDROOT
BRANCH   1   8
ATOM      8  C1  UNL d   1       1.288   0.057  -0.115  0.00  0.00     0.053 C 
ATOM      9  C   UNL d   1       1.106   1.207   0.863  0.00  0.00     0.018 C 
ENDBRANCH   1   8
TORSDOF 1
ENDMDL
