MODEL 1
REMARK minimizedAffinity -0.148192927
REMARK minimizedRMSD -1
REMARK  1 active torsions:
REMARK  status: ('A' for Active; 'I' for Inactive)
REMARK    1  A    between atoms: C1_2  and  C2_3 
ROOT
ATOM      1  C2  UNL d   1       0.955   1.000   0.142  0.00  0.00    -0.076 A 
ATOM      2  C3  UNL d   1       0.253   1.897  -0.682  0.00  0.00     0.004 A 
ATOM      3  C4  UNL d   1      -0.816   1.466  -1.465  0.00  0.00    -0.003 A 
ATOM      4  C5  UNL d   1      -1.201   0.130  -1.437  0.00  0.00     0.000 A 
ATOM      5  C6  UNL d   1      -0.527  -0.770  -0.612  0.00  0.00     0.000 A 
ATOM      6  C7  UNL d   1       0.542  -0.348   0.196  0.00  0.00    -0.073 A 
ATOM      7  C8  UNL d   1       1.237  -1.363   1.062  0.00  0.00     0.078 C 
ENDROOT
BRANCH   1   8
ATOM      8  C1  UNL d   1       2.123   1.520   0.949  0.00  0.00     0.053 C 
ATOM      9  C   UNL d   1       3.070   2.374   0.120  0.00  0.00     0.018 C 
ENDBRANCH   1   8
TORSDOF 1
ENDMDL
