MODEL 1
REMARK minimizedAffinity -3.33166718
REMARK minimizedRMSD -1
REMARK  1 active torsions:
REMARK  status: ('A' for Active; 'I' for Inactive)
REMARK    1  A    between atoms: C1_2  and  C2_3 
ROOT
ATOM      1  C2  UNL d   1       1.031   1.169   0.830  0.00  0.00    -0.076 A 
ATOM      2  C3  UNL d   1      -0.089   1.932   0.457  0.00  0.00     0.004 A 
ATOM      3  C4  UNL d   1      -1.034   1.431  -0.436  0.00  0.00    -0.003 A 
ATOM      4  C5  UNL d   1      -0.876   0.157  -0.970  0.00  0.00     0.000 A 
ATOM      5  C6  UNL d   1       0.220  -0.622  -0.597  0.00  0.00     0.000 A 
ATOM      6  C7  UNL d   1       1.173  -0.137   0.314  0.00  0.00    -0.073 A 
ATOM      7  C8  UNL d   1       2.338  -1.017   0.676  0.00  0.00     0.078 C 
ENDROOT
BRANCH   1   8
ATOM      8  C1  UNL d   1       2.037   1.775   1.781  0.00  0.00     0.053 C 
ATOM      9  C   UNL d   1       2.511   3.149   1.331  0.00  0.00     0.018 C 
ENDBRANCH   1   8
TORSDOF 1
ENDMDL
