MODEL 1
REMARK minimizedAffinity -1.85914397
REMARK minimizedRMSD -1
REMARK  1 active torsions:
REMARK  status: ('A' for Active; 'I' for Inactive)
REMARK    1  A    between atoms: C1_2  and  C2_3 
ROOT
ATOM      1  C2  UNL d   1       1.243   1.317  -0.128  0.00  0.00    -0.076 A 
ATOM      2  C3  UNL d   1       0.306   2.139  -0.778  0.00  0.00     0.004 A 
ATOM      3  C4  UNL d   1      -0.874   1.610  -1.297  0.00  0.00    -0.003 A 
ATOM      4  C5  UNL d   1      -1.137   0.250  -1.174  0.00  0.00     0.000 A 
ATOM      5  C6  UNL d   1      -0.227  -0.577  -0.517  0.00  0.00     0.000 A 
ATOM      6  C7  UNL d   1       0.960  -0.057   0.026  0.00  0.00    -0.073 A 
ATOM      7  C8  UNL d   1       1.909  -0.996   0.719  0.00  0.00     0.078 C 
ENDROOT
BRANCH   1   8
ATOM      8  C1  UNL d   1       2.519   1.942   0.390  0.00  0.00     0.053 C 
ATOM      9  C   UNL d   1       2.476   3.462   0.363  0.00  0.00     0.018 C 
ENDBRANCH   1   8
TORSDOF 1
ENDMDL
