MODEL 1
REMARK minimizedAffinity -2.75696492
REMARK minimizedRMSD -1
REMARK  1 active torsions:
REMARK  status: ('A' for Active; 'I' for Inactive)
REMARK    1  A    between atoms: C1_2  and  C2_3 
ROOT
ATOM      1  C2  UNL d   1       0.716   0.955  -0.010  0.00  0.00    -0.076 A 
ATOM      2  C3  UNL d   1       0.311   1.811  -1.048  0.00  0.00     0.004 A 
ATOM      3  C4  UNL d   1      -0.580   1.378  -2.029  0.00  0.00    -0.003 A 
ATOM      4  C5  UNL d   1      -1.081   0.081  -1.987  0.00  0.00     0.000 A 
ATOM      5  C6  UNL d   1      -0.703  -0.776  -0.954  0.00  0.00     0.000 A 
ATOM      6  C7  UNL d   1       0.182  -0.350   0.051  0.00  0.00    -0.073 A 
ATOM      7  C8  UNL d   1       0.560  -1.319   1.138  0.00  0.00     0.078 C 
ENDROOT
BRANCH   1   8
ATOM      8  C1  UNL d   1       1.706   1.471   1.010  0.00  0.00     0.053 C 
ATOM      9  C   UNL d   1       2.533   2.633   0.483  0.00  0.00     0.018 C 
ENDBRANCH   1   8
TORSDOF 1
ENDMDL
