MODEL 1
REMARK minimizedAffinity -2.20416427
REMARK minimizedRMSD -1
REMARK  1 active torsions:
REMARK  status: ('A' for Active; 'I' for Inactive)
REMARK    1  A    between atoms: C1_2  and  C2_3 
ROOT
ATOM      1  C2  UNL d   1      -0.493  -1.287   0.066  0.00  0.00    -0.076 A 
ATOM      2  C3  UNL d   1      -1.708  -1.662  -0.534  0.00  0.00     0.004 A 
ATOM      3  C4  UNL d   1      -2.355  -0.816  -1.433  0.00  0.00    -0.003 A 
ATOM      4  C5  UNL d   1      -1.797   0.419  -1.747  0.00  0.00     0.000 A 
ATOM      5  C6  UNL d   1      -0.584   0.799  -1.175  0.00  0.00     0.000 A 
ATOM      6  C7  UNL d   1       0.090  -0.049  -0.279  0.00  0.00    -0.073 A 
ATOM      7  C8  UNL d   1       1.392   0.414   0.313  0.00  0.00     0.078 C 
ENDROOT
BRANCH   1   8
ATOM      8  C1  UNL d   1       0.148  -2.235   1.055  0.00  0.00     0.053 C 
ATOM      9  C   UNL d   1      -0.851  -3.205   1.665  0.00  0.00     0.018 C 
ENDBRANCH   1   8
TORSDOF 1
ENDMDL
