MODEL 1
REMARK minimizedAffinity -1.16344583
REMARK minimizedRMSD -1
REMARK  1 active torsions:
REMARK  status: ('A' for Active; 'I' for Inactive)
REMARK    1  A    between atoms: C1_2  and  C2_3 
ROOT
ATOM      1  C2  UNL d   1       0.113  -0.009  -0.153  0.00  0.00    -0.076 A 
ATOM      2  C3  UNL d   1      -0.241   1.031  -1.029  0.00  0.00     0.004 A 
ATOM      3  C4  UNL d   1      -1.484   1.044  -1.661  0.00  0.00    -0.003 A 
ATOM      4  C5  UNL d   1      -2.393   0.019  -1.425  0.00  0.00     0.000 A 
ATOM      5  C6  UNL d   1      -2.064  -1.012  -0.544  0.00  0.00     0.000 A 
ATOM      6  C7  UNL d   1      -0.822  -1.032   0.113  0.00  0.00    -0.073 A 
ATOM      7  C8  UNL d   1      -0.518  -2.171   1.047  0.00  0.00     0.078 C 
ENDROOT
BRANCH   1   8
ATOM      8  C1  UNL d   1       1.485   0.015   0.482  0.00  0.00     0.053 C 
ATOM      9  C   UNL d   1       2.154   1.377   0.374  0.00  0.00     0.018 C 
ENDBRANCH   1   8
TORSDOF 1
ENDMDL
