MODEL 1
REMARK minimizedAffinity -2.98301125
REMARK minimizedRMSD -1
REMARK  1 active torsions:
REMARK  status: ('A' for Active; 'I' for Inactive)
REMARK    1  A    between atoms: C1_2  and  C2_3 
ROOT
ATOM      1  C2  UNL d   1      -0.871   0.224  -0.960  0.00  0.00    -0.076 A 
ATOM      2  C3  UNL d   1      -0.916   0.975   0.228  0.00  0.00     0.004 A 
ATOM      3  C4  UNL d   1       0.255   1.391   0.858  0.00  0.00    -0.003 A 
ATOM      4  C5  UNL d   1       1.491   1.064   0.311  0.00  0.00     0.000 A 
ATOM      5  C6  UNL d   1       1.554   0.335  -0.877  0.00  0.00     0.000 A 
ATOM      6  C7  UNL d   1       0.382  -0.079  -1.533  0.00  0.00    -0.073 A 
ATOM      7  C8  UNL d   1       0.509  -0.868  -2.808  0.00  0.00     0.078 C 
ENDROOT
BRANCH   1   8
ATOM      8  C1  UNL d   1      -2.174  -0.223  -1.584  0.00  0.00     0.053 C 
ATOM      9  C   UNL d   1      -2.694  -1.519  -0.981  0.00  0.00     0.018 C 
ENDBRANCH   1   8
TORSDOF 1
ENDMDL
