MODEL 1
REMARK minimizedAffinity -0.443849385
REMARK minimizedRMSD -1
REMARK  1 active torsions:
REMARK  status: ('A' for Active; 'I' for Inactive)
REMARK    1  A    between atoms: C1_2  and  C2_3 
ROOT
ATOM      1  C2  UNL d   1      -0.719  -0.823   0.314  0.00  0.00    -0.076 A 
ATOM      2  C3  UNL d   1      -0.282  -1.573   1.419  0.00  0.00     0.004 A 
ATOM      3  C4  UNL d   1      -0.881  -2.789   1.743  0.00  0.00    -0.003 A 
ATOM      4  C5  UNL d   1      -1.926  -3.275   0.966  0.00  0.00     0.000 A 
ATOM      5  C6  UNL d   1      -2.361  -2.553  -0.145  0.00  0.00     0.000 A 
ATOM      6  C7  UNL d   1      -1.757  -1.333  -0.495  0.00  0.00    -0.073 A 
ATOM      7  C8  UNL d   1      -2.270  -0.593  -1.700  0.00  0.00     0.078 C 
ENDROOT
BRANCH   1   8
ATOM      8  C1  UNL d   1      -0.049   0.503   0.027  0.00  0.00     0.053 C 
ATOM      9  C   UNL d   1       1.468   0.402   0.034  0.00  0.00     0.018 C 
ENDBRANCH   1   8
TORSDOF 1
ENDMDL
