MODEL 1
REMARK minimizedAffinity -1.96204221
REMARK minimizedRMSD -1
REMARK  1 active torsions:
REMARK  status: ('A' for Active; 'I' for Inactive)
REMARK    1  A    between atoms: C1_2  and  C2_3 
ROOT
ATOM      1  C2  UNL d   1      -0.259  -0.766   0.331  0.00  0.00    -0.076 A 
ATOM      2  C3  UNL d   1      -0.375  -1.703   1.373  0.00  0.00     0.004 A 
ATOM      3  C4  UNL d   1      -1.420  -2.625   1.395  0.00  0.00    -0.003 A 
ATOM      4  C5  UNL d   1      -2.365  -2.626   0.375  0.00  0.00     0.000 A 
ATOM      5  C6  UNL d   1      -2.255  -1.715  -0.676  0.00  0.00     0.000 A 
ATOM      6  C7  UNL d   1      -1.198  -0.789  -0.721  0.00  0.00    -0.073 A 
ATOM      7  C8  UNL d   1      -1.132   0.174  -1.875  0.00  0.00     0.078 C 
ENDROOT
BRANCH   1   8
ATOM      8  C1  UNL d   1       0.880   0.228   0.375  0.00  0.00     0.053 C 
ATOM      9  C   UNL d   1       0.515   1.500   1.125  0.00  0.00     0.018 C 
ENDBRANCH   1   8
TORSDOF 1
ENDMDL
