MODEL 1
REMARK minimizedAffinity -0.714835525
REMARK minimizedRMSD -1
REMARK  1 active torsions:
REMARK  status: ('A' for Active; 'I' for Inactive)
REMARK    1  A    between atoms: C1_2  and  C2_3 
ROOT
ATOM      1  C2  UNL d   1       1.128   1.377   0.314  0.00  0.00    -0.076 A 
ATOM      2  C3  UNL d   1      -0.025   2.163   0.144  0.00  0.00     0.004 A 
ATOM      3  C4  UNL d   1      -1.170   1.638  -0.453  0.00  0.00    -0.003 A 
ATOM      4  C5  UNL d   1      -1.180   0.318  -0.890  0.00  0.00     0.000 A 
ATOM      5  C6  UNL d   1      -0.051  -0.482  -0.713  0.00  0.00     0.000 A 
ATOM      6  C7  UNL d   1       1.106   0.028  -0.098  0.00  0.00    -0.073 A 
ATOM      7  C8  UNL d   1       2.296  -0.877   0.061  0.00  0.00     0.078 C 
ENDROOT
BRANCH   1   8
ATOM      8  C1  UNL d   1       2.349   2.009   0.944  0.00  0.00     0.053 C 
ATOM      9  C   UNL d   1       2.241   3.523   1.032  0.00  0.00     0.018 C 
ENDBRANCH   1   8
TORSDOF 1
ENDMDL
