MODEL 1
REMARK minimizedAffinity -0.636743903
REMARK minimizedRMSD -1
REMARK  1 active torsions:
REMARK  status: ('A' for Active; 'I' for Inactive)
REMARK    1  A    between atoms: C1_2  and  C2_3 
ROOT
ATOM      1  C2  UNL d   1      -1.902  -1.607  -0.560  0.00  0.00    -0.076 A 
ATOM      2  C3  UNL d   1      -1.518  -0.566   0.303  0.00  0.00     0.004 A 
ATOM      3  C4  UNL d   1      -0.763   0.509  -0.161  0.00  0.00    -0.003 A 
ATOM      4  C5  UNL d   1      -0.379   0.561  -1.497  0.00  0.00     0.000 A 
ATOM      5  C6  UNL d   1      -0.766  -0.454  -2.371  0.00  0.00     0.000 A 
ATOM      6  C7  UNL d   1      -1.542  -1.537  -1.923  0.00  0.00    -0.073 A 
ATOM      7  C8  UNL d   1      -1.925  -2.607  -2.908  0.00  0.00     0.078 C 
ENDROOT
BRANCH   1   8
ATOM      8  C1  UNL d   1      -2.698  -2.761   0.006  0.00  0.00     0.053 C 
ATOM      9  C   UNL d   1      -1.933  -3.528   1.074  0.00  0.00     0.018 C 
ENDBRANCH   1   8
TORSDOF 1
ENDMDL
