MODEL 1
REMARK minimizedAffinity 7.4395299
REMARK minimizedRMSD -1
REMARK  0 active torsions:
REMARK  status: ('A' for Active; 'I' for Inactive)
ROOT
ATOM      1  C   UNL d   1      -4.056  -1.655   3.698  0.00  0.00     0.077 C 
ATOM      2  C1  UNL d   1      -2.889  -0.966   3.056  0.00  0.00    -0.074 A 
ATOM      3  C2  UNL d   1      -3.073  -0.098   1.975  0.00  0.00    -0.005 A 
ATOM      4  C3  UNL d   1      -1.978   0.543   1.394  0.00  0.00     0.006 A 
ATOM      5  C4  UNL d   1      -0.692   0.323   1.887  0.00  0.00    -0.005 A 
ATOM      6  C5  UNL d   1      -0.489  -0.541   2.968  0.00  0.00    -0.074 A 
ATOM      7  C6  UNL d   1       0.886  -0.782   3.516  0.00  0.00     0.077 C 
ATOM      8  C7  UNL d   1      -1.594  -1.176   3.550  0.00  0.00    -0.001 A 
ENDROOT
TORSDOF 0
ENDMDL
