MODEL 1
REMARK minimizedAffinity 14.0397425
REMARK minimizedRMSD -1
REMARK  0 active torsions:
REMARK  status: ('A' for Active; 'I' for Inactive)
ROOT
ATOM      1  C   UNL d   1      -4.448   1.528  -0.384  0.00  0.00     0.077 C 
ATOM      2  C1  UNL d   1      -3.184   0.867   0.080  0.00  0.00    -0.074 A 
ATOM      3  C2  UNL d   1      -2.180   0.517  -0.829  0.00  0.00    -0.005 A 
ATOM      4  C3  UNL d   1      -1.006  -0.088  -0.381  0.00  0.00     0.006 A 
ATOM      5  C4  UNL d   1      -0.824  -0.350   0.977  0.00  0.00    -0.005 A 
ATOM      6  C5  UNL d   1      -1.817  -0.007   1.901  0.00  0.00    -0.074 A 
ATOM      7  C6  UNL d   1      -1.633  -0.272   3.365  0.00  0.00     0.077 C 
ATOM      8  C7  UNL d   1      -2.990   0.608   1.444  0.00  0.00    -0.001 A 
ENDROOT
TORSDOF 0
ENDMDL
