MODEL 1
REMARK minimizedAffinity -2.4286828
REMARK minimizedRMSD -1
REMARK  0 active torsions:
REMARK  status: ('A' for Active; 'I' for Inactive)
ROOT
ATOM      1  C   UNL d   1       1.427  -0.397   0.981  0.00  0.00     0.077 C 
ATOM      2  C1  UNL d   1       1.538  -0.259  -0.508  0.00  0.00    -0.074 A 
ATOM      3  C2  UNL d   1       2.553   0.511  -1.085  0.00  0.00    -0.005 A 
ATOM      4  C3  UNL d   1       2.649   0.622  -2.472  0.00  0.00     0.006 A 
ATOM      5  C4  UNL d   1       1.733  -0.035  -3.295  0.00  0.00    -0.005 A 
ATOM      6  C5  UNL d   1       0.712  -0.810  -2.736  0.00  0.00    -0.074 A 
ATOM      7  C6  UNL d   1      -0.275  -1.530  -3.606  0.00  0.00     0.077 C 
ATOM      8  C7  UNL d   1       0.626  -0.922  -1.342  0.00  0.00    -0.001 A 
ENDROOT
TORSDOF 0
ENDMDL
