MODEL 1
REMARK minimizedAffinity 8.72862816
REMARK minimizedRMSD -1
REMARK  0 active torsions:
REMARK  status: ('A' for Active; 'I' for Inactive)
ROOT
ATOM      1  C   UNL d   1       0.753  -1.253   4.192  0.00  0.00     0.077 C 
ATOM      2  C1  UNL d   1       0.187  -0.720   2.910  0.00  0.00    -0.074 A 
ATOM      3  C2  UNL d   1       1.002  -0.528   1.789  0.00  0.00    -0.005 A 
ATOM      4  C3  UNL d   1       0.459  -0.041   0.600  0.00  0.00     0.006 A 
ATOM      5  C4  UNL d   1      -0.902   0.259   0.520  0.00  0.00    -0.005 A 
ATOM      6  C5  UNL d   1      -1.732   0.072   1.629  0.00  0.00    -0.074 A 
ATOM      7  C6  UNL d   1      -3.198   0.380   1.557  0.00  0.00     0.077 C 
ATOM      8  C7  UNL d   1      -1.181  -0.424   2.818  0.00  0.00    -0.001 A 
ENDROOT
TORSDOF 0
ENDMDL
