MODEL 1
REMARK minimizedAffinity -0.650823951
REMARK minimizedRMSD -1
REMARK  0 active torsions:
REMARK  status: ('A' for Active; 'I' for Inactive)
ROOT
ATOM      1  C   UNL d   1      -0.435  -1.680   4.801  0.00  0.00     0.077 C 
ATOM      2  C1  UNL d   1      -0.773  -1.010   3.502  0.00  0.00    -0.074 A 
ATOM      3  C2  UNL d   1      -2.006  -0.374   3.320  0.00  0.00    -0.005 A 
ATOM      4  C3  UNL d   1      -2.302   0.252   2.109  0.00  0.00     0.006 A 
ATOM      5  C4  UNL d   1      -1.371   0.249   1.070  0.00  0.00    -0.005 A 
ATOM      6  C5  UNL d   1      -0.133  -0.381   1.234  0.00  0.00    -0.074 A 
ATOM      7  C6  UNL d   1       0.883  -0.385   0.130  0.00  0.00     0.077 C 
ATOM      8  C7  UNL d   1       0.160  -1.002   2.455  0.00  0.00    -0.001 A 
ENDROOT
TORSDOF 0
ENDMDL
