MODEL 1
REMARK minimizedAffinity 0.552951157
REMARK minimizedRMSD -1
REMARK  0 active torsions:
REMARK  status: ('A' for Active; 'I' for Inactive)
ROOT
ATOM      1  C   UNL d   1      -3.789  -1.523   3.999  0.00  0.00     0.077 C 
ATOM      2  C1  UNL d   1      -2.313  -1.308   3.841  0.00  0.00    -0.074 A 
ATOM      3  C2  UNL d   1      -1.411  -1.778   4.801  0.00  0.00    -0.005 A 
ATOM      4  C3  UNL d   1      -0.041  -1.580   4.636  0.00  0.00     0.006 A 
ATOM      5  C4  UNL d   1       0.441  -0.910   3.510  0.00  0.00    -0.005 A 
ATOM      6  C5  UNL d   1      -0.445  -0.434   2.539  0.00  0.00    -0.074 A 
ATOM      7  C6  UNL d   1       0.057   0.279   1.319  0.00  0.00     0.077 C 
ATOM      8  C7  UNL d   1      -1.820  -0.643   2.709  0.00  0.00    -0.001 A 
ENDROOT
TORSDOF 0
ENDMDL
