MODEL 1
REMARK minimizedAffinity 1.54108381
REMARK minimizedRMSD -1
REMARK  0 active torsions:
REMARK  status: ('A' for Active; 'I' for Inactive)
ROOT
ATOM      1  C   UNL d   1       0.353  -1.593   4.010  0.00  0.00     0.077 C 
ATOM      2  C1  UNL d   1      -0.449  -1.107   2.840  0.00  0.00    -0.074 A 
ATOM      3  C2  UNL d   1      -1.844  -1.029   2.907  0.00  0.00    -0.005 A 
ATOM      4  C3  UNL d   1      -2.576  -0.566   1.814  0.00  0.00     0.006 A 
ATOM      5  C4  UNL d   1      -1.922  -0.177   0.644  0.00  0.00    -0.005 A 
ATOM      6  C5  UNL d   1      -0.528  -0.248   0.559  0.00  0.00    -0.074 A 
ATOM      7  C6  UNL d   1       0.192   0.175  -0.688  0.00  0.00     0.077 C 
ATOM      8  C7  UNL d   1       0.201  -0.707   1.664  0.00  0.00    -0.001 A 
ENDROOT
TORSDOF 0
ENDMDL
