MODEL 1
REMARK minimizedAffinity -0.113790855
REMARK minimizedRMSD -1
REMARK  0 active torsions:
REMARK  status: ('A' for Active; 'I' for Inactive)
ROOT
ATOM      1  C   UNL d   1      -0.024   0.791  -0.143  0.00  0.00     0.077 C 
ATOM      2  C1  UNL d   1      -0.746   0.177   1.020  0.00  0.00    -0.074 A 
ATOM      3  C2  UNL d   1      -2.129  -0.025   0.982  0.00  0.00    -0.005 A 
ATOM      4  C3  UNL d   1      -2.785  -0.606   2.067  0.00  0.00     0.006 A 
ATOM      5  C4  UNL d   1      -2.066  -0.990   3.199  0.00  0.00    -0.005 A 
ATOM      6  C5  UNL d   1      -0.682  -0.797   3.255  0.00  0.00    -0.074 A 
ATOM      7  C6  UNL d   1       0.108  -1.213   4.461  0.00  0.00     0.077 C 
ATOM      8  C7  UNL d   1      -0.029  -0.219   2.158  0.00  0.00    -0.001 A 
ENDROOT
TORSDOF 0
ENDMDL
