MODEL 1
REMARK minimizedAffinity 4.14436817
REMARK minimizedRMSD -1
REMARK  0 active torsions:
REMARK  status: ('A' for Active; 'I' for Inactive)
ROOT
ATOM      1  C1  BNZ d   1       1.949  -2.259   0.971  0.00  0.00     0.000 A 
ATOM      2  C2  BNZ d   1       0.775  -2.141   0.277  0.00  0.00     0.000 A 
ATOM      3  C3  BNZ d   1       0.676  -1.296  -0.793  0.00  0.00     0.000 A 
ATOM      4  C4  BNZ d   1       1.737  -0.540  -1.141  0.00  0.00     0.000 A 
ATOM      5  C5  BNZ d   1       2.925  -0.641  -0.445  0.00  0.00     0.000 A 
ATOM      6  C6  BNZ d   1       3.033  -1.522   0.606  0.00  0.00     0.000 A 
ENDROOT
TORSDOF 0
ENDMDL
