MODEL 1
REMARK minimizedAffinity 6.03945351
REMARK minimizedRMSD -1
REMARK  0 active torsions:
REMARK  status: ('A' for Active; 'I' for Inactive)
ROOT
ATOM      1  C1  BNZ d   1      -1.386  -0.162   3.020  0.00  0.00     0.000 A 
ATOM      2  C2  BNZ d   1      -0.018  -0.180   3.088  0.00  0.00     0.000 A 
ATOM      3  C3  BNZ d   1       0.690  -1.265   2.653  0.00  0.00     0.000 A 
ATOM      4  C4  BNZ d   1       0.029  -2.345   2.188  0.00  0.00     0.000 A 
ATOM      5  C5  BNZ d   1      -1.350  -2.345   2.122  0.00  0.00     0.000 A 
ATOM      6  C6  BNZ d   1      -2.058  -1.236   2.525  0.00  0.00     0.000 A 
ENDROOT
TORSDOF 0
ENDMDL
