MODEL 1
REMARK minimizedAffinity 3.06447411
REMARK minimizedRMSD -1
REMARK  0 active torsions:
REMARK  status: ('A' for Active; 'I' for Inactive)
ROOT
ATOM      1  C1  BNZ d   1      -1.200   0.441   3.461  0.00  0.00     0.000 A 
ATOM      2  C2  BNZ d   1       0.011  -0.192   3.545  0.00  0.00     0.000 A 
ATOM      3  C3  BNZ d   1       0.329  -1.211   2.690  0.00  0.00     0.000 A 
ATOM      4  C4  BNZ d   1      -0.578  -1.620   1.781  0.00  0.00     0.000 A 
ATOM      5  C5  BNZ d   1      -1.807  -0.998   1.690  0.00  0.00     0.000 A 
ATOM      6  C6  BNZ d   1      -2.109   0.053   2.526  0.00  0.00     0.000 A 
ENDROOT
TORSDOF 0
ENDMDL
