MODEL 1
REMARK minimizedAffinity 5.01489973
REMARK minimizedRMSD -1
REMARK  0 active torsions:
REMARK  status: ('A' for Active; 'I' for Inactive)
ROOT
ATOM      1  C1  BNZ d   1      -6.000   1.629  -4.549  0.00  0.00     0.000 A 
ATOM      2  C2  BNZ d   1      -5.992   0.259  -4.564  0.00  0.00     0.000 A 
ATOM      3  C3  BNZ d   1      -5.046  -0.427  -5.273  0.00  0.00     0.000 A 
ATOM      4  C4  BNZ d   1      -4.135   0.255  -5.997  0.00  0.00     0.000 A 
ATOM      5  C5  BNZ d   1      -4.136   1.636  -5.999  0.00  0.00     0.000 A 
ATOM      6  C6  BNZ d   1      -5.066   2.323  -5.253  0.00  0.00     0.000 A 
ENDROOT
TORSDOF 0
ENDMDL
