MODEL 1
REMARK minimizedAffinity 1.92711866
REMARK minimizedRMSD -1
REMARK  0 active torsions:
REMARK  status: ('A' for Active; 'I' for Inactive)
ROOT
ATOM      1  C1  BNZ d   1      -0.221  -1.593   1.349  0.00  0.00     0.000 A 
ATOM      2  C2  BNZ d   1      -0.897  -0.866   2.292  0.00  0.00     0.000 A 
ATOM      3  C3  BNZ d   1      -0.227  -0.241   3.307  0.00  0.00     0.000 A 
ATOM      4  C4  BNZ d   1       1.111  -0.377   3.401  0.00  0.00     0.000 A 
ATOM      5  C5  BNZ d   1       1.806  -1.115   2.463  0.00  0.00     0.000 A 
ATOM      6  C6  BNZ d   1       1.133  -1.711   1.421  0.00  0.00     0.000 A 
ENDROOT
TORSDOF 0
ENDMDL
