MODEL 1
REMARK minimizedAffinity 5.22420311
REMARK minimizedRMSD -1
REMARK  0 active torsions:
REMARK  status: ('A' for Active; 'I' for Inactive)
ROOT
ATOM      1  C1  BNZ d   1       2.164  -0.655  -0.875  0.00  0.00     0.000 A 
ATOM      2  C2  BNZ d   1       1.934  -0.098  -2.105  0.00  0.00     0.000 A 
ATOM      3  C3  BNZ d   1       2.160   1.232  -2.325  0.00  0.00     0.000 A 
ATOM      4  C4  BNZ d   1       2.578   2.010  -1.306  0.00  0.00     0.000 A 
ATOM      5  C5  BNZ d   1       2.806   1.466  -0.058  0.00  0.00     0.000 A 
ATOM      6  C6  BNZ d   1       2.614   0.119   0.150  0.00  0.00     0.000 A 
ENDROOT
TORSDOF 0
ENDMDL
