MODEL 1
REMARK minimizedAffinity 1.52027941
REMARK minimizedRMSD -1
REMARK  0 active torsions:
REMARK  status: ('A' for Active; 'I' for Inactive)
ROOT
ATOM      1  C1  BNZ d   1      -0.141   0.826  -2.333  0.00  0.00     0.000 A 
ATOM      2  C2  BNZ d   1       1.153   0.900  -1.892  0.00  0.00     0.000 A 
ATOM      3  C3  BNZ d   1       1.832   2.086  -1.911  0.00  0.00     0.000 A 
ATOM      4  C4  BNZ d   1       1.231   3.187  -2.407  0.00  0.00     0.000 A 
ATOM      5  C5  BNZ d   1      -0.071   3.126  -2.864  0.00  0.00     0.000 A 
ATOM      6  C6  BNZ d   1      -0.764   1.938  -2.807  0.00  0.00     0.000 A 
ENDROOT
TORSDOF 0
ENDMDL
