MODEL 1
REMARK minimizedAffinity -0.129552484
REMARK minimizedRMSD -1
REMARK  1 active torsions:
REMARK  status: ('A' for Active; 'I' for Inactive)
REMARK    1  A    between atoms: N_2  and  C1_3 
ROOT
ATOM      1  C1  UNL d   1      -2.609   1.355   0.989  0.00  0.00     0.143 A 
ATOM      2  C2  UNL d   1      -3.159   0.244   0.341  0.00  0.00    -0.057 A 
ATOM      3  C3  UNL d   1      -3.557  -0.891   1.058  0.00  0.00     0.033 A 
ATOM      4  C4  UNL d   1      -3.384  -0.946   2.437  0.00  0.00    -0.042 A 
ATOM      5  C5  UNL d   1      -2.816   0.136   3.099  0.00  0.00     0.033 A 
ATOM      6  C6  UNL d   1      -2.427   1.270   2.378  0.00  0.00    -0.057 A 
ENDROOT
BRANCH   1   7
ATOM      7  N   UNL d   1      -2.103   2.473   0.321  0.00  0.00    -0.732 N 
ATOM      8  C   UNL d   1      -2.972   3.309  -0.479  0.00  0.00     0.284 C 
ATOM      9  H3  UNL d   1      -1.431   2.990   0.884  0.00  0.00     0.395 HD
ENDBRANCH   1   7
TORSDOF 1
ENDMDL
