MODEL 1
REMARK minimizedAffinity -3.1122117
REMARK minimizedRMSD -1
REMARK  1 active torsions:
REMARK  status: ('A' for Active; 'I' for Inactive)
REMARK    1  A    between atoms: N_2  and  C1_3 
ROOT
ATOM      1  C1  UNL d   1      -2.522   0.801   0.918  0.00  0.00     0.143 A 
ATOM      2  C2  UNL d   1      -2.379  -0.581   0.753  0.00  0.00    -0.057 A 
ATOM      3  C3  UNL d   1      -2.350  -1.445   1.855  0.00  0.00     0.033 A 
ATOM      4  C4  UNL d   1      -2.435  -0.936   3.147  0.00  0.00    -0.042 A 
ATOM      5  C5  UNL d   1      -2.552   0.436   3.335  0.00  0.00     0.033 A 
ATOM      6  C6  UNL d   1      -2.587   1.293   2.231  0.00  0.00    -0.057 A 
ENDROOT
BRANCH   1   7
ATOM      7  N   UNL d   1      -2.458   1.720  -0.132  0.00  0.00    -0.732 N 
ATOM      8  C   UNL d   1      -3.402   2.813  -0.213  0.00  0.00     0.284 C 
ATOM      9  H3  UNL d   1      -1.502   1.979  -0.365  0.00  0.00     0.395 HD
ENDBRANCH   1   7
TORSDOF 1
ENDMDL
