MODEL 1
REMARK minimizedAffinity 0.227953911
REMARK minimizedRMSD -1
REMARK  1 active torsions:
REMARK  status: ('A' for Active; 'I' for Inactive)
REMARK    1  A    between atoms: N_2  and  C1_3 
ROOT
ATOM      1  C1  UNL d   1      -3.007   0.960   0.366  0.00  0.00     0.143 A 
ATOM      2  C2  UNL d   1      -4.019   1.517  -0.424  0.00  0.00    -0.057 A 
ATOM      3  C3  UNL d   1      -4.172   2.904  -0.535  0.00  0.00     0.033 A 
ATOM      4  C4  UNL d   1      -3.331   3.762   0.167  0.00  0.00    -0.042 A 
ATOM      5  C5  UNL d   1      -2.335   3.230   0.977  0.00  0.00     0.033 A 
ATOM      6  C6  UNL d   1      -2.182   1.844   1.079  0.00  0.00    -0.057 A 
ENDROOT
BRANCH   1   7
ATOM      7  N   UNL d   1      -2.865  -0.411   0.595  0.00  0.00    -0.732 N 
ATOM      8  C   UNL d   1      -2.678  -0.918   1.938  0.00  0.00     0.284 C 
ATOM      9  H3  UNL d   1      -3.498  -0.967   0.025  0.00  0.00     0.395 HD
ENDBRANCH   1   7
TORSDOF 1
ENDMDL
