MODEL 1
REMARK minimizedAffinity 6.41552925
REMARK minimizedRMSD -1
REMARK  1 active torsions:
REMARK  status: ('A' for Active; 'I' for Inactive)
REMARK    1  A    between atoms: N_2  and  C1_3 
ROOT
ATOM      1  C1  UNL d   1      -2.910  -1.082   1.678  0.00  0.00     0.143 A 
ATOM      2  C2  UNL d   1      -4.032  -1.613   2.321  0.00  0.00    -0.057 A 
ATOM      3  C3  UNL d   1      -4.251  -1.408   3.689  0.00  0.00     0.033 A 
ATOM      4  C4  UNL d   1      -3.333  -0.688   4.446  0.00  0.00    -0.042 A 
ATOM      5  C5  UNL d   1      -2.197  -0.171   3.833  0.00  0.00     0.033 A 
ATOM      6  C6  UNL d   1      -1.987  -0.374   2.465  0.00  0.00    -0.057 A 
ENDROOT
BRANCH   1   7
ATOM      7  N   UNL d   1      -2.585  -1.334   0.343  0.00  0.00    -0.732 N 
ATOM      8  C   UNL d   1      -1.736  -2.451  -0.010  0.00  0.00     0.284 C 
ATOM      9  H3  UNL d   1      -3.378  -1.201  -0.281  0.00  0.00     0.395 HD
ENDBRANCH   1   7
TORSDOF 1
ENDMDL
