MODEL 1
REMARK minimizedAffinity 2.27050757
REMARK minimizedRMSD -1
REMARK  1 active torsions:
REMARK  status: ('A' for Active; 'I' for Inactive)
REMARK    1  A    between atoms: N_2  and  C1_3 
ROOT
ATOM      1  C1  UNL d   1       5.236   3.594   4.126  0.00  0.00     0.143 A 
ATOM      2  C2  UNL d   1       4.507   2.800   3.234  0.00  0.00    -0.057 A 
ATOM      3  C3  UNL d   1       4.500   1.404   3.342  0.00  0.00     0.033 A 
ATOM      4  C4  UNL d   1       5.247   0.774   4.331  0.00  0.00    -0.042 A 
ATOM      5  C5  UNL d   1       5.999   1.541   5.214  0.00  0.00     0.033 A 
ATOM      6  C6  UNL d   1       5.997   2.935   5.105  0.00  0.00    -0.057 A 
ENDROOT
BRANCH   1   7
ATOM      7  N   UNL d   1       5.362   4.980   4.010  0.00  0.00    -0.732 N 
ATOM      8  C   UNL d   1       5.997   5.753   5.056  0.00  0.00     0.284 C 
ATOM      9  H3  UNL d   1       5.613   5.270   3.068  0.00  0.00     0.395 HD
ENDBRANCH   1   7
TORSDOF 1
ENDMDL
