MODEL 1
REMARK minimizedAffinity -0.639152169
REMARK minimizedRMSD -1
REMARK  1 active torsions:
REMARK  status: ('A' for Active; 'I' for Inactive)
REMARK    1  A    between atoms: N_2  and  C1_3 
ROOT
ATOM      1  C1  UNL d   1      -2.971   1.205   0.902  0.00  0.00     0.143 A 
ATOM      2  C2  UNL d   1      -3.829   1.411  -0.184  0.00  0.00    -0.057 A 
ATOM      3  C3  UNL d   1      -4.131   2.701  -0.636  0.00  0.00     0.033 A 
ATOM      4  C4  UNL d   1      -3.602   3.813   0.011  0.00  0.00    -0.042 A 
ATOM      5  C5  UNL d   1      -2.767   3.633   1.108  0.00  0.00     0.033 A 
ATOM      6  C6  UNL d   1      -2.464   2.341   1.551  0.00  0.00    -0.057 A 
ENDROOT
BRANCH   1   7
ATOM      7  N   UNL d   1      -2.711  -0.049   1.460  0.00  0.00    -0.732 N 
ATOM      8  C   UNL d   1      -2.586  -0.207   2.893  0.00  0.00     0.284 C 
ATOM      9  H3  UNL d   1      -3.233  -0.794   1.004  0.00  0.00     0.395 HD
ENDBRANCH   1   7
TORSDOF 1
ENDMDL
