MODEL 1
REMARK minimizedAffinity -2.55427957
REMARK minimizedRMSD -1
REMARK  1 active torsions:
REMARK  status: ('A' for Active; 'I' for Inactive)
REMARK    1  A    between atoms: N_2  and  C1_3 
ROOT
ATOM      1  C1  UNL d   1       1.670  -2.763   1.019  0.00  0.00     0.143 A 
ATOM      2  C2  UNL d   1       0.891  -2.446  -0.098  0.00  0.00    -0.057 A 
ATOM      3  C3  UNL d   1      -0.227  -3.215  -0.446  0.00  0.00     0.033 A 
ATOM      4  C4  UNL d   1      -0.568  -4.336   0.304  0.00  0.00    -0.042 A 
ATOM      5  C5  UNL d   1       0.207  -4.684   1.405  0.00  0.00     0.033 A 
ATOM      6  C6  UNL d   1       1.318  -3.909   1.750  0.00  0.00    -0.057 A 
ENDROOT
BRANCH   1   7
ATOM      7  N   UNL d   1       2.850  -2.096   1.359  0.00  0.00    -0.732 N 
ATOM      8  C   UNL d   1       2.823  -0.966   2.263  0.00  0.00     0.284 C 
ATOM      9  H3  UNL d   1       3.626  -2.735   1.515  0.00  0.00     0.395 HD
ENDBRANCH   1   7
TORSDOF 1
ENDMDL
