MODEL 1
REMARK minimizedAffinity 5.29364109
REMARK minimizedRMSD -1
REMARK  1 active torsions:
REMARK  status: ('A' for Active; 'I' for Inactive)
REMARK    1  A    between atoms: N_2  and  C1_3 
ROOT
ATOM      1  C1  UNL d   1       4.811   1.553   3.149  0.00  0.00     0.143 A 
ATOM      2  C2  UNL d   1       4.845   0.354   2.428  0.00  0.00    -0.057 A 
ATOM      3  C3  UNL d   1       5.420  -0.802   2.968  0.00  0.00     0.033 A 
ATOM      4  C4  UNL d   1       6.000  -0.772   4.232  0.00  0.00    -0.042 A 
ATOM      5  C5  UNL d   1       6.000   0.414   4.957  0.00  0.00     0.033 A 
ATOM      6  C6  UNL d   1       5.418   1.564   4.414  0.00  0.00    -0.057 A 
ENDROOT
BRANCH   1   7
ATOM      7  N   UNL d   1       4.341   2.761   2.627  0.00  0.00    -0.732 N 
ATOM      8  C   UNL d   1       3.368   2.773   1.556  0.00  0.00     0.284 C 
ATOM      9  H3  UNL d   1       4.172   3.456   3.351  0.00  0.00     0.395 HD
ENDBRANCH   1   7
TORSDOF 1
ENDMDL
