MODEL 1
REMARK minimizedAffinity 0.489779353
REMARK minimizedRMSD -1
REMARK  1 active torsions:
REMARK  status: ('A' for Active; 'I' for Inactive)
REMARK    1  A    between atoms: N_2  and  C1_3 
ROOT
ATOM      1  C1  UNL d   1       4.880   0.277   2.624  0.00  0.00     0.143 A 
ATOM      2  C2  UNL d   1       4.865   1.612   2.204  0.00  0.00    -0.057 A 
ATOM      3  C3  UNL d   1       5.430   2.626   2.988  0.00  0.00     0.033 A 
ATOM      4  C4  UNL d   1       5.996   2.325   4.222  0.00  0.00    -0.042 A 
ATOM      5  C5  UNL d   1       6.000   1.009   4.671  0.00  0.00     0.033 A 
ATOM      6  C6  UNL d   1       5.440   0.000   3.881  0.00  0.00    -0.057 A 
ENDROOT
BRANCH   1   7
ATOM      7  N   UNL d   1       4.248  -0.761   1.936  0.00  0.00    -0.732 N 
ATOM      8  C   UNL d   1       3.769  -1.929   2.643  0.00  0.00     0.284 C 
ATOM      9  H3  UNL d   1       3.613  -0.421   1.217  0.00  0.00     0.395 HD
ENDBRANCH   1   7
TORSDOF 1
ENDMDL
