MODEL 1
REMARK minimizedAffinity 7.78488684
REMARK minimizedRMSD -1
REMARK  1 active torsions:
REMARK  status: ('A' for Active; 'I' for Inactive)
REMARK    1  A    between atoms: N_2  and  C1_3 
ROOT
ATOM      1  C1  UNL d   1       5.083   3.563   3.405  0.00  0.00     0.143 A 
ATOM      2  C2  UNL d   1       4.204   2.878   2.560  0.00  0.00    -0.057 A 
ATOM      3  C3  UNL d   1       4.195   1.479   2.501  0.00  0.00     0.033 A 
ATOM      4  C4  UNL d   1       5.090   0.739   3.268  0.00  0.00    -0.042 A 
ATOM      5  C5  UNL d   1       5.990   1.401   4.096  0.00  0.00     0.033 A 
ATOM      6  C6  UNL d   1       5.989   2.798   4.155  0.00  0.00    -0.057 A 
ENDROOT
BRANCH   1   7
ATOM      7  N   UNL d   1       5.207   4.955   3.435  0.00  0.00    -0.732 N 
ATOM      8  C   UNL d   1       5.975   5.604   4.475  0.00  0.00     0.284 C 
ATOM      9  H3  UNL d   1       5.341   5.353   2.508  0.00  0.00     0.395 HD
ENDBRANCH   1   7
TORSDOF 1
ENDMDL
