MODEL 1
REMARK minimizedAffinity 2.22234678
REMARK minimizedRMSD -1
REMARK  1 active torsions:
REMARK  status: ('A' for Active; 'I' for Inactive)
REMARK    1  A    between atoms: N_2  and  C1_3 
ROOT
ATOM      1  C1  UNL d   1       4.428   1.935   3.103  0.00  0.00     0.143 A 
ATOM      2  C2  UNL d   1       5.396   1.890   4.113  0.00  0.00    -0.057 A 
ATOM      3  C3  UNL d   1       5.667   0.704   4.806  0.00  0.00     0.033 A 
ATOM      4  C4  UNL d   1       4.952  -0.454   4.521  0.00  0.00    -0.042 A 
ATOM      5  C5  UNL d   1       3.968  -0.427   3.539  0.00  0.00     0.033 A 
ATOM      6  C6  UNL d   1       3.707   0.758   2.845  0.00  0.00    -0.057 A 
ENDROOT
BRANCH   1   7
ATOM      7  N   UNL d   1       4.044   3.106   2.446  0.00  0.00    -0.732 N 
ATOM      8  C   UNL d   1       3.034   3.072   1.409  0.00  0.00     0.284 C 
ATOM      9  H3  UNL d   1       3.964   3.898   3.079  0.00  0.00     0.395 HD
ENDBRANCH   1   7
TORSDOF 1
ENDMDL
