MODEL 1
REMARK minimizedAffinity 1.277022
REMARK minimizedRMSD -1
REMARK  1 active torsions:
REMARK  status: ('A' for Active; 'I' for Inactive)
REMARK    1  A    between atoms: N_2  and  C1_3 
ROOT
ATOM      1  C1  UNL d   1      -3.455   0.273   2.401  0.00  0.00     0.143 A 
ATOM      2  C2  UNL d   1      -2.935   1.563   2.250  0.00  0.00    -0.057 A 
ATOM      3  C3  UNL d   1      -2.799   2.147   0.985  0.00  0.00     0.033 A 
ATOM      4  C4  UNL d   1      -3.155   1.438  -0.158  0.00  0.00    -0.042 A 
ATOM      5  C5  UNL d   1      -3.651   0.144  -0.033  0.00  0.00     0.033 A 
ATOM      6  C6  UNL d   1      -3.790  -0.431   1.234  0.00  0.00    -0.057 A 
ENDROOT
BRANCH   1   7
ATOM      7  N   UNL d   1      -3.522  -0.400   3.624  0.00  0.00    -0.732 N 
ATOM      8  C   UNL d   1      -2.378  -0.436   4.509  0.00  0.00     0.284 C 
ATOM      9  H3  UNL d   1      -4.411  -0.256   4.098  0.00  0.00     0.395 HD
ENDBRANCH   1   7
TORSDOF 1
ENDMDL
