MODEL 1
REMARK minimizedAffinity -2.21759462
REMARK minimizedRMSD -1
REMARK  1 active torsions:
REMARK  status: ('A' for Active; 'I' for Inactive)
REMARK    1  A    between atoms: N_2  and  C1_3 
ROOT
ATOM      1  C1  UNL d   1       3.539  -0.745   2.610  0.00  0.00     0.143 A 
ATOM      2  C2  UNL d   1       3.550  -1.479   3.801  0.00  0.00    -0.057 A 
ATOM      3  C3  UNL d   1       4.232  -1.015   4.933  0.00  0.00     0.033 A 
ATOM      4  C4  UNL d   1       4.941   0.181   4.884  0.00  0.00    -0.042 A 
ATOM      5  C5  UNL d   1       4.964   0.914   3.703  0.00  0.00     0.033 A 
ATOM      6  C6  UNL d   1       4.276   0.449   2.578  0.00  0.00    -0.057 A 
ENDROOT
BRANCH   1   7
ATOM      7  N   UNL d   1       2.963  -1.201   1.422  0.00  0.00    -0.732 N 
ATOM      8  C   UNL d   1       2.313  -2.492   1.365  0.00  0.00     0.284 C 
ATOM      9  H3  UNL d   1       2.468  -0.464   0.923  0.00  0.00     0.395 HD
ENDBRANCH   1   7
TORSDOF 1
ENDMDL
