MODEL 1
REMARK minimizedAffinity -0.813277066
REMARK minimizedRMSD -1
REMARK  1 active torsions:
REMARK  status: ('A' for Active; 'I' for Inactive)
REMARK    1  A    between atoms: N_2  and  C1_3 
ROOT
ATOM      1  C1  UNL d   1       0.613  -2.613  -1.508  0.00  0.00     0.143 A 
ATOM      2  C2  UNL d   1      -0.574  -2.687  -0.772  0.00  0.00    -0.057 A 
ATOM      3  C3  UNL d   1      -0.636  -3.389   0.439  0.00  0.00     0.033 A 
ATOM      4  C4  UNL d   1       0.486  -4.054   0.921  0.00  0.00    -0.042 A 
ATOM      5  C5  UNL d   1       1.671  -4.015   0.194  0.00  0.00     0.033 A 
ATOM      6  C6  UNL d   1       1.727  -3.307  -1.011  0.00  0.00    -0.057 A 
ENDROOT
BRANCH   1   7
ATOM      7  N   UNL d   1       0.712  -2.014  -2.766  0.00  0.00    -0.732 N 
ATOM      8  C   UNL d   1       1.052  -0.613  -2.891  0.00  0.00     0.284 C 
ATOM      9  H3  UNL d   1       1.170  -2.616  -3.447  0.00  0.00     0.395 HD
ENDBRANCH   1   7
TORSDOF 1
ENDMDL
