MODEL 1
REMARK minimizedAffinity -0.875524819
REMARK minimizedRMSD -1
REMARK  1 active torsions:
REMARK  status: ('A' for Active; 'I' for Inactive)
REMARK    1  A    between atoms: N_2  and  C1_3 
ROOT
ATOM      1  C1  UNL d   1      -3.037   2.122   0.858  0.00  0.00     0.143 A 
ATOM      2  C2  UNL d   1      -2.837   1.156   1.851  0.00  0.00    -0.057 A 
ATOM      3  C3  UNL d   1      -3.228  -0.174   1.659  0.00  0.00     0.033 A 
ATOM      4  C4  UNL d   1      -3.854  -0.558   0.478  0.00  0.00    -0.042 A 
ATOM      5  C5  UNL d   1      -4.085   0.390  -0.513  0.00  0.00     0.033 A 
ATOM      6  C6  UNL d   1      -3.687   1.715  -0.318  0.00  0.00    -0.057 A 
ENDROOT
BRANCH   1   7
ATOM      7  N   UNL d   1      -2.760   3.480   1.028  0.00  0.00    -0.732 N 
ATOM      8  C   UNL d   1      -3.261   4.458   0.085  0.00  0.00     0.284 C 
ATOM      9  H3  UNL d   1      -2.822   3.771   2.001  0.00  0.00     0.395 HD
ENDBRANCH   1   7
TORSDOF 1
ENDMDL
