MODEL 1
REMARK minimizedAffinity 0.540866435
REMARK minimizedRMSD -1
REMARK  0 active torsions:
REMARK  status: ('A' for Active; 'I' for Inactive)
ROOT
ATOM      1  C   UNL d   1      -6.000  -0.225  -4.389  0.00  0.00     0.078 C 
ATOM      2  C1  UNL d   1      -4.568   0.206  -4.282  0.00  0.00    -0.077 A 
ATOM      3  C2  UNL d   1      -4.064   1.241  -5.079  0.00  0.00    -0.001 A 
ATOM      4  C3  UNL d   1      -2.726   1.625  -4.976  0.00  0.00     0.003 A 
ATOM      5  C4  UNL d   1      -1.880   0.979  -4.077  0.00  0.00    -0.005 A 
ATOM      6  C5  UNL d   1      -2.372  -0.054  -3.281  0.00  0.00     0.003 A 
ATOM      7  C6  UNL d   1      -3.709  -0.439  -3.383  0.00  0.00    -0.001 A 
ENDROOT
TORSDOF 0
ENDMDL
