MODEL 1
REMARK minimizedAffinity 9.0958643
REMARK minimizedRMSD -1
REMARK  0 active torsions:
REMARK  status: ('A' for Active; 'I' for Inactive)
ROOT
ATOM      1  C   UNL d   1      -2.951   1.207  -5.906  0.00  0.00     0.078 C 
ATOM      2  C1  UNL d   1      -4.015   1.556  -4.908  0.00  0.00    -0.077 A 
ATOM      3  C2  UNL d   1      -4.132   2.857  -4.405  0.00  0.00    -0.001 A 
ATOM      4  C3  UNL d   1      -5.120   3.166  -3.469  0.00  0.00     0.003 A 
ATOM      5  C4  UNL d   1      -5.999   2.178  -3.028  0.00  0.00    -0.005 A 
ATOM      6  C5  UNL d   1      -5.889   0.880  -3.522  0.00  0.00     0.003 A 
ATOM      7  C6  UNL d   1      -4.901   0.570  -4.458  0.00  0.00    -0.001 A 
ENDROOT
TORSDOF 0
ENDMDL
