MODEL 1
REMARK minimizedAffinity 11.0400267
REMARK minimizedRMSD -1
REMARK  0 active torsions:
REMARK  status: ('A' for Active; 'I' for Inactive)
ROOT
ATOM      1  C   UNL d   1      -0.038  -5.243  -1.168  0.00  0.00     0.078 C 
ATOM      2  C1  UNL d   1      -0.988  -5.228  -2.328  0.00  0.00    -0.077 A 
ATOM      3  C2  UNL d   1      -2.161  -4.464  -2.290  0.00  0.00    -0.001 A 
ATOM      4  C3  UNL d   1      -3.041  -4.467  -3.373  0.00  0.00     0.003 A 
ATOM      5  C4  UNL d   1      -2.758  -5.234  -4.502  0.00  0.00    -0.005 A 
ATOM      6  C5  UNL d   1      -1.595  -5.999  -4.548  0.00  0.00     0.003 A 
ATOM      7  C6  UNL d   1      -0.714  -5.997  -3.466  0.00  0.00    -0.001 A 
ENDROOT
TORSDOF 0
ENDMDL
