MODEL 1
REMARK minimizedAffinity 2.69153309
REMARK minimizedRMSD -1
REMARK  0 active torsions:
REMARK  status: ('A' for Active; 'I' for Inactive)
ROOT
ATOM      1  C   UNL d   1       2.946  -2.214  -0.566  0.00  0.00     0.078 C 
ATOM      2  C1  UNL d   1       3.859  -1.024  -0.577  0.00  0.00    -0.077 A 
ATOM      3  C2  UNL d   1       3.467   0.181  -1.171  0.00  0.00    -0.001 A 
ATOM      4  C3  UNL d   1       4.331   1.277  -1.182  0.00  0.00     0.003 A 
ATOM      5  C4  UNL d   1       5.593   1.179  -0.601  0.00  0.00    -0.005 A 
ATOM      6  C5  UNL d   1       5.994  -0.018  -0.009  0.00  0.00     0.003 A 
ATOM      7  C6  UNL d   1       5.131  -1.115   0.002  0.00  0.00    -0.001 A 
ENDROOT
TORSDOF 0
ENDMDL
