MODEL 1
REMARK minimizedAffinity 14.2125425
REMARK minimizedRMSD -1
REMARK  0 active torsions:
REMARK  status: ('A' for Active; 'I' for Inactive)
ROOT
ATOM      1  C   UNL d   1      -0.718  -5.980   6.000  0.00  0.00     0.078 C 
ATOM      2  C1  UNL d   1       0.106  -4.874   5.411  0.00  0.00    -0.077 A 
ATOM      3  C2  UNL d   1       1.327  -4.500   5.985  0.00  0.00    -0.001 A 
ATOM      4  C3  UNL d   1       2.079  -3.462   5.432  0.00  0.00     0.003 A 
ATOM      5  C4  UNL d   1       1.617  -2.788   4.303  0.00  0.00    -0.005 A 
ATOM      6  C5  UNL d   1       0.401  -3.151   3.726  0.00  0.00     0.003 A 
ATOM      7  C6  UNL d   1      -0.352  -4.189   4.278  0.00  0.00    -0.001 A 
ENDROOT
TORSDOF 0
ENDMDL
