MODEL 1
REMARK minimizedAffinity 9.84403896
REMARK minimizedRMSD -1
REMARK  0 active torsions:
REMARK  status: ('A' for Active; 'I' for Inactive)
ROOT
ATOM      1  C   UNL d   1       3.282  -0.060  -0.015  0.00  0.00     0.078 C 
ATOM      2  C1  UNL d   1       1.905   0.404   0.358  0.00  0.00    -0.077 A 
ATOM      3  C2  UNL d   1       0.947   0.680  -0.625  0.00  0.00    -0.001 A 
ATOM      4  C3  UNL d   1      -0.327   1.121  -0.264  0.00  0.00     0.003 A 
ATOM      5  C4  UNL d   1      -0.654   1.291   1.079  0.00  0.00    -0.005 A 
ATOM      6  C5  UNL d   1       0.294   1.022   2.064  0.00  0.00     0.003 A 
ATOM      7  C6  UNL d   1       1.568   0.581   1.705  0.00  0.00    -0.001 A 
ENDROOT
TORSDOF 0
ENDMDL
