MODEL 1
REMARK minimizedAffinity 5.4086585
REMARK minimizedRMSD -1
REMARK  0 active torsions:
REMARK  status: ('A' for Active; 'I' for Inactive)
ROOT
ATOM      1  C   UNL d   1       1.131  -2.439   3.208  0.00  0.00     0.078 C 
ATOM      2  C1  UNL d   1       0.505  -3.385   4.188  0.00  0.00    -0.077 A 
ATOM      3  C2  UNL d   1       1.276  -4.336   4.867  0.00  0.00    -0.001 A 
ATOM      4  C3  UNL d   1       0.678  -5.217   5.769  0.00  0.00     0.003 A 
ATOM      5  C4  UNL d   1      -0.695  -5.157   6.000  0.00  0.00    -0.005 A 
ATOM      6  C5  UNL d   1      -1.471  -4.215   5.327  0.00  0.00     0.003 A 
ATOM      7  C6  UNL d   1      -0.875  -3.334   4.424  0.00  0.00    -0.001 A 
ENDROOT
TORSDOF 0
ENDMDL
