MODEL 1
REMARK minimizedAffinity -4.55524254
REMARK minimizedRMSD -1
REMARK  0 active torsions:
REMARK  status: ('A' for Active; 'I' for Inactive)
ROOT
ATOM      1  C1  DEN d   1      -0.852   1.345  -0.881  0.00  0.00     0.130 A 
ATOM      2  C2  DEN d   1      -0.387   0.737  -2.125  0.00  0.00    -0.031 A 
ATOM      3  C3  DEN d   1       0.508  -0.385  -1.778  0.00  0.00     0.027 A 
ATOM      4  C4  DEN d   1       1.211  -1.239   0.552  0.00  0.00     0.027 A 
ATOM      5  C5  DEN d   1       1.081  -1.036   1.909  0.00  0.00    -0.003 A 
ATOM      6  C6  DEN d   1       0.332  -0.012   2.425  0.00  0.00     0.001 A 
ATOM      7  C7  DEN d   1      -0.354   0.820   1.580  0.00  0.00     0.017 A 
ATOM      8  C8  DEN d   1      -0.223   0.626   0.212  0.00  0.00    -0.094 A 
ATOM      9  C9  DEN d   1       0.530  -0.422  -0.291  0.00  0.00    -0.072 A 
ENDROOT
TORSDOF 0
ENDMDL
