MODEL 1
REMARK minimizedAffinity -1.39621329
REMARK minimizedRMSD -1
REMARK  0 active torsions:
REMARK  status: ('A' for Active; 'I' for Inactive)
ROOT
ATOM      1  C1  DEN d   1      -1.722   0.990   1.225  0.00  0.00     0.130 A 
ATOM      2  C2  DEN d   1      -0.775  -0.088   1.494  0.00  0.00    -0.031 A 
ATOM      3  C3  DEN d   1       0.047  -0.286   0.283  0.00  0.00     0.027 A 
ATOM      4  C4  DEN d   1      -0.050   0.970  -1.967  0.00  0.00     0.027 A 
ATOM      5  C5  DEN d   1      -0.698   1.959  -2.673  0.00  0.00    -0.003 A 
ATOM      6  C6  DEN d   1      -1.746   2.666  -2.146  0.00  0.00     0.001 A 
ATOM      7  C7  DEN d   1      -2.148   2.424  -0.859  0.00  0.00     0.017 A 
ATOM      8  C8  DEN d   1      -1.505   1.423  -0.143  0.00  0.00    -0.094 A 
ATOM      9  C9  DEN d   1      -0.439   0.728  -0.690  0.00  0.00    -0.072 A 
ENDROOT
TORSDOF 0
ENDMDL
