MODEL 1
REMARK minimizedAffinity -1.66997409
REMARK minimizedRMSD -1
REMARK  0 active torsions:
REMARK  status: ('A' for Active; 'I' for Inactive)
ROOT
ATOM      1  C1  DEN d   1       0.457   0.005  -1.189  0.00  0.00     0.130 A 
ATOM      2  C2  DEN d   1      -0.673   0.551  -0.443  0.00  0.00    -0.031 A 
ATOM      3  C3  DEN d   1      -0.732  -0.134   0.864  0.00  0.00     0.027 A 
ATOM      4  C4  DEN d   1       0.813  -1.974   1.802  0.00  0.00     0.027 A 
ATOM      5  C5  DEN d   1       1.904  -2.769   1.531  0.00  0.00    -0.003 A 
ATOM      6  C6  DEN d   1       2.564  -2.720   0.332  0.00  0.00     0.001 A 
ATOM      7  C7  DEN d   1       2.165  -1.825  -0.626  0.00  0.00     0.017 A 
ATOM      8  C8  DEN d   1       1.061  -1.025  -0.363  0.00  0.00    -0.094 A 
ATOM      9  C9  DEN d   1       0.415  -1.081   0.861  0.00  0.00    -0.072 A 
ENDROOT
TORSDOF 0
ENDMDL
