MODEL 1
REMARK minimizedAffinity -1.56163645
REMARK minimizedRMSD -1
REMARK  0 active torsions:
REMARK  status: ('A' for Active; 'I' for Inactive)
ROOT
ATOM      1  C1  DEN d   1      -1.705   2.664  -2.808  0.00  0.00     0.130 A 
ATOM      2  C2  DEN d   1      -0.533   3.489  -3.091  0.00  0.00    -0.031 A 
ATOM      3  C3  DEN d   1       0.657   2.784  -2.574  0.00  0.00     0.027 A 
ATOM      4  C4  DEN d   1       0.799   0.505  -1.374  0.00  0.00     0.027 A 
ATOM      5  C5  DEN d   1       0.068  -0.560  -0.898  0.00  0.00    -0.003 A 
ATOM      6  C6  DEN d   1      -1.298  -0.610  -0.994  0.00  0.00     0.001 A 
ATOM      7  C7  DEN d   1      -1.971   0.405  -1.621  0.00  0.00     0.017 A 
ATOM      8  C8  DEN d   1      -1.241   1.487  -2.097  0.00  0.00    -0.094 A 
ATOM      9  C9  DEN d   1       0.140   1.512  -2.001  0.00  0.00    -0.072 A 
ENDROOT
TORSDOF 0
ENDMDL
