MODEL 1
REMARK minimizedAffinity -2.50815487
REMARK minimizedRMSD -1
REMARK  0 active torsions:
REMARK  status: ('A' for Active; 'I' for Inactive)
ROOT
ATOM      1  C1  DEN d   1       2.213  -2.003  -0.397  0.00  0.00     0.130 A 
ATOM      2  C2  DEN d   1       2.854  -2.908   0.553  0.00  0.00    -0.031 A 
ATOM      3  C3  DEN d   1       2.151  -2.784   1.847  0.00  0.00     0.027 A 
ATOM      4  C4  DEN d   1       0.141  -1.291   2.465  0.00  0.00     0.027 A 
ATOM      5  C5  DEN d   1      -0.740  -0.343   1.994  0.00  0.00    -0.003 A 
ATOM      6  C6  DEN d   1      -0.677   0.140   0.713  0.00  0.00     0.001 A 
ATOM      7  C7  DEN d   1       0.258  -0.358  -0.155  0.00  0.00     0.017 A 
ATOM      8  C8  DEN d   1       1.155  -1.309   0.315  0.00  0.00    -0.094 A 
ATOM      9  C9  DEN d   1       1.067  -1.793   1.610  0.00  0.00    -0.072 A 
ENDROOT
TORSDOF 0
ENDMDL
