MODEL 1
REMARK minimizedAffinity -3.74715352
REMARK minimizedRMSD -1
REMARK  0 active torsions:
REMARK  status: ('A' for Active; 'I' for Inactive)
ROOT
ATOM      1  C1  DEN d   1      -0.247   3.063  -1.788  0.00  0.00     0.130 A 
ATOM      2  C2  DEN d   1      -1.140   2.783  -2.909  0.00  0.00    -0.031 A 
ATOM      3  C3  DEN d   1      -1.605   1.387  -2.784  0.00  0.00     0.027 A 
ATOM      4  C4  DEN d   1      -1.036  -0.357  -0.971  0.00  0.00     0.027 A 
ATOM      5  C5  DEN d   1      -0.312  -0.587   0.177  0.00  0.00    -0.003 A 
ATOM      6  C6  DEN d   1       0.505   0.365   0.728  0.00  0.00     0.001 A 
ATOM      7  C7  DEN d   1       0.582   1.607   0.155  0.00  0.00     0.017 A 
ATOM      8  C8  DEN d   1      -0.140   1.843  -1.007  0.00  0.00    -0.094 A 
ATOM      9  C9  DEN d   1      -0.969   0.872  -1.542  0.00  0.00    -0.072 A 
ENDROOT
TORSDOF 0
ENDMDL
