MODEL 1
REMARK minimizedAffinity -5.10166454
REMARK minimizedRMSD -1
REMARK  0 active torsions:
REMARK  status: ('A' for Active; 'I' for Inactive)
ROOT
ATOM      1  C1  DEN d   1      -0.382  -0.172  -1.236  0.00  0.00     0.130 A 
ATOM      2  C2  DEN d   1       0.862  -0.277  -0.479  0.00  0.00    -0.031 A 
ATOM      3  C3  DEN d   1       1.518   1.046  -0.493  0.00  0.00     0.027 A 
ATOM      4  C4  DEN d   1       0.729   3.236  -1.604  0.00  0.00     0.027 A 
ATOM      5  C5  DEN d   1      -0.260   3.814  -2.368  0.00  0.00    -0.003 A 
ATOM      6  C6  DEN d   1      -1.334   3.102  -2.833  0.00  0.00     0.001 A 
ATOM      7  C7  DEN d   1      -1.467   1.780  -2.500  0.00  0.00     0.017 A 
ATOM      8  C8  DEN d   1      -0.469   1.188  -1.736  0.00  0.00    -0.094 A 
ATOM      9  C9  DEN d   1       0.602   1.928  -1.266  0.00  0.00    -0.072 A 
ENDROOT
TORSDOF 0
ENDMDL
