MODEL 1
REMARK minimizedAffinity 4.53290892
REMARK minimizedRMSD -1
REMARK  1 active torsions:
REMARK  status: ('A' for Active; 'I' for Inactive)
REMARK    1  A    between atoms: N_2  and  C1_3 
ROOT
ATOM      1  C1  UNL d   1      -4.866  -2.785  -4.148  0.00  0.00     0.143 A 
ATOM      2  C2  UNL d   1      -5.999  -3.584  -4.335  0.00  0.00    -0.057 A 
ATOM      3  C3  UNL d   1      -5.994  -4.651  -5.241  0.00  0.00     0.033 A 
ATOM      4  C4  UNL d   1      -4.860  -4.921  -6.000  0.00  0.00    -0.042 A 
ATOM      5  C5  UNL d   1      -3.730  -4.124  -5.849  0.00  0.00     0.033 A 
ATOM      6  C6  UNL d   1      -3.740  -3.064  -4.938  0.00  0.00    -0.057 A 
ENDROOT
BRANCH   1   7
ATOM      7  N   UNL d   1      -4.841  -1.649  -3.335  0.00  0.00    -0.732 N 
ATOM      8  C   UNL d   1      -4.138  -0.456  -3.757  0.00  0.00     0.284 C 
ATOM      9  H3  UNL d   1      -5.739  -1.467  -2.893  0.00  0.00     0.395 HD
ENDBRANCH   1   7
TORSDOF 1
ENDMDL
