MODEL 1
REMARK minimizedAffinity 1.18494284
REMARK minimizedRMSD -1
REMARK  1 active torsions:
REMARK  status: ('A' for Active; 'I' for Inactive)
REMARK    1  A    between atoms: N_2  and  C1_3 
ROOT
ATOM      1  C1  UNL d   1       1.495  -0.760   3.180  0.00  0.00     0.143 A 
ATOM      2  C2  UNL d   1       1.366   0.425   3.912  0.00  0.00    -0.057 A 
ATOM      3  C3  UNL d   1       2.019   1.598   3.516  0.00  0.00     0.033 A 
ATOM      4  C4  UNL d   1       2.841   1.599   2.393  0.00  0.00    -0.042 A 
ATOM      5  C5  UNL d   1       3.005   0.426   1.665  0.00  0.00     0.033 A 
ATOM      6  C6  UNL d   1       2.344  -0.740   2.061  0.00  0.00    -0.057 A 
ENDROOT
BRANCH   1   7
ATOM      7  N   UNL d   1       0.950  -1.983   3.577  0.00  0.00    -0.732 N 
ATOM      8  C   UNL d   1       1.608  -3.228   3.241  0.00  0.00     0.284 C 
ATOM      9  H3  UNL d   1       0.576  -1.953   4.523  0.00  0.00     0.395 HD
ENDBRANCH   1   7
TORSDOF 1
ENDMDL
