MODEL 1
REMARK minimizedAffinity 1.79875147
REMARK minimizedRMSD -1
REMARK  1 active torsions:
REMARK  status: ('A' for Active; 'I' for Inactive)
REMARK    1  A    between atoms: N_2  and  C1_3 
ROOT
ATOM      1  C1  UNL d   1       3.653  -3.097   3.384  0.00  0.00     0.143 A 
ATOM      2  C2  UNL d   1       2.641  -4.039   3.598  0.00  0.00    -0.057 A 
ATOM      3  C3  UNL d   1       1.292  -3.709   3.419  0.00  0.00     0.033 A 
ATOM      4  C4  UNL d   1       0.929  -2.418   3.049  0.00  0.00    -0.042 A 
ATOM      5  C5  UNL d   1       1.916  -1.459   2.856  0.00  0.00     0.033 A 
ATOM      6  C6  UNL d   1       3.262  -1.797   3.029  0.00  0.00    -0.057 A 
ENDROOT
BRANCH   1   7
ATOM      7  N   UNL d   1       5.005  -3.337   3.640  0.00  0.00    -0.732 N 
ATOM      8  C   UNL d   1       5.999  -2.324   3.359  0.00  0.00     0.284 C 
ATOM      9  H3  UNL d   1       5.152  -3.831   4.517  0.00  0.00     0.395 HD
ENDBRANCH   1   7
TORSDOF 1
ENDMDL
