MODEL 1
REMARK minimizedAffinity 2.43946409
REMARK minimizedRMSD -1
REMARK  1 active torsions:
REMARK  status: ('A' for Active; 'I' for Inactive)
REMARK    1  A    between atoms: N_2  and  C1_3 
ROOT
ATOM      1  C1  UNL d   1       3.667  -2.994   3.494  0.00  0.00     0.143 A 
ATOM      2  C2  UNL d   1       2.809  -4.091   3.620  0.00  0.00    -0.057 A 
ATOM      3  C3  UNL d   1       1.442  -3.981   3.334  0.00  0.00     0.033 A 
ATOM      4  C4  UNL d   1       0.904  -2.759   2.944  0.00  0.00    -0.042 A 
ATOM      5  C5  UNL d   1       1.733  -1.649   2.836  0.00  0.00     0.033 A 
ATOM      6  C6  UNL d   1       3.098  -1.767   3.117  0.00  0.00    -0.057 A 
ENDROOT
BRANCH   1   7
ATOM      7  N   UNL d   1       5.016  -3.015   3.858  0.00  0.00    -0.732 N 
ATOM      8  C   UNL d   1       5.996  -2.268   3.099  0.00  0.00     0.284 C 
ATOM      9  H3  UNL d   1       5.147  -2.969   4.866  0.00  0.00     0.395 HD
ENDBRANCH   1   7
TORSDOF 1
ENDMDL
