MODEL 1
REMARK minimizedAffinity -1.31210947
REMARK minimizedRMSD -1
REMARK  1 active torsions:
REMARK  status: ('A' for Active; 'I' for Inactive)
REMARK    1  A    between atoms: N_2  and  C1_3 
ROOT
ATOM      1  C1  UNL d   1       3.559  -2.495   3.511  0.00  0.00     0.143 A 
ATOM      2  C2  UNL d   1       2.491  -3.255   4.000  0.00  0.00    -0.057 A 
ATOM      3  C3  UNL d   1       1.217  -3.169   3.426  0.00  0.00     0.033 A 
ATOM      4  C4  UNL d   1       0.981  -2.297   2.369  0.00  0.00    -0.042 A 
ATOM      5  C5  UNL d   1       2.021  -1.513   1.883  0.00  0.00     0.033 A 
ATOM      6  C6  UNL d   1       3.293  -1.609   2.455  0.00  0.00    -0.057 A 
ENDROOT
BRANCH   1   7
ATOM      7  N   UNL d   1       4.825  -2.463   4.101  0.00  0.00    -0.732 N 
ATOM      8  C   UNL d   1       5.999  -2.157   3.311  0.00  0.00     0.284 C 
ATOM      9  H3  UNL d   1       4.815  -2.022   5.018  0.00  0.00     0.395 HD
ENDBRANCH   1   7
TORSDOF 1
ENDMDL
