MODEL 1
REMARK minimizedAffinity -1.34184313
REMARK minimizedRMSD -1
REMARK  0 active torsions:
REMARK  status: ('A' for Active; 'I' for Inactive)
ROOT
ATOM      1  C   UNL d   1      -1.720  -1.771   0.025  0.00  0.00     0.124 A 
ATOM      2  C1  UNL d   1      -0.660  -2.010   0.889  0.00  0.00     0.062 A 
ATOM      3  C2  UNL d   1       0.462  -1.187   0.864  0.00  0.00     0.162 A 
ATOM      4  C3  UNL d   1       0.531  -0.117  -0.027  0.00  0.00    -0.034 A 
ATOM      5  C4  UNL d   1      -0.538   0.117  -0.894  0.00  0.00     0.162 A 
ATOM      6  C5  UNL d   1      -1.658  -0.708  -0.865  0.00  0.00     0.062 A 
ATOM      7  F   UNL d   1      -2.681  -0.475  -1.700  0.00  0.00    -0.097 F 
ATOM      8  F1  UNL d   1      -0.505   1.137  -1.764  0.00  0.00    -0.096 F 
ATOM      9  I   UNL d   1       2.208   1.115  -0.068  0.00  0.00    -0.060 I 
ATOM     10  F2  UNL d   1       1.472  -1.442   1.710  0.00  0.00    -0.096 F 
ATOM     11  F3  UNL d   1      -0.717  -3.037   1.750  0.00  0.00    -0.097 F 
ATOM     12  F4  UNL d   1      -2.798  -2.564   0.051  0.00  0.00    -0.092 F 
ENDROOT
TORSDOF 0
ENDMDL
