MODEL 1
REMARK minimizedAffinity -3.01693654
REMARK minimizedRMSD -1
REMARK  0 active torsions:
REMARK  status: ('A' for Active; 'I' for Inactive)
ROOT
ATOM      1  C   UNL d   1      -1.721  -1.858  -0.047  0.00  0.00     0.124 A 
ATOM      2  C1  UNL d   1      -1.712  -0.740  -0.870  0.00  0.00     0.062 A 
ATOM      3  C2  UNL d   1      -0.646   0.153  -0.827  0.00  0.00     0.162 A 
ATOM      4  C3  UNL d   1       0.422  -0.068   0.043  0.00  0.00    -0.034 A 
ATOM      5  C4  UNL d   1       0.406  -1.193   0.869  0.00  0.00     0.162 A 
ATOM      6  C5  UNL d   1      -0.662  -2.083   0.821  0.00  0.00     0.062 A 
ATOM      7  F   UNL d   1      -0.669  -3.162   1.618  0.00  0.00    -0.097 F 
ATOM      8  F1  UNL d   1       1.416  -1.436   1.717  0.00  0.00    -0.096 F 
ATOM      9  I   UNL d   1       2.018   1.266   0.112  0.00  0.00    -0.060 I 
ATOM     10  F2  UNL d   1      -0.664   1.225  -1.633  0.00  0.00    -0.096 F 
ATOM     11  F3  UNL d   1      -2.734  -0.520  -1.710  0.00  0.00    -0.097 F 
ATOM     12  F4  UNL d   1      -2.749  -2.715  -0.091  0.00  0.00    -0.092 F 
ENDROOT
TORSDOF 0
ENDMDL
