MODEL 1
REMARK minimizedAffinity 1.24448335
REMARK minimizedRMSD -1
REMARK  0 active torsions:
REMARK  status: ('A' for Active; 'I' for Inactive)
ROOT
ATOM      1  C   UNL d   1      -1.583  -1.309  -0.314  0.00  0.00     0.124 A 
ATOM      2  C1  UNL d   1      -1.403  -0.184  -1.107  0.00  0.00     0.062 A 
ATOM      3  C2  UNL d   1      -0.258   0.595  -0.966  0.00  0.00     0.162 A 
ATOM      4  C3  UNL d   1       0.717   0.251  -0.030  0.00  0.00    -0.034 A 
ATOM      5  C4  UNL d   1       0.528  -0.881   0.765  0.00  0.00     0.162 A 
ATOM      6  C5  UNL d   1      -0.618  -1.656   0.621  0.00  0.00     0.062 A 
ATOM      7  F   UNL d   1      -0.791  -2.743   1.388  0.00  0.00    -0.097 F 
ATOM      8  F1  UNL d   1       1.445  -1.241   1.675  0.00  0.00    -0.096 F 
ATOM      9  I   UNL d   1       2.431   1.413   0.183  0.00  0.00    -0.060 I 
ATOM     10  F2  UNL d   1      -0.110   1.677  -1.746  0.00  0.00    -0.096 F 
ATOM     11  F3  UNL d   1      -2.334   0.155  -2.010  0.00  0.00    -0.097 F 
ATOM     12  F4  UNL d   1      -2.687  -2.056  -0.450  0.00  0.00    -0.092 F 
ENDROOT
TORSDOF 0
ENDMDL
