MODEL 1
REMARK minimizedAffinity 4.52972937
REMARK minimizedRMSD -1
REMARK  0 active torsions:
REMARK  status: ('A' for Active; 'I' for Inactive)
ROOT
ATOM      1  C   UNL d   1      -2.046  -1.787   0.151  0.00  0.00     0.124 A 
ATOM      2  C1  UNL d   1      -2.038  -0.627  -0.611  0.00  0.00     0.062 A 
ATOM      3  C2  UNL d   1      -0.930   0.215  -0.593  0.00  0.00     0.162 A 
ATOM      4  C3  UNL d   1       0.180  -0.099   0.191  0.00  0.00    -0.034 A 
ATOM      5  C4  UNL d   1       0.165  -1.267   0.955  0.00  0.00     0.162 A 
ATOM      6  C5  UNL d   1      -0.945  -2.106   0.933  0.00  0.00     0.062 A 
ATOM      7  F   UNL d   1      -0.950  -3.226   1.671  0.00  0.00    -0.097 F 
ATOM      8  F1  UNL d   1       1.215  -1.600   1.720  0.00  0.00    -0.096 F 
ATOM      9  I   UNL d   1       1.838   1.158   0.221  0.00  0.00    -0.060 I 
ATOM     10  F2  UNL d   1      -0.951   1.330  -1.339  0.00  0.00    -0.096 F 
ATOM     11  F3  UNL d   1      -3.101  -0.317  -1.367  0.00  0.00    -0.097 F 
ATOM     12  F4  UNL d   1      -3.113  -2.596   0.132  0.00  0.00    -0.092 F 
ENDROOT
TORSDOF 0
ENDMDL
