MODEL 1
REMARK minimizedAffinity -1.95274711
REMARK minimizedRMSD -1
REMARK  0 active torsions:
REMARK  status: ('A' for Active; 'I' for Inactive)
ROOT
ATOM      1  C   UNL d   1      -1.886  -1.756  -0.124  0.00  0.00     0.124 A 
ATOM      2  C1  UNL d   1      -0.899  -2.111   0.784  0.00  0.00     0.062 A 
ATOM      3  C2  UNL d   1       0.220  -1.300   0.954  0.00  0.00     0.162 A 
ATOM      4  C3  UNL d   1       0.356  -0.125   0.215  0.00  0.00    -0.034 A 
ATOM      5  C4  UNL d   1      -0.641   0.225  -0.697  0.00  0.00     0.162 A 
ATOM      6  C5  UNL d   1      -1.757  -0.589  -0.864  0.00  0.00     0.062 A 
ATOM      7  F   UNL d   1      -2.710  -0.244  -1.742  0.00  0.00    -0.097 F 
ATOM      8  F1  UNL d   1      -0.542   1.348  -1.424  0.00  0.00    -0.096 F 
ATOM      9  I   UNL d   1       2.027   1.091   0.466  0.00  0.00    -0.060 I 
ATOM     10  F2  UNL d   1       1.159  -1.667   1.839  0.00  0.00    -0.096 F 
ATOM     11  F3  UNL d   1      -1.021  -3.238   1.499  0.00  0.00    -0.097 F 
ATOM     12  F4  UNL d   1      -2.961  -2.538  -0.287  0.00  0.00    -0.092 F 
ENDROOT
TORSDOF 0
ENDMDL
