MODEL 1
REMARK minimizedAffinity -0.0312543958
REMARK minimizedRMSD -1
REMARK  0 active torsions:
REMARK  status: ('A' for Active; 'I' for Inactive)
ROOT
ATOM      1  C   UNL d   1      -1.445  -2.008  -0.162  0.00  0.00     0.124 A 
ATOM      2  C1  UNL d   1      -0.477  -2.158   0.822  0.00  0.00     0.062 A 
ATOM      3  C2  UNL d   1       0.589  -1.266   0.898  0.00  0.00     0.162 A 
ATOM      4  C3  UNL d   1       0.693  -0.215  -0.013  0.00  0.00    -0.034 A 
ATOM      5  C4  UNL d   1      -0.284  -0.071  -1.001  0.00  0.00     0.162 A 
ATOM      6  C5  UNL d   1      -1.347  -0.965  -1.072  0.00  0.00     0.062 A 
ATOM      7  F   UNL d   1      -2.280  -0.819  -2.024  0.00  0.00    -0.097 F 
ATOM      8  F1  UNL d   1      -0.214   0.928  -1.893  0.00  0.00    -0.096 F 
ATOM      9  I   UNL d   1       2.285   1.121   0.096  0.00  0.00    -0.060 I 
ATOM     10  F2  UNL d   1       1.509  -1.435   1.859  0.00  0.00    -0.096 F 
ATOM     11  F3  UNL d   1      -0.569  -3.165   1.702  0.00  0.00    -0.097 F 
ATOM     12  F4  UNL d   1      -2.469  -2.868  -0.233  0.00  0.00    -0.092 F 
ENDROOT
TORSDOF 0
ENDMDL
