MODEL 1
REMARK minimizedAffinity -0.0398064815
REMARK minimizedRMSD -1
REMARK  0 active torsions:
REMARK  status: ('A' for Active; 'I' for Inactive)
ROOT
ATOM      1  C   UNL d   1      -1.514  -1.168  -0.284  0.00  0.00     0.124 A 
ATOM      2  C1  UNL d   1      -1.425  -0.107  -1.175  0.00  0.00     0.062 A 
ATOM      3  C2  UNL d   1      -0.262   0.656  -1.241  0.00  0.00     0.162 A 
ATOM      4  C3  UNL d   1       0.821   0.361  -0.414  0.00  0.00    -0.034 A 
ATOM      5  C4  UNL d   1       0.724  -0.707   0.480  0.00  0.00     0.162 A 
ATOM      6  C5  UNL d   1      -0.440  -1.467   0.542  0.00  0.00     0.062 A 
ATOM      7  F   UNL d   1      -0.524  -2.491   1.404  0.00  0.00    -0.097 F 
ATOM      8  F1  UNL d   1       1.747  -1.018   1.290  0.00  0.00    -0.096 F 
ATOM      9  I   UNL d   1       2.561   1.499  -0.509  0.00  0.00    -0.060 I 
ATOM     10  F2  UNL d   1      -0.204   1.675  -2.111  0.00  0.00    -0.096 F 
ATOM     11  F3  UNL d   1      -2.461   0.184  -1.974  0.00  0.00    -0.097 F 
ATOM     12  F4  UNL d   1      -2.633  -1.900  -0.222  0.00  0.00    -0.092 F 
ENDROOT
TORSDOF 0
ENDMDL
