MODEL 1
REMARK minimizedAffinity 0.0848860964
REMARK minimizedRMSD -1
REMARK  0 active torsions:
REMARK  status: ('A' for Active; 'I' for Inactive)
ROOT
ATOM      1  C   UNL d   1      -1.888  -1.478  -0.248  0.00  0.00     0.124 A 
ATOM      2  C1  UNL d   1      -0.779  -1.776   0.530  0.00  0.00     0.062 A 
ATOM      3  C2  UNL d   1       0.266  -0.862   0.640  0.00  0.00     0.162 A 
ATOM      4  C3  UNL d   1       0.205   0.359  -0.031  0.00  0.00    -0.034 A 
ATOM      5  C4  UNL d   1      -0.914   0.651  -0.813  0.00  0.00     0.162 A 
ATOM      6  C5  UNL d   1      -1.955  -0.265  -0.919  0.00  0.00     0.062 A 
ATOM      7  F   UNL d   1      -3.026   0.024  -1.672  0.00  0.00    -0.097 F 
ATOM      8  F1  UNL d   1      -1.005   1.817  -1.471  0.00  0.00    -0.096 F 
ATOM      9  I   UNL d   1       1.764   1.728   0.130  0.00  0.00    -0.060 I 
ATOM     10  F2  UNL d   1       1.326  -1.177   1.399  0.00  0.00    -0.096 F 
ATOM     11  F3  UNL d   1      -0.711  -2.948   1.179  0.00  0.00    -0.097 F 
ATOM     12  F4  UNL d   1      -2.891  -2.360  -0.353  0.00  0.00    -0.092 F 
ENDROOT
TORSDOF 0
ENDMDL
