MODEL 1
REMARK minimizedAffinity -2.71079397
REMARK minimizedRMSD -1
REMARK  0 active torsions:
REMARK  status: ('A' for Active; 'I' for Inactive)
ROOT
ATOM      1  C   UNL d   1      -1.881  -1.878   0.370  0.00  0.00     0.124 A 
ATOM      2  C1  UNL d   1      -0.808  -2.264   1.161  0.00  0.00     0.062 A 
ATOM      3  C2  UNL d   1       0.361  -1.508   1.173  0.00  0.00     0.162 A 
ATOM      4  C3  UNL d   1       0.463  -0.357   0.392  0.00  0.00    -0.034 A 
ATOM      5  C4  UNL d   1      -0.620   0.025  -0.402  0.00  0.00     0.162 A 
ATOM      6  C5  UNL d   1      -1.786  -0.734  -0.411  0.00  0.00     0.062 A 
ATOM      7  F   UNL d   1      -2.822  -0.360  -1.176  0.00  0.00    -0.097 F 
ATOM      8  F1  UNL d   1      -0.556   1.126  -1.166  0.00  0.00    -0.096 F 
ATOM      9  I   UNL d   1       2.208   0.776   0.407  0.00  0.00    -0.060 I 
ATOM     10  F2  UNL d   1       1.382  -1.905   1.947  0.00  0.00    -0.096 F 
ATOM     11  F3  UNL d   1      -0.896  -3.369   1.916  0.00  0.00    -0.097 F 
ATOM     12  F4  UNL d   1      -3.003  -2.608   0.359  0.00  0.00    -0.092 F 
ENDROOT
TORSDOF 0
ENDMDL
