MODEL 1
REMARK minimizedAffinity -0.931624353
REMARK minimizedRMSD -1
REMARK  0 active torsions:
REMARK  status: ('A' for Active; 'I' for Inactive)
ROOT
ATOM      1  C   UNL d   1      -1.763  -1.653  -0.243  0.00  0.00     0.124 A 
ATOM      2  C1  UNL d   1      -0.631  -2.026   0.468  0.00  0.00     0.062 A 
ATOM      3  C2  UNL d   1       0.476  -1.184   0.513  0.00  0.00     0.162 A 
ATOM      4  C3  UNL d   1       0.457   0.041  -0.155  0.00  0.00    -0.034 A 
ATOM      5  C4  UNL d   1      -0.685   0.408  -0.869  0.00  0.00     0.162 A 
ATOM      6  C5  UNL d   1      -1.789  -0.437  -0.911  0.00  0.00     0.062 A 
ATOM      7  F   UNL d   1      -2.882  -0.075  -1.599  0.00  0.00    -0.097 F 
ATOM      8  F1  UNL d   1      -0.738   1.578  -1.522  0.00  0.00    -0.096 F 
ATOM      9  I   UNL d   1       2.110   1.303  -0.090  0.00  0.00    -0.060 I 
ATOM     10  F2  UNL d   1       1.557  -1.569   1.208  0.00  0.00    -0.096 F 
ATOM     11  F3  UNL d   1      -0.602  -3.201   1.113  0.00  0.00    -0.097 F 
ATOM     12  F4  UNL d   1      -2.826  -2.466  -0.286  0.00  0.00    -0.092 F 
ENDROOT
TORSDOF 0
ENDMDL
