MODEL 1
REMARK minimizedAffinity 1.77204037
REMARK minimizedRMSD -1
REMARK  0 active torsions:
REMARK  status: ('A' for Active; 'I' for Inactive)
ROOT
ATOM      1  C   UNL d   1      -1.494  -1.701  -0.442  0.00  0.00     0.124 A 
ATOM      2  C1  UNL d   1      -0.469  -1.931   0.464  0.00  0.00     0.062 A 
ATOM      3  C2  UNL d   1       0.526  -0.976   0.652  0.00  0.00     0.162 A 
ATOM      4  C3  UNL d   1       0.501   0.218  -0.068  0.00  0.00    -0.034 A 
ATOM      5  C4  UNL d   1      -0.533   0.442  -0.979  0.00  0.00     0.162 A 
ATOM      6  C5  UNL d   1      -1.526  -0.515  -1.163  0.00  0.00     0.062 A 
ATOM      7  F   UNL d   1      -2.516  -0.292  -2.039  0.00  0.00    -0.097 F 
ATOM      8  F1  UNL d   1      -0.589   1.579  -1.687  0.00  0.00    -0.096 F 
ATOM      9  I   UNL d   1       1.987   1.648   0.210  0.00  0.00    -0.060 I 
ATOM     10  F2  UNL d   1       1.505  -1.225   1.535  0.00  0.00    -0.096 F 
ATOM     11  F3  UNL d   1      -0.436  -3.076   1.161  0.00  0.00    -0.097 F 
ATOM     12  F4  UNL d   1      -2.450  -2.622  -0.622  0.00  0.00    -0.092 F 
ENDROOT
TORSDOF 0
ENDMDL
