MODEL 1
REMARK minimizedAffinity -2.6136899
REMARK minimizedRMSD -1
REMARK  0 active torsions:
REMARK  status: ('A' for Active; 'I' for Inactive)
ROOT
ATOM      1  C   UNL d   1      -1.571  -1.477  -0.252  0.00  0.00     0.124 A 
ATOM      2  C1  UNL d   1      -0.610  -1.737   0.716  0.00  0.00     0.062 A 
ATOM      3  C2  UNL d   1       0.471  -0.876   0.878  0.00  0.00     0.162 A 
ATOM      4  C3  UNL d   1       0.597   0.256   0.071  0.00  0.00    -0.034 A 
ATOM      5  C4  UNL d   1      -0.373   0.510  -0.900  0.00  0.00     0.162 A 
ATOM      6  C5  UNL d   1      -1.452  -0.354  -1.059  0.00  0.00     0.062 A 
ATOM      7  F   UNL d   1      -2.379  -0.102  -1.994  0.00  0.00    -0.097 F 
ATOM      8  F1  UNL d   1      -0.283   1.588  -1.693  0.00  0.00    -0.096 F 
ATOM      9  I   UNL d   1       2.211   1.547   0.311  0.00  0.00    -0.060 I 
ATOM     10  F2  UNL d   1       1.384  -1.151   1.821  0.00  0.00    -0.096 F 
ATOM     11  F3  UNL d   1      -0.723  -2.822   1.496  0.00  0.00    -0.097 F 
ATOM     12  F4  UNL d   1      -2.609  -2.309  -0.407  0.00  0.00    -0.092 F 
ENDROOT
TORSDOF 0
ENDMDL
