MODEL 1
REMARK minimizedAffinity 5.15557241
REMARK minimizedRMSD -1
REMARK  0 active torsions:
REMARK  status: ('A' for Active; 'I' for Inactive)
ROOT
ATOM      1  C   UNL d   1      -2.572  -0.247  -1.479  0.00  0.00     0.124 A 
ATOM      2  C1  UNL d   1      -1.209  -0.197  -1.733  0.00  0.00     0.062 A 
ATOM      3  C2  UNL d   1      -0.306  -0.735  -0.820  0.00  0.00     0.162 A 
ATOM      4  C3  UNL d   1      -0.765  -1.328   0.356  0.00  0.00    -0.034 A 
ATOM      5  C4  UNL d   1      -2.138  -1.373   0.605  0.00  0.00     0.162 A 
ATOM      6  C5  UNL d   1      -3.035  -0.834  -0.310  0.00  0.00     0.062 A 
ATOM      7  F   UNL d   1      -4.352  -0.883  -0.063  0.00  0.00    -0.097 F 
ATOM      8  F1  UNL d   1      -2.613  -1.936   1.726  0.00  0.00    -0.096 F 
ATOM      9  I   UNL d   1       0.581  -2.133   1.724  0.00  0.00    -0.060 I 
ATOM     10  F2  UNL d   1       1.006  -0.673  -1.092  0.00  0.00    -0.096 F 
ATOM     11  F3  UNL d   1      -0.758   0.371  -2.861  0.00  0.00    -0.097 F 
ATOM     12  F4  UNL d   1      -3.438   0.273  -2.359  0.00  0.00    -0.092 F 
ENDROOT
TORSDOF 0
ENDMDL
