MODEL 1
REMARK minimizedAffinity -1.22746623
REMARK minimizedRMSD -1
REMARK  0 active torsions:
REMARK  status: ('A' for Active; 'I' for Inactive)
ROOT
ATOM      1  C   UNL d   1       2.646   2.625   0.739  0.00  0.00     0.124 A 
ATOM      2  C1  UNL d   1       1.343   2.975   1.064  0.00  0.00     0.062 A 
ATOM      3  C2  UNL d   1       0.279   2.190   0.632  0.00  0.00     0.162 A 
ATOM      4  C3  UNL d   1       0.512   1.044  -0.129  0.00  0.00    -0.034 A 
ATOM      5  C4  UNL d   1       1.826   0.699  -0.453  0.00  0.00     0.162 A 
ATOM      6  C5  UNL d   1       2.886   1.487  -0.019  0.00  0.00     0.062 A 
ATOM      7  F   UNL d   1       4.145   1.147  -0.334  0.00  0.00    -0.097 F 
ATOM      8  F1  UNL d   1       2.086  -0.396  -1.182  0.00  0.00    -0.096 F 
ATOM      9  I   UNL d   1      -1.077  -0.133  -0.776  0.00  0.00    -0.060 I 
ATOM     10  F2  UNL d   1      -0.970   2.552   0.961  0.00  0.00    -0.096 F 
ATOM     11  F3  UNL d   1       1.109   4.075   1.795  0.00  0.00    -0.097 F 
ATOM     12  F4  UNL d   1       3.669   3.383   1.155  0.00  0.00    -0.092 F 
ENDROOT
TORSDOF 0
ENDMDL
