MODEL 1
REMARK minimizedAffinity 2.8826232
REMARK minimizedRMSD -1
REMARK  0 active torsions:
REMARK  status: ('A' for Active; 'I' for Inactive)
ROOT
ATOM      1  C   UNL d   1      -1.668  -1.183  -0.168  0.00  0.00     0.124 A 
ATOM      2  C1  UNL d   1      -0.743  -1.270   0.863  0.00  0.00     0.062 A 
ATOM      3  C2  UNL d   1       0.382  -0.450   0.866  0.00  0.00     0.162 A 
ATOM      4  C3  UNL d   1       0.588   0.465  -0.166  0.00  0.00    -0.034 A 
ATOM      5  C4  UNL d   1      -0.347   0.547  -1.201  0.00  0.00     0.162 A 
ATOM      6  C5  UNL d   1      -1.469  -0.275  -1.199  0.00  0.00     0.062 A 
ATOM      7  F   UNL d   1      -2.362  -0.189  -2.196  0.00  0.00    -0.097 F 
ATOM      8  F1  UNL d   1      -0.180   1.416  -2.208  0.00  0.00    -0.096 F 
ATOM      9  I   UNL d   1       2.268   1.693  -0.166  0.00  0.00    -0.060 I 
ATOM     10  F2  UNL d   1       1.259  -0.556   1.875  0.00  0.00    -0.096 F 
ATOM     11  F3  UNL d   1      -0.932  -2.147   1.859  0.00  0.00    -0.097 F 
ATOM     12  F4  UNL d   1      -2.749  -1.974  -0.169  0.00  0.00    -0.092 F 
ENDROOT
TORSDOF 0
ENDMDL
