MODEL 1
REMARK minimizedAffinity 18.3018532
REMARK minimizedRMSD -1
REMARK  0 active torsions:
REMARK  status: ('A' for Active; 'I' for Inactive)
ROOT
ATOM      1  C   UNL d   1      -1.847  -0.996   1.083  0.00  0.00     0.077 C 
ATOM      2  C1  UNL d   1      -1.334  -1.949   0.044  0.00  0.00    -0.074 A 
ATOM      3  C2  UNL d   1      -0.791  -3.185   0.409  0.00  0.00    -0.005 A 
ATOM      4  C3  UNL d   1      -0.327  -4.065  -0.569  0.00  0.00     0.006 A 
ATOM      5  C4  UNL d   1      -0.401  -3.718  -1.918  0.00  0.00    -0.005 A 
ATOM      6  C5  UNL d   1      -0.942  -2.487  -2.302  0.00  0.00    -0.074 A 
ATOM      7  C6  UNL d   1      -1.038  -2.103  -3.749  0.00  0.00     0.077 C 
ATOM      8  C7  UNL d   1      -1.412  -1.611  -1.314  0.00  0.00    -0.001 A 
ENDROOT
TORSDOF 0
ENDMDL
