MODEL 1
REMARK minimizedAffinity 14.4221706
REMARK minimizedRMSD -1
REMARK  0 active torsions:
REMARK  status: ('A' for Active; 'I' for Inactive)
ROOT
ATOM      1  C   UNL d   1       5.999   0.050   3.063  0.00  0.00     0.077 C 
ATOM      2  C1  UNL d   1       5.389   1.142   2.237  0.00  0.00    -0.074 A 
ATOM      3  C2  UNL d   1       4.281   1.860   2.699  0.00  0.00    -0.005 A 
ATOM      4  C3  UNL d   1       3.730   2.880   1.924  0.00  0.00     0.006 A 
ATOM      5  C4  UNL d   1       4.280   3.192   0.680  0.00  0.00    -0.005 A 
ATOM      6  C5  UNL d   1       5.388   2.486   0.201  0.00  0.00    -0.074 A 
ATOM      7  C6  UNL d   1       5.997   2.815  -1.129  0.00  0.00     0.077 C 
ATOM      8  C7  UNL d   1       5.940   1.467   0.989  0.00  0.00    -0.001 A 
ENDROOT
TORSDOF 0
ENDMDL
