MODEL 1
REMARK minimizedAffinity 4.19562387
REMARK minimizedRMSD -1
REMARK  0 active torsions:
REMARK  status: ('A' for Active; 'I' for Inactive)
ROOT
ATOM      1  C   UNL d   1       3.462   2.489   5.247  0.00  0.00     0.077 C 
ATOM      2  C1  UNL d   1       3.840   1.898   3.922  0.00  0.00    -0.074 A 
ATOM      3  C2  UNL d   1       4.520   0.678   3.847  0.00  0.00    -0.005 A 
ATOM      4  C3  UNL d   1       4.856   0.135   2.607  0.00  0.00     0.006 A 
ATOM      5  C4  UNL d   1       4.516   0.805   1.431  0.00  0.00    -0.005 A 
ATOM      6  C5  UNL d   1       3.835   2.025   1.486  0.00  0.00    -0.074 A 
ATOM      7  C6  UNL d   1       3.454   2.754   0.232  0.00  0.00     0.077 C 
ATOM      8  C7  UNL d   1       3.495   2.561   2.736  0.00  0.00    -0.001 A 
ENDROOT
TORSDOF 0
ENDMDL
