MODEL 1
REMARK minimizedAffinity 14.8583813
REMARK minimizedRMSD -1
REMARK  0 active torsions:
REMARK  status: ('A' for Active; 'I' for Inactive)
ROOT
ATOM      1  C   UNL d   1      -4.909   3.669  -5.998  0.00  0.00     0.077 C 
ATOM      2  C1  UNL d   1      -3.645   3.085  -5.441  0.00  0.00    -0.074 A 
ATOM      3  C2  UNL d   1      -3.684   2.117  -4.433  0.00  0.00    -0.005 A 
ATOM      4  C3  UNL d   1      -2.500   1.575  -3.931  0.00  0.00     0.006 A 
ATOM      5  C4  UNL d   1      -1.268   1.996  -4.433  0.00  0.00    -0.005 A 
ATOM      6  C5  UNL d   1      -1.209   2.963  -5.442  0.00  0.00    -0.074 A 
ATOM      7  C6  UNL d   1       0.107   3.419  -5.998  0.00  0.00     0.077 C 
ATOM      8  C7  UNL d   1      -2.403   3.497  -5.945  0.00  0.00    -0.001 A 
ENDROOT
TORSDOF 0
ENDMDL
