MODEL 1
REMARK minimizedAffinity 13.8074818
REMARK minimizedRMSD -1
REMARK  0 active torsions:
REMARK  status: ('A' for Active; 'I' for Inactive)
ROOT
ATOM      1  C   UNL d   1       3.713   2.072   4.821  0.00  0.00     0.077 C 
ATOM      2  C1  UNL d   1       4.348   1.876   3.476  0.00  0.00    -0.074 A 
ATOM      3  C2  UNL d   1       5.423   0.998   3.310  0.00  0.00    -0.005 A 
ATOM      4  C3  UNL d   1       5.997   0.819   2.051  0.00  0.00     0.006 A 
ATOM      5  C4  UNL d   1       5.502   1.516   0.948  0.00  0.00    -0.005 A 
ATOM      6  C5  UNL d   1       4.426   2.398   1.095  0.00  0.00    -0.074 A 
ATOM      7  C6  UNL d   1       3.876   3.147  -0.082  0.00  0.00     0.077 C 
ATOM      8  C7  UNL d   1       3.851   2.567   2.362  0.00  0.00    -0.001 A 
ENDROOT
TORSDOF 0
ENDMDL
