MODEL 1
REMARK minimizedAffinity 12.1090069
REMARK minimizedRMSD -1
REMARK  0 active torsions:
REMARK  status: ('A' for Active; 'I' for Inactive)
ROOT
ATOM      1  C   UNL d   1       3.751   2.668   5.391  0.00  0.00     0.077 C 
ATOM      2  C1  UNL d   1       4.382   2.182   4.119  0.00  0.00    -0.074 A 
ATOM      3  C2  UNL d   1       5.428   1.255   4.145  0.00  0.00    -0.005 A 
ATOM      4  C3  UNL d   1       5.998   0.805   2.954  0.00  0.00     0.006 A 
ATOM      5  C4  UNL d   1       5.528   1.277   1.728  0.00  0.00    -0.005 A 
ATOM      6  C5  UNL d   1       4.481   2.203   1.683  0.00  0.00    -0.074 A 
ATOM      7  C6  UNL d   1       3.957   2.713   0.373  0.00  0.00     0.077 C 
ATOM      8  C7  UNL d   1       3.909   2.645   2.883  0.00  0.00    -0.001 A 
ENDROOT
TORSDOF 0
ENDMDL
