MODEL 1
REMARK minimizedAffinity 14.5088444
REMARK minimizedRMSD -1
REMARK  0 active torsions:
REMARK  status: ('A' for Active; 'I' for Inactive)
ROOT
ATOM      1  C   UNL d   1       2.272   0.364  -1.710  0.00  0.00     0.077 C 
ATOM      2  C1  UNL d   1       3.575   0.231  -2.439  0.00  0.00    -0.074 A 
ATOM      3  C2  UNL d   1       4.253  -0.991  -2.485  0.00  0.00    -0.005 A 
ATOM      4  C3  UNL d   1       5.460  -1.101  -3.176  0.00  0.00     0.006 A 
ATOM      5  C4  UNL d   1       6.000   0.009  -3.827  0.00  0.00    -0.005 A 
ATOM      6  C5  UNL d   1       5.336   1.239  -3.793  0.00  0.00    -0.074 A 
ATOM      7  C6  UNL d   1       5.898   2.439  -4.496  0.00  0.00     0.077 C 
ATOM      8  C7  UNL d   1       4.120   1.340  -3.103  0.00  0.00    -0.001 A 
ENDROOT
TORSDOF 0
ENDMDL
