MODEL 1
REMARK minimizedAffinity 9.1819849
REMARK minimizedRMSD -1
REMARK  0 active torsions:
REMARK  status: ('A' for Active; 'I' for Inactive)
ROOT
ATOM      1  C   UNL d   1       5.999   0.078   3.280  0.00  0.00     0.077 C 
ATOM      2  C1  UNL d   1       5.498   1.227   2.457  0.00  0.00    -0.074 A 
ATOM      3  C2  UNL d   1       4.591   2.150   2.989  0.00  0.00    -0.005 A 
ATOM      4  C3  UNL d   1       4.141   3.220   2.215  0.00  0.00     0.006 A 
ATOM      5  C4  UNL d   1       4.591   3.377   0.904  0.00  0.00    -0.005 A 
ATOM      6  C5  UNL d   1       5.498   2.465   0.356  0.00  0.00    -0.074 A 
ATOM      7  C6  UNL d   1       6.000   2.625  -1.049  0.00  0.00     0.077 C 
ATOM      8  C7  UNL d   1       5.952   1.397   1.142  0.00  0.00    -0.001 A 
ENDROOT
TORSDOF 0
ENDMDL
