MODEL 1
REMARK minimizedAffinity 4.48791265
REMARK minimizedRMSD -1
REMARK  0 active torsions:
REMARK  status: ('A' for Active; 'I' for Inactive)
ROOT
ATOM      1  C   UNL d   1      -1.451  -1.861  -1.274  0.00  0.00     0.077 C 
ATOM      2  C1  UNL d   1      -1.528  -2.393   0.126  0.00  0.00    -0.074 A 
ATOM      3  C2  UNL d   1      -2.248  -1.715   1.115  0.00  0.00    -0.005 A 
ATOM      4  C3  UNL d   1      -2.319  -2.227   2.410  0.00  0.00     0.006 A 
ATOM      5  C4  UNL d   1      -1.672  -3.421   2.730  0.00  0.00    -0.005 A 
ATOM      6  C5  UNL d   1      -0.948  -4.115   1.754  0.00  0.00    -0.074 A 
ATOM      7  C6  UNL d   1      -0.255  -5.405   2.078  0.00  0.00     0.077 C 
ATOM      8  C7  UNL d   1      -0.888  -3.597   0.453  0.00  0.00    -0.001 A 
ENDROOT
TORSDOF 0
ENDMDL
