MODEL 1
REMARK minimizedAffinity 11.9754391
REMARK minimizedRMSD -1
REMARK  0 active torsions:
REMARK  status: ('A' for Active; 'I' for Inactive)
ROOT
ATOM      1  C   UNL d   1      -5.992   5.678  -3.533  0.00  0.00     0.077 C 
ATOM      2  C1  UNL d   1      -5.281   5.498  -2.225  0.00  0.00    -0.074 A 
ATOM      3  C2  UNL d   1      -3.978   5.975  -2.044  0.00  0.00    -0.005 A 
ATOM      4  C3  UNL d   1      -3.333   5.809  -0.819  0.00  0.00     0.006 A 
ATOM      5  C4  UNL d   1      -3.981   5.166   0.236  0.00  0.00    -0.005 A 
ATOM      6  C5  UNL d   1      -5.284   4.683   0.074  0.00  0.00    -0.074 A 
ATOM      7  C6  UNL d   1      -5.999   3.998   1.200  0.00  0.00     0.077 C 
ATOM      8  C7  UNL d   1      -5.929   4.860  -1.158  0.00  0.00    -0.001 A 
ENDROOT
TORSDOF 0
ENDMDL
