MODEL 1
REMARK minimizedAffinity 14.1225491
REMARK minimizedRMSD -1
REMARK  0 active torsions:
REMARK  status: ('A' for Active; 'I' for Inactive)
ROOT
ATOM      1  C   UNL d   1      -1.530  -1.463  -0.485  0.00  0.00     0.077 C 
ATOM      2  C1  UNL d   1      -1.566  -2.331   0.738  0.00  0.00    -0.074 A 
ATOM      3  C2  UNL d   1      -2.253  -1.926   1.887  0.00  0.00    -0.005 A 
ATOM      4  C3  UNL d   1      -2.285  -2.748   3.013  0.00  0.00     0.006 A 
ATOM      5  C4  UNL d   1      -1.633  -3.982   3.002  0.00  0.00    -0.005 A 
ATOM      6  C5  UNL d   1      -0.942  -4.404   1.861  0.00  0.00    -0.074 A 
ATOM      7  C6  UNL d   1      -0.244  -5.731   1.829  0.00  0.00     0.077 C 
ATOM      8  C7  UNL d   1      -0.920  -3.575   0.731  0.00  0.00    -0.001 A 
ENDROOT
TORSDOF 0
ENDMDL
