MODEL 1
REMARK minimizedAffinity 8.62710762
REMARK minimizedRMSD -1
REMARK  0 active torsions:
REMARK  status: ('A' for Active; 'I' for Inactive)
ROOT
ATOM      1  C   UNL d   1       6.000  -0.004   3.253  0.00  0.00     0.077 C 
ATOM      2  C1  UNL d   1       5.471   1.138   2.438  0.00  0.00    -0.074 A 
ATOM      3  C2  UNL d   1       4.516   2.014   2.963  0.00  0.00    -0.005 A 
ATOM      4  C3  UNL d   1       4.041   3.078   2.196  0.00  0.00     0.006 A 
ATOM      5  C4  UNL d   1       4.515   3.276   0.898  0.00  0.00    -0.005 A 
ATOM      6  C5  UNL d   1       5.471   2.411   0.357  0.00  0.00    -0.074 A 
ATOM      7  C6  UNL d   1       5.999   2.616  -1.032  0.00  0.00     0.077 C 
ATOM      8  C7  UNL d   1       5.949   1.349   1.137  0.00  0.00    -0.001 A 
ENDROOT
TORSDOF 0
ENDMDL
