MODEL 1
REMARK minimizedAffinity 11.7068148
REMARK minimizedRMSD -1
REMARK  0 active torsions:
REMARK  status: ('A' for Active; 'I' for Inactive)
ROOT
ATOM      1  C   UNL d   1      -4.679   3.259   5.994  0.00  0.00     0.077 C 
ATOM      2  C1  UNL d   1      -4.673   1.760   5.975  0.00  0.00    -0.074 A 
ATOM      3  C2  UNL d   1      -5.870   1.036   5.997  0.00  0.00    -0.005 A 
ATOM      4  C3  UNL d   1      -5.849  -0.358   5.970  0.00  0.00     0.006 A 
ATOM      5  C4  UNL d   1      -4.633  -1.042   5.921  0.00  0.00    -0.005 A 
ATOM      6  C5  UNL d   1      -3.427  -0.335   5.897  0.00  0.00    -0.074 A 
ATOM      7  C6  UNL d   1      -2.112  -1.055   5.834  0.00  0.00     0.077 C 
ATOM      8  C7  UNL d   1      -3.456   1.066   5.918  0.00  0.00    -0.001 A 
ENDROOT
TORSDOF 0
ENDMDL
