MODEL 1
REMARK minimizedAffinity 7.67283916
REMARK minimizedRMSD -1
REMARK  0 active torsions:
REMARK  status: ('A' for Active; 'I' for Inactive)
ROOT
ATOM      1  C   UNL d   1      -0.085  -5.139   0.029  0.00  0.00     0.077 C 
ATOM      2  C1  UNL d   1      -0.833  -3.841   0.102  0.00  0.00    -0.074 A 
ATOM      3  C2  UNL d   1      -0.814  -2.939  -0.966  0.00  0.00    -0.005 A 
ATOM      4  C3  UNL d   1      -1.523  -1.741  -0.888  0.00  0.00     0.006 A 
ATOM      5  C4  UNL d   1      -2.257  -1.432   0.258  0.00  0.00    -0.005 A 
ATOM      6  C5  UNL d   1      -2.289  -2.322   1.337  0.00  0.00    -0.074 A 
ATOM      7  C6  UNL d   1      -3.081  -2.011   2.572  0.00  0.00     0.077 C 
ATOM      8  C7  UNL d   1      -1.580  -3.528   1.247  0.00  0.00    -0.001 A 
ENDROOT
TORSDOF 0
ENDMDL
