MODEL 1
REMARK minimizedAffinity 3.17718506
REMARK minimizedRMSD -1
REMARK  0 active torsions:
REMARK  status: ('A' for Active; 'I' for Inactive)
ROOT
ATOM      1  C   UNL d   1      -1.869   5.999   0.865  0.00  0.00     0.172 C 
ATOM      2  N   UNL d   1      -0.964   5.347  -0.052  0.00  0.00    -0.070 N 
ATOM      3  C1  UNL d   1      -0.421   5.913  -1.174  0.00  0.00    -0.004 A 
ATOM      4  C2  UNL d   1       0.385   4.970  -1.774  0.00  0.00    -0.047 A 
ATOM      5  C3  UNL d   1       0.323   3.796  -0.986  0.00  0.00    -0.047 A 
ATOM      6  C4  UNL d   1      -0.520   4.058   0.074  0.00  0.00    -0.004 A 
ENDROOT
TORSDOF 0
ENDMDL
