MODEL 1
REMARK minimizedAffinity 0.0139419511
REMARK minimizedRMSD -1
REMARK  0 active torsions:
REMARK  status: ('A' for Active; 'I' for Inactive)
ROOT
ATOM      1  C   UNL d   1       0.288  -0.517   4.090  0.00  0.00     0.172 C 
ATOM      2  N   UNL d   1      -0.079   0.717   3.434  0.00  0.00    -0.070 N 
ATOM      3  C1  UNL d   1       0.795   1.648   2.939  0.00  0.00    -0.004 A 
ATOM      4  C2  UNL d   1       0.054   2.674   2.393  0.00  0.00    -0.047 A 
ATOM      5  C3  UNL d   1      -1.312   2.349   2.568  0.00  0.00    -0.047 A 
ATOM      6  C4  UNL d   1      -1.366   1.132   3.215  0.00  0.00    -0.004 A 
ENDROOT
TORSDOF 0
ENDMDL
