MODEL 1
REMARK minimizedAffinity -0.158422992
REMARK minimizedRMSD -1
REMARK  0 active torsions:
REMARK  status: ('A' for Active; 'I' for Inactive)
ROOT
ATOM      1  C   UNL d   1      -4.207  -1.127   3.049  0.00  0.00     0.172 C 
ATOM      2  N   UNL d   1      -4.670  -1.975   4.122  0.00  0.00    -0.070 N 
ATOM      3  C1  UNL d   1      -5.978  -2.168   4.479  0.00  0.00    -0.004 A 
ATOM      4  C2  UNL d   1      -6.000  -3.044   5.543  0.00  0.00    -0.047 A 
ATOM      5  C3  UNL d   1      -4.659  -3.388   5.836  0.00  0.00    -0.047 A 
ATOM      6  C4  UNL d   1      -3.856  -2.712   4.941  0.00  0.00    -0.004 A 
ENDROOT
TORSDOF 0
ENDMDL
