MODEL 1
REMARK minimizedAffinity 0.113382876
REMARK minimizedRMSD -1
REMARK  0 active torsions:
REMARK  status: ('A' for Active; 'I' for Inactive)
ROOT
ATOM      1  C   UNL d   1      -5.408  -5.906  -5.980  0.00  0.00     0.172 C 
ATOM      2  N   UNL d   1      -4.096  -5.314  -5.857  0.00  0.00    -0.070 N 
ATOM      3  C1  UNL d   1      -2.937  -5.992  -5.586  0.00  0.00    -0.004 A 
ATOM      4  C2  UNL d   1      -1.910  -5.074  -5.551  0.00  0.00    -0.047 A 
ATOM      5  C3  UNL d   1      -2.471  -3.801  -5.810  0.00  0.00    -0.047 A 
ATOM      6  C4  UNL d   1      -3.826  -3.979  -5.995  0.00  0.00    -0.004 A 
ENDROOT
TORSDOF 0
ENDMDL
