MODEL 1
REMARK minimizedAffinity 7.16189384
REMARK minimizedRMSD -1
REMARK  0 active torsions:
REMARK  status: ('A' for Active; 'I' for Inactive)
ROOT
ATOM      1  C   UNL d   1      -0.171   2.114   1.006  0.00  0.00     0.172 C 
ATOM      2  N   UNL d   1      -0.108   3.057  -0.085  0.00  0.00    -0.070 N 
ATOM      3  C1  UNL d   1       1.038   3.548  -0.651  0.00  0.00    -0.004 A 
ATOM      4  C2  UNL d   1       0.673   4.416  -1.658  0.00  0.00    -0.047 A 
ATOM      5  C3  UNL d   1      -0.741   4.449  -1.697  0.00  0.00    -0.047 A 
ATOM      6  C4  UNL d   1      -1.199   3.599  -0.713  0.00  0.00    -0.004 A 
ENDROOT
TORSDOF 0
ENDMDL
