MODEL 1
REMARK minimizedAffinity -0.0407789685
REMARK minimizedRMSD -1
REMARK  0 active torsions:
REMARK  status: ('A' for Active; 'I' for Inactive)
ROOT
ATOM      1  C   UNL d   1      -5.469  -2.457  -5.999  0.00  0.00     0.172 C 
ATOM      2  N   UNL d   1      -4.867  -3.769  -5.994  0.00  0.00    -0.070 N 
ATOM      3  C1  UNL d   1      -5.545  -4.959  -6.000  0.00  0.00    -0.004 A 
ATOM      4  C2  UNL d   1      -4.614  -5.975  -5.992  0.00  0.00    -0.047 A 
ATOM      5  C3  UNL d   1      -3.332  -5.375  -5.981  0.00  0.00    -0.047 A 
ATOM      6  C4  UNL d   1      -3.518  -4.009  -5.982  0.00  0.00    -0.004 A 
ENDROOT
TORSDOF 0
ENDMDL
