MODEL 1
REMARK minimizedAffinity 8.71727467
REMARK minimizedRMSD -1
REMARK  0 active torsions:
REMARK  status: ('A' for Active; 'I' for Inactive)
ROOT
ATOM      1  C   UNL d   1       1.980  -3.337   0.981  0.00  0.00     0.172 C 
ATOM      2  N   UNL d   1       1.628  -4.106  -0.190  0.00  0.00    -0.070 N 
ATOM      3  C1  UNL d   1       2.197  -5.294  -0.565  0.00  0.00    -0.004 A 
ATOM      4  C2  UNL d   1       1.587  -5.704  -1.731  0.00  0.00    -0.047 A 
ATOM      5  C3  UNL d   1       0.620  -4.728  -2.069  0.00  0.00    -0.047 A 
ATOM      6  C4  UNL d   1       0.666  -3.750  -1.098  0.00  0.00    -0.004 A 
ENDROOT
TORSDOF 0
ENDMDL
