MODEL 1
REMARK minimizedAffinity 4.69218397
REMARK minimizedRMSD -1
REMARK  0 active torsions:
REMARK  status: ('A' for Active; 'I' for Inactive)
ROOT
ATOM      1  C   UNL d   1       0.203   2.655   1.225  0.00  0.00     0.172 C 
ATOM      2  N   UNL d   1      -0.031   3.532   0.103  0.00  0.00    -0.070 N 
ATOM      3  C1  UNL d   1       0.390   3.316  -1.182  0.00  0.00    -0.004 A 
ATOM      4  C2  UNL d   1      -0.033   4.379  -1.950  0.00  0.00    -0.047 A 
ATOM      5  C3  UNL d   1      -0.731   5.267  -1.097  0.00  0.00    -0.047 A 
ATOM      6  C4  UNL d   1      -0.715   4.718   0.168  0.00  0.00    -0.004 A 
ENDROOT
TORSDOF 0
ENDMDL
