MODEL 1
REMARK minimizedAffinity 1.07699311
REMARK minimizedRMSD -1
REMARK  0 active torsions:
REMARK  status: ('A' for Active; 'I' for Inactive)
ROOT
ATOM      1  C   UNL d   1      -1.192  -4.182  -4.129  0.00  0.00     0.172 C 
ATOM      2  N   UNL d   1      -2.321  -4.661  -4.889  0.00  0.00    -0.070 N 
ATOM      3  C1  UNL d   1      -2.515  -5.952  -5.305  0.00  0.00    -0.004 A 
ATOM      4  C2  UNL d   1      -3.705  -5.998  -5.998  0.00  0.00    -0.047 A 
ATOM      5  C3  UNL d   1      -4.246  -4.690  -5.999  0.00  0.00    -0.047 A 
ATOM      6  C4  UNL d   1      -3.369  -3.883  -5.306  0.00  0.00    -0.004 A 
ENDROOT
TORSDOF 0
ENDMDL
