MODEL 1
REMARK minimizedAffinity -2.95575595
REMARK minimizedRMSD -1
REMARK  0 active torsions:
REMARK  status: ('A' for Active; 'I' for Inactive)
ROOT
ATOM      1  C2' OXE d   1      -0.167  -1.690   1.857  0.00  0.00     0.078 C 
ATOM      2  C1' OXE d   1       0.646  -0.256  -0.415  0.00  0.00     0.078 C 
ATOM      3  C1  OXE d   1       0.321  -1.719  -0.586  0.00  0.00    -0.078 A 
ATOM      4  C2  OXE d   1      -0.031  -2.424   0.540  0.00  0.00    -0.078 A 
ATOM      5  C3  OXE d   1      -0.394  -3.763   0.430  0.00  0.00     0.003 A 
ATOM      6  C4  OXE d   1      -0.255  -4.436  -0.790  0.00  0.00    -0.002 A 
ATOM      7  C5  OXE d   1       0.140  -3.746  -1.941  0.00  0.00    -0.002 A 
ATOM      8  C6  OXE d   1       0.390  -2.381  -1.865  0.00  0.00     0.003 A 
ENDROOT
TORSDOF 0
ENDMDL
