MODEL 1
REMARK minimizedAffinity 0.396549761
REMARK minimizedRMSD -1
REMARK  0 active torsions:
REMARK  status: ('A' for Active; 'I' for Inactive)
ROOT
ATOM      1  C2' OXE d   1       3.227  -2.022   2.879  0.00  0.00     0.078 C 
ATOM      2  C1' OXE d   1       3.146  -1.581   5.650  0.00  0.00     0.078 C 
ATOM      3  C1  OXE d   1       4.112  -2.617   5.131  0.00  0.00    -0.078 A 
ATOM      4  C2  OXE d   1       4.112  -2.859   3.778  0.00  0.00    -0.078 A 
ATOM      5  C3  OXE d   1       5.021  -3.765   3.240  0.00  0.00     0.003 A 
ATOM      6  C4  OXE d   1       5.829  -4.542   4.079  0.00  0.00    -0.002 A 
ATOM      7  C5  OXE d   1       5.816  -4.339   5.463  0.00  0.00    -0.002 A 
ATOM      8  C6  OXE d   1       4.996  -3.353   6.000  0.00  0.00     0.003 A 
ENDROOT
TORSDOF 0
ENDMDL
