MODEL 1
REMARK minimizedAffinity 1.8889122
REMARK minimizedRMSD -1
REMARK  0 active torsions:
REMARK  status: ('A' for Active; 'I' for Inactive)
ROOT
ATOM      1  C2' OXE d   1      -0.323  -5.551  -0.310  0.00  0.00     0.078 C 
ATOM      2  C1' OXE d   1      -2.687  -4.044  -0.173  0.00  0.00     0.078 C 
ATOM      3  C1  OXE d   1      -1.397  -3.364   0.212  0.00  0.00    -0.078 A 
ATOM      4  C2  OXE d   1      -0.251  -4.122   0.186  0.00  0.00    -0.078 A 
ATOM      5  C3  OXE d   1       0.974  -3.530   0.479  0.00  0.00     0.003 A 
ATOM      6  C4  OXE d   1       1.030  -2.212   0.946  0.00  0.00    -0.002 A 
ATOM      7  C5  OXE d   1      -0.130  -1.433   1.018  0.00  0.00    -0.002 A 
ATOM      8  C6  OXE d   1      -1.343  -1.981   0.614  0.00  0.00     0.003 A 
ENDROOT
TORSDOF 0
ENDMDL
