MODEL 1
REMARK minimizedAffinity 6.64424086
REMARK minimizedRMSD -1
REMARK  0 active torsions:
REMARK  status: ('A' for Active; 'I' for Inactive)
ROOT
ATOM      1  C2' OXE d   1       2.227  -2.237  -1.876  0.00  0.00     0.078 C 
ATOM      2  C1' OXE d   1       0.253  -0.243  -1.794  0.00  0.00     0.078 C 
ATOM      3  C1  OXE d   1       0.081  -1.441  -0.894  0.00  0.00    -0.078 A 
ATOM      4  C2  OXE d   1       1.028  -2.434  -0.974  0.00  0.00    -0.078 A 
ATOM      5  C3  OXE d   1       0.946  -3.535  -0.127  0.00  0.00     0.003 A 
ATOM      6  C4  OXE d   1      -0.171  -3.714   0.697  0.00  0.00    -0.002 A 
ATOM      7  C5  OXE d   1      -1.167  -2.733   0.766  0.00  0.00    -0.002 A 
ATOM      8  C6  OXE d   1      -1.035  -1.574   0.010  0.00  0.00     0.003 A 
ENDROOT
TORSDOF 0
ENDMDL
