MODEL 1
REMARK minimizedAffinity 1.07443118
REMARK minimizedRMSD -1
REMARK  0 active torsions:
REMARK  status: ('A' for Active; 'I' for Inactive)
ROOT
ATOM      1  C2' OXE d   1      -1.300  -2.360   2.562  0.00  0.00     0.078 C 
ATOM      2  C1' OXE d   1       0.790  -3.884   1.471  0.00  0.00     0.078 C 
ATOM      3  C1  OXE d   1       0.176  -2.811   0.607  0.00  0.00    -0.078 A 
ATOM      4  C2  OXE d   1      -0.877  -2.102   1.132  0.00  0.00    -0.078 A 
ATOM      5  C3  OXE d   1      -1.445  -1.065   0.397  0.00  0.00     0.003 A 
ATOM      6  C4  OXE d   1      -1.055  -0.839  -0.928  0.00  0.00    -0.002 A 
ATOM      7  C5  OXE d   1      -0.011  -1.577  -1.496  0.00  0.00    -0.002 A 
ATOM      8  C6  OXE d   1       0.642  -2.535  -0.730  0.00  0.00     0.003 A 
ENDROOT
TORSDOF 0
ENDMDL
