MODEL 1
REMARK minimizedAffinity 10.9316654
REMARK minimizedRMSD -1
REMARK  0 active torsions:
REMARK  status: ('A' for Active; 'I' for Inactive)
ROOT
ATOM      1  C2' OXE d   1       1.469  -0.789  -2.256  0.00  0.00     0.078 C 
ATOM      2  C1' OXE d   1       3.724  -0.477  -0.613  0.00  0.00     0.078 C 
ATOM      3  C1  OXE d   1       2.631   0.557  -0.511  0.00  0.00    -0.078 A 
ATOM      4  C2  OXE d   1       1.553   0.422  -1.352  0.00  0.00    -0.078 A 
ATOM      5  C3  OXE d   1       0.491   1.318  -1.261  0.00  0.00     0.003 A 
ATOM      6  C4  OXE d   1       0.581   2.441  -0.430  0.00  0.00    -0.002 A 
ATOM      7  C5  OXE d   1       1.689   2.619   0.406  0.00  0.00    -0.002 A 
ATOM      8  C6  OXE d   1       2.701   1.666   0.408  0.00  0.00     0.003 A 
ENDROOT
TORSDOF 0
ENDMDL
