MODEL 1
REMARK minimizedAffinity 8.84757233
REMARK minimizedRMSD -1
REMARK  0 active torsions:
REMARK  status: ('A' for Active; 'I' for Inactive)
ROOT
ATOM      1  C2' OXE d   1       0.688  -0.550  -2.273  0.00  0.00     0.078 C 
ATOM      2  C1' OXE d   1       1.878  -2.942  -3.135  0.00  0.00     0.078 C 
ATOM      3  C1  OXE d   1       1.106  -2.967  -1.839  0.00  0.00    -0.078 A 
ATOM      4  C2  OXE d   1       0.567  -1.781  -1.402  0.00  0.00    -0.078 A 
ATOM      5  C3  OXE d   1      -0.201  -1.760  -0.241  0.00  0.00     0.003 A 
ATOM      6  C4  OXE d   1      -0.300  -2.901   0.565  0.00  0.00    -0.002 A 
ATOM      7  C5  OXE d   1       0.275  -4.109   0.158  0.00  0.00    -0.002 A 
ATOM      8  C6  OXE d   1       0.944  -4.170  -1.060  0.00  0.00     0.003 A 
ENDROOT
TORSDOF 0
ENDMDL
