MODEL 1
REMARK minimizedAffinity 1.66122806
REMARK minimizedRMSD -1
REMARK  0 active torsions:
REMARK  status: ('A' for Active; 'I' for Inactive)
ROOT
ATOM      1  C2' OXE d   1       0.969  -5.261  -1.392  0.00  0.00     0.078 C 
ATOM      2  C1' OXE d   1       1.314  -2.814  -2.724  0.00  0.00     0.078 C 
ATOM      3  C1  OXE d   1       0.695  -2.785  -1.349  0.00  0.00    -0.078 A 
ATOM      4  C2  OXE d   1       0.487  -3.991  -0.724  0.00  0.00    -0.078 A 
ATOM      5  C3  OXE d   1      -0.030  -4.018   0.568  0.00  0.00     0.003 A 
ATOM      6  C4  OXE d   1      -0.483  -2.841   1.175  0.00  0.00    -0.002 A 
ATOM      7  C5  OXE d   1      -0.317  -1.605   0.540  0.00  0.00    -0.002 A 
ATOM      8  C6  OXE d   1       0.308  -1.556  -0.702  0.00  0.00     0.003 A 
ENDROOT
TORSDOF 0
ENDMDL
