MODEL 1
REMARK minimizedAffinity 6.60622549
REMARK minimizedRMSD -1
REMARK  0 active torsions:
REMARK  status: ('A' for Active; 'I' for Inactive)
ROOT
ATOM      1  C2' OXE d   1       3.013  -0.747   0.232  0.00  0.00     0.078 C 
ATOM      2  C1' OXE d   1       0.939  -0.395  -1.626  0.00  0.00     0.078 C 
ATOM      3  C1  OXE d   1       0.894  -1.619  -0.746  0.00  0.00    -0.078 A 
ATOM      4  C2  OXE d   1       1.938  -1.807   0.128  0.00  0.00    -0.078 A 
ATOM      5  C3  OXE d   1       1.918  -2.890   1.002  0.00  0.00     0.003 A 
ATOM      6  C4  OXE d   1       0.926  -3.871   0.892  0.00  0.00    -0.002 A 
ATOM      7  C5  OXE d   1      -0.125  -3.720  -0.019  0.00  0.00    -0.002 A 
ATOM      8  C6  OXE d   1      -0.178  -2.580  -0.814  0.00  0.00     0.003 A 
ENDROOT
TORSDOF 0
ENDMDL
