MODEL 1
REMARK minimizedAffinity 11.909831
REMARK minimizedRMSD -1
REMARK  0 active torsions:
REMARK  status: ('A' for Active; 'I' for Inactive)
ROOT
ATOM      1  C2' OXE d   1       0.240   0.216  -1.590  0.00  0.00     0.078 C 
ATOM      2  C1' OXE d   1       2.207   1.553  -0.100  0.00  0.00     0.078 C 
ATOM      3  C1  OXE d   1       0.883   2.247  -0.299  0.00  0.00    -0.078 A 
ATOM      4  C2  OXE d   1      -0.057   1.605  -1.069  0.00  0.00    -0.078 A 
ATOM      5  C3  OXE d   1      -1.315   2.177  -1.239  0.00  0.00     0.003 A 
ATOM      6  C4  OXE d   1      -1.578   3.466  -0.762  0.00  0.00    -0.002 A 
ATOM      7  C5  OXE d   1      -0.621   4.154  -0.009  0.00  0.00    -0.002 A 
ATOM      8  C6  OXE d   1       0.597   3.542   0.267  0.00  0.00     0.003 A 
ENDROOT
TORSDOF 0
ENDMDL
