MODEL 1
REMARK minimizedAffinity 0.833634436
REMARK minimizedRMSD -1
REMARK  0 active torsions:
REMARK  status: ('A' for Active; 'I' for Inactive)
ROOT
ATOM      1  C2' OXE d   1      -1.477   0.845   0.425  0.00  0.00     0.078 C 
ATOM      2  C1' OXE d   1      -1.359  -0.495   2.889  0.00  0.00     0.078 C 
ATOM      3  C1  OXE d   1      -1.043  -1.284   1.644  0.00  0.00    -0.078 A 
ATOM      4  C2  OXE d   1      -1.149  -0.633   0.438  0.00  0.00    -0.078 A 
ATOM      5  C3  OXE d   1      -0.815  -1.299  -0.737  0.00  0.00     0.003 A 
ATOM      6  C4  OXE d   1      -0.522  -2.668  -0.717  0.00  0.00    -0.002 A 
ATOM      7  C5  OXE d   1      -0.448  -3.361   0.496  0.00  0.00    -0.002 A 
ATOM      8  C6  OXE d   1      -0.663  -2.675   1.686  0.00  0.00     0.003 A 
ENDROOT
TORSDOF 0
ENDMDL
