MODEL 1
REMARK minimizedAffinity -0.308218002
REMARK minimizedRMSD -1
REMARK  0 active torsions:
REMARK  status: ('A' for Active; 'I' for Inactive)
ROOT
ATOM      1  C2' OXE d   1      -1.040  -1.557   0.722  0.00  0.00     0.078 C 
ATOM      2  C1' OXE d   1       0.505  -1.507  -1.622  0.00  0.00     0.078 C 
ATOM      3  C1  OXE d   1       0.463  -0.256  -0.780  0.00  0.00    -0.078 A 
ATOM      4  C2  OXE d   1      -0.333  -0.275   0.341  0.00  0.00    -0.078 A 
ATOM      5  C3  OXE d   1      -0.364   0.834   1.182  0.00  0.00     0.003 A 
ATOM      6  C4  OXE d   1       0.285   2.019   0.817  0.00  0.00    -0.002 A 
ATOM      7  C5  OXE d   1       1.069   2.072  -0.341  0.00  0.00    -0.002 A 
ATOM      8  C6  OXE d   1       1.202   0.932  -1.126  0.00  0.00     0.003 A 
ENDROOT
TORSDOF 0
ENDMDL
