MODEL 1
REMARK minimizedAffinity -5.36648989
REMARK minimizedRMSD -1
REMARK  0 active torsions:
REMARK  status: ('A' for Active; 'I' for Inactive)
ROOT
ATOM      1  C2' OXE d   1      -1.120   0.040   0.857  0.00  0.00     0.078 C 
ATOM      2  C1' OXE d   1       0.664   0.514  -1.258  0.00  0.00     0.078 C 
ATOM      3  C1  OXE d   1       0.423  -0.918  -0.848  0.00  0.00    -0.078 A 
ATOM      4  C2  OXE d   1      -0.415  -1.138   0.218  0.00  0.00    -0.078 A 
ATOM      5  C3  OXE d   1      -0.714  -2.442   0.602  0.00  0.00     0.003 A 
ATOM      6  C4  OXE d   1      -0.051  -3.524   0.012  0.00  0.00    -0.002 A 
ATOM      7  C5  OXE d   1       0.837  -3.320  -1.049  0.00  0.00    -0.002 A 
ATOM      8  C6  OXE d   1       1.052  -2.029  -1.519  0.00  0.00     0.003 A 
ENDROOT
TORSDOF 0
ENDMDL
