MODEL 1
REMARK minimizedAffinity 10.0673847
REMARK minimizedRMSD -1
REMARK  0 active torsions:
REMARK  status: ('A' for Active; 'I' for Inactive)
ROOT
ATOM      1  C2' OXE d   1       5.569  -0.773   4.814  0.00  0.00     0.078 C 
ATOM      2  C1' OXE d   1       3.396  -1.874   3.420  0.00  0.00     0.078 C 
ATOM      3  C1  OXE d   1       4.183  -2.785   4.330  0.00  0.00    -0.078 A 
ATOM      4  C2  OXE d   1       5.273  -2.248   4.972  0.00  0.00    -0.078 A 
ATOM      5  C3  OXE d   1       6.000  -3.030   5.866  0.00  0.00     0.003 A 
ATOM      6  C4  OXE d   1       5.725  -4.396   5.999  0.00  0.00    -0.002 A 
ATOM      7  C5  OXE d   1       4.643  -4.972   5.323  0.00  0.00    -0.002 A 
ATOM      8  C6  OXE d   1       3.838  -4.172   4.520  0.00  0.00     0.003 A 
ENDROOT
TORSDOF 0
ENDMDL
