MODEL 1
REMARK minimizedAffinity 3.52943015
REMARK minimizedRMSD -1
REMARK  0 active torsions:
REMARK  status: ('A' for Active; 'I' for Inactive)
ROOT
ATOM      1  C2' OXE d   1      -1.013  -2.645  -1.958  0.00  0.00     0.078 C 
ATOM      2  C1' OXE d   1       0.405  -0.238  -1.674  0.00  0.00     0.078 C 
ATOM      3  C1  OXE d   1      -0.371  -0.742  -0.483  0.00  0.00    -0.078 A 
ATOM      4  C2  OXE d   1      -1.100  -1.896  -0.645  0.00  0.00    -0.078 A 
ATOM      5  C3  OXE d   1      -1.790  -2.434   0.437  0.00  0.00     0.003 A 
ATOM      6  C4  OXE d   1      -1.873  -1.730   1.645  0.00  0.00    -0.002 A 
ATOM      7  C5  OXE d   1      -1.171  -0.533   1.819  0.00  0.00    -0.002 A 
ATOM      8  C6  OXE d   1      -0.383  -0.048   0.781  0.00  0.00     0.003 A 
ENDROOT
TORSDOF 0
ENDMDL
