MODEL 1
REMARK minimizedAffinity 0.0058019869
REMARK minimizedRMSD -1
REMARK  0 active torsions:
REMARK  status: ('A' for Active; 'I' for Inactive)
ROOT
ATOM      1  C2' OXE d   1       0.278  -0.092  -2.456  0.00  0.00     0.078 C 
ATOM      2  C1' OXE d   1      -0.798  -2.685  -2.449  0.00  0.00     0.078 C 
ATOM      3  C1  OXE d   1      -0.630  -1.989  -1.121  0.00  0.00    -0.078 A 
ATOM      4  C2  OXE d   1      -0.059  -0.739  -1.130  0.00  0.00    -0.078 A 
ATOM      5  C3  OXE d   1       0.068  -0.031   0.061  0.00  0.00     0.003 A 
ATOM      6  C4  OXE d   1      -0.237  -0.640   1.284  0.00  0.00    -0.002 A 
ATOM      7  C5  OXE d   1      -0.782  -1.928   1.319  0.00  0.00    -0.002 A 
ATOM      8  C6  OXE d   1      -1.024  -2.598   0.125  0.00  0.00     0.003 A 
ENDROOT
TORSDOF 0
ENDMDL
