MODEL 1
REMARK minimizedAffinity -3.43555903
REMARK minimizedRMSD -1
REMARK  0 active torsions:
REMARK  status: ('A' for Active; 'I' for Inactive)
ROOT
ATOM      1  C2' OXE d   1       0.399   1.358   0.347  0.00  0.00     0.078 C 
ATOM      2  C1' OXE d   1      -2.001   0.470   1.502  0.00  0.00     0.078 C 
ATOM      3  C1  OXE d   1      -1.120  -0.556   0.834  0.00  0.00    -0.078 A 
ATOM      4  C2  OXE d   1       0.030  -0.106   0.231  0.00  0.00    -0.078 A 
ATOM      5  C3  OXE d   1       0.905  -1.018  -0.352  0.00  0.00     0.003 A 
ATOM      6  C4  OXE d   1       0.552  -2.368  -0.463  0.00  0.00    -0.002 A 
ATOM      7  C5  OXE d   1      -0.634  -2.841   0.110  0.00  0.00    -0.002 A 
ATOM      8  C6  OXE d   1      -1.458  -1.957   0.798  0.00  0.00     0.003 A 
ENDROOT
TORSDOF 0
ENDMDL
