MODEL 1
REMARK minimizedAffinity -3.94212794
REMARK minimizedRMSD -1
REMARK  1 active torsions:
REMARK  status: ('A' for Active; 'I' for Inactive)
REMARK    1  A    between atoms: C1_2  and  C2_3 
ROOT
ATOM      1  C2  UNL d   1      -0.104   0.800   1.455  0.00  0.00    -0.077 A 
ATOM      2  C3  UNL d   1      -0.870   0.429   0.341  0.00  0.00     0.002 A 
ATOM      3  C4  UNL d   1      -0.330  -0.403  -0.641  0.00  0.00     0.002 A 
ATOM      4  C5  UNL d   1       0.975  -0.874  -0.517  0.00  0.00    -0.004 A 
ATOM      5  C6  UNL d   1       1.746  -0.509   0.586  0.00  0.00     0.002 A 
ATOM      6  C7  UNL d   1       1.208   0.324   1.568  0.00  0.00     0.002 A 
ENDROOT
BRANCH   1   7
ATOM      7  C1  UNL d   1      -0.701   1.658   2.540  0.00  0.00     0.055 C 
ATOM      8  C   UNL d   1      -1.786   0.911   3.302  0.00  0.00     0.019 C 
ENDBRANCH   1   7
TORSDOF 1
ENDMDL
