MODEL 1
REMARK minimizedAffinity -4.40874529
REMARK minimizedRMSD -1
REMARK  1 active torsions:
REMARK  status: ('A' for Active; 'I' for Inactive)
REMARK    1  A    between atoms: C1_2  and  C2_3 
ROOT
ATOM      1  C2  UNL d   1       0.202  -0.082   0.156  0.00  0.00    -0.077 A 
ATOM      2  C3  UNL d   1      -1.196  -0.055   0.046  0.00  0.00     0.002 A 
ATOM      3  C4  UNL d   1      -1.968   0.583   1.019  0.00  0.00     0.002 A 
ATOM      4  C5  UNL d   1      -1.352   1.202   2.105  0.00  0.00    -0.004 A 
ATOM      5  C6  UNL d   1       0.037   1.178   2.224  0.00  0.00     0.002 A 
ATOM      6  C7  UNL d   1       0.810   0.540   1.253  0.00  0.00     0.002 A 
ENDROOT
BRANCH   1   7
ATOM      7  C1  UNL d   1       1.039  -0.727  -0.917  0.00  0.00     0.055 C 
ATOM      8  C   UNL d   1       0.554  -0.338  -2.306  0.00  0.00     0.019 C 
ENDBRANCH   1   7
TORSDOF 1
ENDMDL
