MODEL 1
REMARK minimizedAffinity -5.60371685
REMARK minimizedRMSD -1
REMARK  1 active torsions:
REMARK  status: ('A' for Active; 'I' for Inactive)
REMARK    1  A    between atoms: C1_2  and  C2_3 
ROOT
ATOM      1  C2  UNL d   1      -0.102  -0.057   0.178  0.00  0.00    -0.077 A 
ATOM      2  C3  UNL d   1       0.667   0.915   0.833  0.00  0.00     0.002 A 
ATOM      3  C4  UNL d   1       0.082   1.755   1.783  0.00  0.00     0.002 A 
ATOM      4  C5  UNL d   1      -1.271   1.629   2.089  0.00  0.00    -0.004 A 
ATOM      5  C6  UNL d   1      -2.044   0.667   1.441  0.00  0.00     0.002 A 
ATOM      6  C7  UNL d   1      -1.462  -0.173   0.490  0.00  0.00     0.002 A 
ENDROOT
BRANCH   1   7
ATOM      7  C1  UNL d   1       0.537  -0.997  -0.811  0.00  0.00     0.055 C 
ATOM      8  C   UNL d   1       0.953  -0.266  -2.080  0.00  0.00     0.019 C 
ENDBRANCH   1   7
TORSDOF 1
ENDMDL
