MODEL 1
REMARK minimizedAffinity -4.71987152
REMARK minimizedRMSD -1
REMARK  1 active torsions:
REMARK  status: ('A' for Active; 'I' for Inactive)
REMARK    1  A    between atoms: C1_2  and  C2_3 
ROOT
ATOM      1  C2  UNL d   1      -0.335  -0.252  -1.293  0.00  0.00    -0.077 A 
ATOM      2  C3  UNL d   1      -1.599   0.346  -1.191  0.00  0.00     0.002 A 
ATOM      3  C4  UNL d   1      -2.068   0.798   0.044  0.00  0.00     0.002 A 
ATOM      4  C5  UNL d   1      -1.279   0.661   1.184  0.00  0.00    -0.004 A 
ATOM      5  C6  UNL d   1      -0.021   0.066   1.092  0.00  0.00     0.002 A 
ATOM      6  C7  UNL d   1       0.449  -0.387  -0.141  0.00  0.00     0.002 A 
ENDROOT
BRANCH   1   7
ATOM      7  C1  UNL d   1       0.193  -0.696  -2.632  0.00  0.00     0.055 C 
ATOM      8  C   UNL d   1       1.304   0.223  -3.122  0.00  0.00     0.019 C 
ENDBRANCH   1   7
TORSDOF 1
ENDMDL
