MODEL 1
REMARK minimizedAffinity -1.01160824
REMARK minimizedRMSD -1
REMARK  0 active torsions:
REMARK  status: ('A' for Active; 'I' for Inactive)
ROOT
ATOM      1  C   UNL d   1       2.923  -4.301  -0.140  0.00  0.00     0.172 C 
ATOM      2  N   UNL d   1       2.217  -3.059   0.076  0.00  0.00    -0.070 N 
ATOM      3  C1  UNL d   1       2.783  -1.812   0.091  0.00  0.00    -0.004 A 
ATOM      4  C2  UNL d   1       1.780  -0.896   0.326  0.00  0.00    -0.047 A 
ATOM      5  C3  UNL d   1       0.570  -1.618   0.458  0.00  0.00    -0.047 A 
ATOM      6  C4  UNL d   1       0.870  -2.955   0.299  0.00  0.00    -0.004 A 
ENDROOT
TORSDOF 0
ENDMDL
