MODEL 1
REMARK minimizedAffinity 0.89650327
REMARK minimizedRMSD -1
REMARK  0 active torsions:
REMARK  status: ('A' for Active; 'I' for Inactive)
ROOT
ATOM      1  C   UNL d   1       5.309   5.929  -0.611  0.00  0.00     0.172 C 
ATOM      2  N   UNL d   1       4.513   5.671   0.567  0.00  0.00    -0.070 N 
ATOM      3  C1  UNL d   1       4.861   5.993   1.851  0.00  0.00    -0.004 A 
ATOM      4  C2  UNL d   1       3.839   5.583   2.680  0.00  0.00    -0.047 A 
ATOM      5  C3  UNL d   1       2.844   4.993   1.866  0.00  0.00    -0.047 A 
ATOM      6  C4  UNL d   1       3.287   5.061   0.562  0.00  0.00    -0.004 A 
ENDROOT
TORSDOF 0
ENDMDL
