MODEL 1
REMARK minimizedAffinity 0.745710909
REMARK minimizedRMSD -1
REMARK  0 active torsions:
REMARK  status: ('A' for Active; 'I' for Inactive)
ROOT
ATOM      1  C   UNL d   1       2.856  -0.539   1.980  0.00  0.00     0.172 C 
ATOM      2  N   UNL d   1       1.544  -0.719   1.404  0.00  0.00    -0.070 N 
ATOM      3  C1  UNL d   1       1.267  -1.395   0.246  0.00  0.00    -0.004 A 
ATOM      4  C2  UNL d   1      -0.095  -1.340   0.041  0.00  0.00    -0.047 A 
ATOM      5  C3  UNL d   1      -0.655  -0.604   1.113  0.00  0.00    -0.047 A 
ATOM      6  C4  UNL d   1       0.382  -0.232   1.941  0.00  0.00    -0.004 A 
ENDROOT
TORSDOF 0
ENDMDL
