MODEL 1
REMARK minimizedAffinity -2.24686718
REMARK minimizedRMSD -1
REMARK  0 active torsions:
REMARK  status: ('A' for Active; 'I' for Inactive)
ROOT
ATOM      1  C   UNL d   1       4.498   4.178  -1.649  0.00  0.00     0.172 C 
ATOM      2  N   UNL d   1       4.683   4.840  -0.379  0.00  0.00    -0.070 N 
ATOM      3  C1  UNL d   1       3.761   4.902   0.631  0.00  0.00    -0.004 A 
ATOM      4  C2  UNL d   1       4.318   5.618   1.668  0.00  0.00    -0.047 A 
ATOM      5  C3  UNL d   1       5.621   6.000   1.267  0.00  0.00    -0.047 A 
ATOM      6  C4  UNL d   1       5.821   5.505  -0.004  0.00  0.00    -0.004 A 
ENDROOT
TORSDOF 0
ENDMDL
