MODEL 1
REMARK minimizedAffinity -1.26305127
REMARK minimizedRMSD -1
REMARK  0 active torsions:
REMARK  status: ('A' for Active; 'I' for Inactive)
ROOT
ATOM      1  C   UNL d   1       3.403  -4.608  -0.259  0.00  0.00     0.172 C 
ATOM      2  N   UNL d   1       2.468  -3.537  -0.003  0.00  0.00    -0.070 N 
ATOM      3  C1  UNL d   1       1.107  -3.618  -0.131  0.00  0.00    -0.004 A 
ATOM      4  C2  UNL d   1       0.578  -2.391   0.204  0.00  0.00    -0.047 A 
ATOM      5  C3  UNL d   1       1.659  -1.542   0.544  0.00  0.00    -0.047 A 
ATOM      6  C4  UNL d   1       2.817  -2.278   0.407  0.00  0.00    -0.004 A 
ENDROOT
TORSDOF 0
ENDMDL
