MODEL 1
REMARK minimizedAffinity -2.06849051
REMARK minimizedRMSD -1
REMARK  0 active torsions:
REMARK  status: ('A' for Active; 'I' for Inactive)
ROOT
ATOM      1  C   UNL d   1       2.378  -0.345   0.614  0.00  0.00     0.172 C 
ATOM      2  N   UNL d   1       1.280  -1.273   0.466  0.00  0.00    -0.070 N 
ATOM      3  C1  UNL d   1       1.370  -2.541  -0.042  0.00  0.00    -0.004 A 
ATOM      4  C2  UNL d   1       0.109  -3.097  -0.014  0.00  0.00    -0.047 A 
ATOM      5  C3  UNL d   1      -0.769  -2.129   0.528  0.00  0.00    -0.047 A 
ATOM      6  C4  UNL d   1      -0.017  -1.009   0.817  0.00  0.00    -0.004 A 
ENDROOT
TORSDOF 0
ENDMDL
