MODEL 1
REMARK minimizedAffinity -2.896137
REMARK minimizedRMSD -1
REMARK  0 active torsions:
REMARK  status: ('A' for Active; 'I' for Inactive)
ROOT
ATOM      1  C   UNL d   1      -0.376  -0.597   1.133  0.00  0.00     0.172 C 
ATOM      2  N   UNL d   1       0.463  -1.653   0.615  0.00  0.00    -0.070 N 
ATOM      3  C1  UNL d   1       1.694  -1.484   0.039  0.00  0.00    -0.004 A 
ATOM      4  C2  UNL d   1       2.165  -2.728  -0.322  0.00  0.00    -0.047 A 
ATOM      5  C3  UNL d   1       1.182  -3.677   0.049  0.00  0.00    -0.047 A 
ATOM      6  C4  UNL d   1       0.140  -2.984   0.627  0.00  0.00    -0.004 A 
ENDROOT
TORSDOF 0
ENDMDL
