MODEL 1
REMARK minimizedAffinity -1.54809642
REMARK minimizedRMSD -1
REMARK  0 active torsions:
REMARK  status: ('A' for Active; 'I' for Inactive)
ROOT
ATOM      1  C   UNL d   1       4.533   6.000  -1.471  0.00  0.00     0.172 C 
ATOM      2  N   UNL d   1       4.288   5.948  -0.049  0.00  0.00    -0.070 N 
ATOM      3  C1  UNL d   1       5.246   5.999   0.928  0.00  0.00    -0.004 A 
ATOM      4  C2  UNL d   1       4.610   5.922   2.148  0.00  0.00    -0.047 A 
ATOM      5  C3  UNL d   1       3.221   5.821   1.895  0.00  0.00    -0.047 A 
ATOM      6  C4  UNL d   1       3.050   5.839   0.527  0.00  0.00    -0.004 A 
ENDROOT
TORSDOF 0
ENDMDL
