MODEL 1
REMARK minimizedAffinity -1.40204322
REMARK minimizedRMSD -1
REMARK  0 active torsions:
REMARK  status: ('A' for Active; 'I' for Inactive)
ROOT
ATOM      1  C   UNL d   1       4.348   3.196  -0.774  0.00  0.00     0.172 C 
ATOM      2  N   UNL d   1       4.368   4.251   0.212  0.00  0.00    -0.070 N 
ATOM      3  C1  UNL d   1       3.383   4.507   1.127  0.00  0.00    -0.004 A 
ATOM      4  C2  UNL d   1       3.779   5.590   1.882  0.00  0.00    -0.047 A 
ATOM      5  C3  UNL d   1       5.047   5.999   1.404  0.00  0.00    -0.047 A 
ATOM      6  C4  UNL d   1       5.388   5.153   0.370  0.00  0.00    -0.004 A 
ENDROOT
TORSDOF 0
ENDMDL
