MODEL 1
REMARK minimizedAffinity -2.20696068
REMARK minimizedRMSD -1
REMARK  0 active torsions:
REMARK  status: ('A' for Active; 'I' for Inactive)
ROOT
ATOM      1  C   UNL d   1      -0.985  -0.153   1.262  0.00  0.00     0.172 C 
ATOM      2  N   UNL d   1       0.284  -0.739   0.901  0.00  0.00    -0.070 N 
ATOM      3  C1  UNL d   1       1.512  -0.312   1.329  0.00  0.00    -0.004 A 
ATOM      4  C2  UNL d   1       2.466  -1.130   0.763  0.00  0.00    -0.047 A 
ATOM      5  C3  UNL d   1       1.787  -2.082  -0.034  0.00  0.00    -0.047 A 
ATOM      6  C4  UNL d   1       0.438  -1.817   0.070  0.00  0.00    -0.004 A 
ENDROOT
TORSDOF 0
ENDMDL
