MODEL 1
REMARK minimizedAffinity -0.70415318
REMARK minimizedRMSD -1
REMARK  0 active torsions:
REMARK  status: ('A' for Active; 'I' for Inactive)
ROOT
ATOM      1  C   UNL d   1       1.386  -3.770  -0.268  0.00  0.00     0.172 C 
ATOM      2  N   UNL d   1       0.985  -2.476   0.233  0.00  0.00    -0.070 N 
ATOM      3  C1  UNL d   1      -0.270  -1.935   0.134  0.00  0.00    -0.004 A 
ATOM      4  C2  UNL d   1      -0.243  -0.694   0.731  0.00  0.00    -0.047 A 
ATOM      5  C3  UNL d   1       1.073  -0.480   1.205  0.00  0.00    -0.047 A 
ATOM      6  C4  UNL d   1       1.812  -1.599   0.883  0.00  0.00    -0.004 A 
ENDROOT
TORSDOF 0
ENDMDL
