MODEL 1
REMARK minimizedAffinity 2.60381174
REMARK minimizedRMSD -1
REMARK  0 active torsions:
REMARK  status: ('A' for Active; 'I' for Inactive)
ROOT
ATOM      1  C   UNL d   1       1.094  -4.141   0.390  0.00  0.00     0.172 C 
ATOM      2  N   UNL d   1       0.875  -2.718   0.502  0.00  0.00    -0.070 N 
ATOM      3  C1  UNL d   1      -0.201  -2.121   1.103  0.00  0.00    -0.004 A 
ATOM      4  C2  UNL d   1      -0.038  -0.756   1.001  0.00  0.00    -0.047 A 
ATOM      5  C3  UNL d   1       1.179  -0.526   0.315  0.00  0.00    -0.047 A 
ATOM      6  C4  UNL d   1       1.723  -1.757   0.018  0.00  0.00    -0.004 A 
ENDROOT
TORSDOF 0
ENDMDL
