MODEL 1
REMARK minimizedAffinity -3.22389388
REMARK minimizedRMSD -1
REMARK  0 active torsions:
REMARK  status: ('A' for Active; 'I' for Inactive)
ROOT
ATOM      1  C   UNL d   1       3.380  -2.610  -0.372  0.00  0.00     0.172 C 
ATOM      2  N   UNL d   1       2.047  -2.418   0.149  0.00  0.00    -0.070 N 
ATOM      3  C1  UNL d   1       1.056  -3.363   0.175  0.00  0.00    -0.004 A 
ATOM      4  C2  UNL d   1      -0.058  -2.790   0.749  0.00  0.00    -0.047 A 
ATOM      5  C3  UNL d   1       0.275  -1.455   1.079  0.00  0.00    -0.047 A 
ATOM      6  C4  UNL d   1       1.584  -1.251   0.697  0.00  0.00    -0.004 A 
ENDROOT
TORSDOF 0
ENDMDL
