MODEL 1
REMARK minimizedAffinity 2.36098862
REMARK minimizedRMSD -1
REMARK  0 active torsions:
REMARK  status: ('A' for Active; 'I' for Inactive)
ROOT
ATOM      1  C   UNL d   1       1.253  -3.857   0.460  0.00  0.00     0.172 C 
ATOM      2  N   UNL d   1       0.720  -2.553   0.776  0.00  0.00    -0.070 N 
ATOM      3  C1  UNL d   1      -0.473  -2.309   1.403  0.00  0.00    -0.004 A 
ATOM      4  C2  UNL d   1      -0.617  -0.943   1.519  0.00  0.00    -0.047 A 
ATOM      5  C3  UNL d   1       0.528  -0.346   0.940  0.00  0.00    -0.047 A 
ATOM      6  C4  UNL d   1       1.339  -1.365   0.488  0.00  0.00    -0.004 A 
ENDROOT
TORSDOF 0
ENDMDL
