MODEL 1
REMARK minimizedAffinity -0.31367743
REMARK minimizedRMSD -1
REMARK  0 active torsions:
REMARK  status: ('A' for Active; 'I' for Inactive)
ROOT
ATOM      1  C   UNL d   1       1.485  -3.376  -0.488  0.00  0.00     0.172 C 
ATOM      2  N   UNL d   1       0.802  -2.279   0.157  0.00  0.00    -0.070 N 
ATOM      3  C1  UNL d   1       1.397  -1.156   0.666  0.00  0.00    -0.004 A 
ATOM      4  C2  UNL d   1       0.407  -0.355   1.193  0.00  0.00    -0.047 A 
ATOM      5  C3  UNL d   1      -0.826  -1.020   0.994  0.00  0.00    -0.047 A 
ATOM      6  C4  UNL d   1      -0.553  -2.209   0.351  0.00  0.00    -0.004 A 
ENDROOT
TORSDOF 0
ENDMDL
