MODEL 1
REMARK minimizedAffinity 0.563279271
REMARK minimizedRMSD -1
REMARK  0 active torsions:
REMARK  status: ('A' for Active; 'I' for Inactive)
ROOT
ATOM      1  C   UNL d   1      -1.407   0.235   1.518  0.00  0.00     0.172 C 
ATOM      2  N   UNL d   1      -0.146  -0.353   1.130  0.00  0.00    -0.070 N 
ATOM      3  C1  UNL d   1       0.016  -1.376   0.235  0.00  0.00    -0.004 A 
ATOM      4  C2  UNL d   1       1.364  -1.645   0.141  0.00  0.00    -0.047 A 
ATOM      5  C3  UNL d   1       2.036  -0.753   1.010  0.00  0.00    -0.047 A 
ATOM      6  C4  UNL d   1       1.077   0.036   1.610  0.00  0.00    -0.004 A 
ENDROOT
TORSDOF 0
ENDMDL
