MODEL 1
REMARK minimizedAffinity -4.35675192
REMARK minimizedRMSD -1
REMARK  0 active torsions:
REMARK  status: ('A' for Active; 'I' for Inactive)
ROOT
ATOM      1  C2' OXE d   1      -1.634   0.049   1.157  0.00  0.00     0.078 C 
ATOM      2  C1' OXE d   1       0.474  -1.639   0.389  0.00  0.00     0.078 C 
ATOM      3  C1  OXE d   1       0.728  -0.152   0.392  0.00  0.00    -0.078 A 
ATOM      4  C2  OXE d   1      -0.322   0.669   0.724  0.00  0.00    -0.078 A 
ATOM      5  C3  OXE d   1      -0.126   2.045   0.795  0.00  0.00     0.003 A 
ATOM      6  C4  OXE d   1       1.086   2.610   0.382  0.00  0.00    -0.002 A 
ATOM      7  C5  OXE d   1       2.157   1.794   0.002  0.00  0.00    -0.002 A 
ATOM      8  C6  OXE d   1       2.008   0.412   0.042  0.00  0.00     0.003 A 
ENDROOT
TORSDOF 0
ENDMDL
