MODEL 1
REMARK minimizedAffinity 5.09288549
REMARK minimizedRMSD -1
REMARK  0 active torsions:
REMARK  status: ('A' for Active; 'I' for Inactive)
ROOT
ATOM      1  C2' OXE d   1       0.592  -2.641   0.846  0.00  0.00     0.078 C 
ATOM      2  C1' OXE d   1      -0.318  -4.737   2.475  0.00  0.00     0.078 C 
ATOM      3  C1  OXE d   1      -0.905  -4.617   1.091  0.00  0.00    -0.078 A 
ATOM      4  C2  OXE d   1      -0.488  -3.560   0.318  0.00  0.00    -0.078 A 
ATOM      5  C3  OXE d   1      -0.956  -3.433  -0.987  0.00  0.00     0.003 A 
ATOM      6  C4  OXE d   1      -1.962  -4.282  -1.464  0.00  0.00    -0.002 A 
ATOM      7  C5  OXE d   1      -2.430  -5.341  -0.679  0.00  0.00    -0.002 A 
ATOM      8  C6  OXE d   1      -1.882  -5.547   0.583  0.00  0.00     0.003 A 
ENDROOT
TORSDOF 0
ENDMDL
