MODEL 1
REMARK minimizedAffinity 9.15451622
REMARK minimizedRMSD -1
REMARK  0 active torsions:
REMARK  status: ('A' for Active; 'I' for Inactive)
ROOT
ATOM      1  C2' OXE d   1      -0.951  -4.998  -2.628  0.00  0.00     0.078 C 
ATOM      2  C1' OXE d   1      -2.671  -2.906  -1.890  0.00  0.00     0.078 C 
ATOM      3  C1  OXE d   1      -1.618  -3.333  -0.899  0.00  0.00    -0.078 A 
ATOM      4  C2  OXE d   1      -0.811  -4.389  -1.250  0.00  0.00    -0.078 A 
ATOM      5  C3  OXE d   1       0.212  -4.788  -0.395  0.00  0.00     0.003 A 
ATOM      6  C4  OXE d   1       0.329  -4.226   0.882  0.00  0.00    -0.002 A 
ATOM      7  C5  OXE d   1      -0.508  -3.177   1.275  0.00  0.00    -0.002 A 
ATOM      8  C6  OXE d   1      -1.457  -2.691   0.382  0.00  0.00     0.003 A 
ENDROOT
TORSDOF 0
ENDMDL
