MODEL 1
REMARK minimizedAffinity 7.46020699
REMARK minimizedRMSD -1
REMARK  0 active torsions:
REMARK  status: ('A' for Active; 'I' for Inactive)
ROOT
ATOM      1  C2' OXE d   1      -0.099  -3.968   1.918  0.00  0.00     0.078 C 
ATOM      2  C1' OXE d   1      -0.833  -3.978  -0.791  0.00  0.00     0.078 C 
ATOM      3  C1  OXE d   1       0.385  -3.182  -0.396  0.00  0.00    -0.078 A 
ATOM      4  C2  OXE d   1       0.710  -3.145   0.939  0.00  0.00    -0.078 A 
ATOM      5  C3  OXE d   1       1.856  -2.470   1.351  0.00  0.00     0.003 A 
ATOM      6  C4  OXE d   1       2.593  -1.702   0.441  0.00  0.00    -0.002 A 
ATOM      7  C5  OXE d   1       2.256  -1.694  -0.917  0.00  0.00    -0.002 A 
ATOM      8  C6  OXE d   1       1.183  -2.461  -1.357  0.00  0.00     0.003 A 
ENDROOT
TORSDOF 0
ENDMDL
