MODEL 1
REMARK minimizedAffinity -0.0461462438
REMARK minimizedRMSD -1
REMARK  0 active torsions:
REMARK  status: ('A' for Active; 'I' for Inactive)
ROOT
ATOM      1  C2' OXE d   1      -1.523  -6.000   1.924  0.00  0.00     0.078 C 
ATOM      2  C1' OXE d   1      -0.390  -3.881   3.376  0.00  0.00     0.078 C 
ATOM      3  C1  OXE d   1      -0.764  -3.627   1.937  0.00  0.00    -0.078 A 
ATOM      4  C2  OXE d   1      -1.274  -4.683   1.220  0.00  0.00    -0.078 A 
ATOM      5  C3  OXE d   1      -1.686  -4.489  -0.095  0.00  0.00     0.003 A 
ATOM      6  C4  OXE d   1      -1.443  -3.271  -0.741  0.00  0.00    -0.002 A 
ATOM      7  C5  OXE d   1      -0.888  -2.194  -0.041  0.00  0.00    -0.002 A 
ATOM      8  C6  OXE d   1      -0.583  -2.343   1.307  0.00  0.00     0.003 A 
ENDROOT
TORSDOF 0
ENDMDL
