MODEL 1
REMARK minimizedAffinity 11.030941
REMARK minimizedRMSD -1
REMARK  0 active torsions:
REMARK  status: ('A' for Active; 'I' for Inactive)
ROOT
ATOM      1  C2' OXE d   1       3.423  -0.066  -1.173  0.00  0.00     0.078 C 
ATOM      2  C1' OXE d   1       1.826   0.596   1.039  0.00  0.00     0.078 C 
ATOM      3  C1  OXE d   1       1.668  -0.781   0.443  0.00  0.00    -0.078 A 
ATOM      4  C2  OXE d   1       2.419  -1.080  -0.668  0.00  0.00    -0.078 A 
ATOM      5  C3  OXE d   1       2.351  -2.354  -1.223  0.00  0.00     0.003 A 
ATOM      6  C4  OXE d   1       1.413  -3.282  -0.756  0.00  0.00    -0.002 A 
ATOM      7  C5  OXE d   1       0.610  -2.984   0.350  0.00  0.00    -0.002 A 
ATOM      8  C6  OXE d   1       0.754  -1.756   0.986  0.00  0.00     0.003 A 
ENDROOT
TORSDOF 0
ENDMDL
