MODEL 1
REMARK minimizedAffinity 4.67520857
REMARK minimizedRMSD -1
REMARK  0 active torsions:
REMARK  status: ('A' for Active; 'I' for Inactive)
ROOT
ATOM      1  C2' OXE d   1      -0.666   1.197   3.364  0.00  0.00     0.078 C 
ATOM      2  C1' OXE d   1      -1.700   3.259   1.765  0.00  0.00     0.078 C 
ATOM      3  C1  OXE d   1      -0.259   2.863   1.557  0.00  0.00    -0.078 A 
ATOM      4  C2  OXE d   1       0.252   1.885   2.376  0.00  0.00    -0.078 A 
ATOM      5  C3  OXE d   1       1.559   1.444   2.190  0.00  0.00     0.003 A 
ATOM      6  C4  OXE d   1       2.403   2.093   1.281  0.00  0.00    -0.002 A 
ATOM      7  C5  OXE d   1       1.914   3.118   0.465  0.00  0.00    -0.002 A 
ATOM      8  C6  OXE d   1       0.577   3.486   0.560  0.00  0.00     0.003 A 
ENDROOT
TORSDOF 0
ENDMDL
