MODEL 1
REMARK minimizedAffinity 2.01694608
REMARK minimizedRMSD -1
REMARK  0 active torsions:
REMARK  status: ('A' for Active; 'I' for Inactive)
ROOT
ATOM      1  C2' OXE d   1      -2.543   4.168  -5.974  0.00  0.00     0.078 C 
ATOM      2  C1' OXE d   1      -2.828   2.464  -3.762  0.00  0.00     0.078 C 
ATOM      3  C1  OXE d   1      -1.448   2.636  -4.344  0.00  0.00    -0.078 A 
ATOM      4  C2  OXE d   1      -1.325   3.435  -5.455  0.00  0.00    -0.078 A 
ATOM      5  C3  OXE d   1      -0.065   3.671  -5.999  0.00  0.00     0.003 A 
ATOM      6  C4  OXE d   1       1.054   2.980  -5.519  0.00  0.00    -0.002 A 
ATOM      7  C5  OXE d   1       0.945   2.131  -4.413  0.00  0.00    -0.002 A 
ATOM      8  C6  OXE d   1      -0.289   1.981  -3.789  0.00  0.00     0.003 A 
ENDROOT
TORSDOF 0
ENDMDL
