MODEL 1
REMARK minimizedAffinity -1.26469719
REMARK minimizedRMSD -1
REMARK  0 active torsions:
REMARK  status: ('A' for Active; 'I' for Inactive)
ROOT
ATOM      1  C2' OXE d   1      -1.829  -2.839   0.521  0.00  0.00     0.078 C 
ATOM      2  C1' OXE d   1      -2.884  -0.498   1.655  0.00  0.00     0.078 C 
ATOM      3  C1  OXE d   1      -1.418  -0.509   1.301  0.00  0.00    -0.078 A 
ATOM      4  C2  OXE d   1      -0.900  -1.674   0.790  0.00  0.00    -0.078 A 
ATOM      5  C3  OXE d   1       0.434  -1.721   0.396  0.00  0.00     0.003 A 
ATOM      6  C4  OXE d   1       1.289  -0.643   0.657  0.00  0.00    -0.002 A 
ATOM      7  C5  OXE d   1       0.790   0.540   1.214  0.00  0.00    -0.002 A 
ATOM      8  C6  OXE d   1      -0.567   0.638   1.502  0.00  0.00     0.003 A 
ENDROOT
TORSDOF 0
ENDMDL
