MODEL 1
REMARK minimizedAffinity 2.86296606
REMARK minimizedRMSD -1
REMARK  0 active torsions:
REMARK  status: ('A' for Active; 'I' for Inactive)
ROOT
ATOM      1  C2' OXE d   1      -2.269  -5.918   2.306  0.00  0.00     0.078 C 
ATOM      2  C1' OXE d   1      -1.052  -3.397   2.088  0.00  0.00     0.078 C 
ATOM      3  C1  OXE d   1      -1.856  -3.895   0.912  0.00  0.00    -0.078 A 
ATOM      4  C2  OXE d   1      -2.409  -5.149   1.010  0.00  0.00    -0.078 A 
ATOM      5  C3  OXE d   1      -3.206  -5.633  -0.024  0.00  0.00     0.003 A 
ATOM      6  C4  OXE d   1      -3.322  -4.920  -1.223  0.00  0.00    -0.002 A 
ATOM      7  C5  OXE d   1      -2.734  -3.658  -1.358  0.00  0.00    -0.002 A 
ATOM      8  C6  OXE d   1      -2.035  -3.114  -0.287  0.00  0.00     0.003 A 
ENDROOT
TORSDOF 0
ENDMDL
