MODEL 1
REMARK minimizedAffinity 8.37023163
REMARK minimizedRMSD -1
REMARK  0 active torsions:
REMARK  status: ('A' for Active; 'I' for Inactive)
ROOT
ATOM      1  C2' OXE d   1      -1.318   1.616   1.501  0.00  0.00     0.078 C 
ATOM      2  C1' OXE d   1      -1.710  -1.049   2.291  0.00  0.00     0.078 C 
ATOM      3  C1  OXE d   1      -2.890  -0.304   1.718  0.00  0.00    -0.078 A 
ATOM      4  C2  OXE d   1      -2.701   1.014   1.378  0.00  0.00    -0.078 A 
ATOM      5  C3  OXE d   1      -3.742   1.731   0.795  0.00  0.00     0.003 A 
ATOM      6  C4  OXE d   1      -5.020   1.169   0.694  0.00  0.00    -0.002 A 
ATOM      7  C5  OXE d   1      -5.244  -0.159   1.071  0.00  0.00    -0.002 A 
ATOM      8  C6  OXE d   1      -4.182  -0.921   1.545  0.00  0.00     0.003 A 
ENDROOT
TORSDOF 0
ENDMDL
