MODEL 1
REMARK minimizedAffinity -2.6174562
REMARK minimizedRMSD -1
REMARK  0 active torsions:
REMARK  status: ('A' for Active; 'I' for Inactive)
ROOT
ATOM      1  C2' OXE d   1      -2.257  -3.529  -0.095  0.00  0.00     0.078 C 
ATOM      2  C1' OXE d   1      -1.298  -2.558   2.358  0.00  0.00     0.078 C 
ATOM      3  C1  OXE d   1      -0.299  -2.782   1.251  0.00  0.00    -0.078 A 
ATOM      4  C2  OXE d   1      -0.770  -3.302   0.069  0.00  0.00    -0.078 A 
ATOM      5  C3  OXE d   1       0.100  -3.477  -1.003  0.00  0.00     0.003 A 
ATOM      6  C4  OXE d   1       1.476  -3.273  -0.840  0.00  0.00    -0.002 A 
ATOM      7  C5  OXE d   1       1.983  -2.782   0.368  0.00  0.00    -0.002 A 
ATOM      8  C6  OXE d   1       1.105  -2.491   1.407  0.00  0.00     0.003 A 
ENDROOT
TORSDOF 0
ENDMDL
