MODEL 1
REMARK minimizedAffinity 3.87469721
REMARK minimizedRMSD -1
REMARK  0 active torsions:
REMARK  status: ('A' for Active; 'I' for Inactive)
ROOT
ATOM      1  C2' OXE d   1       0.461  -2.045   0.344  0.00  0.00     0.078 C 
ATOM      2  C1' OXE d   1      -1.315  -3.142   2.221  0.00  0.00     0.078 C 
ATOM      3  C1  OXE d   1      -1.532  -3.479   0.766  0.00  0.00    -0.078 A 
ATOM      4  C2  OXE d   1      -0.686  -2.900  -0.149  0.00  0.00    -0.078 A 
ATOM      5  C3  OXE d   1      -0.808  -3.219  -1.498  0.00  0.00     0.003 A 
ATOM      6  C4  OXE d   1      -1.878  -4.002  -1.948  0.00  0.00    -0.002 A 
ATOM      7  C5  OXE d   1      -2.774  -4.570  -1.036  0.00  0.00    -0.002 A 
ATOM      8  C6  OXE d   1      -2.591  -4.353   0.325  0.00  0.00     0.003 A 
ENDROOT
TORSDOF 0
ENDMDL
