MODEL 1
REMARK minimizedAffinity 5.63604021
REMARK minimizedRMSD -1
REMARK  0 active torsions:
REMARK  status: ('A' for Active; 'I' for Inactive)
ROOT
ATOM      1  C2' OXE d   1       1.054   2.635  -4.806  0.00  0.00     0.078 C 
ATOM      2  C1' OXE d   1      -0.313   2.670  -2.355  0.00  0.00     0.078 C 
ATOM      3  C1  OXE d   1      -1.127   2.490  -3.611  0.00  0.00    -0.078 A 
ATOM      4  C2  OXE d   1      -0.455   2.521  -4.810  0.00  0.00    -0.078 A 
ATOM      5  C3  OXE d   1      -1.151   2.304  -5.996  0.00  0.00     0.003 A 
ATOM      6  C4  OXE d   1      -2.548   2.210  -5.991  0.00  0.00    -0.002 A 
ATOM      7  C5  OXE d   1      -3.256   2.216  -4.784  0.00  0.00    -0.002 A 
ATOM      8  C6  OXE d   1      -2.558   2.312  -3.586  0.00  0.00     0.003 A 
ENDROOT
TORSDOF 0
ENDMDL
