MODEL 1
REMARK minimizedAffinity 5.19180489
REMARK minimizedRMSD -1
REMARK  0 active torsions:
REMARK  status: ('A' for Active; 'I' for Inactive)
ROOT
ATOM      1  C2' OXE d   1      -1.850   2.570  -1.883  0.00  0.00     0.078 C 
ATOM      2  C1' OXE d   1      -3.745   1.436  -3.616  0.00  0.00     0.078 C 
ATOM      3  C1  OXE d   1      -2.374   1.735  -4.170  0.00  0.00    -0.078 A 
ATOM      4  C2  OXE d   1      -1.468   2.333  -3.328  0.00  0.00    -0.078 A 
ATOM      5  C3  OXE d   1      -0.172   2.580  -3.772  0.00  0.00     0.003 A 
ATOM      6  C4  OXE d   1       0.170   2.366  -5.113  0.00  0.00    -0.002 A 
ATOM      7  C5  OXE d   1      -0.750   1.795  -5.998  0.00  0.00    -0.002 A 
ATOM      8  C6  OXE d   1      -2.010   1.434  -5.533  0.00  0.00     0.003 A 
ENDROOT
TORSDOF 0
ENDMDL
