MODEL 1
REMARK minimizedAffinity -0.282694697
REMARK minimizedRMSD -1
REMARK  0 active torsions:
REMARK  status: ('A' for Active; 'I' for Inactive)
ROOT
ATOM      1  C2' OXE d   1      -1.410   3.143   1.910  0.00  0.00     0.078 C 
ATOM      2  C1' OXE d   1      -0.394   0.534   2.112  0.00  0.00     0.078 C 
ATOM      3  C1  OXE d   1       0.484   1.583   1.477  0.00  0.00    -0.078 A 
ATOM      4  C2  OXE d   1      -0.040   2.847   1.340  0.00  0.00    -0.078 A 
ATOM      5  C3  OXE d   1       0.748   3.865   0.810  0.00  0.00     0.003 A 
ATOM      6  C4  OXE d   1       2.010   3.580   0.276  0.00  0.00    -0.002 A 
ATOM      7  C5  OXE d   1       2.546   2.291   0.369  0.00  0.00    -0.002 A 
ATOM      8  C6  OXE d   1       1.814   1.293   1.003  0.00  0.00     0.003 A 
ENDROOT
TORSDOF 0
ENDMDL
