MODEL 1
REMARK minimizedAffinity 6.82091045
REMARK minimizedRMSD -1
REMARK  0 active torsions:
REMARK  status: ('A' for Active; 'I' for Inactive)
ROOT
ATOM      1  C2' OXE d   1       5.643   5.992   3.377  0.00  0.00     0.078 C 
ATOM      2  C1' OXE d   1       5.636   3.185   3.342  0.00  0.00     0.078 C 
ATOM      3  C1  OXE d   1       5.780   3.905   2.024  0.00  0.00    -0.078 A 
ATOM      4  C2  OXE d   1       5.736   5.278   2.046  0.00  0.00    -0.078 A 
ATOM      5  C3  OXE d   1       5.919   5.992   0.865  0.00  0.00     0.003 A 
ATOM      6  C4  OXE d   1       5.993   5.324  -0.363  0.00  0.00    -0.002 A 
ATOM      7  C5  OXE d   1       6.000   3.926  -0.412  0.00  0.00    -0.002 A 
ATOM      8  C6  OXE d   1       5.937   3.203   0.774  0.00  0.00     0.003 A 
ENDROOT
TORSDOF 0
ENDMDL
