MODEL 1
REMARK minimizedAffinity 9.02120686
REMARK minimizedRMSD -1
REMARK  0 active torsions:
REMARK  status: ('A' for Active; 'I' for Inactive)
ROOT
ATOM      1  C2' OXE d   1       1.225   1.399  -4.836  0.00  0.00     0.078 C 
ATOM      2  C1' OXE d   1       2.415   3.664  -5.991  0.00  0.00     0.078 C 
ATOM      3  C1  OXE d   1       0.933   3.711  -5.715  0.00  0.00    -0.078 A 
ATOM      4  C2  OXE d   1       0.351   2.582  -5.193  0.00  0.00    -0.078 A 
ATOM      5  C3  OXE d   1      -1.003   2.591  -4.869  0.00  0.00     0.003 A 
ATOM      6  C4  OXE d   1      -1.807   3.685  -5.212  0.00  0.00    -0.002 A 
ATOM      7  C5  OXE d   1      -1.241   4.831  -5.781  0.00  0.00    -0.002 A 
ATOM      8  C6  OXE d   1       0.132   4.876  -5.999  0.00  0.00     0.003 A 
ENDROOT
TORSDOF 0
ENDMDL
