MODEL 1
REMARK minimizedAffinity -4.98152542
REMARK minimizedRMSD -1
REMARK  1 active torsions:
REMARK  status: ('A' for Active; 'I' for Inactive)
REMARK    1  A    between atoms: C3_4  and  O_7 
ROOT
ATOM      1  C   UNL d   1      -2.681   3.762  -0.725  0.00  0.00    -0.033 A 
ATOM      2  C1  UNL d   1      -1.483   3.092  -0.468  0.00  0.00     0.039 A 
ATOM      3  C2  UNL d   1      -0.493   3.027  -1.451  0.00  0.00    -0.080 A 
ATOM      4  C3  UNL d   1      -0.713   3.636  -2.684  0.00  0.00     0.150 A 
ATOM      5  C4  UNL d   1      -1.903   4.308  -2.944  0.00  0.00    -0.007 A 
ATOM      6  C5  UNL d   1      -2.890   4.372  -1.962  0.00  0.00     0.039 A 
ENDROOT
BRANCH   4   7
ATOM      7  O   UNL d   1       0.221   3.595  -3.676  0.00  0.00    -0.526 OA
ATOM      8  H5  UNL d   1       0.979   3.073  -3.363  0.00  0.00     0.418 HD
ENDBRANCH   4   7
TORSDOF 1
ENDMDL
