MODEL 1
REMARK minimizedAffinity -4.90563488
REMARK minimizedRMSD -1
REMARK  1 active torsions:
REMARK  status: ('A' for Active; 'I' for Inactive)
REMARK    1  A    between atoms: C3_4  and  O_7 
ROOT
ATOM      1  C   UNL d   1      -0.953   1.812  -2.614  0.00  0.00    -0.033 A 
ATOM      2  C1  UNL d   1      -0.722   3.061  -2.033  0.00  0.00     0.039 A 
ATOM      3  C2  UNL d   1      -1.798   3.876  -1.675  0.00  0.00    -0.080 A 
ATOM      4  C3  UNL d   1      -3.097   3.430  -1.901  0.00  0.00     0.150 A 
ATOM      5  C4  UNL d   1      -3.335   2.186  -2.475  0.00  0.00    -0.007 A 
ATOM      6  C5  UNL d   1      -2.259   1.374  -2.833  0.00  0.00     0.039 A 
ENDROOT
BRANCH   4   7
ATOM      7  O   UNL d   1      -4.179   4.192  -1.573  0.00  0.00    -0.526 OA
ATOM      8  H5  UNL d   1      -3.862   5.037  -1.212  0.00  0.00     0.418 HD
ENDBRANCH   4   7
TORSDOF 1
ENDMDL
