MODEL 1
REMARK minimizedAffinity -3.34545469
REMARK minimizedRMSD -1
REMARK  1 active torsions:
REMARK  status: ('A' for Active; 'I' for Inactive)
REMARK    1  A    between atoms: C3_4  and  O_7 
ROOT
ATOM      1  C   UNL d   1       0.043  -0.231  -0.579  0.00  0.00    -0.033 A 
ATOM      2  C1  UNL d   1       1.388  -0.564  -0.411  0.00  0.00     0.039 A 
ATOM      3  C2  UNL d   1       1.898  -0.790   0.868  0.00  0.00    -0.080 A 
ATOM      4  C3  UNL d   1       1.054  -0.679   1.970  0.00  0.00     0.150 A 
ATOM      5  C4  UNL d   1      -0.288  -0.351   1.810  0.00  0.00    -0.007 A 
ATOM      6  C5  UNL d   1      -0.796  -0.125   0.531  0.00  0.00     0.039 A 
ENDROOT
BRANCH   4   7
ATOM      7  O   UNL d   1       1.508  -0.885   3.239  0.00  0.00    -0.526 OA
ATOM      8  H5  UNL d   1       2.460  -1.076   3.198  0.00  0.00     0.418 HD
ENDBRANCH   4   7
TORSDOF 1
ENDMDL
