MODEL 1
REMARK minimizedAffinity -4.39924526
REMARK minimizedRMSD -1
REMARK  1 active torsions:
REMARK  status: ('A' for Active; 'I' for Inactive)
REMARK    1  A    between atoms: C3_4  and  O_7 
ROOT
ATOM      1  C   UNL d   1       1.022  -0.662   2.919  0.00  0.00    -0.033 A 
ATOM      2  C1  UNL d   1       1.895  -0.259   1.906  0.00  0.00     0.039 A 
ATOM      3  C2  UNL d   1       1.405   0.009   0.626  0.00  0.00    -0.080 A 
ATOM      4  C3  UNL d   1       0.043  -0.128   0.373  0.00  0.00     0.150 A 
ATOM      5  C4  UNL d   1      -0.833  -0.525   1.379  0.00  0.00    -0.007 A 
ATOM      6  C5  UNL d   1      -0.342  -0.793   2.656  0.00  0.00     0.039 A 
ENDROOT
BRANCH   4   7
ATOM      7  O   UNL d   1      -0.481   0.118  -0.861  0.00  0.00    -0.526 OA
ATOM      8  H5  UNL d   1       0.246   0.355  -1.462  0.00  0.00     0.418 HD
ENDBRANCH   4   7
TORSDOF 1
ENDMDL
