MODEL 1
REMARK minimizedAffinity -1.53062057
REMARK minimizedRMSD -1
REMARK  1 active torsions:
REMARK  status: ('A' for Active; 'I' for Inactive)
REMARK    1  A    between atoms: C3_4  and  O_7 
ROOT
ATOM      1  C   UNL d   1      -0.877   3.105  -3.302  0.00  0.00    -0.033 A 
ATOM      2  C1  UNL d   1       0.436   2.699  -3.056  0.00  0.00     0.039 A 
ATOM      3  C2  UNL d   1       0.684   1.507  -2.372  0.00  0.00    -0.080 A 
ATOM      4  C3  UNL d   1      -0.388   0.731  -1.942  0.00  0.00     0.150 A 
ATOM      5  C4  UNL d   1      -1.699   1.126  -2.188  0.00  0.00    -0.007 A 
ATOM      6  C5  UNL d   1      -1.945   2.318  -2.869  0.00  0.00     0.039 A 
ENDROOT
BRANCH   4   7
ATOM      7  O   UNL d   1      -0.196  -0.438  -1.267  0.00  0.00    -0.526 OA
ATOM      8  H5  UNL d   1       0.759  -0.569  -1.145  0.00  0.00     0.418 HD
ENDBRANCH   4   7
TORSDOF 1
ENDMDL
