MODEL 1
REMARK minimizedAffinity -3.37347174
REMARK minimizedRMSD -1
REMARK  1 active torsions:
REMARK  status: ('A' for Active; 'I' for Inactive)
REMARK    1  A    between atoms: C3_4  and  O_7 
ROOT
ATOM      1  C   UNL d   1      -4.540   2.460  -2.352  0.00  0.00    -0.033 A 
ATOM      2  C1  UNL d   1      -3.511   1.517  -2.384  0.00  0.00     0.039 A 
ATOM      3  C2  UNL d   1      -2.229   1.893  -2.790  0.00  0.00    -0.080 A 
ATOM      4  C3  UNL d   1      -1.990   3.213  -3.161  0.00  0.00     0.150 A 
ATOM      5  C4  UNL d   1      -3.009   4.159  -3.128  0.00  0.00    -0.007 A 
ATOM      6  C5  UNL d   1      -4.289   3.782  -2.722  0.00  0.00     0.039 A 
ENDROOT
BRANCH   4   7
ATOM      7  O   UNL d   1      -0.756   3.626  -3.569  0.00  0.00    -0.526 OA
ATOM      8  H5  UNL d   1      -0.159   2.859  -3.569  0.00  0.00     0.418 HD
ENDBRANCH   4   7
TORSDOF 1
ENDMDL
