MODEL 1
REMARK minimizedAffinity -3.48701453
REMARK minimizedRMSD -1
REMARK  1 active torsions:
REMARK  status: ('A' for Active; 'I' for Inactive)
REMARK    1  A    between atoms: C3_4  and  O_7 
ROOT
ATOM      1  C   UNL d   1       1.789  -2.663   1.924  0.00  0.00    -0.033 A 
ATOM      2  C1  UNL d   1       2.216  -2.613   0.596  0.00  0.00     0.039 A 
ATOM      3  C2  UNL d   1       1.620  -1.722  -0.298  0.00  0.00    -0.080 A 
ATOM      4  C3  UNL d   1       0.600  -0.886   0.148  0.00  0.00     0.150 A 
ATOM      5  C4  UNL d   1       0.172  -0.928   1.471  0.00  0.00    -0.007 A 
ATOM      6  C5  UNL d   1       0.767  -1.820   2.362  0.00  0.00     0.039 A 
ENDROOT
BRANCH   4   7
ATOM      7  O   UNL d   1      -0.015  -0.003  -0.689  0.00  0.00    -0.526 OA
ATOM      8  H5  UNL d   1       0.365  -0.106  -1.577  0.00  0.00     0.418 HD
ENDBRANCH   4   7
TORSDOF 1
ENDMDL
