MODEL 1
REMARK minimizedAffinity -4.43439484
REMARK minimizedRMSD -1
REMARK  1 active torsions:
REMARK  status: ('A' for Active; 'I' for Inactive)
REMARK    1  A    between atoms: C3_4  and  O_7 
ROOT
ATOM      1  C   UNL d   1      -0.568  -0.307   0.168  0.00  0.00    -0.033 A 
ATOM      2  C1  UNL d   1       0.810  -0.470   0.014  0.00  0.00     0.039 A 
ATOM      3  C2  UNL d   1       1.625  -0.635   1.136  0.00  0.00    -0.080 A 
ATOM      4  C3  UNL d   1       1.050  -0.636   2.403  0.00  0.00     0.150 A 
ATOM      5  C4  UNL d   1      -0.322  -0.478   2.564  0.00  0.00    -0.007 A 
ATOM      6  C5  UNL d   1      -1.134  -0.313   1.442  0.00  0.00     0.039 A 
ENDROOT
BRANCH   4   7
ATOM      7  O   UNL d   1       1.805  -0.789   3.528  0.00  0.00    -0.526 OA
ATOM      8  H5  UNL d   1       2.738  -0.859   3.265  0.00  0.00     0.418 HD
ENDBRANCH   4   7
TORSDOF 1
ENDMDL
