MODEL 1
REMARK minimizedAffinity -5.06775475
REMARK minimizedRMSD -1
REMARK  1 active torsions:
REMARK  status: ('A' for Active; 'I' for Inactive)
REMARK    1  A    between atoms: C3_4  and  O_7 
ROOT
ATOM      1  C   UNL d   1      -0.592  -0.294  -0.380  0.00  0.00    -0.033 A 
ATOM      2  C1  UNL d   1       0.780  -0.503  -0.536  0.00  0.00     0.039 A 
ATOM      3  C2  UNL d   1       1.600  -0.636   0.586  0.00  0.00    -0.080 A 
ATOM      4  C3  UNL d   1       1.037  -0.559   1.857  0.00  0.00     0.150 A 
ATOM      5  C4  UNL d   1      -0.329  -0.354   2.020  0.00  0.00    -0.007 A 
ATOM      6  C5  UNL d   1      -1.147  -0.221   0.898  0.00  0.00     0.039 A 
ENDROOT
BRANCH   4   7
ATOM      7  O   UNL d   1       1.798  -0.677   2.982  0.00  0.00    -0.526 OA
ATOM      8  H5  UNL d   1       2.726  -0.786   2.715  0.00  0.00     0.418 HD
ENDBRANCH   4   7
TORSDOF 1
ENDMDL
