MODEL 1
REMARK minimizedAffinity 9.11626625
REMARK minimizedRMSD -1
REMARK  1 active torsions:
REMARK  status: ('A' for Active; 'I' for Inactive)
REMARK    1  A    between atoms: N_2  and  C1_3 
ROOT
ATOM      1  C1  UNL d   1      -4.017   5.541  -1.582  0.00  0.00     0.143 A 
ATOM      2  C2  UNL d   1      -5.262   5.757  -0.981  0.00  0.00    -0.057 A 
ATOM      3  C3  UNL d   1      -5.373   5.998   0.394  0.00  0.00     0.033 A 
ATOM      4  C4  UNL d   1      -4.239   5.998   1.200  0.00  0.00    -0.042 A 
ATOM      5  C5  UNL d   1      -2.994   5.761   0.628  0.00  0.00     0.033 A 
ATOM      6  C6  UNL d   1      -2.889   5.528  -0.747  0.00  0.00    -0.057 A 
ENDROOT
BRANCH   1   7
ATOM      7  N   UNL d   1      -3.852   5.199  -2.926  0.00  0.00    -0.732 N 
ATOM      8  C   UNL d   1      -2.876   4.205  -3.319  0.00  0.00     0.284 C 
ATOM      9  H3  UNL d   1      -4.738   5.130  -3.421  0.00  0.00     0.395 HD
ENDBRANCH   1   7
TORSDOF 1
ENDMDL
