MODEL 1
REMARK minimizedAffinity 16.2268085
REMARK minimizedRMSD -1
REMARK  1 active torsions:
REMARK  status: ('A' for Active; 'I' for Inactive)
REMARK    1  A    between atoms: N_2  and  C1_3 
ROOT
ATOM      1  C1  UNL d   1      -3.977   4.158  -2.985  0.00  0.00     0.143 A 
ATOM      2  C2  UNL d   1      -2.579   4.166  -2.934  0.00  0.00    -0.057 A 
ATOM      3  C3  UNL d   1      -1.829   3.078  -3.398  0.00  0.00     0.033 A 
ATOM      4  C4  UNL d   1      -2.469   1.947  -3.896  0.00  0.00    -0.042 A 
ATOM      5  C5  UNL d   1      -3.858   1.908  -3.934  0.00  0.00     0.033 A 
ATOM      6  C6  UNL d   1      -4.600   3.000  -3.475  0.00  0.00    -0.057 A 
ENDROOT
BRANCH   1   7
ATOM      7  N   UNL d   1      -4.780   5.168  -2.449  0.00  0.00    -0.732 N 
ATOM      8  C   UNL d   1      -5.024   5.238  -1.024  0.00  0.00     0.284 C 
ATOM      9  H3  UNL d   1      -4.613   6.071  -2.887  0.00  0.00     0.395 HD
ENDBRANCH   1   7
TORSDOF 1
ENDMDL
