MODEL 1
REMARK minimizedAffinity 13.6326752
REMARK minimizedRMSD -1
REMARK  1 active torsions:
REMARK  status: ('A' for Active; 'I' for Inactive)
REMARK    1  A    between atoms: N_2  and  C1_3 
ROOT
ATOM      1  C1  UNL d   1      -3.417  -3.377   3.885  0.00  0.00     0.143 A 
ATOM      2  C2  UNL d   1      -3.311  -2.306   4.778  0.00  0.00    -0.057 A 
ATOM      3  C3  UNL d   1      -2.095  -1.996   5.399  0.00  0.00     0.033 A 
ATOM      4  C4  UNL d   1      -0.966  -2.774   5.159  0.00  0.00    -0.042 A 
ATOM      5  C5  UNL d   1      -1.055  -3.859   4.293  0.00  0.00     0.033 A 
ATOM      6  C6  UNL d   1      -2.271  -4.158   3.671  0.00  0.00    -0.057 A 
ENDROOT
BRANCH   1   7
ATOM      7  N   UNL d   1      -4.621  -3.795   3.312  0.00  0.00    -0.732 N 
ATOM      8  C   UNL d   1      -5.602  -4.511   4.098  0.00  0.00     0.284 C 
ATOM      9  H3  UNL d   1      -5.018  -3.096   2.688  0.00  0.00     0.395 HD
ENDBRANCH   1   7
TORSDOF 1
ENDMDL
