MODEL 1
REMARK minimizedAffinity 9.98094463
REMARK minimizedRMSD -1
REMARK  1 active torsions:
REMARK  status: ('A' for Active; 'I' for Inactive)
REMARK    1  A    between atoms: N_2  and  C1_3 
ROOT
ATOM      1  C1  UNL d   1      -5.231   5.808   2.186  0.00  0.00     0.143 A 
ATOM      2  C2  UNL d   1      -5.995   5.583   1.036  0.00  0.00    -0.057 A 
ATOM      3  C3  UNL d   1      -5.398   5.502  -0.228  0.00  0.00     0.033 A 
ATOM      4  C4  UNL d   1      -4.024   5.675  -0.367  0.00  0.00    -0.042 A 
ATOM      5  C5  UNL d   1      -3.249   5.925   0.759  0.00  0.00     0.033 A 
ATOM      6  C6  UNL d   1      -3.850   5.998   2.019  0.00  0.00    -0.057 A 
ENDROOT
BRANCH   1   7
ATOM      7  N   UNL d   1      -5.778   5.997   3.458  0.00  0.00    -0.732 N 
ATOM      8  C   UNL d   1      -4.931   5.999   4.631  0.00  0.00     0.284 C 
ATOM      9  H3  UNL d   1      -6.502   6.712   3.467  0.00  0.00     0.395 HD
ENDBRANCH   1   7
TORSDOF 1
ENDMDL
