MODEL 1
REMARK minimizedAffinity 9.89292049
REMARK minimizedRMSD -1
REMARK  1 active torsions:
REMARK  status: ('A' for Active; 'I' for Inactive)
REMARK    1  A    between atoms: N_2  and  C1_3 
ROOT
ATOM      1  C1  UNL d   1      -4.777  -3.414   4.943  0.00  0.00     0.143 A 
ATOM      2  C2  UNL d   1      -4.323  -2.608   5.992  0.00  0.00    -0.057 A 
ATOM      3  C3  UNL d   1      -3.062  -2.001   5.948  0.00  0.00     0.033 A 
ATOM      4  C4  UNL d   1      -2.218  -2.214   4.863  0.00  0.00    -0.042 A 
ATOM      5  C5  UNL d   1      -2.639  -3.032   3.821  0.00  0.00     0.033 A 
ATOM      6  C6  UNL d   1      -3.902  -3.630   3.867  0.00  0.00    -0.057 A 
ENDROOT
BRANCH   1   7
ATOM      7  N   UNL d   1      -5.980  -4.124   4.972  0.00  0.00    -0.732 N 
ATOM      8  C   UNL d   1      -5.994  -5.538   5.280  0.00  0.00     0.284 C 
ATOM      9  H3  UNL d   1      -6.732  -3.596   5.409  0.00  0.00     0.395 HD
ENDBRANCH   1   7
TORSDOF 1
ENDMDL
