MODEL 1
REMARK minimizedAffinity 15.3125896
REMARK minimizedRMSD -1
REMARK  1 active torsions:
REMARK  status: ('A' for Active; 'I' for Inactive)
REMARK    1  A    between atoms: N_2  and  C1_3 
ROOT
ATOM      1  C1  UNL d   1       0.382   3.321  -1.366  0.00  0.00     0.143 A 
ATOM      2  C2  UNL d   1       1.315   4.291  -1.751  0.00  0.00    -0.057 A 
ATOM      3  C3  UNL d   1       1.156   5.020  -2.936  0.00  0.00     0.033 A 
ATOM      4  C4  UNL d   1       0.074   4.771  -3.774  0.00  0.00    -0.042 A 
ATOM      5  C5  UNL d   1      -0.852   3.795  -3.423  0.00  0.00     0.033 A 
ATOM      6  C6  UNL d   1      -0.692   3.074  -2.235  0.00  0.00    -0.057 A 
ENDROOT
BRANCH   1   7
ATOM      7  N   UNL d   1       0.536   2.495  -0.250  0.00  0.00    -0.732 N 
ATOM      8  C   UNL d   1      -0.610   1.844   0.348  0.00  0.00     0.284 C 
ATOM      9  H3  UNL d   1       1.363   1.905  -0.315  0.00  0.00     0.395 HD
ENDBRANCH   1   7
TORSDOF 1
ENDMDL
