MODEL 1
REMARK minimizedAffinity 3.62819576
REMARK minimizedRMSD -1
REMARK  1 active torsions:
REMARK  status: ('A' for Active; 'I' for Inactive)
REMARK    1  A    between atoms: N_2  and  C1_3 
ROOT
ATOM      1  C1  UNL d   1      -2.561   3.838   1.191  0.00  0.00     0.143 A 
ATOM      2  C2  UNL d   1      -1.708   4.654   0.440  0.00  0.00    -0.057 A 
ATOM      3  C3  UNL d   1      -0.478   4.179  -0.033  0.00  0.00     0.033 A 
ATOM      4  C4  UNL d   1      -0.067   2.883   0.262  0.00  0.00    -0.042 A 
ATOM      5  C5  UNL d   1      -0.887   2.062   1.027  0.00  0.00     0.033 A 
ATOM      6  C6  UNL d   1      -2.116   2.540   1.491  0.00  0.00    -0.057 A 
ENDROOT
BRANCH   1   7
ATOM      7  N   UNL d   1      -3.750   4.282   1.773  0.00  0.00    -0.732 N 
ATOM      8  C   UNL d   1      -4.137   5.674   1.688  0.00  0.00     0.284 C 
ATOM      9  H3  UNL d   1      -4.518   3.629   1.636  0.00  0.00     0.395 HD
ENDBRANCH   1   7
TORSDOF 1
ENDMDL
