MODEL 1
REMARK minimizedAffinity 7.33328342
REMARK minimizedRMSD -1
REMARK  1 active torsions:
REMARK  status: ('A' for Active; 'I' for Inactive)
REMARK    1  A    between atoms: N_2  and  C1_3 
ROOT
ATOM      1  C1  UNL d   1      -0.622   3.809  -1.661  0.00  0.00     0.143 A 
ATOM      2  C2  UNL d   1       0.279   4.657  -1.008  0.00  0.00    -0.057 A 
ATOM      3  C3  UNL d   1       0.713   4.390   0.296  0.00  0.00     0.033 A 
ATOM      4  C4  UNL d   1       0.228   3.283   0.984  0.00  0.00    -0.042 A 
ATOM      5  C5  UNL d   1      -0.687   2.440   0.364  0.00  0.00     0.033 A 
ATOM      6  C6  UNL d   1      -1.111   2.707  -0.941  0.00  0.00    -0.057 A 
ENDROOT
BRANCH   1   7
ATOM      7  N   UNL d   1      -1.166   4.073  -2.920  0.00  0.00    -0.732 N 
ATOM      8  C   UNL d   1      -1.620   2.992  -3.768  0.00  0.00     0.284 C 
ATOM      9  H3  UNL d   1      -1.781   4.884  -2.915  0.00  0.00     0.395 HD
ENDBRANCH   1   7
TORSDOF 1
ENDMDL
