MODEL 1
REMARK minimizedAffinity 1.10938954
REMARK minimizedRMSD -1
REMARK  1 active torsions:
REMARK  status: ('A' for Active; 'I' for Inactive)
REMARK    1  A    between atoms: N_2  and  C1_3 
ROOT
ATOM      1  C1  UNL d   1       0.096   3.376   0.467  0.00  0.00     0.143 A 
ATOM      2  C2  UNL d   1       0.000   3.965  -0.799  0.00  0.00    -0.057 A 
ATOM      3  C3  UNL d   1       0.481   5.259  -1.036  0.00  0.00     0.033 A 
ATOM      4  C4  UNL d   1       1.042   5.999  -0.000  0.00  0.00    -0.042 A 
ATOM      5  C5  UNL d   1       1.125   5.443   1.271  0.00  0.00     0.033 A 
ATOM      6  C6  UNL d   1       0.649   4.149   1.500  0.00  0.00    -0.057 A 
ENDROOT
BRANCH   1   7
ATOM      7  N   UNL d   1      -0.453   2.132   0.789  0.00  0.00    -0.732 N 
ATOM      8  C   UNL d   1      -1.125   1.929   2.054  0.00  0.00     0.284 C 
ATOM      9  H3  UNL d   1      -0.918   1.696  -0.004  0.00  0.00     0.395 HD
ENDBRANCH   1   7
TORSDOF 1
ENDMDL
