MODEL 1
REMARK minimizedAffinity 4.70544815
REMARK minimizedRMSD -1
REMARK  1 active torsions:
REMARK  status: ('A' for Active; 'I' for Inactive)
REMARK    1  A    between atoms: N_2  and  C1_3 
ROOT
ATOM      1  C1  UNL d   1      -0.299   2.696   0.340  0.00  0.00     0.143 A 
ATOM      2  C2  UNL d   1       0.011   3.456   1.473  0.00  0.00    -0.057 A 
ATOM      3  C3  UNL d   1      -0.432   3.077   2.745  0.00  0.00     0.033 A 
ATOM      4  C4  UNL d   1      -1.221   1.942   2.904  0.00  0.00    -0.042 A 
ATOM      5  C5  UNL d   1      -1.563   1.185   1.789  0.00  0.00     0.033 A 
ATOM      6  C6  UNL d   1      -1.112   1.566   0.521  0.00  0.00    -0.057 A 
ENDROOT
BRANCH   1   7
ATOM      7  N   UNL d   1       0.029   3.074  -0.964  0.00  0.00    -0.732 N 
ATOM      8  C   UNL d   1      -0.964   3.032  -2.016  0.00  0.00     0.284 C 
ATOM      9  H3  UNL d   1       0.628   3.896  -0.991  0.00  0.00     0.395 HD
ENDBRANCH   1   7
TORSDOF 1
ENDMDL
