MODEL 1
REMARK minimizedAffinity 3.76730943
REMARK minimizedRMSD -1
REMARK  1 active torsions:
REMARK  status: ('A' for Active; 'I' for Inactive)
REMARK    1  A    between atoms: N_2  and  C1_3 
ROOT
ATOM      1  C1  UNL d   1      -0.191   2.453   1.327  0.00  0.00     0.143 A 
ATOM      2  C2  UNL d   1      -0.196   1.881   0.050  0.00  0.00    -0.057 A 
ATOM      3  C3  UNL d   1       0.083   2.646  -1.089  0.00  0.00     0.033 A 
ATOM      4  C4  UNL d   1       0.344   4.007  -0.973  0.00  0.00    -0.042 A 
ATOM      5  C5  UNL d   1       0.330   4.602   0.283  0.00  0.00     0.033 A 
ATOM      6  C6  UNL d   1       0.057   3.831   1.418  0.00  0.00    -0.057 A 
ENDROOT
BRANCH   1   7
ATOM      7  N   UNL d   1      -0.557   1.767   2.488  0.00  0.00    -0.732 N 
ATOM      8  C   UNL d   1      -1.661   0.831   2.474  0.00  0.00     0.284 C 
ATOM      9  H3  UNL d   1       0.249   1.451   3.023  0.00  0.00     0.395 HD
ENDBRANCH   1   7
TORSDOF 1
ENDMDL
