MODEL 1
REMARK minimizedAffinity 2.41853428
REMARK minimizedRMSD -1
REMARK  1 active torsions:
REMARK  status: ('A' for Active; 'I' for Inactive)
REMARK    1  A    between atoms: N_2  and  C1_3 
ROOT
ATOM      1  C1  UNL d   1      -5.408  -1.074  -0.727  0.00  0.00     0.143 A 
ATOM      2  C2  UNL d   1      -5.311  -2.425  -1.077  0.00  0.00    -0.057 A 
ATOM      3  C3  UNL d   1      -5.569  -3.437  -0.144  0.00  0.00     0.033 A 
ATOM      4  C4  UNL d   1      -5.902  -3.114   1.167  0.00  0.00    -0.042 A 
ATOM      5  C5  UNL d   1      -5.980  -1.778   1.544  0.00  0.00     0.033 A 
ATOM      6  C6  UNL d   1      -5.728  -0.772   0.606  0.00  0.00    -0.057 A 
ENDROOT
BRANCH   1   7
ATOM      7  N   UNL d   1      -5.069  -0.023  -1.582  0.00  0.00    -0.732 N 
ATOM      8  C   UNL d   1      -3.785  -0.001  -2.250  0.00  0.00     0.284 C 
ATOM      9  H3  UNL d   1      -5.847   0.268  -2.169  0.00  0.00     0.395 HD
ENDBRANCH   1   7
TORSDOF 1
ENDMDL
