MODEL 1
REMARK minimizedAffinity 10.5080099
REMARK minimizedRMSD -1
REMARK  1 active torsions:
REMARK  status: ('A' for Active; 'I' for Inactive)
REMARK    1  A    between atoms: N_2  and  C1_3 
ROOT
ATOM      1  C1  UNL d   1      -0.721   5.176  -0.234  0.00  0.00     0.143 A 
ATOM      2  C2  UNL d   1       0.370   4.312  -0.085  0.00  0.00    -0.057 A 
ATOM      3  C3  UNL d   1       0.749   3.437  -1.110  0.00  0.00     0.033 A 
ATOM      4  C4  UNL d   1       0.023   3.390  -2.296  0.00  0.00    -0.042 A 
ATOM      5  C5  UNL d   1      -1.079   4.222  -2.457  0.00  0.00     0.033 A 
ATOM      6  C6  UNL d   1      -1.449   5.098  -1.432  0.00  0.00    -0.057 A 
ENDROOT
BRANCH   1   7
ATOM      7  N   UNL d   1      -1.207   5.998   0.785  0.00  0.00    -0.732 N 
ATOM      8  C   UNL d   1      -2.614   5.998   1.124  0.00  0.00     0.284 C 
ATOM      9  H3  UNL d   1      -0.586   6.028   1.590  0.00  0.00     0.395 HD
ENDBRANCH   1   7
TORSDOF 1
ENDMDL
