MODEL 1
REMARK minimizedAffinity -5.07120132
REMARK minimizedRMSD -1
REMARK  1 active torsions:
REMARK  status: ('A' for Active; 'I' for Inactive)
REMARK    1  A    between atoms: C1_2  and  C2_3 
ROOT
ATOM      1  C2  UNL d   1       1.314  -1.036   0.461  0.00  0.00    -0.081 A 
ATOM      2  C3  UNL d   1       1.301  -1.374  -0.898  0.00  0.00     0.006 A 
ATOM      3  C4  UNL d   1       0.551  -0.625  -1.807  0.00  0.00     0.002 A 
ATOM      4  C5  UNL d   1      -0.192   0.479  -1.375  0.00  0.00    -0.080 A 
ATOM      5  C6  UNL d   1      -0.978   1.310  -2.345  0.00  0.00     0.076 C 
ATOM      6  C7  UNL d   1      -0.194   0.806  -0.015  0.00  0.00     0.002 A 
ATOM      7  C8  UNL d   1       0.556   0.057   0.895  0.00  0.00     0.006 A 
ENDROOT
BRANCH   1   8
ATOM      8  C1  UNL d   1       2.173  -1.803   1.433  0.00  0.00     0.054 C 
ATOM      9  C   UNL d   1       1.627  -1.704   2.851  0.00  0.00     0.018 C 
ENDBRANCH   1   8
TORSDOF 1
ENDMDL
