MODEL 1
REMARK minimizedAffinity -4.68591404
REMARK minimizedRMSD -1
REMARK  1 active torsions:
REMARK  status: ('A' for Active; 'I' for Inactive)
REMARK    1  A    between atoms: C1_2  and  C2_3 
ROOT
ATOM      1  C2  UNL d   1      -0.489   0.056  -0.762  0.00  0.00    -0.081 A 
ATOM      2  C3  UNL d   1      -1.306   0.164   0.370  0.00  0.00     0.006 A 
ATOM      3  C4  UNL d   1      -0.771  -0.006   1.648  0.00  0.00     0.002 A 
ATOM      4  C5  UNL d   1       0.590  -0.281   1.817  0.00  0.00    -0.080 A 
ATOM      5  C6  UNL d   1       1.184  -0.436   3.186  0.00  0.00     0.076 C 
ATOM      6  C7  UNL d   1       1.403  -0.407   0.686  0.00  0.00     0.002 A 
ATOM      7  C8  UNL d   1       0.869  -0.237  -0.593  0.00  0.00     0.006 A 
ENDROOT
BRANCH   1   8
ATOM      8  C1  UNL d   1      -1.050   0.303  -2.139  0.00  0.00     0.054 C 
ATOM      9  C   UNL d   1      -1.353   1.779  -2.356  0.00  0.00     0.018 C 
ENDBRANCH   1   8
TORSDOF 1
ENDMDL
