MODEL 1
REMARK minimizedAffinity -2.52259016
REMARK minimizedRMSD -1
REMARK  1 active torsions:
REMARK  status: ('A' for Active; 'I' for Inactive)
REMARK    1  A    between atoms: C1_2  and  C2_3 
ROOT
ATOM      1  C2  UNL d   1      -0.403   0.380  -0.690  0.00  0.00    -0.081 A 
ATOM      2  C3  UNL d   1      -1.155   0.188   0.475  0.00  0.00     0.006 A 
ATOM      3  C4  UNL d   1      -0.521  -0.056   1.695  0.00  0.00     0.002 A 
ATOM      4  C5  UNL d   1       0.875  -0.105   1.773  0.00  0.00    -0.080 A 
ATOM      5  C6  UNL d   1       1.569  -0.336   3.082  0.00  0.00     0.076 C 
ATOM      6  C7  UNL d   1       1.626   0.070   0.605  0.00  0.00     0.002 A 
ATOM      7  C8  UNL d   1       0.993   0.313  -0.615  0.00  0.00     0.006 A 
ENDROOT
BRANCH   1   8
ATOM      8  C1  UNL d   1      -1.081   0.707  -1.996  0.00  0.00     0.054 C 
ATOM      9  C   UNL d   1      -0.806   2.144  -2.418  0.00  0.00     0.018 C 
ENDBRANCH   1   8
TORSDOF 1
ENDMDL
