MODEL 1
REMARK minimizedAffinity 14.4058666
REMARK minimizedRMSD -1
REMARK  0 active torsions:
REMARK  status: ('A' for Active; 'I' for Inactive)
ROOT
ATOM      1  C   UNL d   1      -1.788  -3.514   2.217  0.00  0.00    -0.002 A 
ATOM      2  C1  UNL d   1      -0.805  -4.165   1.484  0.00  0.00     0.010 A 
ATOM      3  C2  UNL d   1      -0.418  -3.685   0.232  0.00  0.00     0.041 A 
ATOM      4  C3  UNL d   1      -1.038  -2.527  -0.276  0.00  0.00    -0.075 A 
ATOM      5  S   UNL d   1      -0.724  -1.756  -1.786  0.00  0.00     0.015 SA
ATOM      6  C4  UNL d   1      -1.885  -0.544  -1.494  0.00  0.00     0.022 A 
ATOM      7  C5  UNL d   1      -2.507  -0.707  -0.279  0.00  0.00     0.026 A 
ATOM      8  C6  UNL d   1      -2.029  -1.853   0.443  0.00  0.00    -0.082 A 
ATOM      9  C7  UNL d   1      -2.401  -2.365   1.710  0.00  0.00     0.045 A 
ENDROOT
TORSDOF 0
ENDMDL
