MODEL 1
REMARK minimizedAffinity 20.70508
REMARK minimizedRMSD -1
REMARK  0 active torsions:
REMARK  status: ('A' for Active; 'I' for Inactive)
ROOT
ATOM      1  C   UNL d   1       1.326   3.386  -5.944  0.00  0.00    -0.002 A 
ATOM      2  C1  UNL d   1       1.089   2.020  -6.000  0.00  0.00     0.010 A 
ATOM      3  C2  UNL d   1      -0.089   1.482  -5.479  0.00  0.00     0.041 A 
ATOM      4  C3  UNL d   1      -1.036   2.348  -4.898  0.00  0.00    -0.075 A 
ATOM      5  S   UNL d   1      -2.550   1.914  -4.198  0.00  0.00     0.015 SA
ATOM      6  C4  UNL d   1      -2.919   3.532  -3.809  0.00  0.00     0.022 A 
ATOM      7  C5  UNL d   1      -1.922   4.395  -4.196  0.00  0.00     0.026 A 
ATOM      8  C6  UNL d   1      -0.820   3.727  -4.831  0.00  0.00    -0.082 A 
ATOM      9  C7  UNL d   1       0.385   4.242  -5.366  0.00  0.00     0.045 A 
ENDROOT
TORSDOF 0
ENDMDL
