MODEL 1
REMARK minimizedAffinity 18.9859314
REMARK minimizedRMSD -1
REMARK  0 active torsions:
REMARK  status: ('A' for Active; 'I' for Inactive)
ROOT
ATOM      1  C   UNL d   1       5.031   4.951   0.411  0.00  0.00    -0.002 A 
ATOM      2  C1  UNL d   1       5.999   4.847  -0.577  0.00  0.00     0.010 A 
ATOM      3  C2  UNL d   1       5.921   3.844  -1.545  0.00  0.00     0.041 A 
ATOM      4  C3  UNL d   1       4.842   2.939  -1.503  0.00  0.00    -0.075 A 
ATOM      5  S   UNL d   1       4.540   1.631  -2.585  0.00  0.00     0.015 SA
ATOM      6  C4  UNL d   1       3.117   1.180  -1.761  0.00  0.00     0.022 A 
ATOM      7  C5  UNL d   1       2.864   1.997  -0.684  0.00  0.00     0.026 A 
ATOM      8  C6  UNL d   1       3.854   3.024  -0.518  0.00  0.00    -0.082 A 
ATOM      9  C7  UNL d   1       3.962   4.052   0.449  0.00  0.00     0.045 A 
ENDROOT
TORSDOF 0
ENDMDL
