MODEL 1
REMARK minimizedAffinity 9.20947838
REMARK minimizedRMSD -1
REMARK  0 active torsions:
REMARK  status: ('A' for Active; 'I' for Inactive)
ROOT
ATOM      1  C   UNL d   1      -2.544  -1.689   1.801  0.00  0.00    -0.002 A 
ATOM      2  C1  UNL d   1      -2.475  -2.439   2.967  0.00  0.00     0.010 A 
ATOM      3  C2  UNL d   1      -1.831  -3.678   2.977  0.00  0.00     0.041 A 
ATOM      4  C3  UNL d   1      -1.249  -4.154   1.785  0.00  0.00    -0.075 A 
ATOM      5  S   UNL d   1      -0.408  -5.642   1.560  0.00  0.00     0.015 SA
ATOM      6  C4  UNL d   1      -0.119  -5.316  -0.087  0.00  0.00     0.022 A 
ATOM      7  C5  UNL d   1      -0.646  -4.106  -0.474  0.00  0.00     0.026 A 
ATOM      8  C6  UNL d   1      -1.305  -3.416   0.599  0.00  0.00    -0.082 A 
ATOM      9  C7  UNL d   1      -1.966  -2.164   0.621  0.00  0.00     0.045 A 
ENDROOT
TORSDOF 0
ENDMDL
