MODEL 1
REMARK minimizedAffinity 19.0655689
REMARK minimizedRMSD -1
REMARK  0 active torsions:
REMARK  status: ('A' for Active; 'I' for Inactive)
ROOT
ATOM      1  C   UNL d   1      -4.803   3.716   5.996  0.00  0.00    -0.002 A 
ATOM      2  C1  UNL d   1      -5.999   3.013   5.939  0.00  0.00     0.010 A 
ATOM      3  C2  UNL d   1      -6.000   1.622   5.825  0.00  0.00     0.041 A 
ATOM      4  C3  UNL d   1      -4.767   0.942   5.771  0.00  0.00    -0.075 A 
ATOM      5  S   UNL d   1      -4.524  -0.759   5.633  0.00  0.00     0.015 SA
ATOM      6  C4  UNL d   1      -2.828  -0.593   5.647  0.00  0.00     0.022 A 
ATOM      7  C5  UNL d   1      -2.439   0.721   5.754  0.00  0.00     0.026 A 
ATOM      8  C6  UNL d   1      -3.550   1.627   5.828  0.00  0.00    -0.082 A 
ATOM      9  C7  UNL d   1      -3.583   3.038   5.942  0.00  0.00     0.045 A 
ENDROOT
TORSDOF 0
ENDMDL
