MODEL 1
REMARK minimizedAffinity 26.4438877
REMARK minimizedRMSD -1
REMARK  0 active torsions:
REMARK  status: ('A' for Active; 'I' for Inactive)
ROOT
ATOM      1  C   UNL d   1      -3.370   2.491  -3.313  0.00  0.00    -0.002 A 
ATOM      2  C1  UNL d   1      -2.860   1.217  -3.109  0.00  0.00     0.010 A 
ATOM      3  C2  UNL d   1      -1.659   0.829  -3.707  0.00  0.00     0.041 A 
ATOM      4  C3  UNL d   1      -0.973   1.752  -4.520  0.00  0.00    -0.075 A 
ATOM      5  S   UNL d   1       0.515   1.499  -5.354  0.00  0.00     0.015 SA
ATOM      6  C4  UNL d   1       0.508   3.076  -6.000  0.00  0.00     0.022 A 
ATOM      7  C5  UNL d   1      -0.595   3.792  -5.600  0.00  0.00     0.026 A 
ATOM      8  C6  UNL d   1      -1.467   3.041  -4.740  0.00  0.00    -0.082 A 
ATOM      9  C7  UNL d   1      -2.687   3.405  -4.120  0.00  0.00     0.045 A 
ENDROOT
TORSDOF 0
ENDMDL
