MODEL 1
REMARK minimizedAffinity 19.4930859
REMARK minimizedRMSD -1
REMARK  0 active torsions:
REMARK  status: ('A' for Active; 'I' for Inactive)
ROOT
ATOM      1  C   UNL d   1      -2.253   3.585  -4.236  0.00  0.00    -0.002 A 
ATOM      2  C1  UNL d   1      -0.898   3.438  -4.499  0.00  0.00     0.010 A 
ATOM      3  C2  UNL d   1      -0.252   2.227  -4.241  0.00  0.00     0.041 A 
ATOM      4  C3  UNL d   1      -0.997   1.156  -3.711  0.00  0.00    -0.075 A 
ATOM      5  S   UNL d   1      -0.418  -0.419  -3.317  0.00  0.00     0.015 SA
ATOM      6  C4  UNL d   1      -1.955  -0.935  -2.791  0.00  0.00     0.022 A 
ATOM      7  C5  UNL d   1      -2.899   0.058  -2.906  0.00  0.00     0.026 A 
ATOM      8  C6  UNL d   1      -2.363   1.279  -3.439  0.00  0.00    -0.082 A 
ATOM      9  C7  UNL d   1      -2.989   2.520  -3.710  0.00  0.00     0.045 A 
ENDROOT
TORSDOF 0
ENDMDL
