MODEL 1
REMARK minimizedAffinity 25.078476
REMARK minimizedRMSD -1
REMARK  0 active torsions:
REMARK  status: ('A' for Active; 'I' for Inactive)
ROOT
ATOM      1  C   UNL d   1      -2.621  -1.710   2.145  0.00  0.00    -0.002 A 
ATOM      2  C1  UNL d   1      -2.315  -2.261   3.381  0.00  0.00     0.010 A 
ATOM      3  C2  UNL d   1      -1.523  -3.407   3.472  0.00  0.00     0.041 A 
ATOM      4  C3  UNL d   1      -1.036  -3.995   2.287  0.00  0.00    -0.075 A 
ATOM      5  S   UNL d   1      -0.047  -5.400   2.155  0.00  0.00     0.015 SA
ATOM      6  C4  UNL d   1      -0.006  -5.302   0.454  0.00  0.00     0.022 A 
ATOM      7  C5  UNL d   1      -0.724  -4.229  -0.018  0.00  0.00     0.026 A 
ATOM      8  C6  UNL d   1      -1.329  -3.457   1.031  0.00  0.00    -0.082 A 
ATOM      9  C7  UNL d   1      -2.136  -2.295   0.972  0.00  0.00     0.045 A 
ENDROOT
TORSDOF 0
ENDMDL
