MODEL 1
REMARK minimizedAffinity 10.467906
REMARK minimizedRMSD -1
REMARK  0 active torsions:
REMARK  status: ('A' for Active; 'I' for Inactive)
ROOT
ATOM      1  C   UNL d   1      -0.425  -5.861   0.715  0.00  0.00    -0.002 A 
ATOM      2  C1  UNL d   1      -0.709  -5.999   2.066  0.00  0.00     0.010 A 
ATOM      3  C2  UNL d   1      -1.322  -4.963   2.773  0.00  0.00     0.041 A 
ATOM      4  C3  UNL d   1      -1.650  -3.774   2.092  0.00  0.00    -0.075 A 
ATOM      5  S   UNL d   1      -2.406  -2.372   2.752  0.00  0.00     0.015 SA
ATOM      6  C4  UNL d   1      -2.370  -1.557   1.256  0.00  0.00     0.022 A 
ATOM      7  C5  UNL d   1      -1.799  -2.321   0.266  0.00  0.00     0.026 A 
ATOM      8  C6  UNL d   1      -1.375  -3.611   0.731  0.00  0.00    -0.082 A 
ATOM      9  C7  UNL d   1      -0.752  -4.680   0.043  0.00  0.00     0.045 A 
ENDROOT
TORSDOF 0
ENDMDL
