MODEL 1
REMARK minimizedAffinity 17.0587387
REMARK minimizedRMSD -1
REMARK  0 active torsions:
REMARK  status: ('A' for Active; 'I' for Inactive)
ROOT
ATOM      1  C   UNL d   1      -4.919   2.048   6.000  0.00  0.00    -0.002 A 
ATOM      2  C1  UNL d   1      -5.761   0.962   5.806  0.00  0.00     0.010 A 
ATOM      3  C2  UNL d   1      -5.238  -0.317   5.606  0.00  0.00     0.041 A 
ATOM      4  C3  UNL d   1      -3.839  -0.488   5.607  0.00  0.00    -0.075 A 
ATOM      5  S   UNL d   1      -2.973  -1.962   5.383  0.00  0.00     0.015 SA
ATOM      6  C4  UNL d   1      -1.464  -1.186   5.540  0.00  0.00     0.022 A 
ATOM      7  C5  UNL d   1      -1.599   0.165   5.758  0.00  0.00     0.026 A 
ATOM      8  C6  UNL d   1      -2.970   0.589   5.801  0.00  0.00    -0.082 A 
ATOM      9  C7  UNL d   1      -3.532   1.873   6.000  0.00  0.00     0.045 A 
ENDROOT
TORSDOF 0
ENDMDL
