MODEL 1
REMARK minimizedAffinity 22.0317116
REMARK minimizedRMSD -1
REMARK  0 active torsions:
REMARK  status: ('A' for Active; 'I' for Inactive)
ROOT
ATOM      1  C   UNL d   1      -1.252  -3.828   2.398  0.00  0.00    -0.002 A 
ATOM      2  C1  UNL d   1      -0.584  -4.668   1.517  0.00  0.00     0.010 A 
ATOM      3  C2  UNL d   1      -0.487  -4.342   0.163  0.00  0.00     0.041 A 
ATOM      4  C3  UNL d   1      -1.075  -3.147  -0.295  0.00  0.00    -0.075 A 
ATOM      5  S   UNL d   1      -1.080  -2.543  -1.910  0.00  0.00     0.015 SA
ATOM      6  C4  UNL d   1      -1.968  -1.157  -1.468  0.00  0.00     0.022 A 
ATOM      7  C5  UNL d   1      -2.261  -1.139  -0.125  0.00  0.00     0.026 A 
ATOM      8  C6  UNL d   1      -1.751  -2.285   0.573  0.00  0.00    -0.082 A 
ATOM      9  C7  UNL d   1      -1.834  -2.643   1.940  0.00  0.00     0.045 A 
ENDROOT
TORSDOF 0
ENDMDL
