MODEL 1
REMARK minimizedAffinity 27.9837189
REMARK minimizedRMSD -1
REMARK  0 active torsions:
REMARK  status: ('A' for Active; 'I' for Inactive)
ROOT
ATOM      1  C   UNL d   1      -4.701   3.348   5.999  0.00  0.00    -0.002 A 
ATOM      2  C1  UNL d   1      -5.925   2.695   5.998  0.00  0.00     0.010 A 
ATOM      3  C2  UNL d   1      -5.986   1.300   5.982  0.00  0.00     0.041 A 
ATOM      4  C3  UNL d   1      -4.784   0.565   5.968  0.00  0.00    -0.075 A 
ATOM      5  S   UNL d   1      -4.614  -1.150   5.948  0.00  0.00     0.015 SA
ATOM      6  C4  UNL d   1      -2.913  -1.057   5.941  0.00  0.00     0.022 A 
ATOM      7  C5  UNL d   1      -2.468   0.244   5.953  0.00  0.00     0.026 A 
ATOM      8  C6  UNL d   1      -3.539   1.200   5.970  0.00  0.00    -0.082 A 
ATOM      9  C7  UNL d   1      -3.510   2.616   5.986  0.00  0.00     0.045 A 
ENDROOT
TORSDOF 0
ENDMDL
