MODEL 1
REMARK minimizedAffinity 14.7096071
REMARK minimizedRMSD -1
REMARK  0 active torsions:
REMARK  status: ('A' for Active; 'I' for Inactive)
ROOT
ATOM      1  C   UNL d   1      -2.271  -1.945   2.169  0.00  0.00    -0.002 A 
ATOM      2  C1  UNL d   1      -2.022  -2.600   3.367  0.00  0.00     0.010 A 
ATOM      3  C2  UNL d   1      -1.394  -3.847   3.377  0.00  0.00     0.041 A 
ATOM      4  C3  UNL d   1      -1.015  -4.430   2.152  0.00  0.00    -0.075 A 
ATOM      5  S   UNL d   1      -0.232  -5.948   1.921  0.00  0.00     0.015 SA
ATOM      6  C4  UNL d   1      -0.208  -5.763   0.227  0.00  0.00     0.022 A 
ATOM      7  C5  UNL d   1      -0.780  -4.578  -0.170  0.00  0.00     0.026 A 
ATOM      8  C6  UNL d   1      -1.254  -3.789   0.933  0.00  0.00    -0.082 A 
ATOM      9  C7  UNL d   1      -1.894  -2.526   0.955  0.00  0.00     0.045 A 
ENDROOT
TORSDOF 0
ENDMDL
