MODEL 1
REMARK minimizedAffinity -5.31308317
REMARK minimizedRMSD -1
REMARK  0 active torsions:
REMARK  status: ('A' for Active; 'I' for Inactive)
ROOT
ATOM      1  O1  BZF d   1      -0.474  -1.308  -0.871  0.00  0.00    -0.204 OA
ATOM      2  C2  BZF d   1       0.828  -1.749  -1.015  0.00  0.00     0.174 A 
ATOM      3  C3  BZF d   1       1.654  -1.081  -0.184  0.00  0.00    -0.012 A 
ATOM      4  C3A BZF d   1       0.803  -0.230   0.589  0.00  0.00    -0.107 A 
ATOM      5  C4  BZF d   1       1.033   0.666   1.593  0.00  0.00     0.055 A 
ATOM      6  C5  BZF d   1      -0.007   1.388   2.086  0.00  0.00    -0.016 A 
ATOM      7  C6  BZF d   1      -1.288   1.244   1.594  0.00  0.00     0.022 A 
ATOM      8  C7  BZF d   1      -1.567   0.364   0.602  0.00  0.00     0.029 A 
ATOM      9  C7A BZF d   1      -0.523  -0.391   0.125  0.00  0.00     0.058 A 
ENDROOT
TORSDOF 0
ENDMDL
