MODEL 1
REMARK minimizedAffinity -5.46475935
REMARK minimizedRMSD -1
REMARK  0 active torsions:
REMARK  status: ('A' for Active; 'I' for Inactive)
ROOT
ATOM      1  O1  BZF d   1       0.946  -0.659  -0.102  0.00  0.00    -0.204 OA
ATOM      2  C2  BZF d   1       0.069  -0.446  -1.148  0.00  0.00     0.174 A 
ATOM      3  C3  BZF d   1      -1.049   0.173  -0.716  0.00  0.00    -0.012 A 
ATOM      4  C3A BZF d   1      -0.820   0.440   0.670  0.00  0.00    -0.107 A 
ATOM      5  C4  BZF d   1      -1.559   1.050   1.644  0.00  0.00     0.055 A 
ATOM      6  C5  BZF d   1      -1.078   1.083   2.914  0.00  0.00    -0.016 A 
ATOM      7  C6  BZF d   1       0.134   0.514   3.247  0.00  0.00     0.022 A 
ATOM      8  C7  BZF d   1       0.905  -0.097   2.315  0.00  0.00     0.029 A 
ATOM      9  C7A BZF d   1       0.437  -0.104   1.024  0.00  0.00     0.058 A 
ENDROOT
TORSDOF 0
ENDMDL
