MODEL 1
REMARK minimizedAffinity -4.14569807
REMARK minimizedRMSD -1
REMARK  0 active torsions:
REMARK  status: ('A' for Active; 'I' for Inactive)
ROOT
ATOM      1  O1  BZF d   1      -1.846   0.504   2.215  0.00  0.00    -0.204 OA
ATOM      2  C2  BZF d   1      -1.115   1.362   3.013  0.00  0.00     0.174 A 
ATOM      3  C3  BZF d   1       0.110   1.576   2.491  0.00  0.00    -0.012 A 
ATOM      4  C3A BZF d   1       0.113   0.876   1.242  0.00  0.00    -0.107 A 
ATOM      5  C4  BZF d   1       1.043   0.725   0.254  0.00  0.00     0.055 A 
ATOM      6  C5  BZF d   1       0.760  -0.083  -0.802  0.00  0.00    -0.016 A 
ATOM      7  C6  BZF d   1      -0.440  -0.757  -0.898  0.00  0.00     0.022 A 
ATOM      8  C7  BZF d   1      -1.396  -0.634   0.055  0.00  0.00     0.029 A 
ATOM      9  C7A BZF d   1      -1.125   0.208   1.107  0.00  0.00     0.058 A 
ENDROOT
TORSDOF 0
ENDMDL
