MODEL 1
REMARK minimizedAffinity -4.2603755
REMARK minimizedRMSD -1
REMARK  0 active torsions:
REMARK  status: ('A' for Active; 'I' for Inactive)
ROOT
ATOM      1  O1  BZF d   1      -1.172  -0.533  -0.123  0.00  0.00    -0.204 OA
ATOM      2  C2  BZF d   1       0.022  -0.810  -0.760  0.00  0.00     0.174 A 
ATOM      3  C3  BZF d   1       1.054  -0.226  -0.116  0.00  0.00    -0.012 A 
ATOM      4  C3A BZF d   1       0.478   0.382   1.044  0.00  0.00    -0.107 A 
ATOM      5  C4  BZF d   1       0.997   1.099   2.084  0.00  0.00     0.055 A 
ATOM      6  C5  BZF d   1       0.154   1.614   3.017  0.00  0.00    -0.016 A 
ATOM      7  C6  BZF d   1      -1.212   1.436   2.939  0.00  0.00     0.022 A 
ATOM      8  C7  BZF d   1      -1.773   0.728   1.929  0.00  0.00     0.029 A 
ATOM      9  C7A BZF d   1      -0.921   0.178   1.002  0.00  0.00     0.058 A 
ENDROOT
TORSDOF 0
ENDMDL
