MODEL 1
REMARK minimizedAffinity -3.69248271
REMARK minimizedRMSD -1
REMARK  0 active torsions:
REMARK  status: ('A' for Active; 'I' for Inactive)
ROOT
ATOM      1  O1  BZF d   1       1.270  -0.500   1.720  0.00  0.00    -0.204 OA
ATOM      2  C2  BZF d   1       1.942  -1.292   0.810  0.00  0.00     0.174 A 
ATOM      3  C3  BZF d   1       1.098  -1.757  -0.134  0.00  0.00    -0.012 A 
ATOM      4  C3A BZF d   1      -0.163  -1.147   0.155  0.00  0.00    -0.107 A 
ATOM      5  C4  BZF d   1      -1.392  -1.205  -0.438  0.00  0.00     0.055 A 
ATOM      6  C5  BZF d   1      -2.434  -0.547   0.136  0.00  0.00    -0.016 A 
ATOM      7  C6  BZF d   1      -2.284   0.173   1.303  0.00  0.00     0.022 A 
ATOM      8  C7  BZF d   1      -1.083   0.263   1.925  0.00  0.00     0.029 A 
ATOM      9  C7A BZF d   1      -0.021  -0.373   1.330  0.00  0.00     0.058 A 
ENDROOT
TORSDOF 0
ENDMDL
