MODEL 1
REMARK minimizedAffinity -6.18649626
REMARK minimizedRMSD -1
REMARK  0 active torsions:
REMARK  status: ('A' for Active; 'I' for Inactive)
ROOT
ATOM      1  O1  BZF d   1       0.526  -0.896  -0.015  0.00  0.00    -0.204 OA
ATOM      2  C2  BZF d   1      -0.561  -0.619  -0.821  0.00  0.00     0.174 A 
ATOM      3  C3  BZF d   1      -1.389   0.261  -0.223  0.00  0.00    -0.012 A 
ATOM      4  C3A BZF d   1      -0.735   0.624   0.997  0.00  0.00    -0.107 A 
ATOM      5  C4  BZF d   1      -1.054   1.475   2.015  0.00  0.00     0.055 A 
ATOM      6  C5  BZF d   1      -0.235   1.546   3.098  0.00  0.00    -0.016 A 
ATOM      7  C6  BZF d   1       0.905   0.776   3.197  0.00  0.00     0.022 A 
ATOM      8  C7  BZF d   1       1.265  -0.080   2.210  0.00  0.00     0.029 A 
ATOM      9  C7A BZF d   1       0.458  -0.128   1.100  0.00  0.00     0.058 A 
ENDROOT
TORSDOF 0
ENDMDL
