MODEL 1
REMARK minimizedAffinity -2.81550217
REMARK minimizedRMSD -1
REMARK  0 active torsions:
REMARK  status: ('A' for Active; 'I' for Inactive)
ROOT
ATOM      1  O1  BZF d   1      -1.992   0.454   2.790  0.00  0.00    -0.204 OA
ATOM      2  C2  BZF d   1      -1.084   1.135   3.577  0.00  0.00     0.174 A 
ATOM      3  C3  BZF d   1       0.129   1.169   2.989  0.00  0.00    -0.012 A 
ATOM      4  C3A BZF d   1      -0.053   0.544   1.714  0.00  0.00    -0.107 A 
ATOM      5  C4  BZF d   1       0.782   0.291   0.664  0.00  0.00     0.055 A 
ATOM      6  C5  BZF d   1       0.309  -0.402  -0.404  0.00  0.00    -0.016 A 
ATOM      7  C6  BZF d   1      -0.991  -0.861  -0.454  0.00  0.00     0.022 A 
ATOM      8  C7  BZF d   1      -1.859  -0.630   0.561  0.00  0.00     0.029 A 
ATOM      9  C7A BZF d   1      -1.393   0.099   1.628  0.00  0.00     0.058 A 
ENDROOT
TORSDOF 0
ENDMDL
