MODEL 1
REMARK minimizedAffinity -3.07077098
REMARK minimizedRMSD -1
REMARK  2 active torsions:
REMARK  status: ('A' for Active; 'I' for Inactive)
REMARK    1  A    between atoms: C1_2  and  C2_3 
REMARK    2  A    between atoms: C2_3  and  C3_4 
ROOT
ATOM      1  C3  UNL d   1      -0.598  -1.215  -1.526  0.00  0.00    -0.075 A 
ATOM      2  C4  UNL d   1      -1.424  -1.304  -2.656  0.00  0.00     0.002 A 
ATOM      3  C5  UNL d   1      -1.946  -2.534  -3.057  0.00  0.00     0.002 A 
ATOM      4  C6  UNL d   1      -1.641  -3.690  -2.342  0.00  0.00    -0.004 A 
ATOM      5  C7  UNL d   1      -0.808  -3.616  -1.228  0.00  0.00     0.002 A 
ATOM      6  C8  UNL d   1      -0.288  -2.386  -0.821  0.00  0.00     0.002 A 
ENDROOT
BRANCH   1   7
ATOM      7  C2  UNL d   1      -0.054   0.117  -1.069  0.00  0.00     0.056 C 
BRANCH   7   8
ATOM      8  C1  UNL d   1      -0.087   0.317   0.450  0.00  0.00     0.007 C 
ATOM      9  C   UNL d   1      -0.123   1.783   0.862  0.00  0.00     0.009 C 
ENDBRANCH   7   8
ENDBRANCH   1   7
TORSDOF 2
ENDMDL
