MODEL 1
REMARK minimizedAffinity -3.02910972
REMARK minimizedRMSD -1
REMARK  2 active torsions:
REMARK  status: ('A' for Active; 'I' for Inactive)
REMARK    1  A    between atoms: C1_2  and  C2_3 
REMARK    2  A    between atoms: C2_3  and  C3_4 
ROOT
ATOM      1  C3  UNL d   1      -0.078   0.083   0.072  0.00  0.00    -0.075 A 
ATOM      2  C4  UNL d   1       0.236   0.357   1.411  0.00  0.00     0.002 A 
ATOM      3  C5  UNL d   1      -0.218   1.528   2.019  0.00  0.00     0.002 A 
ATOM      4  C6  UNL d   1      -0.981   2.442   1.296  0.00  0.00    -0.004 A 
ATOM      5  C7  UNL d   1      -1.285   2.187  -0.040  0.00  0.00     0.002 A 
ATOM      6  C8  UNL d   1      -0.835   1.014  -0.650  0.00  0.00     0.002 A 
ENDROOT
BRANCH   1   7
ATOM      7  C2  UNL d   1       0.386  -1.197  -0.583  0.00  0.00     0.056 C 
BRANCH   7   8
ATOM      8  C1  UNL d   1      -0.748  -2.043  -1.170  0.00  0.00     0.007 C 
ATOM      9  C   UNL d   1      -0.518  -3.541  -1.022  0.00  0.00     0.009 C 
ENDBRANCH   7   8
ENDBRANCH   1   7
TORSDOF 2
ENDMDL
