MODEL 1
REMARK minimizedAffinity -1.82886565
REMARK minimizedRMSD -1
REMARK  2 active torsions:
REMARK  status: ('A' for Active; 'I' for Inactive)
REMARK    1  A    between atoms: C1_2  and  C2_3 
REMARK    2  A    between atoms: C2_3  and  C3_4 
ROOT
ATOM      1  C3  UNL d   1       1.629  -0.073   0.787  0.00  0.00    -0.075 A 
ATOM      2  C4  UNL d   1       0.695  -0.075  -0.259  0.00  0.00     0.002 A 
ATOM      3  C5  UNL d   1      -0.412   0.773  -0.222  0.00  0.00     0.002 A 
ATOM      4  C6  UNL d   1      -0.606   1.623   0.864  0.00  0.00    -0.004 A 
ATOM      5  C7  UNL d   1       0.306   1.621   1.917  0.00  0.00     0.002 A 
ATOM      6  C8  UNL d   1       1.417   0.777   1.881  0.00  0.00     0.002 A 
ENDROOT
BRANCH   1   7
ATOM      7  C2  UNL d   1       2.845  -0.967   0.739  0.00  0.00     0.056 C 
BRANCH   7   8
ATOM      8  C1  UNL d   1       4.073  -0.388   1.449  0.00  0.00     0.007 C 
ATOM      9  C   UNL d   1       4.409  -1.106   2.749  0.00  0.00     0.009 C 
ENDBRANCH   7   8
ENDBRANCH   1   7
TORSDOF 2
ENDMDL
