MODEL 1
REMARK minimizedAffinity -6.68460417
REMARK minimizedRMSD -1
REMARK  2 active torsions:
REMARK  status: ('A' for Active; 'I' for Inactive)
REMARK    1  A    between atoms: C1_2  and  C2_3 
REMARK    2  A    between atoms: C2_3  and  C3_4 
ROOT
ATOM      1  C3  UNL d   1       0.854   0.654   1.660  0.00  0.00    -0.075 A 
ATOM      2  C4  UNL d   1       0.547   0.416   0.312  0.00  0.00     0.002 A 
ATOM      3  C5  UNL d   1      -0.408   1.192  -0.344  0.00  0.00     0.002 A 
ATOM      4  C6  UNL d   1      -1.075   2.206   0.339  0.00  0.00    -0.004 A 
ATOM      5  C7  UNL d   1      -0.790   2.441   1.682  0.00  0.00     0.002 A 
ATOM      6  C8  UNL d   1       0.169   1.669   2.341  0.00  0.00     0.002 A 
ENDROOT
BRANCH   1   7
ATOM      7  C2  UNL d   1       1.909  -0.163   2.368  0.00  0.00     0.056 C 
BRANCH   7   8
ATOM      8  C1  UNL d   1       3.171  -0.409   1.535  0.00  0.00     0.007 C 
ATOM      9  C   UNL d   1       4.432  -0.536   2.380  0.00  0.00     0.009 C 
ENDBRANCH   7   8
ENDBRANCH   1   7
TORSDOF 2
ENDMDL
