MODEL 1
REMARK minimizedAffinity -4.74567366
REMARK minimizedRMSD -1
REMARK  2 active torsions:
REMARK  status: ('A' for Active; 'I' for Inactive)
REMARK    1  A    between atoms: C1_2  and  C2_3 
REMARK    2  A    between atoms: C2_3  and  C3_4 
ROOT
ATOM      1  C3  UNL d   1       0.783   0.326   0.825  0.00  0.00    -0.075 A 
ATOM      2  C4  UNL d   1      -0.105   1.219   1.444  0.00  0.00     0.002 A 
ATOM      3  C5  UNL d   1      -1.011   1.958   0.683  0.00  0.00     0.002 A 
ATOM      4  C6  UNL d   1      -1.035   1.822  -0.704  0.00  0.00    -0.004 A 
ATOM      5  C7  UNL d   1      -0.146   0.950  -1.330  0.00  0.00     0.002 A 
ATOM      6  C8  UNL d   1       0.758   0.206  -0.570  0.00  0.00     0.002 A 
ENDROOT
BRANCH   1   7
ATOM      7  C2  UNL d   1       1.746  -0.498   1.646  0.00  0.00     0.056 C 
BRANCH   7   8
ATOM      8  C1  UNL d   1       2.959  -1.006   0.860  0.00  0.00     0.007 C 
ATOM      9  C   UNL d   1       4.165  -1.302   1.742  0.00  0.00     0.009 C 
ENDBRANCH   7   8
ENDBRANCH   1   7
TORSDOF 2
ENDMDL
