MODEL 1
REMARK minimizedAffinity -0.900353909
REMARK minimizedRMSD -1
REMARK  0 active torsions:
REMARK  status: ('A' for Active; 'I' for Inactive)
ROOT
ATOM      1  C2' OXE d   1       1.837  -1.852  -1.361  0.00  0.00     0.078 C 
ATOM      2  C1' OXE d   1       0.154   0.287  -2.048  0.00  0.00     0.078 C 
ATOM      3  C1  OXE d   1      -0.104  -0.419  -0.740  0.00  0.00    -0.078 A 
ATOM      4  C2  OXE d   1       0.695  -1.494  -0.434  0.00  0.00    -0.078 A 
ATOM      5  C3  OXE d   1       0.535  -2.147   0.785  0.00  0.00     0.003 A 
ATOM      6  C4  OXE d   1      -0.530  -1.817   1.631  0.00  0.00    -0.002 A 
ATOM      7  C5  OXE d   1      -1.381  -0.751   1.320  0.00  0.00    -0.002 A 
ATOM      8  C6  OXE d   1      -1.156  -0.016   0.161  0.00  0.00     0.003 A 
ENDROOT
TORSDOF 0
ENDMDL
