MODEL 1
REMARK minimizedAffinity -0.485903084
REMARK minimizedRMSD -1
REMARK  0 active torsions:
REMARK  status: ('A' for Active; 'I' for Inactive)
ROOT
ATOM      1  C2' OXE d   1       0.084   1.501  -0.201  0.00  0.00     0.078 C 
ATOM      2  C1' OXE d   1       0.235   0.034  -2.590  0.00  0.00     0.078 C 
ATOM      3  C1  OXE d   1      -0.239  -0.685  -1.351  0.00  0.00    -0.078 A 
ATOM      4  C2  OXE d   1      -0.266   0.029  -0.177  0.00  0.00    -0.078 A 
ATOM      5  C3  OXE d   1      -0.747  -0.571   0.983  0.00  0.00     0.003 A 
ATOM      6  C4  OXE d   1      -1.060  -1.935   0.999  0.00  0.00    -0.002 A 
ATOM      7  C5  OXE d   1      -1.002  -2.690  -0.177  0.00  0.00    -0.002 A 
ATOM      8  C6  OXE d   1      -0.635  -2.071  -1.367  0.00  0.00     0.003 A 
ENDROOT
TORSDOF 0
ENDMDL
