MODEL 1
REMARK minimizedAffinity -0.80394727
REMARK minimizedRMSD -1
REMARK  0 active torsions:
REMARK  status: ('A' for Active; 'I' for Inactive)
ROOT
ATOM      1  C2' OXE d   1      -0.132  -0.633   0.011  0.00  0.00     0.078 C 
ATOM      2  C1' OXE d   1      -0.352   1.384  -1.929  0.00  0.00     0.078 C 
ATOM      3  C1  OXE d   1       0.356   1.721  -0.641  0.00  0.00    -0.078 A 
ATOM      4  C2  OXE d   1       0.418   0.743   0.321  0.00  0.00    -0.078 A 
ATOM      5  C3  OXE d   1       1.107   0.984   1.506  0.00  0.00     0.003 A 
ATOM      6  C4  OXE d   1       1.604   2.262   1.790  0.00  0.00    -0.002 A 
ATOM      7  C5  OXE d   1       1.516   3.285   0.839  0.00  0.00    -0.002 A 
ATOM      8  C6  OXE d   1       0.934   3.019  -0.395  0.00  0.00     0.003 A 
ENDROOT
TORSDOF 0
ENDMDL
