MODEL 1
REMARK minimizedAffinity -4.56121731
REMARK minimizedRMSD -1
REMARK  0 active torsions:
REMARK  status: ('A' for Active; 'I' for Inactive)
ROOT
ATOM      1  C2' OXE d   1       0.037   1.430  -0.685  0.00  0.00     0.078 C 
ATOM      2  C1' OXE d   1       0.566  -1.114  -1.746  0.00  0.00     0.078 C 
ATOM      3  C1  OXE d   1      -0.094  -1.040  -0.391  0.00  0.00    -0.078 A 
ATOM      4  C2  OXE d   1      -0.307   0.209   0.140  0.00  0.00    -0.078 A 
ATOM      5  C3  OXE d   1      -0.962   0.336   1.362  0.00  0.00     0.003 A 
ATOM      6  C4  OXE d   1      -1.267  -0.798   2.124  0.00  0.00    -0.002 A 
ATOM      7  C5  OXE d   1      -1.022  -2.080   1.618  0.00  0.00    -0.002 A 
ATOM      8  C6  OXE d   1      -0.477  -2.218   0.347  0.00  0.00     0.003 A 
ENDROOT
TORSDOF 0
ENDMDL
