MODEL 1
REMARK minimizedAffinity -0.607838571
REMARK minimizedRMSD -1
REMARK  0 active torsions:
REMARK  status: ('A' for Active; 'I' for Inactive)
ROOT
ATOM      1  C2' OXE d   1      -0.815  -3.064   0.002  0.00  0.00     0.078 C 
ATOM      2  C1' OXE d   1       0.323  -0.952  -1.455  0.00  0.00     0.078 C 
ATOM      3  C1  OXE d   1      -0.358  -0.620  -0.151  0.00  0.00    -0.078 A 
ATOM      4  C2  OXE d   1      -0.952  -1.653   0.533  0.00  0.00    -0.078 A 
ATOM      5  C3  OXE d   1      -1.546  -1.411   1.768  0.00  0.00     0.003 A 
ATOM      6  C4  OXE d   1      -1.678  -0.102   2.246  0.00  0.00    -0.002 A 
ATOM      7  C5  OXE d   1      -1.114   0.970   1.546  0.00  0.00    -0.002 A 
ATOM      8  C6  OXE d   1      -0.415   0.723   0.370  0.00  0.00     0.003 A 
ENDROOT
TORSDOF 0
ENDMDL
