MODEL 1
REMARK minimizedAffinity 1.32990849
REMARK minimizedRMSD -1
REMARK  0 active torsions:
REMARK  status: ('A' for Active; 'I' for Inactive)
ROOT
ATOM      1  C2' OXE d   1      -1.587  -0.244   1.431  0.00  0.00     0.078 C 
ATOM      2  C1' OXE d   1      -1.224  -2.775   0.272  0.00  0.00     0.078 C 
ATOM      3  C1  OXE d   1      -0.642  -1.582  -0.446  0.00  0.00    -0.078 A 
ATOM      4  C2  OXE d   1      -0.865  -0.343   0.105  0.00  0.00    -0.078 A 
ATOM      5  C3  OXE d   1      -0.304   0.785  -0.487  0.00  0.00     0.003 A 
ATOM      6  C4  OXE d   1       0.354   0.686  -1.719  0.00  0.00    -0.002 A 
ATOM      7  C5  OXE d   1       0.557  -0.562  -2.317  0.00  0.00    -0.002 A 
ATOM      8  C6  OXE d   1       0.104  -1.708  -1.673  0.00  0.00     0.003 A 
ENDROOT
TORSDOF 0
ENDMDL
