MODEL 1
REMARK minimizedAffinity -1.93539786
REMARK minimizedRMSD -1
REMARK  0 active torsions:
REMARK  status: ('A' for Active; 'I' for Inactive)
ROOT
ATOM      1  C2' OXE d   1      -0.934  -0.022   1.504  0.00  0.00     0.078 C 
ATOM      2  C1' OXE d   1      -0.692  -2.560   0.329  0.00  0.00     0.078 C 
ATOM      3  C1  OXE d   1      -0.314  -1.360  -0.504  0.00  0.00    -0.078 A 
ATOM      4  C2  OXE d   1      -0.480  -0.120   0.064  0.00  0.00    -0.078 A 
ATOM      5  C3  OXE d   1      -0.095   1.018  -0.641  0.00  0.00     0.003 A 
ATOM      6  C4  OXE d   1       0.315   0.919  -1.976  0.00  0.00    -0.002 A 
ATOM      7  C5  OXE d   1       0.453  -0.332  -2.586  0.00  0.00    -0.002 A 
ATOM      8  C6  OXE d   1       0.184  -1.482  -1.851  0.00  0.00     0.003 A 
ENDROOT
TORSDOF 0
ENDMDL
