MODEL 1
REMARK minimizedAffinity -3.89272594
REMARK minimizedRMSD -1
REMARK  0 active torsions:
REMARK  status: ('A' for Active; 'I' for Inactive)
ROOT
ATOM      1  C2' OXE d   1      -0.731   0.955  -0.030  0.00  0.00     0.078 C 
ATOM      2  C1' OXE d   1      -1.454  -0.852   1.993  0.00  0.00     0.078 C 
ATOM      3  C1  OXE d   1      -0.690  -1.390   0.809  0.00  0.00    -0.078 A 
ATOM      4  C2  OXE d   1      -0.381  -0.508  -0.198  0.00  0.00    -0.078 A 
ATOM      5  C3  OXE d   1       0.371  -0.941  -1.287  0.00  0.00     0.003 A 
ATOM      6  C4  OXE d   1       0.682  -2.298  -1.439  0.00  0.00    -0.002 A 
ATOM      7  C5  OXE d   1       0.342  -3.220  -0.444  0.00  0.00    -0.002 A 
ATOM      8  C6  OXE d   1      -0.305  -2.776   0.704  0.00  0.00     0.003 A 
ENDROOT
TORSDOF 0
ENDMDL
