MODEL 1
REMARK minimizedAffinity -5.81105661
REMARK minimizedRMSD -1
REMARK  0 active torsions:
REMARK  status: ('A' for Active; 'I' for Inactive)
ROOT
ATOM      1  C2' OXE d   1       1.609  -2.152  -1.830  0.00  0.00     0.078 C 
ATOM      2  C1' OXE d   1       0.591  -3.829   0.179  0.00  0.00     0.078 C 
ATOM      3  C1  OXE d   1       0.072  -2.414   0.113  0.00  0.00    -0.078 A 
ATOM      4  C2  OXE d   1       0.610  -1.587  -0.844  0.00  0.00    -0.078 A 
ATOM      5  C3  OXE d   1       0.127  -0.289  -0.983  0.00  0.00     0.003 A 
ATOM      6  C4  OXE d   1      -0.790   0.229  -0.060  0.00  0.00    -0.002 A 
ATOM      7  C5  OXE d   1      -1.321  -0.584   0.946  0.00  0.00    -0.002 A 
ATOM      8  C6  OXE d   1      -0.933  -1.918   1.020  0.00  0.00     0.003 A 
ENDROOT
TORSDOF 0
ENDMDL
