MODEL 1
REMARK minimizedAffinity -1.89697123
REMARK minimizedRMSD -1
REMARK  0 active torsions:
REMARK  status: ('A' for Active; 'I' for Inactive)
ROOT
ATOM      1  C2' OXE d   1      -1.550  -0.388   2.200  0.00  0.00     0.078 C 
ATOM      2  C1' OXE d   1      -0.827  -2.677   0.745  0.00  0.00     0.078 C 
ATOM      3  C1  OXE d   1      -0.587  -1.332   0.106  0.00  0.00    -0.078 A 
ATOM      4  C2  OXE d   1      -0.986  -0.219   0.806  0.00  0.00    -0.078 A 
ATOM      5  C3  OXE d   1      -0.738   1.048   0.286  0.00  0.00     0.003 A 
ATOM      6  C4  OXE d   1      -0.225   1.195  -1.008  0.00  0.00    -0.002 A 
ATOM      7  C5  OXE d   1       0.152   0.074  -1.754  0.00  0.00    -0.002 A 
ATOM      8  C6  OXE d   1       0.018  -1.193  -1.196  0.00  0.00     0.003 A 
ENDROOT
TORSDOF 0
ENDMDL
