MODEL 1
REMARK minimizedAffinity -5.20006037
REMARK minimizedRMSD -1
REMARK  0 active torsions:
REMARK  status: ('A' for Active; 'I' for Inactive)
ROOT
ATOM      1  C2' OXE d   1      -1.241  -0.407   1.862  0.00  0.00     0.078 C 
ATOM      2  C1' OXE d   1      -0.149  -2.495   0.337  0.00  0.00     0.078 C 
ATOM      3  C1  OXE d   1       0.049  -1.084  -0.158  0.00  0.00    -0.078 A 
ATOM      4  C2  OXE d   1      -0.529  -0.072   0.569  0.00  0.00    -0.078 A 
ATOM      5  C3  OXE d   1      -0.331   1.252   0.187  0.00  0.00     0.003 A 
ATOM      6  C4  OXE d   1       0.320   1.552  -1.015  0.00  0.00    -0.002 A 
ATOM      7  C5  OXE d   1       0.882   0.534  -1.792  0.00  0.00    -0.002 A 
ATOM      8  C6  OXE d   1       0.792  -0.784  -1.357  0.00  0.00     0.003 A 
ENDROOT
TORSDOF 0
ENDMDL
