MODEL 1
REMARK minimizedAffinity -5.03541136
REMARK minimizedRMSD -1
REMARK  0 active torsions:
REMARK  status: ('A' for Active; 'I' for Inactive)
ROOT
ATOM      1  C2' OXE d   1       0.188   1.373   0.008  0.00  0.00     0.078 C 
ATOM      2  C1' OXE d   1       0.013  -0.374  -2.182  0.00  0.00     0.078 C 
ATOM      3  C1  OXE d   1      -0.326  -0.920  -0.818  0.00  0.00    -0.078 A 
ATOM      4  C2  OXE d   1      -0.192  -0.071   0.254  0.00  0.00    -0.078 A 
ATOM      5  C3  OXE d   1      -0.544  -0.508   1.528  0.00  0.00     0.003 A 
ATOM      6  C4  OXE d   1      -0.885  -1.848   1.749  0.00  0.00    -0.002 A 
ATOM      7  C5  OXE d   1      -0.988  -2.740   0.676  0.00  0.00    -0.002 A 
ATOM      8  C6  OXE d   1      -0.754  -2.282  -0.616  0.00  0.00     0.003 A 
ENDROOT
TORSDOF 0
ENDMDL
