MODEL 1
REMARK minimizedAffinity -3.02432632
REMARK minimizedRMSD -1
REMARK  0 active torsions:
REMARK  status: ('A' for Active; 'I' for Inactive)
ROOT
ATOM      1  C2' OXE d   1      -0.893  -2.806   0.297  0.00  0.00     0.078 C 
ATOM      2  C1' OXE d   1      -1.226  -0.360   1.634  0.00  0.00     0.078 C 
ATOM      3  C1  OXE d   1      -0.649  -0.327   0.241  0.00  0.00    -0.078 A 
ATOM      4  C2  OXE d   1      -0.447  -1.532  -0.388  0.00  0.00    -0.078 A 
ATOM      5  C3  OXE d   1       0.031  -1.556  -1.695  0.00  0.00     0.003 A 
ATOM      6  C4  OXE d   1       0.452  -0.375  -2.318  0.00  0.00    -0.002 A 
ATOM      7  C5  OXE d   1       0.291   0.860  -1.680  0.00  0.00    -0.002 A 
ATOM      8  C6  OXE d   1      -0.296   0.905  -0.420  0.00  0.00     0.003 A 
ENDROOT
TORSDOF 0
ENDMDL
