MODEL 1
REMARK minimizedAffinity -2.87328339
REMARK minimizedRMSD -1
REMARK  0 active torsions:
REMARK  status: ('A' for Active; 'I' for Inactive)
ROOT
ATOM      1  C2' OXE d   1       0.552  -1.462  -2.107  0.00  0.00     0.078 C 
ATOM      2  C1' OXE d   1      -0.374  -2.910   0.113  0.00  0.00     0.078 C 
ATOM      3  C1  OXE d   1      -0.302  -1.408   0.233  0.00  0.00    -0.078 A 
ATOM      4  C2  OXE d   1       0.197  -0.711  -0.841  0.00  0.00    -0.078 A 
ATOM      5  C3  OXE d   1       0.234   0.680  -0.803  0.00  0.00     0.003 A 
ATOM      6  C4  OXE d   1      -0.087   1.365   0.374  0.00  0.00    -0.002 A 
ATOM      7  C5  OXE d   1      -0.559   0.672   1.494  0.00  0.00    -0.002 A 
ATOM      8  C6  OXE d   1      -0.712  -0.709   1.425  0.00  0.00     0.003 A 
ENDROOT
TORSDOF 0
ENDMDL
