MODEL 1
REMARK minimizedAffinity -3.76826
REMARK minimizedRMSD -1
REMARK  0 active torsions:
REMARK  status: ('A' for Active; 'I' for Inactive)
ROOT
ATOM      1  C2' OXE d   1      -1.066  -0.757  -0.638  0.00  0.00     0.078 C 
ATOM      2  C1' OXE d   1       0.455  -0.239  -2.940  0.00  0.00     0.078 C 
ATOM      3  C1  OXE d   1       0.717   0.607  -1.719  0.00  0.00    -0.078 A 
ATOM      4  C2  OXE d   1      -0.065   0.378  -0.612  0.00  0.00    -0.078 A 
ATOM      5  C3  OXE d   1       0.171   1.094   0.558  0.00  0.00     0.003 A 
ATOM      6  C4  OXE d   1       1.092   2.148   0.571  0.00  0.00    -0.002 A 
ATOM      7  C5  OXE d   1       1.871   2.425  -0.558  0.00  0.00    -0.002 A 
ATOM      8  C6  OXE d   1       1.725   1.637  -1.695  0.00  0.00     0.003 A 
ENDROOT
TORSDOF 0
ENDMDL
