MODEL 1
REMARK minimizedAffinity 0.789452553
REMARK minimizedRMSD -1
REMARK  0 active torsions:
REMARK  status: ('A' for Active; 'I' for Inactive)
ROOT
ATOM      1  C2' OXE d   1       0.633  -0.588  -1.971  0.00  0.00     0.078 C 
ATOM      2  C1' OXE d   1      -0.433  -2.139   0.113  0.00  0.00     0.078 C 
ATOM      3  C1  OXE d   1      -0.170  -0.680   0.386  0.00  0.00    -0.078 A 
ATOM      4  C2  OXE d   1       0.395   0.061  -0.624  0.00  0.00    -0.078 A 
ATOM      5  C3  OXE d   1       0.608   1.425  -0.443  0.00  0.00     0.003 A 
ATOM      6  C4  OXE d   1       0.395   2.015   0.808  0.00  0.00    -0.002 A 
ATOM      7  C5  OXE d   1      -0.143   1.270   1.863  0.00  0.00    -0.002 A 
ATOM      8  C6  OXE d   1      -0.470  -0.066   1.656  0.00  0.00     0.003 A 
ENDROOT
TORSDOF 0
ENDMDL
