MODEL 1
REMARK minimizedAffinity 1.75513327
REMARK minimizedRMSD -1
REMARK  0 active torsions:
REMARK  status: ('A' for Active; 'I' for Inactive)
ROOT
ATOM      1  C2' OXE d   1      -0.012   2.780  -0.141  0.00  0.00     0.078 C 
ATOM      2  C1' OXE d   1      -1.178   0.721   1.369  0.00  0.00     0.078 C 
ATOM      3  C1  OXE d   1      -0.494   0.346   0.077  0.00  0.00    -0.078 A 
ATOM      4  C2  OXE d   1       0.033   1.366  -0.678  0.00  0.00    -0.078 A 
ATOM      5  C3  OXE d   1       0.722   1.070  -1.850  0.00  0.00     0.003 A 
ATOM      6  C4  OXE d   1       0.750  -0.239  -2.345  0.00  0.00    -0.002 A 
ATOM      7  C5  OXE d   1       0.184  -1.288  -1.612  0.00  0.00    -0.002 A 
ATOM      8  C6  OXE d   1      -0.403  -1.018  -0.380  0.00  0.00     0.003 A 
ENDROOT
TORSDOF 0
ENDMDL
