MODEL 1
REMARK minimizedAffinity -3.66522551
REMARK minimizedRMSD -1
REMARK  0 active torsions:
REMARK  status: ('A' for Active; 'I' for Inactive)
ROOT
ATOM      1  C4' PXY d   1       3.576  -0.297  -1.552  0.00  0.00     0.077 C 
ATOM      2  C1' PXY d   1      -1.865   0.057   0.367  0.00  0.00     0.077 C 
ATOM      3  C1  PXY d   1      -0.437  -0.048  -0.131  0.00  0.00    -0.082 A 
ATOM      4  C2  PXY d   1       0.252   1.055  -0.380  0.00  0.00     0.003 A 
ATOM      5  C3  PXY d   1       1.533   0.978  -0.861  0.00  0.00     0.003 A 
ATOM      6  C4  PXY d   1       2.135  -0.239  -1.039  0.00  0.00    -0.082 A 
ATOM      7  C5  PXY d   1       1.443  -1.368  -0.777  0.00  0.00     0.003 A 
ATOM      8  C6  PXY d   1       0.129  -1.269  -0.328  0.00  0.00     0.003 A 
ENDROOT
TORSDOF 0
ENDMDL
