MODEL 1
REMARK minimizedAffinity -4.03004694
REMARK minimizedRMSD -1
REMARK  0 active torsions:
REMARK  status: ('A' for Active; 'I' for Inactive)
ROOT
ATOM      1  C4' PXY d   1      -1.622   0.278   1.007  0.00  0.00     0.077 C 
ATOM      2  C1' PXY d   1       3.401  -0.806  -1.640  0.00  0.00     0.077 C 
ATOM      3  C1  PXY d   1       2.080  -0.535  -0.946  0.00  0.00    -0.082 A 
ATOM      4  C2  PXY d   1       1.551   0.677  -0.998  0.00  0.00     0.003 A 
ATOM      5  C3  PXY d   1       0.374   0.948  -0.350  0.00  0.00     0.003 A 
ATOM      6  C4  PXY d   1      -0.296  -0.045   0.314  0.00  0.00    -0.082 A 
ATOM      7  C5  PXY d   1       0.232  -1.286   0.363  0.00  0.00     0.003 A 
ATOM      8  C6  PXY d   1       1.449  -1.530  -0.267  0.00  0.00     0.003 A 
ENDROOT
TORSDOF 0
ENDMDL
