MODEL 1
REMARK minimizedAffinity 2.42985153
REMARK minimizedRMSD -1
REMARK  0 active torsions:
REMARK  status: ('A' for Active; 'I' for Inactive)
ROOT
ATOM      1  C4' PXY d   1       0.677  -3.281   0.671  0.00  0.00     0.077 C 
ATOM      2  C1' PXY d   1       0.234   2.141  -1.283  0.00  0.00     0.077 C 
ATOM      3  C1  PXY d   1       0.356   0.715  -0.782  0.00  0.00    -0.082 A 
ATOM      4  C2  PXY d   1      -0.483   0.272   0.140  0.00  0.00     0.003 A 
ATOM      5  C3  PXY d   1      -0.366  -1.004   0.628  0.00  0.00     0.003 A 
ATOM      6  C4  PXY d   1       0.585  -1.852   0.128  0.00  0.00    -0.082 A 
ATOM      7  C5  PXY d   1       1.438  -1.411  -0.820  0.00  0.00     0.003 A 
ATOM      8  C6  PXY d   1       1.329  -0.099  -1.273  0.00  0.00     0.003 A 
ENDROOT
TORSDOF 0
ENDMDL
