MODEL 1
REMARK minimizedAffinity -0.198606759
REMARK minimizedRMSD -1
REMARK  0 active torsions:
REMARK  status: ('A' for Active; 'I' for Inactive)
ROOT
ATOM      1  C4' PXY d   1       3.791  -0.448  -2.266  0.00  0.00     0.077 C 
ATOM      2  C1' PXY d   1      -1.159  -0.774   0.701  0.00  0.00     0.077 C 
ATOM      3  C1  PXY d   1       0.142  -0.700  -0.073  0.00  0.00    -0.082 A 
ATOM      4  C2  PXY d   1       0.647   0.480  -0.393  0.00  0.00     0.003 A 
ATOM      5  C3  PXY d   1       1.806   0.565  -1.120  0.00  0.00     0.003 A 
ATOM      6  C4  PXY d   1       2.484  -0.570  -1.477  0.00  0.00    -0.082 A 
ATOM      7  C5  PXY d   1       1.982  -1.778  -1.145  0.00  0.00     0.003 A 
ATOM      8  C6  PXY d   1       0.782  -1.843  -0.442  0.00  0.00     0.003 A 
ENDROOT
TORSDOF 0
ENDMDL
