MODEL 1
REMARK minimizedAffinity -4.96248913
REMARK minimizedRMSD -1
REMARK  0 active torsions:
REMARK  status: ('A' for Active; 'I' for Inactive)
ROOT
ATOM      1  C4' PXY d   1       0.655  -3.151   0.217  0.00  0.00     0.077 C 
ATOM      2  C1' PXY d   1       0.948   2.424  -1.284  0.00  0.00     0.077 C 
ATOM      3  C1  PXY d   1       0.881   0.959  -0.899  0.00  0.00    -0.082 A 
ATOM      4  C2  PXY d   1      -0.236   0.469  -0.385  0.00  0.00     0.003 A 
ATOM      5  C3  PXY d   1      -0.303  -0.846  -0.001  0.00  0.00     0.003 A 
ATOM      6  C4  PXY d   1       0.765  -1.680  -0.195  0.00  0.00    -0.082 A 
ATOM      7  C5  PXY d   1       1.904  -1.190  -0.729  0.00  0.00     0.003 A 
ATOM      8  C6  PXY d   1       1.966   0.157  -1.073  0.00  0.00     0.003 A 
ENDROOT
TORSDOF 0
ENDMDL
