MODEL 1
REMARK minimizedAffinity -4.41933346
REMARK minimizedRMSD -1
REMARK  0 active torsions:
REMARK  status: ('A' for Active; 'I' for Inactive)
ROOT
ATOM      1  C4' PXY d   1      -1.151   0.318   2.139  0.00  0.00     0.077 C 
ATOM      2  C1' PXY d   1       2.976  -0.424  -1.841  0.00  0.00     0.077 C 
ATOM      3  C1  PXY d   1       1.891  -0.242  -0.798  0.00  0.00    -0.082 A 
ATOM      4  C2  PXY d   1       1.338   0.948  -0.630  0.00  0.00     0.003 A 
ATOM      5  C3  PXY d   1       0.378   1.138   0.331  0.00  0.00     0.003 A 
ATOM      6  C4  PXY d   1      -0.059   0.086   1.091  0.00  0.00    -0.082 A 
ATOM      7  C5  PXY d   1       0.493  -1.134   0.918  0.00  0.00     0.003 A 
ATOM      8  C6  PXY d   1       1.495  -1.296  -0.034  0.00  0.00     0.003 A 
ENDROOT
TORSDOF 0
ENDMDL
