MODEL 1
REMARK minimizedAffinity -3.16921997
REMARK minimizedRMSD -1
REMARK  0 active torsions:
REMARK  status: ('A' for Active; 'I' for Inactive)
ROOT
ATOM      1  C4' PXY d   1       3.424  -0.250  -1.728  0.00  0.00     0.077 C 
ATOM      2  C1' PXY d   1      -1.828  -0.250   0.687  0.00  0.00     0.077 C 
ATOM      3  C1  PXY d   1      -0.447  -0.261   0.060  0.00  0.00    -0.082 A 
ATOM      4  C2  PXY d   1       0.077   0.869  -0.387  0.00  0.00     0.003 A 
ATOM      5  C3  PXY d   1       1.310   0.872  -0.986  0.00  0.00     0.003 A 
ATOM      6  C4  PXY d   1       2.038  -0.284  -1.080  0.00  0.00    -0.082 A 
ATOM      7  C5  PXY d   1       1.514  -1.439  -0.616  0.00  0.00     0.003 A 
ATOM      8  C6  PXY d   1       0.243  -1.428  -0.049  0.00  0.00     0.003 A 
ENDROOT
TORSDOF 0
ENDMDL
