MODEL 1
REMARK minimizedAffinity -5.40230989
REMARK minimizedRMSD -1
REMARK  0 active torsions:
REMARK  status: ('A' for Active; 'I' for Inactive)
ROOT
ATOM      1  C4' PXY d   1      -1.760  -0.092   0.548  0.00  0.00     0.077 C 
ATOM      2  C1' PXY d   1       3.666  -0.554  -1.391  0.00  0.00     0.077 C 
ATOM      3  C1  PXY d   1       2.246  -0.421  -0.878  0.00  0.00    -0.082 A 
ATOM      4  C2  PXY d   1       1.551  -1.509  -0.587  0.00  0.00     0.003 A 
ATOM      5  C3  PXY d   1       0.254  -1.407  -0.153  0.00  0.00     0.003 A 
ATOM      6  C4  PXY d   1      -0.319  -0.178   0.036  0.00  0.00    -0.082 A 
ATOM      7  C5  PXY d   1       0.387   0.936  -0.248  0.00  0.00     0.003 A 
ATOM      8  C6  PXY d   1       1.688   0.811  -0.727  0.00  0.00     0.003 A 
ENDROOT
TORSDOF 0
ENDMDL
