MODEL 1
REMARK minimizedAffinity -3.50266647
REMARK minimizedRMSD -1
REMARK  0 active torsions:
REMARK  status: ('A' for Active; 'I' for Inactive)
ROOT
ATOM      1  C4' PXY d   1       3.662  -0.673  -0.745  0.00  0.00     0.077 C 
ATOM      2  C1' PXY d   1      -1.989   0.311  -0.036  0.00  0.00     0.077 C 
ATOM      3  C1  PXY d   1      -0.509   0.040  -0.221  0.00  0.00    -0.082 A 
ATOM      4  C2  PXY d   1       0.371   0.980   0.082  0.00  0.00     0.003 A 
ATOM      5  C3  PXY d   1       1.711   0.764  -0.109  0.00  0.00     0.003 A 
ATOM      6  C4  PXY d   1       2.159  -0.447  -0.566  0.00  0.00    -0.082 A 
ATOM      7  C5  PXY d   1       1.268  -1.415  -0.867  0.00  0.00     0.003 A 
ATOM      8  C6  PXY d   1      -0.091  -1.161  -0.705  0.00  0.00     0.003 A 
ENDROOT
TORSDOF 0
ENDMDL
