MODEL 1
REMARK minimizedAffinity -5.5807209
REMARK minimizedRMSD -1
REMARK  0 active torsions:
REMARK  status: ('A' for Active; 'I' for Inactive)
ROOT
ATOM      1  C4' PXY d   1       4.573   0.659  -3.112  0.00  0.00     0.077 C 
ATOM      2  C1' PXY d   1      -0.399   0.153  -0.207  0.00  0.00     0.077 C 
ATOM      3  C1  PXY d   1       0.912   0.281  -0.958  0.00  0.00    -0.082 A 
ATOM      4  C2  PXY d   1       1.012   1.145  -1.956  0.00  0.00     0.003 A 
ATOM      5  C3  PXY d   1       2.180   1.250  -2.667  0.00  0.00     0.003 A 
ATOM      6  C4  PXY d   1       3.273   0.503  -2.319  0.00  0.00    -0.082 A 
ATOM      7  C5  PXY d   1       3.182  -0.373  -1.296  0.00  0.00     0.003 A 
ATOM      8  C6  PXY d   1       1.975  -0.495  -0.613  0.00  0.00     0.003 A 
ENDROOT
TORSDOF 0
ENDMDL
