MODEL 1
REMARK minimizedAffinity -5.34426212
REMARK minimizedRMSD -1
REMARK  0 active torsions:
REMARK  status: ('A' for Active; 'I' for Inactive)
ROOT
ATOM      1  C4' PXY d   1       0.199  -1.952   0.780  0.00  0.00     0.077 C 
ATOM      2  C1' PXY d   1       2.190   1.848  -3.095  0.00  0.00     0.077 C 
ATOM      3  C1  PXY d   1       1.663   0.861  -2.072  0.00  0.00    -0.082 A 
ATOM      4  C2  PXY d   1       2.258  -0.312  -1.926  0.00  0.00     0.003 A 
ATOM      5  C3  PXY d   1       1.775  -1.229  -1.029  0.00  0.00     0.003 A 
ATOM      6  C4  PXY d   1       0.703  -0.921  -0.234  0.00  0.00    -0.082 A 
ATOM      7  C5  PXY d   1       0.096   0.277  -0.369  0.00  0.00     0.003 A 
ATOM      8  C6  PXY d   1       0.577   1.178  -1.315  0.00  0.00     0.003 A 
ENDROOT
TORSDOF 0
ENDMDL
