MODEL 1
REMARK minimizedAffinity -4.22037077
REMARK minimizedRMSD -1
REMARK  0 active torsions:
REMARK  status: ('A' for Active; 'I' for Inactive)
ROOT
ATOM      1  C4' PXY d   1       3.751  -0.688  -0.815  0.00  0.00     0.077 C 
ATOM      2  C1' PXY d   1      -1.953   0.131  -0.357  0.00  0.00     0.077 C 
ATOM      3  C1  PXY d   1      -0.458  -0.096  -0.472  0.00  0.00    -0.082 A 
ATOM      4  C2  PXY d   1       0.363   0.942  -0.469  0.00  0.00     0.003 A 
ATOM      5  C3  PXY d   1       1.715   0.757  -0.605  0.00  0.00     0.003 A 
ATOM      6  C4  PXY d   1       2.236  -0.507  -0.691  0.00  0.00    -0.082 A 
ATOM      7  C5  PXY d   1       1.406  -1.571  -0.684  0.00  0.00     0.003 A 
ATOM      8  C6  PXY d   1       0.033  -1.359  -0.587  0.00  0.00     0.003 A 
ENDROOT
TORSDOF 0
ENDMDL
