MODEL 1
REMARK minimizedAffinity -5.29530001
REMARK minimizedRMSD -1
REMARK  0 active torsions:
REMARK  status: ('A' for Active; 'I' for Inactive)
ROOT
ATOM      1  C4' PXY d   1      -0.617  -3.133  -0.115  0.00  0.00     0.077 C 
ATOM      2  C1' PXY d   1       1.929   1.919  -1.306  0.00  0.00     0.077 C 
ATOM      3  C1  PXY d   1       1.254   0.600  -0.984  0.00  0.00    -0.082 A 
ATOM      4  C2  PXY d   1       1.868  -0.536  -1.273  0.00  0.00     0.003 A 
ATOM      5  C3  PXY d   1       1.258  -1.738  -1.018  0.00  0.00     0.003 A 
ATOM      6  C4  PXY d   1       0.031  -1.778  -0.413  0.00  0.00    -0.082 A 
ATOM      7  C5  PXY d   1      -0.597  -0.623  -0.106  0.00  0.00     0.003 A 
ATOM      8  C6  PXY d   1       0.020   0.587  -0.410  0.00  0.00     0.003 A 
ENDROOT
TORSDOF 0
ENDMDL
