MODEL 1
REMARK minimizedAffinity -1.96985447
REMARK minimizedRMSD -1
REMARK  0 active torsions:
REMARK  status: ('A' for Active; 'I' for Inactive)
ROOT
ATOM      1  C4' PXY d   1      -2.746   0.720   3.685  0.00  0.00     0.077 C 
ATOM      2  C1' PXY d   1       1.160   0.424  -0.566  0.00  0.00     0.077 C 
ATOM      3  C1  PXY d   1       0.145   0.498   0.558  0.00  0.00    -0.082 A 
ATOM      4  C2  PXY d   1      -1.140   0.334   0.290  0.00  0.00     0.003 A 
ATOM      5  C3  PXY d   1      -2.075   0.430   1.289  0.00  0.00     0.003 A 
ATOM      6  C4  PXY d   1      -1.685   0.644   2.584  0.00  0.00    -0.082 A 
ATOM      7  C5  PXY d   1      -0.375   0.802   2.867  0.00  0.00     0.003 A 
ATOM      8  C6  PXY d   1       0.555   0.742   1.832  0.00  0.00     0.003 A 
ENDROOT
TORSDOF 0
ENDMDL
