MODEL 1
REMARK minimizedAffinity -1.95431745
REMARK minimizedRMSD -1
REMARK  0 active torsions:
REMARK  status: ('A' for Active; 'I' for Inactive)
ROOT
ATOM      1  C4' PXY d   1       3.115  -0.840  -1.253  0.00  0.00     0.077 C 
ATOM      2  C1' PXY d   1      -2.142   0.577   0.690  0.00  0.00     0.077 C 
ATOM      3  C1  PXY d   1      -0.763   0.194   0.188  0.00  0.00    -0.082 A 
ATOM      4  C2  PXY d   1       0.052   1.133  -0.264  0.00  0.00     0.003 A 
ATOM      5  C3  PXY d   1       1.290   0.801  -0.751  0.00  0.00     0.003 A 
ATOM      6  C4  PXY d   1       1.718  -0.499  -0.728  0.00  0.00    -0.082 A 
ATOM      7  C5  PXY d   1       0.896  -1.462  -0.259  0.00  0.00     0.003 A 
ATOM      8  C6  PXY d   1      -0.372  -1.109   0.194  0.00  0.00     0.003 A 
ENDROOT
TORSDOF 0
ENDMDL
