MODEL 1
REMARK minimizedAffinity -2.84811664
REMARK minimizedRMSD -1
REMARK  0 active torsions:
REMARK  status: ('A' for Active; 'I' for Inactive)
ROOT
ATOM      1  C4' PXY d   1      -1.543   0.801   1.136  0.00  0.00     0.077 C 
ATOM      2  C1' PXY d   1       3.255  -0.647  -1.745  0.00  0.00     0.077 C 
ATOM      3  C1  PXY d   1       1.991  -0.277  -0.995  0.00  0.00    -0.082 A 
ATOM      4  C2  PXY d   1       1.839   0.955  -0.535  0.00  0.00     0.003 A 
ATOM      5  C3  PXY d   1       0.716   1.298   0.172  0.00  0.00     0.003 A 
ATOM      6  C4  PXY d   1      -0.287   0.386   0.366  0.00  0.00    -0.082 A 
ATOM      7  C5  PXY d   1      -0.144  -0.870  -0.109  0.00  0.00     0.003 A 
ATOM      8  C6  PXY d   1       1.022  -1.210  -0.789  0.00  0.00     0.003 A 
ENDROOT
TORSDOF 0
ENDMDL
