MODEL 1
REMARK minimizedAffinity -3.98959208
REMARK minimizedRMSD -1
REMARK  0 active torsions:
REMARK  status: ('A' for Active; 'I' for Inactive)
ROOT
ATOM      1  C4' PXY d   1       2.027  -0.686  -1.168  0.00  0.00     0.077 C 
ATOM      2  C1' PXY d   1      -2.873  -0.169   1.855  0.00  0.00     0.077 C 
ATOM      3  C1  PXY d   1      -1.589  -0.292   1.058  0.00  0.00    -0.082 A 
ATOM      4  C2  PXY d   1      -1.121  -1.492   0.754  0.00  0.00     0.003 A 
ATOM      5  C3  PXY d   1       0.055  -1.623   0.061  0.00  0.00     0.003 A 
ATOM      6  C4  PXY d   1       0.731  -0.513  -0.372  0.00  0.00    -0.082 A 
ATOM      7  C5  PXY d   1       0.254   0.714  -0.075  0.00  0.00     0.003 A 
ATOM      8  C6  PXY d   1      -0.920   0.825   0.665  0.00  0.00     0.003 A 
ENDROOT
TORSDOF 0
ENDMDL
