MODEL 1
REMARK minimizedAffinity -5.28685284
REMARK minimizedRMSD -1
REMARK  0 active torsions:
REMARK  status: ('A' for Active; 'I' for Inactive)
ROOT
ATOM      1  C4' PXY d   1      -1.669   0.155   0.563  0.00  0.00     0.077 C 
ATOM      2  C1' PXY d   1       3.675  -0.427  -1.564  0.00  0.00     0.077 C 
ATOM      3  C1  PXY d   1       2.271  -0.287  -1.009  0.00  0.00    -0.082 A 
ATOM      4  C2  PXY d   1       1.708   0.909  -0.948  0.00  0.00     0.003 A 
ATOM      5  C3  PXY d   1       0.452   1.058  -0.419  0.00  0.00     0.003 A 
ATOM      6  C4  PXY d   1      -0.257  -0.035   0.002  0.00  0.00    -0.082 A 
ATOM      7  C5  PXY d   1       0.306  -1.260  -0.068  0.00  0.00     0.003 A 
ATOM      8  C6  PXY d   1       1.598  -1.385  -0.569  0.00  0.00     0.003 A 
ENDROOT
TORSDOF 0
ENDMDL
