MODEL 1
REMARK minimizedAffinity -2.93792105
REMARK minimizedRMSD -1
REMARK  0 active torsions:
REMARK  status: ('A' for Active; 'I' for Inactive)
ROOT
ATOM      1  C4' PXY d   1      -1.929   0.724   1.139  0.00  0.00     0.077 C 
ATOM      2  C1' PXY d   1       2.768  -1.261  -1.583  0.00  0.00     0.077 C 
ATOM      3  C1  PXY d   1       1.541  -0.728  -0.870  0.00  0.00    -0.082 A 
ATOM      4  C2  PXY d   1       0.846  -1.528  -0.077  0.00  0.00     0.003 A 
ATOM      5  C3  PXY d   1      -0.285  -1.071   0.550  0.00  0.00     0.003 A 
ATOM      6  C4  PXY d   1      -0.678   0.232   0.406  0.00  0.00    -0.082 A 
ATOM      7  C5  PXY d   1       0.031   1.057  -0.392  0.00  0.00     0.003 A 
ATOM      8  C6  PXY d   1       1.153   0.563  -1.053  0.00  0.00     0.003 A 
ENDROOT
TORSDOF 0
ENDMDL
