MODEL 1
REMARK minimizedAffinity -1.0035013
REMARK minimizedRMSD -1
REMARK  0 active torsions:
REMARK  status: ('A' for Active; 'I' for Inactive)
ROOT
ATOM      1  C2' OXE d   1       3.017  -1.638   0.142  0.00  0.00     0.078 C 
ATOM      2  C1' OXE d   1       1.716  -0.426   2.314  0.00  0.00     0.078 C 
ATOM      3  C1  OXE d   1       1.081  -0.297   0.952  0.00  0.00    -0.078 A 
ATOM      4  C2  OXE d   1       1.748  -0.853  -0.112  0.00  0.00    -0.078 A 
ATOM      5  C3  OXE d   1       1.179  -0.810  -1.382  0.00  0.00     0.003 A 
ATOM      6  C4  OXE d   1       0.010  -0.073  -1.610  0.00  0.00    -0.002 A 
ATOM      7  C5  OXE d   1      -0.665   0.535  -0.546  0.00  0.00    -0.002 A 
ATOM      8  C6  OXE d   1      -0.166   0.397   0.745  0.00  0.00     0.003 A 
ENDROOT
TORSDOF 0
ENDMDL
