MODEL 1
REMARK minimizedAffinity -1.32611048
REMARK minimizedRMSD -1
REMARK  0 active torsions:
REMARK  status: ('A' for Active; 'I' for Inactive)
ROOT
ATOM      1  C2' OXE d   1      -1.977  -0.512   0.295  0.00  0.00     0.078 C 
ATOM      2  C1' OXE d   1       0.074   0.860  -1.043  0.00  0.00     0.078 C 
ATOM      3  C1  OXE d   1       0.406   0.213   0.278  0.00  0.00    -0.078 A 
ATOM      4  C2  OXE d   1      -0.615  -0.416   0.948  0.00  0.00    -0.078 A 
ATOM      5  C3  OXE d   1      -0.351  -1.077   2.144  0.00  0.00     0.003 A 
ATOM      6  C4  OXE d   1       0.909  -0.975   2.746  0.00  0.00    -0.002 A 
ATOM      7  C5  OXE d   1       1.953  -0.305   2.100  0.00  0.00    -0.002 A 
ATOM      8  C6  OXE d   1       1.730   0.257   0.847  0.00  0.00     0.003 A 
ENDROOT
TORSDOF 0
ENDMDL
