MODEL 1
REMARK minimizedAffinity -4.2758522
REMARK minimizedRMSD -1
REMARK  0 active torsions:
REMARK  status: ('A' for Active; 'I' for Inactive)
ROOT
ATOM      1  C2' OXE d   1       2.848  -0.997   0.124  0.00  0.00     0.078 C 
ATOM      2  C1' OXE d   1       1.291  -0.719   2.443  0.00  0.00     0.078 C 
ATOM      3  C1  OXE d   1       0.641  -0.409   1.118  0.00  0.00    -0.078 A 
ATOM      4  C2  OXE d   1       1.424  -0.503  -0.008  0.00  0.00    -0.078 A 
ATOM      5  C3  OXE d   1       0.859  -0.282  -1.261  0.00  0.00     0.003 A 
ATOM      6  C4  OXE d   1      -0.456   0.184  -1.373  0.00  0.00    -0.002 A 
ATOM      7  C5  OXE d   1      -1.259   0.325  -0.236  0.00  0.00    -0.002 A 
ATOM      8  C6  OXE d   1      -0.740  -0.008   1.010  0.00  0.00     0.003 A 
ENDROOT
TORSDOF 0
ENDMDL
