MODEL 1
REMARK minimizedAffinity -3.73738933
REMARK minimizedRMSD -1
REMARK  0 active torsions:
REMARK  status: ('A' for Active; 'I' for Inactive)
ROOT
ATOM      1  C2' OXE d   1       2.076  -1.174   0.088  0.00  0.00     0.078 C 
ATOM      2  C1' OXE d   1       0.562  -0.801   2.422  0.00  0.00     0.078 C 
ATOM      3  C1  OXE d   1      -0.007  -0.284   1.124  0.00  0.00    -0.078 A 
ATOM      4  C2  OXE d   1       0.762  -0.429  -0.005  0.00  0.00    -0.078 A 
ATOM      5  C3  OXE d   1       0.261  -0.019  -1.237  0.00  0.00     0.003 A 
ATOM      6  C4  OXE d   1      -0.951   0.678  -1.313  0.00  0.00    -0.002 A 
ATOM      7  C5  OXE d   1      -1.732   0.872  -0.168  0.00  0.00    -0.002 A 
ATOM      8  C6  OXE d   1      -1.295   0.361   1.049  0.00  0.00     0.003 A 
ENDROOT
TORSDOF 0
ENDMDL
