MODEL 1
REMARK minimizedAffinity -3.46154284
REMARK minimizedRMSD -1
REMARK  0 active torsions:
REMARK  status: ('A' for Active; 'I' for Inactive)
ROOT
ATOM      1  C2' OXE d   1       1.630  -0.743   2.501  0.00  0.00     0.078 C 
ATOM      2  C1' OXE d   1      -1.146  -0.783   2.920  0.00  0.00     0.078 C 
ATOM      3  C1  OXE d   1      -0.650  -0.612   1.506  0.00  0.00    -0.078 A 
ATOM      4  C2  OXE d   1       0.710  -0.547   1.316  0.00  0.00    -0.078 A 
ATOM      5  C3  OXE d   1       1.222  -0.446   0.025  0.00  0.00     0.003 A 
ATOM      6  C4  OXE d   1       0.364  -0.255  -1.064  0.00  0.00    -0.002 A 
ATOM      7  C5  OXE d   1      -1.024  -0.278  -0.888  0.00  0.00    -0.002 A 
ATOM      8  C6  OXE d   1      -1.546  -0.498   0.382  0.00  0.00     0.003 A 
ENDROOT
TORSDOF 0
ENDMDL
