MODEL 1
REMARK minimizedAffinity -0.886472464
REMARK minimizedRMSD -1
REMARK  0 active torsions:
REMARK  status: ('A' for Active; 'I' for Inactive)
ROOT
ATOM      1  C2' OXE d   1       3.153  -0.759  -0.349  0.00  0.00     0.078 C 
ATOM      2  C1' OXE d   1       1.651  -0.026   1.907  0.00  0.00     0.078 C 
ATOM      3  C1  OXE d   1       0.954  -0.033   0.569  0.00  0.00    -0.078 A 
ATOM      4  C2  OXE d   1       1.708  -0.347  -0.535  0.00  0.00    -0.078 A 
ATOM      5  C3  OXE d   1       1.102  -0.421  -1.786  0.00  0.00     0.003 A 
ATOM      6  C4  OXE d   1      -0.232  -0.029  -1.951  0.00  0.00    -0.002 A 
ATOM      7  C5  OXE d   1      -1.008   0.334  -0.845  0.00  0.00    -0.002 A 
ATOM      8  C6  OXE d   1      -0.443   0.296   0.425  0.00  0.00     0.003 A 
ENDROOT
TORSDOF 0
ENDMDL
