MODEL 1
REMARK minimizedAffinity -2.79674053
REMARK minimizedRMSD -1
REMARK  0 active torsions:
REMARK  status: ('A' for Active; 'I' for Inactive)
ROOT
ATOM      1  C2' OXE d   1      -0.892  -2.038   2.747  0.00  0.00     0.078 C 
ATOM      2  C1' OXE d   1       1.672  -0.896   2.685  0.00  0.00     0.078 C 
ATOM      3  C1  OXE d   1       0.698  -0.500   1.603  0.00  0.00    -0.078 A 
ATOM      4  C2  OXE d   1      -0.538  -1.099   1.614  0.00  0.00    -0.078 A 
ATOM      5  C3  OXE d   1      -1.493  -0.728   0.671  0.00  0.00     0.003 A 
ATOM      6  C4  OXE d   1      -1.154   0.133  -0.379  0.00  0.00    -0.002 A 
ATOM      7  C5  OXE d   1       0.113   0.724  -0.432  0.00  0.00    -0.002 A 
ATOM      8  C6  OXE d   1       1.034   0.452   0.573  0.00  0.00     0.003 A 
ENDROOT
TORSDOF 0
ENDMDL
