MODEL 1
REMARK minimizedAffinity -2.24382234
REMARK minimizedRMSD -1
REMARK  0 active torsions:
REMARK  status: ('A' for Active; 'I' for Inactive)
ROOT
ATOM      1  C2' OXE d   1       5.114   5.991   3.644  0.00  0.00     0.078 C 
ATOM      2  C1' OXE d   1       3.085   5.990   1.705  0.00  0.00     0.078 C 
ATOM      3  C1  OXE d   1       2.672   5.982   3.155  0.00  0.00    -0.078 A 
ATOM      4  C2  OXE d   1       3.671   5.935   4.097  0.00  0.00    -0.078 A 
ATOM      5  C3  OXE d   1       3.346   5.981   5.450  0.00  0.00     0.003 A 
ATOM      6  C4  OXE d   1       2.009   5.919   5.860  0.00  0.00    -0.002 A 
ATOM      7  C5  OXE d   1       0.976   5.926   4.916  0.00  0.00    -0.002 A 
ATOM      8  C6  OXE d   1       1.289   6.000   3.564  0.00  0.00     0.003 A 
ENDROOT
TORSDOF 0
ENDMDL
