MODEL 1
REMARK minimizedAffinity -1.32485878
REMARK minimizedRMSD -1
REMARK  0 active torsions:
REMARK  status: ('A' for Active; 'I' for Inactive)
ROOT
ATOM      1  C2' OXE d   1       1.458  -0.289   1.577  0.00  0.00     0.078 C 
ATOM      2  C1' OXE d   1       2.530  -1.452  -0.742  0.00  0.00     0.078 C 
ATOM      3  C1  OXE d   1       1.271  -0.633  -0.883  0.00  0.00    -0.078 A 
ATOM      4  C2  OXE d   1       0.728  -0.107   0.264  0.00  0.00    -0.078 A 
ATOM      5  C3  OXE d   1      -0.402   0.702   0.183  0.00  0.00     0.003 A 
ATOM      6  C4  OXE d   1      -1.077   0.858  -1.033  0.00  0.00    -0.002 A 
ATOM      7  C5  OXE d   1      -0.563   0.297  -2.207  0.00  0.00    -0.002 A 
ATOM      8  C6  OXE d   1       0.631  -0.414  -2.157  0.00  0.00     0.003 A 
ENDROOT
TORSDOF 0
ENDMDL
