MODEL 1
REMARK minimizedAffinity -2.0342257
REMARK minimizedRMSD -1
REMARK  0 active torsions:
REMARK  status: ('A' for Active; 'I' for Inactive)
ROOT
ATOM      1  C2' OXE d   1       2.585  -1.067  -0.445  0.00  0.00     0.078 C 
ATOM      2  C1' OXE d   1       1.532  -1.211   2.153  0.00  0.00     0.078 C 
ATOM      3  C1  OXE d   1       0.623  -0.726   1.052  0.00  0.00    -0.078 A 
ATOM      4  C2  OXE d   1       1.161  -0.614  -0.208  0.00  0.00    -0.078 A 
ATOM      5  C3  OXE d   1       0.351  -0.223  -1.271  0.00  0.00     0.003 A 
ATOM      6  C4  OXE d   1      -0.963   0.203  -1.041  0.00  0.00    -0.002 A 
ATOM      7  C5  OXE d   1      -1.518   0.135   0.241  0.00  0.00    -0.002 A 
ATOM      8  C6  OXE d   1      -0.753  -0.366   1.289  0.00  0.00     0.003 A 
ENDROOT
TORSDOF 0
ENDMDL
