MODEL 1
REMARK minimizedAffinity -4.8093257
REMARK minimizedRMSD -1
REMARK  0 active torsions:
REMARK  status: ('A' for Active; 'I' for Inactive)
ROOT
ATOM      1  C2' OXE d   1      -0.111   0.026   0.940  0.00  0.00     0.078 C 
ATOM      2  C1' OXE d   1       1.781  -0.277  -1.110  0.00  0.00     0.078 C 
ATOM      3  C1  OXE d   1       0.732   0.794  -1.274  0.00  0.00    -0.078 A 
ATOM      4  C2  OXE d   1      -0.218   0.904  -0.288  0.00  0.00    -0.078 A 
ATOM      5  C3  OXE d   1      -1.177   1.911  -0.363  0.00  0.00     0.003 A 
ATOM      6  C4  OXE d   1      -1.275   2.712  -1.507  0.00  0.00    -0.002 A 
ATOM      7  C5  OXE d   1      -0.341   2.590  -2.541  0.00  0.00    -0.002 A 
ATOM      8  C6  OXE d   1       0.692   1.667  -2.422  0.00  0.00     0.003 A 
ENDROOT
TORSDOF 0
ENDMDL
