MODEL 1
REMARK minimizedAffinity -3.35337543
REMARK minimizedRMSD -1
REMARK  0 active torsions:
REMARK  status: ('A' for Active; 'I' for Inactive)
ROOT
ATOM      1  C2' OXE d   1      -0.182  -0.145  -1.625  0.00  0.00     0.078 C 
ATOM      2  C1' OXE d   1       2.080  -1.076  -0.247  0.00  0.00     0.078 C 
ATOM      3  C1  OXE d   1       0.833  -0.797   0.555  0.00  0.00    -0.078 A 
ATOM      4  C2  OXE d   1      -0.254  -0.297  -0.121  0.00  0.00    -0.078 A 
ATOM      5  C3  OXE d   1      -1.447  -0.074   0.561  0.00  0.00     0.003 A 
ATOM      6  C4  OXE d   1      -1.502  -0.208   1.954  0.00  0.00    -0.002 A 
ATOM      7  C5  OXE d   1      -0.394  -0.677   2.667  0.00  0.00    -0.002 A 
ATOM      8  C6  OXE d   1       0.766  -1.016   1.978  0.00  0.00     0.003 A 
ENDROOT
TORSDOF 0
ENDMDL
