MODEL 1
REMARK minimizedAffinity 0.624983668
REMARK minimizedRMSD -1
REMARK  0 active torsions:
REMARK  status: ('A' for Active; 'I' for Inactive)
ROOT
ATOM      1  C2' OXE d   1      -0.057  -0.964   3.017  0.00  0.00     0.078 C 
ATOM      2  C1' OXE d   1       2.738  -1.207   3.100  0.00  0.00     0.078 C 
ATOM      3  C1  OXE d   1       2.071  -1.219   1.747  0.00  0.00    -0.078 A 
ATOM      4  C2  OXE d   1       0.699  -1.146   1.718  0.00  0.00    -0.078 A 
ATOM      5  C3  OXE d   1       0.037  -1.098   0.495  0.00  0.00     0.003 A 
ATOM      6  C4  OXE d   1       0.743  -1.278  -0.701  0.00  0.00    -0.002 A 
ATOM      7  C5  OXE d   1       2.137  -1.393  -0.692  0.00  0.00    -0.002 A 
ATOM      8  C6  OXE d   1       2.819  -1.323   0.518  0.00  0.00     0.003 A 
ENDROOT
TORSDOF 0
ENDMDL
