MODEL 1
REMARK minimizedAffinity -5.8014493
REMARK minimizedRMSD -1
REMARK  0 active torsions:
REMARK  status: ('A' for Active; 'I' for Inactive)
ROOT
ATOM      1  C2' OXE d   1      -2.245  -0.109   1.116  0.00  0.00     0.078 C 
ATOM      2  C1' OXE d   1      -0.579   0.342  -1.097  0.00  0.00     0.078 C 
ATOM      3  C1  OXE d   1       0.069  -0.092   0.194  0.00  0.00    -0.078 A 
ATOM      4  C2  OXE d   1      -0.749  -0.265   1.284  0.00  0.00    -0.078 A 
ATOM      5  C3  OXE d   1      -0.210  -0.717   2.485  0.00  0.00     0.003 A 
ATOM      6  C4  OXE d   1       1.176  -0.849   2.635  0.00  0.00    -0.002 A 
ATOM      7  C5  OXE d   1       2.031  -0.639   1.548  0.00  0.00    -0.002 A 
ATOM      8  C6  OXE d   1       1.491  -0.302   0.312  0.00  0.00     0.003 A 
ENDROOT
TORSDOF 0
ENDMDL
