MODEL 1
REMARK minimizedAffinity -5.22253036
REMARK minimizedRMSD -1
REMARK  0 active torsions:
REMARK  status: ('A' for Active; 'I' for Inactive)
ROOT
ATOM      1  O1  BZF d   1       1.925  -1.883   0.454  0.00  0.00    -0.204 OA
ATOM      2  C2  BZF d   1       1.077  -2.766   1.094  0.00  0.00     0.174 A 
ATOM      3  C3  BZF d   1      -0.169  -2.256   1.178  0.00  0.00    -0.012 A 
ATOM      4  C3A BZF d   1      -0.116  -1.015   0.468  0.00  0.00    -0.107 A 
ATOM      5  C4  BZF d   1      -1.045  -0.054   0.188  0.00  0.00     0.055 A 
ATOM      6  C5  BZF d   1      -0.653   1.073  -0.464  0.00  0.00    -0.016 A 
ATOM      7  C6  BZF d   1       0.657   1.273  -0.844  0.00  0.00     0.022 A 
ATOM      8  C7  BZF d   1       1.613   0.346  -0.592  0.00  0.00     0.029 A 
ATOM      9  C7A BZF d   1       1.214  -0.808   0.037  0.00  0.00     0.058 A 
ENDROOT
TORSDOF 0
ENDMDL
