MODEL 1
REMARK minimizedAffinity -3.66159868
REMARK minimizedRMSD -1
REMARK  0 active torsions:
REMARK  status: ('A' for Active; 'I' for Inactive)
ROOT
ATOM      1  O1  BZF d   1       0.289   1.528  -0.979  0.00  0.00    -0.204 OA
ATOM      2  C2  BZF d   1      -1.092   1.476  -0.985  0.00  0.00     0.174 A 
ATOM      3  C3  BZF d   1      -1.532   0.378  -0.337  0.00  0.00    -0.012 A 
ATOM      4  C3A BZF d   1      -0.356  -0.250   0.181  0.00  0.00    -0.107 A 
ATOM      5  C4  BZF d   1      -0.143  -1.373   0.929  0.00  0.00     0.055 A 
ATOM      6  C5  BZF d   1       1.133  -1.750   1.205  0.00  0.00    -0.016 A 
ATOM      7  C6  BZF d   1       2.218  -1.034   0.745  0.00  0.00     0.022 A 
ATOM      8  C7  BZF d   1       2.057   0.090   0.003  0.00  0.00     0.029 A 
ATOM      9  C7A BZF d   1       0.768   0.492  -0.249  0.00  0.00     0.058 A 
ENDROOT
TORSDOF 0
ENDMDL
