MODEL 1
REMARK minimizedAffinity -1.95171845
REMARK minimizedRMSD -1
REMARK  0 active torsions:
REMARK  status: ('A' for Active; 'I' for Inactive)
ROOT
ATOM      1  O1  BZF d   1       0.612   0.791  -0.542  0.00  0.00    -0.204 OA
ATOM      2  C2  BZF d   1      -0.748   1.022  -0.614  0.00  0.00     0.174 A 
ATOM      3  C3  BZF d   1      -1.440  -0.060  -0.202  0.00  0.00    -0.012 A 
ATOM      4  C3A BZF d   1      -0.450  -0.995   0.237  0.00  0.00    -0.107 A 
ATOM      5  C4  BZF d   1      -0.515  -2.250   0.770  0.00  0.00     0.055 A 
ATOM      6  C5  BZF d   1       0.640  -2.921   1.023  0.00  0.00    -0.016 A 
ATOM      7  C6  BZF d   1       1.875  -2.370   0.750  0.00  0.00     0.022 A 
ATOM      8  C7  BZF d   1       1.990  -1.125   0.226  0.00  0.00     0.029 A 
ATOM      9  C7A BZF d   1       0.826  -0.432   0.000  0.00  0.00     0.058 A 
ENDROOT
TORSDOF 0
ENDMDL
