MODEL 1
REMARK minimizedAffinity -1.77953887
REMARK minimizedRMSD -1
REMARK  0 active torsions:
REMARK  status: ('A' for Active; 'I' for Inactive)
ROOT
ATOM      1  O1  BZF d   1       1.713  -0.267  -0.674  0.00  0.00    -0.204 OA
ATOM      2  C2  BZF d   1       2.216  -1.394  -0.053  0.00  0.00     0.174 A 
ATOM      3  C3  BZF d   1       1.410  -1.784   0.956  0.00  0.00    -0.012 A 
ATOM      4  C3A BZF d   1       0.289  -0.896   0.906  0.00  0.00    -0.107 A 
ATOM      5  C4  BZF d   1      -0.856  -0.788   1.643  0.00  0.00     0.055 A 
ATOM      6  C5  BZF d   1      -1.713   0.234   1.385  0.00  0.00    -0.016 A 
ATOM      7  C6  BZF d   1      -1.455   1.168   0.403  0.00  0.00     0.022 A 
ATOM      8  C7  BZF d   1      -0.335   1.099  -0.357  0.00  0.00     0.029 A 
ATOM      9  C7A BZF d   1       0.517   0.048  -0.121  0.00  0.00     0.058 A 
ENDROOT
TORSDOF 0
ENDMDL
