MODEL 1
REMARK minimizedAffinity -5.06890345
REMARK minimizedRMSD -1
REMARK  0 active torsions:
REMARK  status: ('A' for Active; 'I' for Inactive)
ROOT
ATOM      1  O1  BZF d   1       2.185  -1.821   0.270  0.00  0.00    -0.204 OA
ATOM      2  C2  BZF d   1       1.372  -2.726   0.925  0.00  0.00     0.174 A 
ATOM      3  C3  BZF d   1       0.129  -2.227   1.080  0.00  0.00    -0.012 A 
ATOM      4  C3A BZF d   1       0.141  -0.967   0.403  0.00  0.00    -0.107 A 
ATOM      5  C4  BZF d   1      -0.805  -0.005   0.192  0.00  0.00     0.055 A 
ATOM      6  C5  BZF d   1      -0.450   1.141  -0.447  0.00  0.00    -0.016 A 
ATOM      7  C6  BZF d   1       0.840   1.360  -0.882  0.00  0.00     0.022 A 
ATOM      8  C7  BZF d   1       1.812   0.433  -0.700  0.00  0.00     0.029 A 
ATOM      9  C7A BZF d   1       1.449  -0.740  -0.085  0.00  0.00     0.058 A 
ENDROOT
TORSDOF 0
ENDMDL
