MODEL 1
REMARK minimizedAffinity -2.99928355
REMARK minimizedRMSD -1
REMARK  0 active torsions:
REMARK  status: ('A' for Active; 'I' for Inactive)
ROOT
ATOM      1  O1  BZF d   1       0.341   1.228  -0.429  0.00  0.00    -0.204 OA
ATOM      2  C2  BZF d   1      -1.002   1.378  -0.142  0.00  0.00     0.174 A 
ATOM      3  C3  BZF d   1      -1.504   0.250   0.400  0.00  0.00    -0.012 A 
ATOM      4  C3A BZF d   1      -0.386  -0.631   0.540  0.00  0.00    -0.107 A 
ATOM      5  C4  BZF d   1      -0.244  -1.897   1.032  0.00  0.00     0.055 A 
ATOM      6  C5  BZF d   1       0.971  -2.502   0.958  0.00  0.00    -0.016 A 
ATOM      7  C6  BZF d   1       2.062  -1.873   0.395  0.00  0.00     0.022 A 
ATOM      8  C7  BZF d   1       1.971  -0.616  -0.102  0.00  0.00     0.029 A 
ATOM      9  C7A BZF d   1       0.753   0.011   0.001  0.00  0.00     0.058 A 
ENDROOT
TORSDOF 0
ENDMDL
