MODEL 1
REMARK minimizedAffinity -4.68487644
REMARK minimizedRMSD -1
REMARK  0 active torsions:
REMARK  status: ('A' for Active; 'I' for Inactive)
ROOT
ATOM      1  O1  BZF d   1      -0.917   0.452   0.609  0.00  0.00    -0.204 OA
ATOM      2  C2  BZF d   1      -0.873   1.484  -0.308  0.00  0.00     0.174 A 
ATOM      3  C3  BZF d   1       0.234   1.397  -1.074  0.00  0.00    -0.012 A 
ATOM      4  C3A BZF d   1       0.877   0.185  -0.668  0.00  0.00    -0.107 A 
ATOM      5  C4  BZF d   1       2.014  -0.455  -1.072  0.00  0.00     0.055 A 
ATOM      6  C5  BZF d   1       2.403  -1.583  -0.421  0.00  0.00    -0.016 A 
ATOM      7  C6  BZF d   1       1.684  -2.094   0.639  0.00  0.00     0.022 A 
ATOM      8  C7  BZF d   1       0.548  -1.497   1.073  0.00  0.00     0.029 A 
ATOM      9  C7A BZF d   1       0.134  -0.376   0.396  0.00  0.00     0.058 A 
ENDROOT
TORSDOF 0
ENDMDL
