MODEL 1
REMARK minimizedAffinity -4.68501139
REMARK minimizedRMSD -1
REMARK  0 active torsions:
REMARK  status: ('A' for Active; 'I' for Inactive)
ROOT
ATOM      1  O1  BZF d   1      -0.960  -0.696   1.252  0.00  0.00    -0.204 OA
ATOM      2  C2  BZF d   1      -1.425   0.473   0.681  0.00  0.00     0.174 A 
ATOM      3  C3  BZF d   1      -0.491   1.015  -0.127  0.00  0.00    -0.012 A 
ATOM      4  C3A BZF d   1       0.593   0.082  -0.128  0.00  0.00    -0.107 A 
ATOM      5  C4  BZF d   1       1.806   0.052  -0.755  0.00  0.00     0.055 A 
ATOM      6  C5  BZF d   1       2.664  -0.967  -0.486  0.00  0.00    -0.016 A 
ATOM      7  C6  BZF d   1       2.344  -1.969   0.407  0.00  0.00     0.022 A 
ATOM      8  C7  BZF d   1       1.151  -1.985   1.049  0.00  0.00     0.029 A 
ATOM      9  C7A BZF d   1       0.269  -0.974   0.755  0.00  0.00     0.058 A 
ENDROOT
TORSDOF 0
ENDMDL
