MODEL 1
REMARK minimizedAffinity 3.06434488
REMARK minimizedRMSD -1
REMARK  0 active torsions:
REMARK  status: ('A' for Active; 'I' for Inactive)
ROOT
ATOM      1  O1  BZF d   1      -0.331   0.912   0.201  0.00  0.00    -0.204 OA
ATOM      2  C2  BZF d   1      -0.074   1.109  -1.142  0.00  0.00     0.174 A 
ATOM      3  C3  BZF d   1      -0.166  -0.052  -1.823  0.00  0.00    -0.012 A 
ATOM      4  C3A BZF d   1      -0.592  -1.020  -0.859  0.00  0.00    -0.107 A 
ATOM      5  C4  BZF d   1      -0.875  -2.354  -0.930  0.00  0.00     0.055 A 
ATOM      6  C5  BZF d   1      -1.194  -3.023   0.209  0.00  0.00    -0.016 A 
ATOM      7  C6  BZF d   1      -1.234  -2.392   1.435  0.00  0.00     0.022 A 
ATOM      8  C7  BZF d   1      -0.965  -1.069   1.555  0.00  0.00     0.029 A 
ATOM      9  C7A BZF d   1      -0.675  -0.383   0.401  0.00  0.00     0.058 A 
ENDROOT
TORSDOF 0
ENDMDL
