MODEL 1
REMARK minimizedAffinity -3.60139108
REMARK minimizedRMSD -1
REMARK  0 active torsions:
REMARK  status: ('A' for Active; 'I' for Inactive)
ROOT
ATOM      1  O1  BZF d   1      -1.313  -0.432   1.585  0.00  0.00    -0.204 OA
ATOM      2  C2  BZF d   1      -1.500   0.659   0.759  0.00  0.00     0.174 A 
ATOM      3  C3  BZF d   1      -0.479   0.778  -0.114  0.00  0.00    -0.012 A 
ATOM      4  C3A BZF d   1       0.355  -0.360   0.124  0.00  0.00    -0.107 A 
ATOM      5  C4  BZF d   1       1.515  -0.808  -0.440  0.00  0.00     0.055 A 
ATOM      6  C5  BZF d   1       2.114  -1.915   0.073  0.00  0.00    -0.016 A 
ATOM      7  C6  BZF d   1       1.584  -2.594   1.150  0.00  0.00     0.022 A 
ATOM      8  C7  BZF d   1       0.432  -2.190   1.740  0.00  0.00     0.029 A 
ATOM      9  C7A BZF d   1      -0.192  -1.091   1.203  0.00  0.00     0.058 A 
ENDROOT
TORSDOF 0
ENDMDL
