MODEL 1
REMARK minimizedAffinity -3.12044191
REMARK minimizedRMSD -1
REMARK  0 active torsions:
REMARK  status: ('A' for Active; 'I' for Inactive)
ROOT
ATOM      1  O1  BZF d   1      -1.566   0.033   0.637  0.00  0.00    -0.204 OA
ATOM      2  C2  BZF d   1      -1.443   1.121  -0.205  0.00  0.00     0.174 A 
ATOM      3  C3  BZF d   1      -0.206   1.176  -0.739  0.00  0.00    -0.012 A 
ATOM      4  C3A BZF d   1       0.460  -0.000  -0.268  0.00  0.00    -0.107 A 
ATOM      5  C4  BZF d   1       1.709  -0.516  -0.466  0.00  0.00     0.055 A 
ATOM      6  C5  BZF d   1       2.070  -1.645   0.197  0.00  0.00    -0.016 A 
ATOM      7  C6  BZF d   1       1.211  -2.281   1.069  0.00  0.00     0.022 A 
ATOM      8  C7  BZF d   1      -0.040  -1.811   1.294  0.00  0.00     0.029 A 
ATOM      9  C7A BZF d   1      -0.419  -0.688   0.600  0.00  0.00     0.058 A 
ENDROOT
TORSDOF 0
ENDMDL
