MODEL 1
REMARK minimizedAffinity -3.00019097
REMARK minimizedRMSD -1
REMARK  0 active torsions:
REMARK  status: ('A' for Active; 'I' for Inactive)
ROOT
ATOM      1  O1  BZF d   1      -1.252  -0.191  -0.468  0.00  0.00    -0.204 OA
ATOM      2  C2  BZF d   1      -0.933   0.915  -1.232  0.00  0.00     0.174 A 
ATOM      3  C3  BZF d   1       0.392   1.163  -1.184  0.00  0.00    -0.012 A 
ATOM      4  C3A BZF d   1       0.947   0.095  -0.411  0.00  0.00    -0.107 A 
ATOM      5  C4  BZF d   1       2.218  -0.222  -0.025  0.00  0.00     0.055 A 
ATOM      6  C5  BZF d   1       2.413  -1.293   0.789  0.00  0.00    -0.016 A 
ATOM      7  C6  BZF d   1       1.362  -2.064   1.239  0.00  0.00     0.022 A 
ATOM      8  C7  BZF d   1       0.084  -1.791   0.879  0.00  0.00     0.029 A 
ATOM      9  C7A BZF d   1      -0.113  -0.729   0.031  0.00  0.00     0.058 A 
ENDROOT
TORSDOF 0
ENDMDL
