MODEL 1
REMARK minimizedAffinity -5.08024025
REMARK minimizedRMSD -1
REMARK  0 active torsions:
REMARK  status: ('A' for Active; 'I' for Inactive)
ROOT
ATOM      1  O1  BZF d   1       0.024  -2.517   0.958  0.00  0.00    -0.204 OA
ATOM      2  C2  BZF d   1       1.364  -2.853   0.923  0.00  0.00     0.174 A 
ATOM      3  C3  BZF d   1       2.083  -1.888   0.314  0.00  0.00    -0.012 A 
ATOM      4  C3A BZF d   1       1.147  -0.845   0.028  0.00  0.00    -0.107 A 
ATOM      5  C4  BZF d   1       1.260   0.384  -0.556  0.00  0.00     0.055 A 
ATOM      6  C5  BZF d   1       0.140   1.128  -0.752  0.00  0.00    -0.016 A 
ATOM      7  C6  BZF d   1      -1.108   0.673  -0.380  0.00  0.00     0.022 A 
ATOM      8  C7  BZF d   1      -1.270  -0.537   0.208  0.00  0.00     0.029 A 
ATOM      9  C7A BZF d   1      -0.136  -1.278   0.436  0.00  0.00     0.058 A 
ENDROOT
TORSDOF 0
ENDMDL
