MODEL 1
REMARK minimizedAffinity -3.15509725
REMARK minimizedRMSD -1
REMARK  0 active torsions:
REMARK  status: ('A' for Active; 'I' for Inactive)
ROOT
ATOM      1  O1  BZF d   1       0.020   1.231  -0.080  0.00  0.00    -0.204 OA
ATOM      2  C2  BZF d   1      -1.144   1.409   0.641  0.00  0.00     0.174 A 
ATOM      3  C3  BZF d   1      -1.477   0.280   1.300  0.00  0.00    -0.012 A 
ATOM      4  C3A BZF d   1      -0.407  -0.634   1.043  0.00  0.00    -0.107 A 
ATOM      5  C4  BZF d   1      -0.153  -1.917   1.438  0.00  0.00     0.055 A 
ATOM      6  C5  BZF d   1       0.946  -2.552   0.952  0.00  0.00    -0.016 A 
ATOM      7  C6  BZF d   1       1.808  -1.937   0.068  0.00  0.00     0.022 A 
ATOM      8  C7  BZF d   1       1.601  -0.664  -0.348  0.00  0.00     0.029 A 
ATOM      9  C7A BZF d   1       0.509  -0.008   0.166  0.00  0.00     0.058 A 
ENDROOT
TORSDOF 0
ENDMDL
