MODEL 1
REMARK minimizedAffinity -3.56747031
REMARK minimizedRMSD -1
REMARK  0 active torsions:
REMARK  status: ('A' for Active; 'I' for Inactive)
ROOT
ATOM      1  O1  BZF d   1      -1.399   0.016   0.390  0.00  0.00    -0.204 OA
ATOM      2  C2  BZF d   1      -1.272   1.222  -0.274  0.00  0.00     0.174 A 
ATOM      3  C3  BZF d   1       0.001   1.414  -0.676  0.00  0.00    -0.012 A 
ATOM      4  C3A BZF d   1       0.695   0.215  -0.318  0.00  0.00    -0.107 A 
ATOM      5  C4  BZF d   1       1.985  -0.204  -0.471  0.00  0.00     0.055 A 
ATOM      6  C5  BZF d   1       2.358  -1.400   0.055  0.00  0.00    -0.016 A 
ATOM      7  C6  BZF d   1       1.469  -2.199   0.743  0.00  0.00     0.022 A 
ATOM      8  C7  BZF d   1       0.177  -1.828   0.916  0.00  0.00     0.029 A 
ATOM      9  C7A BZF d   1      -0.211  -0.635   0.357  0.00  0.00     0.058 A 
ENDROOT
TORSDOF 0
ENDMDL
