MODEL 1
REMARK minimizedAffinity -4.13552618
REMARK minimizedRMSD -1
REMARK  0 active torsions:
REMARK  status: ('A' for Active; 'I' for Inactive)
ROOT
ATOM      1  O1  BZF d   1      -1.935   0.764  -0.392  0.00  0.00    -0.204 OA
ATOM      2  C2  BZF d   1      -1.795   1.733  -1.367  0.00  0.00     0.174 A 
ATOM      3  C3  BZF d   1      -0.507   1.840  -1.752  0.00  0.00    -0.012 A 
ATOM      4  C3A BZF d   1       0.187   0.815  -1.036  0.00  0.00    -0.107 A 
ATOM      5  C4  BZF d   1       1.491   0.408  -1.005  0.00  0.00     0.055 A 
ATOM      6  C5  BZF d   1       1.855  -0.577  -0.143  0.00  0.00    -0.016 A 
ATOM      7  C6  BZF d   1       0.945  -1.172   0.706  0.00  0.00     0.022 A 
ATOM      8  C7  BZF d   1      -0.359  -0.806   0.709  0.00  0.00     0.029 A 
ATOM      9  C7A BZF d   1      -0.738   0.166  -0.185  0.00  0.00     0.058 A 
ENDROOT
TORSDOF 0
ENDMDL
