MODEL 1
REMARK minimizedAffinity -6.96277189
REMARK minimizedRMSD -1
REMARK  0 active torsions:
REMARK  status: ('A' for Active; 'I' for Inactive)
ROOT
ATOM      1  O1  BZF d   1       1.768  -1.959   0.178  0.00  0.00    -0.204 OA
ATOM      2  C2  BZF d   1       1.286  -0.779  -0.355  0.00  0.00     0.174 A 
ATOM      3  C3  BZF d   1       0.164  -0.388   0.283  0.00  0.00    -0.012 A 
ATOM      4  C3A BZF d   1      -0.019  -1.337   1.338  0.00  0.00    -0.107 A 
ATOM      5  C4  BZF d   1      -0.952  -1.475   2.326  0.00  0.00     0.055 A 
ATOM      6  C5  BZF d   1      -0.887  -2.553   3.149  0.00  0.00    -0.016 A 
ATOM      7  C6  BZF d   1       0.092  -3.515   3.011  0.00  0.00     0.022 A 
ATOM      8  C7  BZF d   1       1.042  -3.420   2.049  0.00  0.00     0.029 A 
ATOM      9  C7A BZF d   1       0.999  -2.314   1.236  0.00  0.00     0.058 A 
ENDROOT
TORSDOF 0
ENDMDL
