MODEL 1
REMARK minimizedAffinity -4.28687716
REMARK minimizedRMSD -1
REMARK  0 active torsions:
REMARK  status: ('A' for Active; 'I' for Inactive)
ROOT
ATOM      1  O1  BZF d   1      -1.467  -0.517  -0.838  0.00  0.00    -0.204 OA
ATOM      2  C2  BZF d   1      -1.445   0.863  -0.889  0.00  0.00     0.174 A 
ATOM      3  C3  BZF d   1      -0.270   1.340  -0.430  0.00  0.00    -0.012 A 
ATOM      4  C3A BZF d   1       0.525   0.182  -0.157  0.00  0.00    -0.107 A 
ATOM      5  C4  BZF d   1       1.798   0.005   0.307  0.00  0.00     0.055 A 
ATOM      6  C5  BZF d   1       2.248  -1.257   0.532  0.00  0.00    -0.016 A 
ATOM      7  C6  BZF d   1       1.454  -2.363   0.309  0.00  0.00     0.022 A 
ATOM      8  C7  BZF d   1       0.187  -2.237  -0.155  0.00  0.00     0.029 A 
ATOM      9  C7A BZF d   1      -0.261  -0.965  -0.415  0.00  0.00     0.058 A 
ENDROOT
TORSDOF 0
ENDMDL
