MODEL 1
REMARK minimizedAffinity -5.07827044
REMARK minimizedRMSD -1
REMARK  0 active torsions:
REMARK  status: ('A' for Active; 'I' for Inactive)
ROOT
ATOM      1  C1  BNZ d   1      -0.906  -0.828   1.416  0.00  0.00     0.000 A 
ATOM      2  C2  BNZ d   1      -1.107  -2.178   1.313  0.00  0.00     0.000 A 
ATOM      3  C3  BNZ d   1      -0.342  -2.939   0.474  0.00  0.00     0.000 A 
ATOM      4  C4  BNZ d   1       0.596  -2.343  -0.290  0.00  0.00     0.000 A 
ATOM      5  C5  BNZ d   1       0.806  -0.981  -0.205  0.00  0.00     0.000 A 
ATOM      6  C6  BNZ d   1       0.059  -0.224   0.670  0.00  0.00     0.000 A 
ENDROOT
TORSDOF 0
ENDMDL
