MODEL 1
REMARK minimizedAffinity -4.38014364
REMARK minimizedRMSD -1
REMARK  0 active torsions:
REMARK  status: ('A' for Active; 'I' for Inactive)
ROOT
ATOM      1  C1  BNZ d   1      -1.282  -1.801   1.156  0.00  0.00     0.000 A 
ATOM      2  C2  BNZ d   1      -0.193  -2.574   0.857  0.00  0.00     0.000 A 
ATOM      3  C3  BNZ d   1       0.788  -2.110   0.026  0.00  0.00     0.000 A 
ATOM      4  C4  BNZ d   1       0.660  -0.890  -0.534  0.00  0.00     0.000 A 
ATOM      5  C5  BNZ d   1      -0.437  -0.102  -0.249  0.00  0.00     0.000 A 
ATOM      6  C6  BNZ d   1      -1.404  -0.557   0.618  0.00  0.00     0.000 A 
ENDROOT
TORSDOF 0
ENDMDL
