MODEL 1
REMARK minimizedAffinity -2.46893406
REMARK minimizedRMSD -1
REMARK  0 active torsions:
REMARK  status: ('A' for Active; 'I' for Inactive)
ROOT
ATOM      1  C1  BNZ d   1      -0.395  -0.193   0.879  0.00  0.00     0.000 A 
ATOM      2  C2  BNZ d   1      -0.026  -1.505   0.746  0.00  0.00     0.000 A 
ATOM      3  C3  BNZ d   1       0.750  -1.911  -0.303  0.00  0.00     0.000 A 
ATOM      4  C4  BNZ d   1       1.122  -1.014  -1.239  0.00  0.00     0.000 A 
ATOM      5  C5  BNZ d   1       0.750   0.311  -1.124  0.00  0.00     0.000 A 
ATOM      6  C6  BNZ d   1       0.001   0.723  -0.046  0.00  0.00     0.000 A 
ENDROOT
TORSDOF 0
ENDMDL
