MODEL 1
REMARK minimizedAffinity -3.74861336
REMARK minimizedRMSD -1
REMARK  0 active torsions:
REMARK  status: ('A' for Active; 'I' for Inactive)
ROOT
ATOM      1  C1  BNZ d   1      -0.758   0.487   0.949  0.00  0.00     0.000 A 
ATOM      2  C2  BNZ d   1      -0.617  -0.875   0.964  0.00  0.00     0.000 A 
ATOM      3  C3  BNZ d   1       0.128  -1.512   0.012  0.00  0.00     0.000 A 
ATOM      4  C4  BNZ d   1       0.698  -0.792  -0.976  0.00  0.00     0.000 A 
ATOM      5  C5  BNZ d   1       0.557   0.581  -1.010  0.00  0.00     0.000 A 
ATOM      6  C6  BNZ d   1      -0.162   1.223  -0.027  0.00  0.00     0.000 A 
ENDROOT
TORSDOF 0
ENDMDL
