MODEL 1
REMARK minimizedAffinity -5.23422527
REMARK minimizedRMSD -1
REMARK  0 active torsions:
REMARK  status: ('A' for Active; 'I' for Inactive)
ROOT
ATOM      1  C1  BNZ d   1      -0.549  -0.020   0.816  0.00  0.00     0.000 A 
ATOM      2  C2  BNZ d   1       0.266  -0.376  -0.225  0.00  0.00     0.000 A 
ATOM      3  C3  BNZ d   1       0.569  -1.688  -0.461  0.00  0.00     0.000 A 
ATOM      4  C4  BNZ d   1       0.089  -2.638   0.368  0.00  0.00     0.000 A 
ATOM      5  C5  BNZ d   1      -0.727  -2.294   1.427  0.00  0.00     0.000 A 
ATOM      6  C6  BNZ d   1      -1.061  -0.976   1.638  0.00  0.00     0.000 A 
ENDROOT
TORSDOF 0
ENDMDL
