MODEL 1
REMARK minimizedAffinity -3.8929739
REMARK minimizedRMSD -1
REMARK  0 active torsions:
REMARK  status: ('A' for Active; 'I' for Inactive)
ROOT
ATOM      1  C1  BNZ d   1      -2.128  -1.944   0.893  0.00  0.00     0.000 A 
ATOM      2  C2  BNZ d   1      -1.788  -0.617   0.912  0.00  0.00     0.000 A 
ATOM      3  C3  BNZ d   1      -0.524  -0.214   0.586  0.00  0.00     0.000 A 
ATOM      4  C4  BNZ d   1       0.409  -1.138   0.280  0.00  0.00     0.000 A 
ATOM      5  C5  BNZ d   1       0.085  -2.480   0.265  0.00  0.00     0.000 A 
ATOM      6  C6  BNZ d   1      -1.199  -2.880   0.557  0.00  0.00     0.000 A 
ENDROOT
TORSDOF 0
ENDMDL
