MODEL 1
REMARK minimizedAffinity -4.20689297
REMARK minimizedRMSD -1
REMARK  0 active torsions:
REMARK  status: ('A' for Active; 'I' for Inactive)
ROOT
ATOM      1  C1  BNZ d   1      -1.238  -0.554   1.277  0.00  0.00     0.000 A 
ATOM      2  C2  BNZ d   1      -1.123  -1.891   1.549  0.00  0.00     0.000 A 
ATOM      3  C3  BNZ d   1      -0.199  -2.660   0.899  0.00  0.00     0.000 A 
ATOM      4  C4  BNZ d   1       0.582  -2.101  -0.048  0.00  0.00     0.000 A 
ATOM      5  C5  BNZ d   1       0.472  -0.756  -0.339  0.00  0.00     0.000 A 
ATOM      6  C6  BNZ d   1      -0.434   0.024   0.344  0.00  0.00     0.000 A 
ENDROOT
TORSDOF 0
ENDMDL
