MODEL 1
REMARK minimizedAffinity -1.78454041
REMARK minimizedRMSD -1
REMARK  0 active torsions:
REMARK  status: ('A' for Active; 'I' for Inactive)
ROOT
ATOM      1  C1  BNZ d   1       2.411   3.125  -0.539  0.00  0.00     0.000 A 
ATOM      2  C2  BNZ d   1       1.828   2.348  -1.505  0.00  0.00     0.000 A 
ATOM      3  C3  BNZ d   1       0.826   1.474  -1.189  0.00  0.00     0.000 A 
ATOM      4  C4  BNZ d   1       0.436   1.348   0.095  0.00  0.00     0.000 A 
ATOM      5  C5  BNZ d   1       1.020   2.117   1.082  0.00  0.00     0.000 A 
ATOM      6  C6  BNZ d   1       2.002   3.024   0.755  0.00  0.00     0.000 A 
ENDROOT
TORSDOF 0
ENDMDL
