MODEL 1
REMARK minimizedAffinity -1.9270829
REMARK minimizedRMSD -1
REMARK  0 active torsions:
REMARK  status: ('A' for Active; 'I' for Inactive)
ROOT
ATOM      1  C1  BNZ d   1       0.839  -0.793  -2.013  0.00  0.00     0.000 A 
ATOM      2  C2  BNZ d   1       0.524   0.538  -1.942  0.00  0.00     0.000 A 
ATOM      3  C3  BNZ d   1       0.225   1.123  -0.743  0.00  0.00     0.000 A 
ATOM      4  C4  BNZ d   1       0.201   0.370   0.375  0.00  0.00     0.000 A 
ATOM      5  C5  BNZ d   1       0.507  -0.975   0.318  0.00  0.00     0.000 A 
ATOM      6  C6  BNZ d   1       0.846  -1.553  -0.884  0.00  0.00     0.000 A 
ENDROOT
TORSDOF 0
ENDMDL
