MODEL 1
REMARK minimizedAffinity -4.29913425
REMARK minimizedRMSD -1
REMARK  0 active torsions:
REMARK  status: ('A' for Active; 'I' for Inactive)
ROOT
ATOM      1  C1  BNZ d   1       2.211   3.403  -0.065  0.00  0.00     0.000 A 
ATOM      2  C2  BNZ d   1       2.461   4.165   1.046  0.00  0.00     0.000 A 
ATOM      3  C3  BNZ d   1       1.961   3.807   2.266  0.00  0.00     0.000 A 
ATOM      4  C4  BNZ d   1       1.180   2.712   2.368  0.00  0.00     0.000 A 
ATOM      5  C5  BNZ d   1       0.911   1.940   1.256  0.00  0.00     0.000 A 
ATOM      6  C6  BNZ d   1       1.448   2.281   0.036  0.00  0.00     0.000 A 
ENDROOT
TORSDOF 0
ENDMDL
