MODEL 1
REMARK minimizedAffinity -5.37504721
REMARK minimizedRMSD -1
REMARK  0 active torsions:
REMARK  status: ('A' for Active; 'I' for Inactive)
ROOT
ATOM      1  C1  BNZ d   1      -0.077  -3.658  -0.760  0.00  0.00     0.000 A 
ATOM      2  C2  BNZ d   1       0.225  -2.930  -1.880  0.00  0.00     0.000 A 
ATOM      3  C3  BNZ d   1       0.603  -1.620  -1.782  0.00  0.00     0.000 A 
ATOM      4  C4  BNZ d   1       0.642  -1.030  -0.570  0.00  0.00     0.000 A 
ATOM      5  C5  BNZ d   1       0.332  -1.748   0.568  0.00  0.00     0.000 A 
ATOM      6  C6  BNZ d   1      -0.012  -3.077   0.469  0.00  0.00     0.000 A 
ENDROOT
TORSDOF 0
ENDMDL
