MODEL 1
REMARK minimizedAffinity -4.24908543
REMARK minimizedRMSD -1
REMARK  0 active torsions:
REMARK  status: ('A' for Active; 'I' for Inactive)
ROOT
ATOM      1  C1  BNZ d   1       0.001  -1.585   0.713  0.00  0.00     0.000 A 
ATOM      2  C2  BNZ d   1       0.156  -0.999  -0.515  0.00  0.00     0.000 A 
ATOM      3  C3  BNZ d   1       0.336  -1.760  -1.636  0.00  0.00     0.000 A 
ATOM      4  C4  BNZ d   1       0.400  -3.103  -1.523  0.00  0.00     0.000 A 
ATOM      5  C5  BNZ d   1       0.255  -3.708  -0.291  0.00  0.00     0.000 A 
ATOM      6  C6  BNZ d   1       0.036  -2.940   0.830  0.00  0.00     0.000 A 
ENDROOT
TORSDOF 0
ENDMDL
