MODEL 1
REMARK minimizedAffinity -4.66017151
REMARK minimizedRMSD -1
REMARK  0 active torsions:
REMARK  status: ('A' for Active; 'I' for Inactive)
ROOT
ATOM      1  C1  BNZ d   1       0.674  -3.170  -1.653  0.00  0.00     0.000 A 
ATOM      2  C2  BNZ d   1       0.522  -3.731  -0.413  0.00  0.00     0.000 A 
ATOM      3  C3  BNZ d   1       0.333  -2.948   0.691  0.00  0.00     0.000 A 
ATOM      4  C4  BNZ d   1       0.337  -1.606   0.560  0.00  0.00     0.000 A 
ATOM      5  C5  BNZ d   1       0.499  -1.025  -0.682  0.00  0.00     0.000 A 
ATOM      6  C6  BNZ d   1       0.649  -1.817  -1.797  0.00  0.00     0.000 A 
ENDROOT
TORSDOF 0
ENDMDL
