MODEL 1
REMARK minimizedAffinity -4.61811399
REMARK minimizedRMSD -1
REMARK  0 active torsions:
REMARK  status: ('A' for Active; 'I' for Inactive)
ROOT
ATOM      1  C1  BNZ d   1       0.930  -1.746  -1.193  0.00  0.00     0.000 A 
ATOM      2  C2  BNZ d   1       0.617  -2.655  -0.218  0.00  0.00     0.000 A 
ATOM      3  C3  BNZ d   1      -0.255  -2.333   0.784  0.00  0.00     0.000 A 
ATOM      4  C4  BNZ d   1      -0.781  -1.092   0.833  0.00  0.00     0.000 A 
ATOM      5  C5  BNZ d   1      -0.467  -0.162  -0.137  0.00  0.00     0.000 A 
ATOM      6  C6  BNZ d   1       0.381  -0.501  -1.166  0.00  0.00     0.000 A 
ENDROOT
TORSDOF 0
ENDMDL
