MODEL 1
REMARK minimizedAffinity -3.49085116
REMARK minimizedRMSD -1
REMARK  0 active torsions:
REMARK  status: ('A' for Active; 'I' for Inactive)
ROOT
ATOM      1  N1  IND d   1       2.409  -1.272  -0.128  0.00  0.00    -0.196 N 
ATOM      2  C2  IND d   1       2.351  -1.107  -1.484  0.00  0.00     0.054 A 
ATOM      3  C3  IND d   1       1.370  -0.236  -1.810  0.00  0.00    -0.031 A 
ATOM      4  C4  IND d   1      -0.195   1.115  -0.275  0.00  0.00     0.051 A 
ATOM      5  C5  IND d   1      -0.543   1.273   1.037  0.00  0.00    -0.031 A 
ATOM      6  C6  IND d   1       0.089   0.580   2.048  0.00  0.00     0.015 A 
ATOM      7  C7  IND d   1       1.106  -0.294   1.785  0.00  0.00    -0.016 A 
ATOM      8  C8  IND d   1       1.458  -0.463   0.453  0.00  0.00    -0.047 A 
ATOM      9  C9  IND d   1       0.791   0.206  -0.581  0.00  0.00    -0.096 A 
ATOM     10  HN1 IND d   1       2.949  -1.794   0.291  0.00  0.00     0.298 HD
ENDROOT
TORSDOF 0
ENDMDL
