MODEL 1
REMARK minimizedAffinity -3.5591979
REMARK minimizedRMSD -1
REMARK  0 active torsions:
REMARK  status: ('A' for Active; 'I' for Inactive)
ROOT
ATOM      1  N1  IND d   1       1.733  -0.454  -2.875  0.00  0.00    -0.196 N 
ATOM      2  C2  IND d   1       1.435   0.453  -3.854  0.00  0.00     0.054 A 
ATOM      3  C3  IND d   1       0.423   1.257  -3.457  0.00  0.00    -0.031 A 
ATOM      4  C4  IND d   1      -0.822   1.330  -1.205  0.00  0.00     0.051 A 
ATOM      5  C5  IND d   1      -0.927   0.674  -0.011  0.00  0.00    -0.031 A 
ATOM      6  C6  IND d   1      -0.133  -0.412   0.297  0.00  0.00     0.015 A 
ATOM      7  C7  IND d   1       0.808  -0.877  -0.578  0.00  0.00    -0.016 A 
ATOM      8  C8  IND d   1       0.913  -0.218  -1.794  0.00  0.00    -0.047 A 
ATOM      9  C9  IND d   1       0.080   0.858  -2.129  0.00  0.00    -0.096 A 
ATOM     10  HN1 IND d   1       2.332  -1.069  -2.927  0.00  0.00     0.298 HD
ENDROOT
TORSDOF 0
ENDMDL
