MODEL 1
REMARK minimizedAffinity -6.22314835
REMARK minimizedRMSD -1
REMARK  0 active torsions:
REMARK  status: ('A' for Active; 'I' for Inactive)
ROOT
ATOM      1  N1  IND d   1       0.791  -0.576   0.190  0.00  0.00    -0.196 N 
ATOM      2  C2  IND d   1      -0.325  -0.618  -0.599  0.00  0.00     0.054 A 
ATOM      3  C3  IND d   1      -1.399  -0.154   0.079  0.00  0.00    -0.031 A 
ATOM      4  C4  IND d   1      -1.534   0.822   2.458  0.00  0.00     0.051 A 
ATOM      5  C5  IND d   1      -0.783   1.034   3.580  0.00  0.00    -0.031 A 
ATOM      6  C6  IND d   1       0.559   0.716   3.629  0.00  0.00     0.015 A 
ATOM      7  C7  IND d   1       1.205   0.183   2.550  0.00  0.00    -0.016 A 
ATOM      8  C8  IND d   1       0.444  -0.040   1.411  0.00  0.00    -0.047 A 
ATOM      9  C9  IND d   1      -0.928   0.240   1.369  0.00  0.00    -0.096 A 
ATOM     10  HN1 IND d   1       1.577  -0.839  -0.038  0.00  0.00     0.298 HD
ENDROOT
TORSDOF 0
ENDMDL
