MODEL 1
REMARK minimizedAffinity -2.11431527
REMARK minimizedRMSD -1
REMARK  0 active torsions:
REMARK  status: ('A' for Active; 'I' for Inactive)
ROOT
ATOM      1  N1  IND d   1       0.999   1.098  -2.122  0.00  0.00    -0.196 N 
ATOM      2  C2  IND d   1       1.193  -0.050  -2.839  0.00  0.00     0.054 A 
ATOM      3  C3  IND d   1       0.646  -1.105  -2.196  0.00  0.00    -0.031 A 
ATOM      4  C4  IND d   1      -0.704  -1.164  -0.004  0.00  0.00     0.051 A 
ATOM      5  C5  IND d   1      -1.113  -0.371   1.030  0.00  0.00    -0.031 A 
ATOM      6  C6  IND d   1      -0.836   0.981   1.067  0.00  0.00     0.015 A 
ATOM      7  C7  IND d   1      -0.146   1.594   0.059  0.00  0.00    -0.016 A 
ATOM      8  C8  IND d   1       0.277   0.790  -0.990  0.00  0.00    -0.047 A 
ATOM      9  C9  IND d   1       0.036  -0.590  -1.011  0.00  0.00    -0.096 A 
ATOM     10  HN1 IND d   1       1.280   1.880  -2.341  0.00  0.00     0.298 HD
ENDROOT
TORSDOF 0
ENDMDL
