MODEL 1
REMARK minimizedAffinity -3.53688121
REMARK minimizedRMSD -1
REMARK  0 active torsions:
REMARK  status: ('A' for Active; 'I' for Inactive)
ROOT
ATOM      1  N1  IND d   1      -2.164   0.331   2.220  0.00  0.00    -0.196 N 
ATOM      2  C2  IND d   1      -1.450   1.157   3.043  0.00  0.00     0.054 A 
ATOM      3  C3  IND d   1      -0.288   1.517   2.453  0.00  0.00    -0.031 A 
ATOM      4  C4  IND d   1       0.599   0.952   0.103  0.00  0.00     0.051 A 
ATOM      5  C5  IND d   1       0.316   0.199  -1.002  0.00  0.00    -0.031 A 
ATOM      6  C6  IND d   1      -0.832  -0.561  -1.093  0.00  0.00     0.015 A 
ATOM      7  C7  IND d   1      -1.750  -0.589  -0.081  0.00  0.00    -0.016 A 
ATOM      8  C8  IND d   1      -1.463   0.169   1.046  0.00  0.00    -0.047 A 
ATOM      9  C9  IND d   1      -0.279   0.909   1.161  0.00  0.00    -0.096 A 
ATOM     10  HN1 IND d   1      -2.923  -0.028   2.406  0.00  0.00     0.298 HD
ENDROOT
TORSDOF 0
ENDMDL
