MODEL 1
REMARK minimizedAffinity -5.03633261
REMARK minimizedRMSD -1
REMARK  0 active torsions:
REMARK  status: ('A' for Active; 'I' for Inactive)
ROOT
ATOM      1  N1  IND d   1      -1.271   1.746  -0.921  0.00  0.00    -0.196 N 
ATOM      2  C2  IND d   1      -1.385   0.933   0.173  0.00  0.00     0.054 A 
ATOM      3  C3  IND d   1      -0.649  -0.188   0.004  0.00  0.00    -0.031 A 
ATOM      4  C4  IND d   1       0.899  -0.850  -1.943  0.00  0.00     0.051 A 
ATOM      5  C5  IND d   1       1.300  -0.447  -3.186  0.00  0.00    -0.031 A 
ATOM      6  C6  IND d   1       0.858   0.734  -3.747  0.00  0.00     0.015 A 
ATOM      7  C7  IND d   1       0.003   1.564  -3.079  0.00  0.00    -0.016 A 
ATOM      8  C8  IND d   1      -0.412   1.154  -1.820  0.00  0.00    -0.047 A 
ATOM      9  C9  IND d   1       0.000  -0.064  -1.263  0.00  0.00    -0.096 A 
ATOM     10  HN1 IND d   1      -1.669   2.501  -1.028  0.00  0.00     0.298 HD
ENDROOT
TORSDOF 0
ENDMDL
