MODEL 1
REMARK minimizedAffinity -0.106699951
REMARK minimizedRMSD -1
REMARK  0 active torsions:
REMARK  status: ('A' for Active; 'I' for Inactive)
ROOT
ATOM      1  N1  IND d   1       1.738  -0.629   2.113  0.00  0.00    -0.196 N 
ATOM      2  C2  IND d   1       1.543  -0.469   3.457  0.00  0.00     0.054 A 
ATOM      3  C3  IND d   1       0.334   0.089   3.693  0.00  0.00    -0.031 A 
ATOM      4  C4  IND d   1      -1.526   0.726   2.032  0.00  0.00     0.051 A 
ATOM      5  C5  IND d   1      -1.797   0.800   0.695  0.00  0.00    -0.031 A 
ATOM      6  C6  IND d   1      -0.886   0.390  -0.258  0.00  0.00     0.015 A 
ATOM      7  C7  IND d   1       0.330  -0.121   0.094  0.00  0.00    -0.016 A 
ATOM      8  C8  IND d   1       0.612  -0.191   1.451  0.00  0.00    -0.047 A 
ATOM      9  C9  IND d   1      -0.292   0.262   2.421  0.00  0.00    -0.096 A 
ATOM     10  HN1 IND d   1       2.445  -0.950   1.744  0.00  0.00     0.298 HD
ENDROOT
TORSDOF 0
ENDMDL
