MODEL 1
REMARK minimizedAffinity -5.36499596
REMARK minimizedRMSD -1
REMARK  0 active torsions:
REMARK  status: ('A' for Active; 'I' for Inactive)
ROOT
ATOM      1  N1  IND d   1       0.709  -0.694   0.448  0.00  0.00    -0.196 N 
ATOM      2  C2  IND d   1       0.026  -0.102  -0.577  0.00  0.00     0.054 A 
ATOM      3  C3  IND d   1      -0.914   0.739  -0.092  0.00  0.00    -0.031 A 
ATOM      4  C4  IND d   1      -1.438   1.374   2.347  0.00  0.00     0.051 A 
ATOM      5  C5  IND d   1      -1.104   1.066   3.636  0.00  0.00    -0.031 A 
ATOM      6  C6  IND d   1      -0.126   0.139   3.934  0.00  0.00     0.015 A 
ATOM      7  C7  IND d   1       0.564  -0.510   2.950  0.00  0.00    -0.016 A 
ATOM      8  C8  IND d   1       0.223  -0.205   1.640  0.00  0.00    -0.047 A 
ATOM      9  C9  IND d   1      -0.798   0.704   1.332  0.00  0.00    -0.096 A 
ATOM     10  HN1 IND d   1       1.338  -1.275   0.363  0.00  0.00     0.298 HD
ENDROOT
TORSDOF 0
ENDMDL
