MODEL 1
REMARK minimizedAffinity -4.66700554
REMARK minimizedRMSD -1
REMARK  0 active torsions:
REMARK  status: ('A' for Active; 'I' for Inactive)
ROOT
ATOM      1  N1  IND d   1       0.745  -0.471   0.112  0.00  0.00    -0.196 N 
ATOM      2  C2  IND d   1      -0.449  -0.270  -0.522  0.00  0.00     0.054 A 
ATOM      3  C3  IND d   1      -1.368   0.209   0.346  0.00  0.00    -0.031 A 
ATOM      4  C4  IND d   1      -1.102   0.833   2.830  0.00  0.00     0.051 A 
ATOM      5  C5  IND d   1      -0.207   0.790   3.861  0.00  0.00    -0.031 A 
ATOM      6  C6  IND d   1       1.079   0.318   3.692  0.00  0.00     0.015 A 
ATOM      7  C7  IND d   1       1.522  -0.121   2.476  0.00  0.00    -0.016 A 
ATOM      8  C8  IND d   1       0.613  -0.086   1.428  0.00  0.00    -0.047 A 
ATOM      9  C9  IND d   1      -0.706   0.353   1.604  0.00  0.00    -0.096 A 
ATOM     10  HN1 IND d   1       1.458  -0.786  -0.250  0.00  0.00     0.298 HD
ENDROOT
TORSDOF 0
ENDMDL
