MODEL 1
REMARK minimizedAffinity 2.86710787
REMARK minimizedRMSD -1
REMARK  0 active torsions:
REMARK  status: ('A' for Active; 'I' for Inactive)
ROOT
ATOM      1  C   UNL d   1      -1.975   0.501   1.660  0.00  0.00     0.078 C 
ATOM      2  C1  UNL d   1      -0.758  -0.282   2.052  0.00  0.00    -0.077 A 
ATOM      3  C2  UNL d   1      -0.115  -0.050   3.274  0.00  0.00    -0.001 A 
ATOM      4  C3  UNL d   1       1.023  -0.780   3.622  0.00  0.00     0.003 A 
ATOM      5  C4  UNL d   1       1.529  -1.745   2.753  0.00  0.00    -0.005 A 
ATOM      6  C5  UNL d   1       0.897  -1.981   1.534  0.00  0.00     0.003 A 
ATOM      7  C6  UNL d   1      -0.242  -1.252   1.184  0.00  0.00    -0.001 A 
ENDROOT
TORSDOF 0
ENDMDL
