MODEL 1
REMARK minimizedAffinity 1.21125901
REMARK minimizedRMSD -1
REMARK  0 active torsions:
REMARK  status: ('A' for Active; 'I' for Inactive)
ROOT
ATOM      1  C   UNL d   1      -0.753  -1.677  -2.300  0.00  0.00     0.078 C 
ATOM      2  C1  UNL d   1      -0.413  -0.999  -3.594  0.00  0.00    -0.077 A 
ATOM      3  C2  UNL d   1      -0.420  -1.706  -4.802  0.00  0.00    -0.001 A 
ATOM      4  C3  UNL d   1      -0.091  -1.064  -5.997  0.00  0.00     0.003 A 
ATOM      5  C4  UNL d   1       0.247   0.288  -5.995  0.00  0.00    -0.005 A 
ATOM      6  C5  UNL d   1       0.259   0.999  -4.797  0.00  0.00     0.003 A 
ATOM      7  C6  UNL d   1      -0.069   0.359  -3.601  0.00  0.00    -0.001 A 
ENDROOT
TORSDOF 0
ENDMDL
