MODEL 1
REMARK minimizedAffinity -0.985841751
REMARK minimizedRMSD -1
REMARK  0 active torsions:
REMARK  status: ('A' for Active; 'I' for Inactive)
ROOT
ATOM      1  C   UNL d   1      -0.432  -1.904  -1.887  0.00  0.00     0.078 C 
ATOM      2  C1  UNL d   1      -0.493  -1.477  -3.323  0.00  0.00    -0.077 A 
ATOM      3  C2  UNL d   1      -0.200  -2.375  -4.356  0.00  0.00    -0.001 A 
ATOM      4  C3  UNL d   1      -0.252  -1.961  -5.688  0.00  0.00     0.003 A 
ATOM      5  C4  UNL d   1      -0.595  -0.647  -5.999  0.00  0.00    -0.005 A 
ATOM      6  C5  UNL d   1      -0.886   0.255  -4.978  0.00  0.00     0.003 A 
ATOM      7  C6  UNL d   1      -0.835  -0.157  -3.645  0.00  0.00    -0.001 A 
ENDROOT
TORSDOF 0
ENDMDL
