MODEL 1
REMARK minimizedAffinity -2.58931446
REMARK minimizedRMSD -1
REMARK  0 active torsions:
REMARK  status: ('A' for Active; 'I' for Inactive)
ROOT
ATOM      1  C   UNL d   1      -0.693  -2.069  -4.927  0.00  0.00     0.078 C 
ATOM      2  C1  UNL d   1       0.061  -2.424  -3.681  0.00  0.00    -0.077 A 
ATOM      3  C2  UNL d   1      -0.594  -2.539  -2.449  0.00  0.00    -0.001 A 
ATOM      4  C3  UNL d   1       0.123  -2.860  -1.295  0.00  0.00     0.003 A 
ATOM      5  C4  UNL d   1       1.499  -3.069  -1.362  0.00  0.00    -0.005 A 
ATOM      6  C5  UNL d   1       2.160  -2.955  -2.583  0.00  0.00     0.003 A 
ATOM      7  C6  UNL d   1       1.445  -2.633  -3.738  0.00  0.00    -0.001 A 
ENDROOT
TORSDOF 0
ENDMDL
