MODEL 1
REMARK minimizedAffinity -1.45021462
REMARK minimizedRMSD -1
REMARK  0 active torsions:
REMARK  status: ('A' for Active; 'I' for Inactive)
ROOT
ATOM      1  C   UNL d   1       0.227  -2.190  -4.467  0.00  0.00     0.078 C 
ATOM      2  C1  UNL d   1      -0.925  -1.343  -4.920  0.00  0.00    -0.077 A 
ATOM      3  C2  UNL d   1      -0.944   0.036  -4.679  0.00  0.00    -0.001 A 
ATOM      4  C3  UNL d   1      -2.028   0.810  -5.097  0.00  0.00     0.003 A 
ATOM      5  C4  UNL d   1      -3.100   0.214  -5.758  0.00  0.00    -0.005 A 
ATOM      6  C5  UNL d   1      -3.091  -1.158  -6.000  0.00  0.00     0.003 A 
ATOM      7  C6  UNL d   1      -2.008  -1.934  -5.582  0.00  0.00    -0.001 A 
ENDROOT
TORSDOF 0
ENDMDL
