MODEL 1
REMARK minimizedAffinity -0.734184325
REMARK minimizedRMSD -1
REMARK  0 active torsions:
REMARK  status: ('A' for Active; 'I' for Inactive)
ROOT
ATOM      1  C   UNL d   1      -4.247  -0.743  -5.220  0.00  0.00     0.078 C 
ATOM      2  C1  UNL d   1      -2.771  -0.715  -5.484  0.00  0.00    -0.077 A 
ATOM      3  C2  UNL d   1      -2.061   0.492  -5.488  0.00  0.00    -0.001 A 
ATOM      4  C3  UNL d   1      -0.689   0.503  -5.744  0.00  0.00     0.003 A 
ATOM      5  C4  UNL d   1      -0.016  -0.690  -6.000  0.00  0.00    -0.005 A 
ATOM      6  C5  UNL d   1      -0.714  -1.895  -6.000  0.00  0.00     0.003 A 
ATOM      7  C6  UNL d   1      -2.086  -1.909  -5.743  0.00  0.00    -0.001 A 
ENDROOT
TORSDOF 0
ENDMDL
