MODEL 1
REMARK minimizedAffinity -2.12677646
REMARK minimizedRMSD -1
REMARK  0 active torsions:
REMARK  status: ('A' for Active; 'I' for Inactive)
ROOT
ATOM      1  C   UNL d   1      -3.398   0.037  -4.868  0.00  0.00     0.078 C 
ATOM      2  C1  UNL d   1      -1.950   0.051  -5.257  0.00  0.00    -0.077 A 
ATOM      3  C2  UNL d   1      -1.315   1.242  -5.631  0.00  0.00    -0.001 A 
ATOM      4  C3  UNL d   1       0.031   1.239  -6.000  0.00  0.00     0.003 A 
ATOM      5  C4  UNL d   1       0.754   0.047  -5.999  0.00  0.00    -0.005 A 
ATOM      6  C5  UNL d   1       0.130  -1.143  -5.630  0.00  0.00     0.003 A 
ATOM      7  C6  UNL d   1      -1.216  -1.142  -5.261  0.00  0.00    -0.001 A 
ENDROOT
TORSDOF 0
ENDMDL
