MODEL 1
REMARK minimizedAffinity 0.473255217
REMARK minimizedRMSD -1
REMARK  0 active torsions:
REMARK  status: ('A' for Active; 'I' for Inactive)
ROOT
ATOM      1  C2' OXE d   1       1.894   3.409  -1.526  0.00  0.00     0.078 C 
ATOM      2  C1' OXE d   1       0.410   2.850   0.790  0.00  0.00     0.078 C 
ATOM      3  C1  OXE d   1       0.948   1.683   0.001  0.00  0.00    -0.078 A 
ATOM      4  C2  OXE d   1       1.634   1.965  -1.156  0.00  0.00    -0.078 A 
ATOM      5  C3  OXE d   1       2.198   0.927  -1.892  0.00  0.00     0.003 A 
ATOM      6  C4  OXE d   1       1.944  -0.406  -1.549  0.00  0.00    -0.002 A 
ATOM      7  C5  OXE d   1       1.215  -0.715  -0.396  0.00  0.00    -0.002 A 
ATOM      8  C6  OXE d   1       0.747   0.315   0.412  0.00  0.00     0.003 A 
ENDROOT
TORSDOF 0
ENDMDL
