MODEL 1
REMARK minimizedAffinity 2.47259903
REMARK minimizedRMSD -1
REMARK  0 active torsions:
REMARK  status: ('A' for Active; 'I' for Inactive)
ROOT
ATOM      1  C2' OXE d   1       3.415  -0.817  -0.396  0.00  0.00     0.078 C 
ATOM      2  C1' OXE d   1       1.124  -0.464   1.188  0.00  0.00     0.078 C 
ATOM      3  C1  OXE d   1       1.339   0.489   0.039  0.00  0.00    -0.078 A 
ATOM      4  C2  OXE d   1       2.486   0.338  -0.702  0.00  0.00    -0.078 A 
ATOM      5  C3  OXE d   1       2.705   1.156  -1.807  0.00  0.00     0.003 A 
ATOM      6  C4  OXE d   1       1.846   2.228  -2.077  0.00  0.00    -0.002 A 
ATOM      7  C5  OXE d   1       0.693   2.424  -1.310  0.00  0.00    -0.002 A 
ATOM      8  C6  OXE d   1       0.403   1.540  -0.277  0.00  0.00     0.003 A 
ENDROOT
TORSDOF 0
ENDMDL
