MODEL 1
REMARK minimizedAffinity -4.61739969
REMARK minimizedRMSD -1
REMARK  0 active torsions:
REMARK  status: ('A' for Active; 'I' for Inactive)
ROOT
ATOM      1  C2' OXE d   1       0.931   0.258  -1.282  0.00  0.00     0.078 C 
ATOM      2  C1' OXE d   1       1.586   0.928   1.364  0.00  0.00     0.078 C 
ATOM      3  C1  OXE d   1       1.428   2.053   0.372  0.00  0.00    -0.078 A 
ATOM      4  C2  OXE d   1       1.154   1.713  -0.931  0.00  0.00    -0.078 A 
ATOM      5  C3  OXE d   1       0.945   2.715  -1.875  0.00  0.00     0.003 A 
ATOM      6  C4  OXE d   1       1.163   4.057  -1.545  0.00  0.00    -0.002 A 
ATOM      7  C5  OXE d   1       1.482   4.423  -0.233  0.00  0.00    -0.002 A 
ATOM      8  C6  OXE d   1       1.576   3.438   0.745  0.00  0.00     0.003 A 
ENDROOT
TORSDOF 0
ENDMDL
