MODEL 1
REMARK minimizedAffinity -4.14282608
REMARK minimizedRMSD -1
REMARK  0 active torsions:
REMARK  status: ('A' for Active; 'I' for Inactive)
ROOT
ATOM      1  C2' OXE d   1       0.549   3.931   1.600  0.00  0.00     0.078 C 
ATOM      2  C1' OXE d   1       1.503   4.727  -0.918  0.00  0.00     0.078 C 
ATOM      3  C1  OXE d   1       1.253   3.257  -0.693  0.00  0.00    -0.078 A 
ATOM      4  C2  OXE d   1       0.831   2.871   0.557  0.00  0.00    -0.078 A 
ATOM      5  C3  OXE d   1       0.533   1.533   0.801  0.00  0.00     0.003 A 
ATOM      6  C4  OXE d   1       0.806   0.558  -0.166  0.00  0.00    -0.002 A 
ATOM      7  C5  OXE d   1       1.274   0.925  -1.432  0.00  0.00    -0.002 A 
ATOM      8  C6  OXE d   1       1.462   2.272  -1.725  0.00  0.00     0.003 A 
ENDROOT
TORSDOF 0
ENDMDL
