MODEL 1
REMARK minimizedAffinity -0.427457094
REMARK minimizedRMSD -1
REMARK  0 active torsions:
REMARK  status: ('A' for Active; 'I' for Inactive)
ROOT
ATOM      1  C2' OXE d   1       1.462   3.894  -1.948  0.00  0.00     0.078 C 
ATOM      2  C1' OXE d   1       1.497   3.807   0.858  0.00  0.00     0.078 C 
ATOM      3  C1  OXE d   1       1.335   2.504   0.116  0.00  0.00    -0.078 A 
ATOM      4  C2  OXE d   1       1.272   2.561  -1.256  0.00  0.00    -0.078 A 
ATOM      5  C3  OXE d   1       1.178   1.383  -1.991  0.00  0.00     0.003 A 
ATOM      6  C4  OXE d   1       0.993   0.156  -1.344  0.00  0.00    -0.002 A 
ATOM      7  C5  OXE d   1       1.014   0.080   0.053  0.00  0.00    -0.002 A 
ATOM      8  C6  OXE d   1       1.226   1.236   0.795  0.00  0.00     0.003 A 
ENDROOT
TORSDOF 0
ENDMDL
