MODEL 1
REMARK minimizedAffinity -0.730320752
REMARK minimizedRMSD -1
REMARK  0 active torsions:
REMARK  status: ('A' for Active; 'I' for Inactive)
ROOT
ATOM      1  C2' OXE d   1       1.270   3.424   0.406  0.00  0.00     0.078 C 
ATOM      2  C1' OXE d   1       1.340   0.961   1.750  0.00  0.00     0.078 C 
ATOM      3  C1  OXE d   1       1.270   0.938   0.244  0.00  0.00    -0.078 A 
ATOM      4  C2  OXE d   1       1.189   2.148  -0.403  0.00  0.00    -0.078 A 
ATOM      5  C3  OXE d   1       1.177   2.186  -1.795  0.00  0.00     0.003 A 
ATOM      6  C4  OXE d   1       1.092   1.000  -2.535  0.00  0.00    -0.002 A 
ATOM      7  C5  OXE d   1       1.133  -0.242  -1.894  0.00  0.00    -0.002 A 
ATOM      8  C6  OXE d   1       1.264  -0.291  -0.510  0.00  0.00     0.003 A 
ENDROOT
TORSDOF 0
ENDMDL
