MODEL 1
REMARK minimizedAffinity 0.902865827
REMARK minimizedRMSD -1
REMARK  0 active torsions:
REMARK  status: ('A' for Active; 'I' for Inactive)
ROOT
ATOM      1  C2' OXE d   1       1.969   4.166  -1.890  0.00  0.00     0.078 C 
ATOM      2  C1' OXE d   1       1.605   4.006   0.889  0.00  0.00     0.078 C 
ATOM      3  C1  OXE d   1       1.465   2.737   0.087  0.00  0.00    -0.078 A 
ATOM      4  C2  OXE d   1       1.598   2.832  -1.277  0.00  0.00    -0.078 A 
ATOM      5  C3  OXE d   1       1.533   1.682  -2.059  0.00  0.00     0.003 A 
ATOM      6  C4  OXE d   1       1.180   0.455  -1.485  0.00  0.00    -0.002 A 
ATOM      7  C5  OXE d   1       1.000   0.343  -0.103  0.00  0.00    -0.002 A 
ATOM      8  C6  OXE d   1       1.181   1.463   0.701  0.00  0.00     0.003 A 
ENDROOT
TORSDOF 0
ENDMDL
