MODEL 1
REMARK minimizedAffinity -1.94532704
REMARK minimizedRMSD -1
REMARK  0 active torsions:
REMARK  status: ('A' for Active; 'I' for Inactive)
ROOT
ATOM      1  C2' OXE d   1       2.119   5.273  -0.912  0.00  0.00     0.078 C 
ATOM      2  C1' OXE d   1       1.538   4.289   1.652  0.00  0.00     0.078 C 
ATOM      3  C1  OXE d   1       1.393   3.343   0.486  0.00  0.00    -0.078 A 
ATOM      4  C2  OXE d   1       1.634   3.847  -0.770  0.00  0.00    -0.078 A 
ATOM      5  C3  OXE d   1       1.568   3.003  -1.875  0.00  0.00     0.003 A 
ATOM      6  C4  OXE d   1       1.109   1.688  -1.737  0.00  0.00    -0.002 A 
ATOM      7  C5  OXE d   1       0.820   1.167  -0.471  0.00  0.00    -0.002 A 
ATOM      8  C6  OXE d   1       0.997   1.967   0.652  0.00  0.00     0.003 A 
ENDROOT
TORSDOF 0
ENDMDL
