MODEL 1
REMARK minimizedAffinity 7.24682236
REMARK minimizedRMSD -1
REMARK  0 active torsions:
REMARK  status: ('A' for Active; 'I' for Inactive)
ROOT
ATOM      1  C2' OXE d   1       1.035   5.103  -0.967  0.00  0.00     0.078 C 
ATOM      2  C1' OXE d   1       1.010   3.528   1.357  0.00  0.00     0.078 C 
ATOM      3  C1  OXE d   1       1.058   2.818   0.026  0.00  0.00    -0.078 A 
ATOM      4  C2  OXE d   1       1.023   3.596  -1.106  0.00  0.00    -0.078 A 
ATOM      5  C3  OXE d   1       1.121   2.995  -2.358  0.00  0.00     0.003 A 
ATOM      6  C4  OXE d   1       1.099   1.600  -2.478  0.00  0.00    -0.002 A 
ATOM      7  C5  OXE d   1       1.095   0.789  -1.338  0.00  0.00    -0.002 A 
ATOM      8  C6  OXE d   1       1.117   1.381  -0.081  0.00  0.00     0.003 A 
ENDROOT
TORSDOF 0
ENDMDL
