MODEL 1
REMARK minimizedAffinity -1.83061731
REMARK minimizedRMSD -1
REMARK  0 active torsions:
REMARK  status: ('A' for Active; 'I' for Inactive)
ROOT
ATOM      1  C2' OXE d   1       1.414   4.341  -0.834  0.00  0.00     0.078 C 
ATOM      2  C1' OXE d   1       1.115   2.628  -3.037  0.00  0.00     0.078 C 
ATOM      3  C1  OXE d   1       1.217   2.003  -1.668  0.00  0.00    -0.078 A 
ATOM      4  C2  OXE d   1       1.410   2.846  -0.601  0.00  0.00    -0.078 A 
ATOM      5  C3  OXE d   1       1.456   2.326   0.690  0.00  0.00     0.003 A 
ATOM      6  C4  OXE d   1       1.461   0.941   0.896  0.00  0.00    -0.002 A 
ATOM      7  C5  OXE d   1       1.305   0.062  -0.182  0.00  0.00    -0.002 A 
ATOM      8  C6  OXE d   1       1.139   0.577  -1.463  0.00  0.00     0.003 A 
ENDROOT
TORSDOF 0
ENDMDL
