MODEL 1
REMARK minimizedAffinity -1.88045454
REMARK minimizedRMSD -1
REMARK  0 active torsions:
REMARK  status: ('A' for Active; 'I' for Inactive)
ROOT
ATOM      1  C2' OXE d   1       1.748   5.180  -1.328  0.00  0.00     0.078 C 
ATOM      2  C1' OXE d   1       1.258   4.276   1.284  0.00  0.00     0.078 C 
ATOM      3  C1  OXE d   1       1.158   3.273   0.161  0.00  0.00    -0.078 A 
ATOM      4  C2  OXE d   1       1.353   3.734  -1.118  0.00  0.00    -0.078 A 
ATOM      5  C3  OXE d   1       1.326   2.841  -2.185  0.00  0.00     0.003 A 
ATOM      6  C4  OXE d   1       0.950   1.507  -1.983  0.00  0.00    -0.002 A 
ATOM      7  C5  OXE d   1       0.708   1.025  -0.692  0.00  0.00    -0.002 A 
ATOM      8  C6  OXE d   1       0.849   1.884   0.393  0.00  0.00     0.003 A 
ENDROOT
TORSDOF 0
ENDMDL
