MODEL 1
REMARK minimizedAffinity 4.68108606
REMARK minimizedRMSD -1
REMARK  0 active torsions:
REMARK  status: ('A' for Active; 'I' for Inactive)
ROOT
ATOM      1  C2' OXE d   1       1.853   3.842  -1.205  0.00  0.00     0.078 C 
ATOM      2  C1' OXE d   1       0.724   2.254  -3.226  0.00  0.00     0.078 C 
ATOM      3  C1  OXE d   1       1.056   1.591  -1.913  0.00  0.00    -0.078 A 
ATOM      4  C2  OXE d   1       1.651   2.365  -0.946  0.00  0.00    -0.078 A 
ATOM      5  C3  OXE d   1       1.927   1.816   0.303  0.00  0.00     0.003 A 
ATOM      6  C4  OXE d   1       1.745   0.447   0.532  0.00  0.00    -0.002 A 
ATOM      7  C5  OXE d   1       1.177  -0.368  -0.453  0.00  0.00    -0.002 A 
ATOM      8  C6  OXE d   1       0.788   0.196  -1.663  0.00  0.00     0.003 A 
ENDROOT
TORSDOF 0
ENDMDL
