MODEL 1
REMARK minimizedAffinity 3.83724046
REMARK minimizedRMSD -1
REMARK  0 active torsions:
REMARK  status: ('A' for Active; 'I' for Inactive)
ROOT
ATOM      1  C2' OXE d   1       1.524   4.985  -1.301  0.00  0.00     0.078 C 
ATOM      2  C1' OXE d   1       1.637   2.190  -1.544  0.00  0.00     0.078 C 
ATOM      3  C1  OXE d   1       1.714   2.780  -0.157  0.00  0.00    -0.078 A 
ATOM      4  C2  OXE d   1       1.705   4.150  -0.051  0.00  0.00    -0.078 A 
ATOM      5  C3  OXE d   1       1.718   4.744   1.207  0.00  0.00     0.003 A 
ATOM      6  C4  OXE d   1       1.896   3.965   2.357  0.00  0.00    -0.002 A 
ATOM      7  C5  OXE d   1       1.948   2.570   2.268  0.00  0.00    -0.002 A 
ATOM      8  C6  OXE d   1       1.816   1.961   1.025  0.00  0.00     0.003 A 
ENDROOT
TORSDOF 0
ENDMDL
