MODEL 1
REMARK minimizedAffinity -2.49187756
REMARK minimizedRMSD -1
REMARK  0 active torsions:
REMARK  status: ('A' for Active; 'I' for Inactive)
ROOT
ATOM      1  C2' OXE d   1       1.440   3.614  -1.667  0.00  0.00     0.078 C 
ATOM      2  C1' OXE d   1       1.215   3.335   1.117  0.00  0.00     0.078 C 
ATOM      3  C1  OXE d   1       1.118   2.087   0.275  0.00  0.00    -0.078 A 
ATOM      4  C2  OXE d   1       1.183   2.239  -1.090  0.00  0.00    -0.078 A 
ATOM      5  C3  OXE d   1       1.154   1.115  -1.910  0.00  0.00     0.003 A 
ATOM      6  C4  OXE d   1       0.905  -0.152  -1.369  0.00  0.00    -0.002 A 
ATOM      7  C5  OXE d   1       0.797  -0.323   0.016  0.00  0.00    -0.002 A 
ATOM      8  C6  OXE d   1       0.943   0.778   0.852  0.00  0.00     0.003 A 
ENDROOT
TORSDOF 0
ENDMDL
