MODEL 1
REMARK minimizedAffinity 7.63177299
REMARK minimizedRMSD -1
REMARK  0 active torsions:
REMARK  status: ('A' for Active; 'I' for Inactive)
ROOT
ATOM      1  C2' OXE d   1       1.806   5.284  -0.947  0.00  0.00     0.078 C 
ATOM      2  C1' OXE d   1       1.212   3.550   1.179  0.00  0.00     0.078 C 
ATOM      3  C1  OXE d   1       1.219   2.976  -0.216  0.00  0.00    -0.078 A 
ATOM      4  C2  OXE d   1       1.465   3.842  -1.255  0.00  0.00    -0.078 A 
ATOM      5  C3  OXE d   1       1.537   3.355  -2.557  0.00  0.00     0.003 A 
ATOM      6  C4  OXE d   1       1.210   2.022  -2.834  0.00  0.00    -0.002 A 
ATOM      7  C5  OXE d   1       0.918   1.132  -1.794  0.00  0.00    -0.002 A 
ATOM      8  C6  OXE d   1       0.960   1.582  -0.480  0.00  0.00     0.003 A 
ENDROOT
TORSDOF 0
ENDMDL
