MODEL 1
REMARK minimizedAffinity 3.91265249
REMARK minimizedRMSD -1
REMARK  0 active torsions:
REMARK  status: ('A' for Active; 'I' for Inactive)
ROOT
ATOM      1  C2' OXE d   1       0.881   1.448  -1.346  0.00  0.00     0.078 C 
ATOM      2  C1' OXE d   1       2.172   0.508   0.963  0.00  0.00     0.078 C 
ATOM      3  C1  OXE d   1       1.536  -0.509   0.049  0.00  0.00    -0.078 A 
ATOM      4  C2  OXE d   1       0.866  -0.037  -1.054  0.00  0.00    -0.078 A 
ATOM      5  C3  OXE d   1       0.308  -0.936  -1.959  0.00  0.00     0.003 A 
ATOM      6  C4  OXE d   1       0.290  -2.307  -1.676  0.00  0.00    -0.002 A 
ATOM      7  C5  OXE d   1       0.932  -2.806  -0.538  0.00  0.00    -0.002 A 
ATOM      8  C6  OXE d   1       1.595  -1.926   0.311  0.00  0.00     0.003 A 
ENDROOT
TORSDOF 0
ENDMDL
