MODEL 1
REMARK minimizedAffinity -2.50116849
REMARK minimizedRMSD -1
REMARK  0 active torsions:
REMARK  status: ('A' for Active; 'I' for Inactive)
ROOT
ATOM      1  C2' OXE d   1       1.863   5.751  -1.149  0.00  0.00     0.078 C 
ATOM      2  C1' OXE d   1       1.514   4.742   1.448  0.00  0.00     0.078 C 
ATOM      3  C1  OXE d   1       1.394   3.776   0.295  0.00  0.00    -0.078 A 
ATOM      4  C2  OXE d   1       1.520   4.287  -0.974  0.00  0.00    -0.078 A 
ATOM      5  C3  OXE d   1       1.472   3.431  -2.070  0.00  0.00     0.003 A 
ATOM      6  C4  OXE d   1       1.144   2.080  -1.900  0.00  0.00    -0.002 A 
ATOM      7  C5  OXE d   1       0.973   1.547  -0.618  0.00  0.00    -0.002 A 
ATOM      8  C6  OXE d   1       1.136   2.370   0.490  0.00  0.00     0.003 A 
ENDROOT
TORSDOF 0
ENDMDL
