MODEL 1
REMARK minimizedAffinity -1.57563984
REMARK minimizedRMSD -1
REMARK  0 active torsions:
REMARK  status: ('A' for Active; 'I' for Inactive)
ROOT
ATOM      1  C2' OXE d   1       1.885   5.781  -0.657  0.00  0.00     0.078 C 
ATOM      2  C1' OXE d   1       1.584   4.477   1.811  0.00  0.00     0.078 C 
ATOM      3  C1  OXE d   1       1.633   3.626   0.567  0.00  0.00    -0.078 A 
ATOM      4  C2  OXE d   1       1.733   4.275  -0.640  0.00  0.00    -0.078 A 
ATOM      5  C3  OXE d   1       1.837   3.535  -1.814  0.00  0.00     0.003 A 
ATOM      6  C4  OXE d   1       1.685   2.144  -1.791  0.00  0.00    -0.002 A 
ATOM      7  C5  OXE d   1       1.542   1.465  -0.576  0.00  0.00    -0.002 A 
ATOM      8  C6  OXE d   1       1.556   2.187   0.613  0.00  0.00     0.003 A 
ENDROOT
TORSDOF 0
ENDMDL
