MODEL 1
REMARK minimizedAffinity -1.67061746
REMARK minimizedRMSD -1
REMARK  0 active torsions:
REMARK  status: ('A' for Active; 'I' for Inactive)
ROOT
ATOM      1  C2' OXE d   1       1.103   3.956   1.074  0.00  0.00     0.078 C 
ATOM      2  C1' OXE d   1       1.525   4.086  -1.698  0.00  0.00     0.078 C 
ATOM      3  C1  OXE d   1       1.451   2.721  -1.061  0.00  0.00    -0.078 A 
ATOM      4  C2  OXE d   1       1.291   2.667   0.303  0.00  0.00    -0.078 A 
ATOM      5  C3  OXE d   1       1.162   1.433   0.934  0.00  0.00     0.003 A 
ATOM      6  C4  OXE d   1       1.347   0.246   0.214  0.00  0.00    -0.002 A 
ATOM      7  C5  OXE d   1       1.551   0.279  -1.169  0.00  0.00    -0.002 A 
ATOM      8  C6  OXE d   1       1.563   1.504  -1.827  0.00  0.00     0.003 A 
ENDROOT
TORSDOF 0
ENDMDL
