MODEL 1
REMARK minimizedAffinity -3.29980493
REMARK minimizedRMSD -1
REMARK  0 active torsions:
REMARK  status: ('A' for Active; 'I' for Inactive)
ROOT
ATOM      1  N1  IND d   1       2.537   0.548  -1.106  0.00  0.00    -0.196 N 
ATOM      2  C2  IND d   1       1.400  -0.001  -0.582  0.00  0.00     0.054 A 
ATOM      3  C3  IND d   1       0.410   0.002  -1.502  0.00  0.00    -0.031 A 
ATOM      4  C4  IND d   1       0.463   0.767  -3.960  0.00  0.00     0.051 A 
ATOM      5  C5  IND d   1       1.269   1.374  -4.882  0.00  0.00    -0.031 A 
ATOM      6  C6  IND d   1       2.566   1.742  -4.587  0.00  0.00     0.015 A 
ATOM      7  C7  IND d   1       3.111   1.505  -3.357  0.00  0.00    -0.016 A 
ATOM      8  C8  IND d   1       2.294   0.895  -2.416  0.00  0.00    -0.047 A 
ATOM      9  C9  IND d   1       0.963   0.558  -2.696  0.00  0.00    -0.096 A 
ATOM     10  HN1 IND d   1       3.280   0.659  -0.686  0.00  0.00     0.298 HD
ENDROOT
TORSDOF 0
ENDMDL
