MODEL 1
REMARK minimizedAffinity 3.78003764
REMARK minimizedRMSD -1
REMARK  0 active torsions:
REMARK  status: ('A' for Active; 'I' for Inactive)
ROOT
ATOM      1  N1  IND d   1       0.055  -3.350  -0.180  0.00  0.00    -0.196 N 
ATOM      2  C2  IND d   1      -0.945  -3.438  -1.108  0.00  0.00     0.054 A 
ATOM      3  C3  IND d   1      -1.137  -2.241  -1.707  0.00  0.00    -0.031 A 
ATOM      4  C4  IND d   1       0.142  -0.029  -1.390  0.00  0.00     0.051 A 
ATOM      5  C5  IND d   1       1.115   0.553  -0.627  0.00  0.00    -0.031 A 
ATOM      6  C6  IND d   1       1.800  -0.151   0.343  0.00  0.00     0.015 A 
ATOM      7  C7  IND d   1       1.544  -1.473   0.578  0.00  0.00    -0.016 A 
ATOM      8  C8  IND d   1       0.552  -2.065  -0.191  0.00  0.00    -0.047 A 
ATOM      9  C9  IND d   1      -0.176  -1.345  -1.147  0.00  0.00    -0.096 A 
ATOM     10  HN1 IND d   1       0.327  -3.989   0.326  0.00  0.00     0.298 HD
ENDROOT
TORSDOF 0
ENDMDL
