MODEL 1
REMARK minimizedAffinity 8.01169682
REMARK minimizedRMSD -1
REMARK  0 active torsions:
REMARK  status: ('A' for Active; 'I' for Inactive)
ROOT
ATOM      1  N1  IND d   1       0.015  -5.255  -2.311  0.00  0.00    -0.196 N 
ATOM      2  C2  IND d   1      -1.072  -5.976  -2.721  0.00  0.00     0.054 A 
ATOM      3  C3  IND d   1      -2.206  -5.267  -2.526  0.00  0.00    -0.031 A 
ATOM      4  C4  IND d   1      -2.504  -2.867  -1.642  0.00  0.00     0.051 A 
ATOM      5  C5  IND d   1      -1.806  -1.822  -1.106  0.00  0.00    -0.031 A 
ATOM      6  C6  IND d   1      -0.436  -1.868  -0.944  0.00  0.00     0.015 A 
ATOM      7  C7  IND d   1       0.290  -2.961  -1.324  0.00  0.00    -0.016 A 
ATOM      8  C8  IND d   1      -0.417  -4.027  -1.862  0.00  0.00    -0.047 A 
ATOM      9  C9  IND d   1      -1.812  -4.003  -1.990  0.00  0.00    -0.096 A 
ATOM     10  HN1 IND d   1       0.832  -5.524  -2.331  0.00  0.00     0.298 HD
ENDROOT
TORSDOF 0
ENDMDL
