MODEL 1
REMARK minimizedAffinity 1.62882686
REMARK minimizedRMSD -1
REMARK  0 active torsions:
REMARK  status: ('A' for Active; 'I' for Inactive)
ROOT
ATOM      1  N1  IND d   1       3.241   1.234   1.951  0.00  0.00    -0.196 N 
ATOM      2  C2  IND d   1       2.315   2.050   2.538  0.00  0.00     0.054 A 
ATOM      3  C3  IND d   1       1.068   1.710   2.140  0.00  0.00    -0.031 A 
ATOM      4  C4  IND d   1       0.308  -0.216   0.610  0.00  0.00     0.051 A 
ATOM      5  C5  IND d   1       0.793  -1.209  -0.194  0.00  0.00    -0.031 A 
ATOM      6  C6  IND d   1       2.147  -1.445  -0.324  0.00  0.00     0.015 A 
ATOM      7  C7  IND d   1       3.069  -0.701   0.356  0.00  0.00    -0.016 A 
ATOM      8  C8  IND d   1       2.580   0.313   1.168  0.00  0.00    -0.047 A 
ATOM      9  C9  IND d   1       1.209   0.585   1.271  0.00  0.00    -0.096 A 
ATOM     10  HN1 IND d   1       4.093   1.286   2.053  0.00  0.00     0.298 HD
ENDROOT
TORSDOF 0
ENDMDL
