MODEL 1
REMARK minimizedAffinity 10.0465879
REMARK minimizedRMSD -1
REMARK  0 active torsions:
REMARK  status: ('A' for Active; 'I' for Inactive)
ROOT
ATOM      1  N1  IND d   1       0.811   1.958   1.602  0.00  0.00    -0.196 N 
ATOM      2  C2  IND d   1       1.925   2.710   1.857  0.00  0.00     0.054 A 
ATOM      3  C3  IND d   1       3.038   2.043   1.479  0.00  0.00    -0.031 A 
ATOM      4  C4  IND d   1       3.262  -0.248   0.327  0.00  0.00     0.051 A 
ATOM      5  C5  IND d   1       2.526  -1.327  -0.077  0.00  0.00    -0.031 A 
ATOM      6  C6  IND d   1       1.153  -1.365   0.058  0.00  0.00     0.015 A 
ATOM      7  C7  IND d   1       0.461  -0.317   0.594  0.00  0.00    -0.016 A 
ATOM      8  C8  IND d   1       1.205   0.777   1.012  0.00  0.00    -0.047 A 
ATOM      9  C9  IND d   1       2.602   0.804   0.917  0.00  0.00    -0.096 A 
ATOM     10  HN1 IND d   1       0.001   2.185   1.780  0.00  0.00     0.298 HD
ENDROOT
TORSDOF 0
ENDMDL
