MODEL 1
REMARK minimizedAffinity 2.68385434
REMARK minimizedRMSD -1
REMARK  0 active torsions:
REMARK  status: ('A' for Active; 'I' for Inactive)
ROOT
ATOM      1  N1  IND d   1       3.003   3.135  -3.037  0.00  0.00    -0.196 N 
ATOM      2  C2  IND d   1       2.769   2.139  -3.944  0.00  0.00     0.054 A 
ATOM      3  C3  IND d   1       2.169   1.087  -3.343  0.00  0.00    -0.031 A 
ATOM      4  C4  IND d   1       1.387   0.825  -0.904  0.00  0.00     0.051 A 
ATOM      5  C5  IND d   1       1.414   1.454   0.309  0.00  0.00    -0.031 A 
ATOM      6  C6  IND d   1       1.981   2.701   0.472  0.00  0.00     0.015 A 
ATOM      7  C7  IND d   1       2.535   3.374  -0.580  0.00  0.00    -0.016 A 
ATOM      8  C8  IND d   1       2.515   2.736  -1.812  0.00  0.00    -0.047 A 
ATOM      9  C9  IND d   1       1.979   1.452  -1.975  0.00  0.00    -0.096 A 
ATOM     10  HN1 IND d   1       3.390   3.885  -3.204  0.00  0.00     0.298 HD
ENDROOT
TORSDOF 0
ENDMDL
