MODEL 1
REMARK minimizedAffinity 3.51628327
REMARK minimizedRMSD -1
REMARK  0 active torsions:
REMARK  status: ('A' for Active; 'I' for Inactive)
ROOT
ATOM      1  N1  IND d   1       1.862  -0.494  -0.393  0.00  0.00    -0.196 N 
ATOM      2  C2  IND d   1       0.671  -1.150  -0.256  0.00  0.00     0.054 A 
ATOM      3  C3  IND d   1       0.083  -0.819   0.916  0.00  0.00    -0.031 A 
ATOM      4  C4  IND d   1       0.849   0.856   2.714  0.00  0.00     0.051 A 
ATOM      5  C5  IND d   1       1.892   1.672   3.051  0.00  0.00    -0.031 A 
ATOM      6  C6  IND d   1       3.000   1.813   2.240  0.00  0.00     0.015 A 
ATOM      7  C7  IND d   1       3.101   1.149   1.050  0.00  0.00    -0.016 A 
ATOM      8  C8  IND d   1       2.047   0.314   0.708  0.00  0.00    -0.047 A 
ATOM      9  C9  IND d   1       0.940   0.134   1.548  0.00  0.00    -0.096 A 
ATOM     10  HN1 IND d   1       2.405  -0.572  -1.055  0.00  0.00     0.298 HD
ENDROOT
TORSDOF 0
ENDMDL
