MODEL 1
REMARK minimizedAffinity 5.22806501
REMARK minimizedRMSD -1
REMARK  0 active torsions:
REMARK  status: ('A' for Active; 'I' for Inactive)
ROOT
ATOM      1  N1  IND d   1       1.431  -1.016  -0.527  0.00  0.00    -0.196 N 
ATOM      2  C2  IND d   1       0.213  -1.415  -0.054  0.00  0.00     0.054 A 
ATOM      3  C3  IND d   1      -0.210  -0.580   0.922  0.00  0.00    -0.031 A 
ATOM      4  C4  IND d   1       0.889   1.563   1.831  0.00  0.00     0.051 A 
ATOM      5  C5  IND d   1       2.028   2.313   1.736  0.00  0.00    -0.031 A 
ATOM      6  C6  IND d   1       3.045   1.987   0.862  0.00  0.00     0.015 A 
ATOM      7  C7  IND d   1       2.956   0.900   0.039  0.00  0.00    -0.016 A 
ATOM      8  C8  IND d   1       1.805   0.132   0.138  0.00  0.00    -0.047 A 
ATOM      9  C9  IND d   1       0.788   0.433   1.053  0.00  0.00    -0.096 A 
ATOM     10  HN1 IND d   1       1.888  -1.414  -1.137  0.00  0.00     0.298 HD
ENDROOT
TORSDOF 0
ENDMDL
