MODEL 1
REMARK minimizedAffinity 1.56010747
REMARK minimizedRMSD -1
REMARK  0 active torsions:
REMARK  status: ('A' for Active; 'I' for Inactive)
ROOT
ATOM      1  N1  IND d   1       0.169  -4.712  -2.227  0.00  0.00    -0.196 N 
ATOM      2  C2  IND d   1      -0.703  -5.334  -3.076  0.00  0.00     0.054 A 
ATOM      3  C3  IND d   1      -1.809  -4.577  -3.252  0.00  0.00    -0.031 A 
ATOM      4  C4  IND d   1      -2.355  -2.239  -2.323  0.00  0.00     0.051 A 
ATOM      5  C5  IND d   1      -1.881  -1.280  -1.471  0.00  0.00    -0.031 A 
ATOM      6  C6  IND d   1      -0.674  -1.419  -0.817  0.00  0.00     0.015 A 
ATOM      7  C7  IND d   1       0.113  -2.520  -0.999  0.00  0.00    -0.016 A 
ATOM      8  C8  IND d   1      -0.368  -3.498  -1.858  0.00  0.00    -0.047 A 
ATOM      9  C9  IND d   1      -1.612  -3.383  -2.492  0.00  0.00    -0.096 A 
ATOM     10  HN1 IND d   1       0.926  -5.026  -1.967  0.00  0.00     0.298 HD
ENDROOT
TORSDOF 0
ENDMDL
