MODEL 1
REMARK minimizedAffinity 11.2698269
REMARK minimizedRMSD -1
REMARK  0 active torsions:
REMARK  status: ('A' for Active; 'I' for Inactive)
ROOT
ATOM      1  N1  IND d   1      -1.984  -3.185  -6.000  0.00  0.00    -0.196 N 
ATOM      2  C2  IND d   1      -3.001  -4.048  -5.698  0.00  0.00     0.054 A 
ATOM      3  C3  IND d   1      -2.504  -5.253  -5.338  0.00  0.00    -0.031 A 
ATOM      4  C4  IND d   1      -0.054  -5.999  -5.077  0.00  0.00     0.051 A 
ATOM      5  C5  IND d   1       1.229  -5.572  -5.275  0.00  0.00    -0.031 A 
ATOM      6  C6  IND d   1       1.513  -4.301  -5.731  0.00  0.00     0.015 A 
ATOM      7  C7  IND d   1       0.519  -3.402  -5.997  0.00  0.00    -0.016 A 
ATOM      8  C8  IND d   1      -0.785  -3.834  -5.804  0.00  0.00    -0.047 A 
ATOM      9  C9  IND d   1      -1.080  -5.137  -5.382  0.00  0.00    -0.096 A 
ATOM     10  HN1 IND d   1      -2.078  -2.373  -6.267  0.00  0.00     0.298 HD
ENDROOT
TORSDOF 0
ENDMDL
