MODEL 1
REMARK minimizedAffinity 4.6172471
REMARK minimizedRMSD -1
REMARK  0 active torsions:
REMARK  status: ('A' for Active; 'I' for Inactive)
ROOT
ATOM      1  N1  IND d   1      -0.290  -1.066   0.626  0.00  0.00    -0.196 N 
ATOM      2  C2  IND d   1       0.715  -0.757  -0.248  0.00  0.00     0.054 A 
ATOM      3  C3  IND d   1       1.648   0.010   0.360  0.00  0.00    -0.031 A 
ATOM      4  C4  IND d   1       1.779   0.791   2.809  0.00  0.00     0.051 A 
ATOM      5  C5  IND d   1       1.074   0.790   3.980  0.00  0.00    -0.031 A 
ATOM      6  C6  IND d   1      -0.145   0.154   4.096  0.00  0.00     0.015 A 
ATOM      7  C7  IND d   1      -0.702  -0.517   3.043  0.00  0.00    -0.016 A 
ATOM      8  C8  IND d   1       0.008  -0.511   1.851  0.00  0.00    -0.047 A 
ATOM      9  C9  IND d   1       1.226   0.169   1.716  0.00  0.00    -0.096 A 
ATOM     10  HN1 IND d   1      -0.990  -1.530   0.442  0.00  0.00     0.298 HD
ENDROOT
TORSDOF 0
ENDMDL
