MODEL 1
REMARK minimizedAffinity 16.1885204
REMARK minimizedRMSD -1
REMARK  0 active torsions:
REMARK  status: ('A' for Active; 'I' for Inactive)
ROOT
ATOM      1  C   UNL d   1       1.403   2.069  -2.870  0.00  0.00     0.023 A 
ATOM      2  C1  UNL d   1       1.367   3.283  -3.557  0.00  0.00     0.003 A 
ATOM      3  C2  UNL d   1       2.556   3.932  -3.893  0.00  0.00     0.048 A 
ATOM      4  C3  UNL d   1       3.779   3.362  -3.540  0.00  0.00     0.023 A 
ATOM      5  C4  UNL d   1       3.820   2.147  -2.854  0.00  0.00     0.048 A 
ATOM      6  C5  UNL d   1       2.629   1.502  -2.519  0.00  0.00     0.003 A 
ATOM      7  I   UNL d   1       5.551   4.327  -4.039  0.00  0.00    -0.146 I 
ENDROOT
TORSDOF 0
ENDMDL
