MODEL 1
REMARK minimizedAffinity 3.01266599
REMARK minimizedRMSD -1
REMARK  0 active torsions:
REMARK  status: ('A' for Active; 'I' for Inactive)
ROOT
ATOM      1  C   UNL d   1      -1.709   5.613  -5.652  0.00  0.00     0.023 A 
ATOM      2  C1  UNL d   1      -3.041   5.851  -5.993  0.00  0.00     0.003 A 
ATOM      3  C2  UNL d   1      -4.063   5.498  -5.110  0.00  0.00     0.048 A 
ATOM      4  C3  UNL d   1      -3.746   4.908  -3.886  0.00  0.00     0.023 A 
ATOM      5  C4  UNL d   1      -2.415   4.669  -3.540  0.00  0.00     0.048 A 
ATOM      6  C5  UNL d   1      -1.397   5.023  -4.427  0.00  0.00     0.003 A 
ATOM      7  I   UNL d   1      -5.266   4.383  -2.569  0.00  0.00    -0.146 I 
ENDROOT
TORSDOF 0
ENDMDL
