MODEL 1
REMARK minimizedAffinity 9.77052307
REMARK minimizedRMSD -1
REMARK  0 active torsions:
REMARK  status: ('A' for Active; 'I' for Inactive)
ROOT
ATOM      1  C   UNL d   1      -1.309   0.023   1.962  0.00  0.00     0.023 A 
ATOM      2  C1  UNL d   1      -0.929  -1.264   1.579  0.00  0.00     0.003 A 
ATOM      3  C2  UNL d   1      -1.809  -2.334   1.754  0.00  0.00     0.048 A 
ATOM      4  C3  UNL d   1      -3.067  -2.110   2.312  0.00  0.00     0.023 A 
ATOM      5  C4  UNL d   1      -3.452  -0.825   2.696  0.00  0.00     0.048 A 
ATOM      6  C5  UNL d   1      -2.568   0.242   2.520  0.00  0.00     0.003 A 
ATOM      7  I   UNL d   1      -4.379  -3.701   2.573  0.00  0.00    -0.146 I 
ENDROOT
TORSDOF 0
ENDMDL
