MODEL 1
REMARK minimizedAffinity -1.31615913
REMARK minimizedRMSD -1
REMARK  0 active torsions:
REMARK  status: ('A' for Active; 'I' for Inactive)
ROOT
ATOM      1  C   UNL d   1      -4.866  -1.727   3.160  0.00  0.00     0.023 A 
ATOM      2  C1  UNL d   1      -5.224  -1.696   4.508  0.00  0.00     0.003 A 
ATOM      3  C2  UNL d   1      -4.804  -0.640   5.319  0.00  0.00     0.048 A 
ATOM      4  C3  UNL d   1      -4.027   0.383   4.776  0.00  0.00     0.023 A 
ATOM      5  C4  UNL d   1      -3.667   0.356   3.428  0.00  0.00     0.048 A 
ATOM      6  C5  UNL d   1      -4.088  -0.702   2.621  0.00  0.00     0.003 A 
ATOM      7  I   UNL d   1      -3.401   1.956   5.981  0.00  0.00    -0.146 I 
ENDROOT
TORSDOF 0
ENDMDL
