MODEL 1
REMARK minimizedAffinity 5.2917819
REMARK minimizedRMSD -1
REMARK  0 active torsions:
REMARK  status: ('A' for Active; 'I' for Inactive)
ROOT
ATOM      1  C   UNL d   1      -2.392   0.182   3.536  0.00  0.00     0.023 A 
ATOM      2  C1  UNL d   1      -1.091   0.166   3.033  0.00  0.00     0.003 A 
ATOM      3  C2  UNL d   1      -0.764  -0.672   1.965  0.00  0.00     0.048 A 
ATOM      4  C3  UNL d   1      -1.744  -1.490   1.403  0.00  0.00     0.023 A 
ATOM      5  C4  UNL d   1      -3.047  -1.477   1.902  0.00  0.00     0.048 A 
ATOM      6  C5  UNL d   1      -3.369  -0.638   2.971  0.00  0.00     0.003 A 
ATOM      7  I   UNL d   1      -1.259  -2.738  -0.187  0.00  0.00    -0.146 I 
ENDROOT
TORSDOF 0
ENDMDL
