MODEL 1
REMARK minimizedAffinity 4.48888826
REMARK minimizedRMSD -1
REMARK  0 active torsions:
REMARK  status: ('A' for Active; 'I' for Inactive)
ROOT
ATOM      1  C   UNL d   1      -5.672  -0.311   3.885  0.00  0.00     0.023 A 
ATOM      2  C1  UNL d   1      -4.502  -0.286   3.127  0.00  0.00     0.003 A 
ATOM      3  C2  UNL d   1      -3.285   0.041   3.729  0.00  0.00     0.048 A 
ATOM      4  C3  UNL d   1      -3.246   0.342   5.090  0.00  0.00     0.023 A 
ATOM      5  C4  UNL d   1      -4.415   0.317   5.853  0.00  0.00     0.048 A 
ATOM      6  C5  UNL d   1      -5.629  -0.010   5.247  0.00  0.00     0.003 A 
ATOM      7  I   UNL d   1      -1.437   0.830   5.989  0.00  0.00    -0.146 I 
ENDROOT
TORSDOF 0
ENDMDL
