MODEL 1
REMARK minimizedAffinity 9.3874321
REMARK minimizedRMSD -1
REMARK  0 active torsions:
REMARK  status: ('A' for Active; 'I' for Inactive)
ROOT
ATOM      1  C   UNL d   1      -5.708  -1.893   3.365  0.00  0.00     0.023 A 
ATOM      2  C1  UNL d   1      -4.869  -0.970   2.741  0.00  0.00     0.003 A 
ATOM      3  C2  UNL d   1      -4.229   0.015   3.495  0.00  0.00     0.048 A 
ATOM      4  C3  UNL d   1      -4.430   0.070   4.874  0.00  0.00     0.023 A 
ATOM      5  C4  UNL d   1      -5.267  -0.852   5.503  0.00  0.00     0.048 A 
ATOM      6  C5  UNL d   1      -5.907  -1.835   4.745  0.00  0.00     0.003 A 
ATOM      7  I   UNL d   1      -3.477   1.535   5.999  0.00  0.00    -0.146 I 
ENDROOT
TORSDOF 0
ENDMDL
