MODEL 1
REMARK minimizedAffinity -2.50191307
REMARK minimizedRMSD -1
REMARK  0 active torsions:
REMARK  status: ('A' for Active; 'I' for Inactive)
ROOT
ATOM      1  C   UNL d   1      -4.624  -2.089   3.140  0.00  0.00     0.023 A 
ATOM      2  C1  UNL d   1      -5.098  -1.839   4.427  0.00  0.00     0.003 A 
ATOM      3  C2  UNL d   1      -4.503  -0.849   5.212  0.00  0.00     0.048 A 
ATOM      4  C3  UNL d   1      -3.435  -0.112   4.702  0.00  0.00     0.023 A 
ATOM      5  C4  UNL d   1      -2.958  -0.358   3.414  0.00  0.00     0.048 A 
ATOM      6  C5  UNL d   1      -3.555  -1.350   2.633  0.00  0.00     0.003 A 
ATOM      7  I   UNL d   1      -2.548   1.362   5.868  0.00  0.00    -0.146 I 
ENDROOT
TORSDOF 0
ENDMDL
