MODEL 1
REMARK minimizedAffinity 4.69590998
REMARK minimizedRMSD -1
REMARK  0 active torsions:
REMARK  status: ('A' for Active; 'I' for Inactive)
ROOT
ATOM      1  C   UNL d   1      -1.139  -0.031   2.950  0.00  0.00     0.023 A 
ATOM      2  C1  UNL d   1      -1.694   0.596   4.066  0.00  0.00     0.003 A 
ATOM      3  C2  UNL d   1      -3.065   0.504   4.310  0.00  0.00     0.048 A 
ATOM      4  C3  UNL d   1      -3.876  -0.218   3.435  0.00  0.00     0.023 A 
ATOM      5  C4  UNL d   1      -3.325  -0.848   2.318  0.00  0.00     0.048 A 
ATOM      6  C5  UNL d   1      -1.953  -0.752   2.078  0.00  0.00     0.003 A 
ATOM      7  I   UNL d   1      -5.918  -0.356   3.796  0.00  0.00    -0.146 I 
ENDROOT
TORSDOF 0
ENDMDL
