MODEL 1
REMARK minimizedAffinity 4.31971312
REMARK minimizedRMSD -1
REMARK  0 active torsions:
REMARK  status: ('A' for Active; 'I' for Inactive)
ROOT
ATOM      1  C   UNL d   1      -6.000   5.317  -4.876  0.00  0.00     0.023 A 
ATOM      2  C1  UNL d   1      -5.364   5.915  -5.964  0.00  0.00     0.003 A 
ATOM      3  C2  UNL d   1      -3.970   6.000  -5.999  0.00  0.00     0.048 A 
ATOM      4  C3  UNL d   1      -3.219   5.484  -4.944  0.00  0.00     0.023 A 
ATOM      5  C4  UNL d   1      -3.851   4.884  -3.854  0.00  0.00     0.048 A 
ATOM      6  C5  UNL d   1      -5.245   4.802  -3.822  0.00  0.00     0.003 A 
ATOM      7  I   UNL d   1      -1.145   5.608  -4.994  0.00  0.00    -0.146 I 
ENDROOT
TORSDOF 0
ENDMDL
