MODEL 1
REMARK minimizedAffinity 8.93371964
REMARK minimizedRMSD -1
REMARK  0 active torsions:
REMARK  status: ('A' for Active; 'I' for Inactive)
ROOT
ATOM      1  C   UNL d   1      -3.786   0.435   4.594  0.00  0.00     0.023 A 
ATOM      2  C1  UNL d   1      -3.959  -0.054   3.299  0.00  0.00     0.003 A 
ATOM      3  C2  UNL d   1      -2.848  -0.381   2.520  0.00  0.00     0.048 A 
ATOM      4  C3  UNL d   1      -1.565  -0.219   3.043  0.00  0.00     0.023 A 
ATOM      5  C4  UNL d   1      -1.387   0.269   4.339  0.00  0.00     0.048 A 
ATOM      6  C5  UNL d   1      -2.501   0.596   5.113  0.00  0.00     0.003 A 
ATOM      7  I   UNL d   1       0.091  -0.706   1.886  0.00  0.00    -0.146 I 
ENDROOT
TORSDOF 0
ENDMDL
