MODEL 1
REMARK minimizedAffinity 9.45356083
REMARK minimizedRMSD -1
REMARK  0 active torsions:
REMARK  status: ('A' for Active; 'I' for Inactive)
ROOT
ATOM      1  C   UNL d   1      -2.884  -1.314   2.600  0.00  0.00     0.023 A 
ATOM      2  C1  UNL d   1      -2.364  -0.223   3.295  0.00  0.00     0.003 A 
ATOM      3  C2  UNL d   1      -1.263   0.470   2.788  0.00  0.00     0.048 A 
ATOM      4  C3  UNL d   1      -0.688   0.066   1.583  0.00  0.00     0.023 A 
ATOM      5  C4  UNL d   1      -1.206  -1.025   0.883  0.00  0.00     0.048 A 
ATOM      6  C5  UNL d   1      -2.306  -1.715   1.395  0.00  0.00     0.003 A 
ATOM      7  I   UNL d   1       0.951   1.095   0.825  0.00  0.00    -0.146 I 
ENDROOT
TORSDOF 0
ENDMDL
