MODEL 1
REMARK minimizedAffinity 8.66712093
REMARK minimizedRMSD -1
REMARK  0 active torsions:
REMARK  status: ('A' for Active; 'I' for Inactive)
ROOT
ATOM      1  C   UNL d   1       2.780   2.791  -4.153  0.00  0.00     0.023 A 
ATOM      2  C1  UNL d   1       2.390   2.850  -2.815  0.00  0.00     0.003 A 
ATOM      3  C2  UNL d   1       3.296   3.270  -1.840  0.00  0.00     0.048 A 
ATOM      4  C3  UNL d   1       4.592   3.630  -2.210  0.00  0.00     0.023 A 
ATOM      5  C4  UNL d   1       4.987   3.573  -3.547  0.00  0.00     0.048 A 
ATOM      6  C5  UNL d   1       4.077   3.152  -4.519  0.00  0.00     0.003 A 
ATOM      7  I   UNL d   1       5.944   4.255  -0.760  0.00  0.00    -0.146 I 
ENDROOT
TORSDOF 0
ENDMDL
