MODEL 1
REMARK minimizedAffinity 8.72242928
REMARK minimizedRMSD -1
REMARK  0 active torsions:
REMARK  status: ('A' for Active; 'I' for Inactive)
ROOT
ATOM      1  C   UNL d   1      -1.692   5.560  -5.285  0.00  0.00     0.023 A 
ATOM      2  C1  UNL d   1      -1.776   5.292  -3.919  0.00  0.00     0.003 A 
ATOM      3  C2  UNL d   1      -3.006   5.375  -3.264  0.00  0.00     0.048 A 
ATOM      4  C3  UNL d   1      -4.148   5.728  -3.981  0.00  0.00     0.023 A 
ATOM      5  C4  UNL d   1      -4.070   5.997  -5.348  0.00  0.00     0.048 A 
ATOM      6  C5  UNL d   1      -2.837   5.913  -5.999  0.00  0.00     0.003 A 
ATOM      7  I   UNL d   1      -5.981   5.853  -3.008  0.00  0.00    -0.146 I 
ENDROOT
TORSDOF 0
ENDMDL
