MODEL 1
REMARK minimizedAffinity 6.92933846
REMARK minimizedRMSD -1
REMARK  0 active torsions:
REMARK  status: ('A' for Active; 'I' for Inactive)
ROOT
ATOM      1  C   UNL d   1      -5.553   0.013   2.942  0.00  0.00     0.023 A 
ATOM      2  C1  UNL d   1      -4.785  -1.145   2.825  0.00  0.00     0.003 A 
ATOM      3  C2  UNL d   1      -3.489  -1.181   3.343  0.00  0.00     0.048 A 
ATOM      4  C3  UNL d   1      -2.967  -0.054   3.978  0.00  0.00     0.023 A 
ATOM      5  C4  UNL d   1      -3.732   1.107   4.097  0.00  0.00     0.048 A 
ATOM      6  C5  UNL d   1      -5.027   1.138   3.577  0.00  0.00     0.003 A 
ATOM      7  I   UNL d   1      -1.038  -0.104   4.750  0.00  0.00    -0.146 I 
ENDROOT
TORSDOF 0
ENDMDL
