MODEL 1
REMARK minimizedAffinity 1.17639792
REMARK minimizedRMSD -1
REMARK  0 active torsions:
REMARK  status: ('A' for Active; 'I' for Inactive)
ROOT
ATOM      1  C   UNL d   1       0.153   0.762   2.475  0.00  0.00    -0.002 A 
ATOM      2  C1  UNL d   1       0.153   1.842   1.603  0.00  0.00     0.010 A 
ATOM      3  C2  UNL d   1       0.295   1.644   0.228  0.00  0.00     0.041 A 
ATOM      4  C3  UNL d   1       0.435   0.331  -0.261  0.00  0.00    -0.075 A 
ATOM      5  S   UNL d   1       0.621  -0.152  -1.906  0.00  0.00     0.015 SA
ATOM      6  C4  UNL d   1       0.703  -1.803  -1.490  0.00  0.00     0.022 A 
ATOM      7  C5  UNL d   1       0.593  -1.999  -0.134  0.00  0.00     0.026 A 
ATOM      8  C6  UNL d   1       0.436  -0.773   0.597  0.00  0.00    -0.082 A 
ATOM      9  C7  UNL d   1       0.292  -0.540   1.986  0.00  0.00     0.045 A 
ENDROOT
TORSDOF 0
ENDMDL
