MODEL 1
REMARK minimizedAffinity -0.861231685
REMARK minimizedRMSD -1
REMARK  0 active torsions:
REMARK  status: ('A' for Active; 'I' for Inactive)
ROOT
ATOM      1  C   UNL d   1      -0.935  -0.678  -1.190  0.00  0.00    -0.002 A 
ATOM      2  C1  UNL d   1       0.407  -0.339  -1.089  0.00  0.00     0.010 A 
ATOM      3  C2  UNL d   1       1.372  -1.321  -0.852  0.00  0.00     0.041 A 
ATOM      4  C3  UNL d   1       0.961  -2.662  -0.718  0.00  0.00    -0.075 A 
ATOM      5  S   UNL d   1       1.964  -4.032  -0.425  0.00  0.00     0.015 SA
ATOM      6  C4  UNL d   1       0.636  -5.100  -0.427  0.00  0.00     0.022 A 
ATOM      7  C5  UNL d   1      -0.553  -4.443  -0.645  0.00  0.00     0.026 A 
ATOM      8  C6  UNL d   1      -0.385  -3.027  -0.816  0.00  0.00    -0.082 A 
ATOM      9  C7  UNL d   1      -1.339  -2.009  -1.056  0.00  0.00     0.045 A 
ENDROOT
TORSDOF 0
ENDMDL
