MODEL 1
REMARK minimizedAffinity -2.81538081
REMARK minimizedRMSD -1
REMARK  0 active torsions:
REMARK  status: ('A' for Active; 'I' for Inactive)
ROOT
ATOM      1  C   UNL d   1      -1.146   1.931   2.202  0.00  0.00    -0.002 A 
ATOM      2  C1  UNL d   1      -0.528   0.752   2.594  0.00  0.00     0.010 A 
ATOM      3  C2  UNL d   1       0.089  -0.073   1.651  0.00  0.00     0.041 A 
ATOM      4  C3  UNL d   1       0.076   0.312   0.296  0.00  0.00    -0.075 A 
ATOM      5  S   UNL d   1       0.768  -0.540  -1.034  0.00  0.00     0.015 SA
ATOM      6  C4  UNL d   1       0.260   0.642  -2.152  0.00  0.00     0.022 A 
ATOM      7  C5  UNL d   1      -0.423   1.668  -1.543  0.00  0.00     0.026 A 
ATOM      8  C6  UNL d   1      -0.540   1.495  -0.122  0.00  0.00    -0.082 A 
ATOM      9  C7  UNL d   1      -1.158   2.309   0.857  0.00  0.00     0.045 A 
ENDROOT
TORSDOF 0
ENDMDL
