MODEL 1
REMARK minimizedAffinity -3.57867813
REMARK minimizedRMSD -1
REMARK  0 active torsions:
REMARK  status: ('A' for Active; 'I' for Inactive)
ROOT
ATOM      1  C   UNL d   1      -0.751   3.609   1.245  0.00  0.00    -0.002 A 
ATOM      2  C1  UNL d   1      -0.606   3.744  -0.128  0.00  0.00     0.010 A 
ATOM      3  C2  UNL d   1      -0.131   2.683  -0.901  0.00  0.00     0.041 A 
ATOM      4  C3  UNL d   1       0.197   1.469  -0.264  0.00  0.00    -0.075 A 
ATOM      5  S   UNL d   1       0.795   0.034  -1.008  0.00  0.00     0.015 SA
ATOM      6  C4  UNL d   1       0.871  -0.794   0.480  0.00  0.00     0.022 A 
ATOM      7  C5  UNL d   1       0.454  -0.009   1.529  0.00  0.00     0.026 A 
ATOM      8  C6  UNL d   1       0.058   1.308   1.117  0.00  0.00    -0.082 A 
ATOM      9  C7  UNL d   1      -0.424   2.404   1.873  0.00  0.00     0.045 A 
ENDROOT
TORSDOF 0
ENDMDL
