MODEL 1
REMARK minimizedAffinity 3.20220852
REMARK minimizedRMSD -1
REMARK  0 active torsions:
REMARK  status: ('A' for Active; 'I' for Inactive)
ROOT
ATOM      1  C   UNL d   1       0.228   1.894   2.301  0.00  0.00    -0.002 A 
ATOM      2  C1  UNL d   1       0.725   0.604   2.422  0.00  0.00     0.010 A 
ATOM      3  C2  UNL d   1       0.916  -0.193   1.292  0.00  0.00     0.041 A 
ATOM      4  C3  UNL d   1       0.598   0.335   0.025  0.00  0.00    -0.075 A 
ATOM      5  S   UNL d   1       0.751  -0.458  -1.499  0.00  0.00     0.015 SA
ATOM      6  C4  UNL d   1       0.162   0.898  -2.347  0.00  0.00     0.022 A 
ATOM      7  C5  UNL d   1      -0.149   1.939  -1.504  0.00  0.00     0.026 A 
ATOM      8  C6  UNL d   1       0.098   1.631  -0.123  0.00  0.00    -0.082 A 
ATOM      9  C7  UNL d   1      -0.086   2.414   1.042  0.00  0.00     0.045 A 
ENDROOT
TORSDOF 0
ENDMDL
