MODEL 1
REMARK minimizedAffinity -3.14950013
REMARK minimizedRMSD -1
REMARK  0 active torsions:
REMARK  status: ('A' for Active; 'I' for Inactive)
ROOT
ATOM      1  C   UNL d   1      -1.103   2.988   1.409  0.00  0.00    -0.002 A 
ATOM      2  C1  UNL d   1      -1.227   3.080   0.030  0.00  0.00     0.010 A 
ATOM      3  C2  UNL d   1      -0.797   2.038  -0.794  0.00  0.00     0.041 A 
ATOM      4  C3  UNL d   1      -0.236   0.889  -0.202  0.00  0.00    -0.075 A 
ATOM      5  S   UNL d   1       0.359  -0.513  -1.011  0.00  0.00     0.015 SA
ATOM      6  C4  UNL d   1       0.790  -1.267   0.455  0.00  0.00     0.022 A 
ATOM      7  C5  UNL d   1       0.496  -0.483   1.545  0.00  0.00     0.026 A 
ATOM      8  C6  UNL d   1      -0.101   0.772   1.184  0.00  0.00    -0.082 A 
ATOM      9  C7  UNL d   1      -0.546   1.846   1.992  0.00  0.00     0.045 A 
ENDROOT
TORSDOF 0
ENDMDL
