MODEL 1
REMARK minimizedAffinity 2.11084867
REMARK minimizedRMSD -1
REMARK  0 active torsions:
REMARK  status: ('A' for Active; 'I' for Inactive)
ROOT
ATOM      1  C   UNL d   1       0.622  -0.728  -1.562  0.00  0.00    -0.002 A 
ATOM      2  C1  UNL d   1       0.124   0.559  -1.712  0.00  0.00     0.010 A 
ATOM      3  C2  UNL d   1      -0.223   1.321  -0.595  0.00  0.00     0.041 A 
ATOM      4  C3  UNL d   1      -0.059   0.764   0.688  0.00  0.00    -0.075 A 
ATOM      5  S   UNL d   1      -0.416   1.512   2.200  0.00  0.00     0.015 SA
ATOM      6  C4  UNL d   1       0.084   0.142   3.081  0.00  0.00     0.022 A 
ATOM      7  C5  UNL d   1       0.516  -0.871   2.258  0.00  0.00     0.026 A 
ATOM      8  C6  UNL d   1       0.442  -0.529   0.865  0.00  0.00    -0.082 A 
ATOM      9  C7  UNL d   1       0.784  -1.277  -0.287  0.00  0.00     0.045 A 
ENDROOT
TORSDOF 0
ENDMDL
