MODEL 1
REMARK minimizedAffinity -1.74704254
REMARK minimizedRMSD -1
REMARK  0 active torsions:
REMARK  status: ('A' for Active; 'I' for Inactive)
ROOT
ATOM      1  C   UNL d   1       0.344  -2.881  -2.645  0.00  0.00    -0.002 A 
ATOM      2  C1  UNL d   1      -0.650  -3.498  -1.899  0.00  0.00     0.010 A 
ATOM      3  C2  UNL d   1      -1.097  -2.931  -0.704  0.00  0.00     0.041 A 
ATOM      4  C3  UNL d   1      -0.524  -1.719  -0.269  0.00  0.00    -0.075 A 
ATOM      5  S   UNL d   1      -0.915  -0.840   1.162  0.00  0.00     0.015 SA
ATOM      6  C4  UNL d   1       0.228   0.377   0.815  0.00  0.00     0.022 A 
ATOM      7  C5  UNL d   1       0.900   0.133  -0.359  0.00  0.00     0.026 A 
ATOM      8  C6  UNL d   1       0.477  -1.078  -1.004  0.00  0.00    -0.082 A 
ATOM      9  C7  UNL d   1       0.909  -1.679  -2.210  0.00  0.00     0.045 A 
ENDROOT
TORSDOF 0
ENDMDL
