MODEL 1
REMARK minimizedAffinity 14.4209433
REMARK minimizedRMSD -1
REMARK  0 active torsions:
REMARK  status: ('A' for Active; 'I' for Inactive)
ROOT
ATOM      1  C   UNL d   1       0.850   2.227   3.221  0.00  0.00    -0.002 A 
ATOM      2  C1  UNL d   1       0.745   3.170   2.208  0.00  0.00     0.010 A 
ATOM      3  C2  UNL d   1       0.463   2.776   0.898  0.00  0.00     0.041 A 
ATOM      4  C3  UNL d   1       0.285   1.406   0.622  0.00  0.00    -0.075 A 
ATOM      5  S   UNL d   1      -0.069   0.692  -0.907  0.00  0.00     0.015 SA
ATOM      6  C4  UNL d   1      -0.089  -0.881  -0.251  0.00  0.00     0.022 A 
ATOM      7  C5  UNL d   1       0.165  -0.880   1.100  0.00  0.00     0.026 A 
ATOM      8  C6  UNL d   1       0.385   0.438   1.626  0.00  0.00    -0.082 A 
ATOM      9  C7  UNL d   1       0.673   0.869   2.943  0.00  0.00     0.045 A 
ENDROOT
TORSDOF 0
ENDMDL
