MODEL 1
REMARK minimizedAffinity -1.49902129
REMARK minimizedRMSD -1
REMARK  0 active torsions:
REMARK  status: ('A' for Active; 'I' for Inactive)
ROOT
ATOM      1  C   UNL d   1       2.589  -0.751   0.543  0.00  0.00     0.078 C 
ATOM      2  C1  UNL d   1       1.241  -0.137   0.776  0.00  0.00    -0.077 A 
ATOM      3  C2  UNL d   1       0.236  -0.839   1.452  0.00  0.00    -0.001 A 
ATOM      4  C3  UNL d   1      -1.018  -0.258   1.653  0.00  0.00     0.003 A 
ATOM      5  C4  UNL d   1      -1.278   1.027   1.180  0.00  0.00    -0.005 A 
ATOM      6  C5  UNL d   1      -0.284   1.732   0.504  0.00  0.00     0.003 A 
ATOM      7  C6  UNL d   1       0.970   1.153   0.302  0.00  0.00    -0.001 A 
ENDROOT
TORSDOF 0
ENDMDL
