MODEL 1
REMARK minimizedAffinity -1.66609621
REMARK minimizedRMSD -1
REMARK  0 active torsions:
REMARK  status: ('A' for Active; 'I' for Inactive)
ROOT
ATOM      1  C   UNL d   1      -5.700  -6.000   1.453  0.00  0.00     0.078 C 
ATOM      2  C1  UNL d   1      -4.889  -5.295   0.408  0.00  0.00    -0.077 A 
ATOM      3  C2  UNL d   1      -3.758  -5.898  -0.156  0.00  0.00    -0.001 A 
ATOM      4  C3  UNL d   1      -3.006  -5.226  -1.121  0.00  0.00     0.003 A 
ATOM      5  C4  UNL d   1      -3.376  -3.946  -1.530  0.00  0.00    -0.005 A 
ATOM      6  C5  UNL d   1      -4.499  -3.337  -0.973  0.00  0.00     0.003 A 
ATOM      7  C6  UNL d   1      -5.252  -4.007  -0.007  0.00  0.00    -0.001 A 
ENDROOT
TORSDOF 0
ENDMDL
