MODEL 1
REMARK minimizedAffinity -1.42869961
REMARK minimizedRMSD -1
REMARK  0 active torsions:
REMARK  status: ('A' for Active; 'I' for Inactive)
ROOT
ATOM      1  C   UNL d   1      -2.778   2.308   2.389  0.00  0.00     0.078 C 
ATOM      2  C1  UNL d   1      -1.618   1.503   1.886  0.00  0.00    -0.077 A 
ATOM      3  C2  UNL d   1      -0.420   2.122   1.508  0.00  0.00    -0.001 A 
ATOM      4  C3  UNL d   1       0.649   1.360   1.032  0.00  0.00     0.003 A 
ATOM      5  C4  UNL d   1       0.530  -0.024   0.930  0.00  0.00    -0.005 A 
ATOM      6  C5  UNL d   1      -0.658  -0.649   1.303  0.00  0.00     0.003 A 
ATOM      7  C6  UNL d   1      -1.728   0.111   1.778  0.00  0.00    -0.001 A 
ENDROOT
TORSDOF 0
ENDMDL
