MODEL 1
REMARK minimizedAffinity 5.76889515
REMARK minimizedRMSD -1
REMARK  0 active torsions:
REMARK  status: ('A' for Active; 'I' for Inactive)
ROOT
ATOM      1  C   UNL d   1      -3.281   2.313   2.996  0.00  0.00     0.078 C 
ATOM      2  C1  UNL d   1      -2.032   2.307   2.165  0.00  0.00    -0.077 A 
ATOM      3  C2  UNL d   1      -1.044   1.333   2.355  0.00  0.00    -0.001 A 
ATOM      4  C3  UNL d   1       0.117   1.345   1.581  0.00  0.00     0.003 A 
ATOM      5  C4  UNL d   1       0.302   2.330   0.613  0.00  0.00    -0.005 A 
ATOM      6  C5  UNL d   1      -0.674   3.305   0.418  0.00  0.00     0.003 A 
ATOM      7  C6  UNL d   1      -1.836   3.294   1.191  0.00  0.00    -0.001 A 
ENDROOT
TORSDOF 0
ENDMDL
