MODEL 1
REMARK minimizedAffinity -5.17723465
REMARK minimizedRMSD -1
REMARK  0 active torsions:
REMARK  status: ('A' for Active; 'I' for Inactive)
ROOT
ATOM      1  C   UNL d   1       1.945   0.025   3.743  0.00  0.00     0.078 C 
ATOM      2  C1  UNL d   1       1.061   0.579   2.666  0.00  0.00    -0.077 A 
ATOM      3  C2  UNL d   1       0.911   1.961   2.496  0.00  0.00    -0.001 A 
ATOM      4  C3  UNL d   1       0.077   2.463   1.496  0.00  0.00     0.003 A 
ATOM      5  C4  UNL d   1      -0.614   1.590   0.658  0.00  0.00    -0.005 A 
ATOM      6  C5  UNL d   1      -0.473   0.214   0.820  0.00  0.00     0.003 A 
ATOM      7  C6  UNL d   1       0.360  -0.290   1.820  0.00  0.00    -0.001 A 
ENDROOT
TORSDOF 0
ENDMDL
