MODEL 1
REMARK minimizedAffinity -4.11799192
REMARK minimizedRMSD -1
REMARK  0 active torsions:
REMARK  status: ('A' for Active; 'I' for Inactive)
ROOT
ATOM      1  C   UNL d   1       1.336   1.114   0.530  0.00  0.00     0.078 C 
ATOM      2  C1  UNL d   1      -0.074   0.962   1.016  0.00  0.00    -0.077 A 
ATOM      3  C2  UNL d   1      -0.729  -0.274   0.955  0.00  0.00    -0.001 A 
ATOM      4  C3  UNL d   1      -2.045  -0.400   1.402  0.00  0.00     0.003 A 
ATOM      5  C4  UNL d   1      -2.719   0.708   1.912  0.00  0.00    -0.005 A 
ATOM      6  C5  UNL d   1      -2.077   1.943   1.976  0.00  0.00     0.003 A 
ATOM      7  C6  UNL d   1      -0.760   2.070   1.529  0.00  0.00    -0.001 A 
ENDROOT
TORSDOF 0
ENDMDL
