MODEL 1
REMARK minimizedAffinity -3.61321044
REMARK minimizedRMSD -1
REMARK  0 active torsions:
REMARK  status: ('A' for Active; 'I' for Inactive)
ROOT
ATOM      1  C   UNL d   1       1.102  -0.080   1.063  0.00  0.00     0.078 C 
ATOM      2  C1  UNL d   1      -0.090   0.767   1.396  0.00  0.00    -0.077 A 
ATOM      3  C2  UNL d   1       0.053   2.126   1.701  0.00  0.00    -0.001 A 
ATOM      4  C3  UNL d   1      -1.064   2.900   2.019  0.00  0.00     0.003 A 
ATOM      5  C4  UNL d   1      -2.333   2.323   2.034  0.00  0.00    -0.005 A 
ATOM      6  C5  UNL d   1      -2.485   0.971   1.734  0.00  0.00     0.003 A 
ATOM      7  C6  UNL d   1      -1.369   0.196   1.416  0.00  0.00    -0.001 A 
ENDROOT
TORSDOF 0
ENDMDL
