MODEL 1
REMARK minimizedAffinity -2.37185073
REMARK minimizedRMSD -1
REMARK  0 active torsions:
REMARK  status: ('A' for Active; 'I' for Inactive)
ROOT
ATOM      1  C   UNL d   1      -3.291   1.957   2.952  0.00  0.00     0.078 C 
ATOM      2  C1  UNL d   1      -2.022   1.420   2.361  0.00  0.00    -0.077 A 
ATOM      3  C2  UNL d   1      -1.727   0.052   2.407  0.00  0.00    -0.001 A 
ATOM      4  C3  UNL d   1      -0.538  -0.433   1.862  0.00  0.00     0.003 A 
ATOM      5  C4  UNL d   1       0.368   0.444   1.267  0.00  0.00    -0.005 A 
ATOM      6  C5  UNL d   1       0.084   1.807   1.218  0.00  0.00     0.003 A 
ATOM      7  C6  UNL d   1      -1.105   2.294   1.764  0.00  0.00    -0.001 A 
ENDROOT
TORSDOF 0
ENDMDL
