MODEL 1
REMARK minimizedAffinity 0.660386443
REMARK minimizedRMSD -1
REMARK  0 active torsions:
REMARK  status: ('A' for Active; 'I' for Inactive)
ROOT
ATOM      1  C   UNL d   1       2.376   0.333  -0.399  0.00  0.00     0.078 C 
ATOM      2  C1  UNL d   1       1.086   0.160   0.347  0.00  0.00    -0.077 A 
ATOM      3  C2  UNL d   1       0.067   1.116   0.256  0.00  0.00    -0.001 A 
ATOM      4  C3  UNL d   1      -1.124   0.947   0.964  0.00  0.00     0.003 A 
ATOM      5  C4  UNL d   1      -1.307  -0.177   1.767  0.00  0.00    -0.005 A 
ATOM      6  C5  UNL d   1      -0.298  -1.133   1.865  0.00  0.00     0.003 A 
ATOM      7  C6  UNL d   1       0.894  -0.965   1.158  0.00  0.00    -0.001 A 
ENDROOT
TORSDOF 0
ENDMDL
