MODEL 1
REMARK minimizedAffinity -1.82718217
REMARK minimizedRMSD -1
REMARK  0 active torsions:
REMARK  status: ('A' for Active; 'I' for Inactive)
ROOT
ATOM      1  C   UNL d   1      -3.109  -0.468   2.512  0.00  0.00     0.078 C 
ATOM      2  C1  UNL d   1      -1.865   0.061   1.863  0.00  0.00    -0.077 A 
ATOM      3  C2  UNL d   1      -0.687  -0.694   1.838  0.00  0.00    -0.001 A 
ATOM      4  C3  UNL d   1       0.466  -0.185   1.239  0.00  0.00     0.003 A 
ATOM      5  C4  UNL d   1       0.453   1.082   0.660  0.00  0.00    -0.005 A 
ATOM      6  C5  UNL d   1      -0.715   1.843   0.681  0.00  0.00     0.003 A 
ATOM      7  C6  UNL d   1      -1.869   1.335   1.280  0.00  0.00    -0.001 A 
ENDROOT
TORSDOF 0
ENDMDL
