MODEL 1
REMARK minimizedAffinity -1.25733531
REMARK minimizedRMSD -1
REMARK  0 active torsions:
REMARK  status: ('A' for Active; 'I' for Inactive)
ROOT
ATOM      1  C   UNL d   1       1.560  -1.166   2.972  0.00  0.00     0.078 C 
ATOM      2  C1  UNL d   1       0.552  -0.537   2.057  0.00  0.00    -0.077 A 
ATOM      3  C2  UNL d   1       0.797   0.705   1.459  0.00  0.00    -0.001 A 
ATOM      4  C3  UNL d   1      -0.154   1.284   0.618  0.00  0.00     0.003 A 
ATOM      5  C4  UNL d   1      -1.358   0.628   0.368  0.00  0.00    -0.005 A 
ATOM      6  C5  UNL d   1      -1.612  -0.607   0.960  0.00  0.00     0.003 A 
ATOM      7  C6  UNL d   1      -0.662  -1.187   1.802  0.00  0.00    -0.001 A 
ENDROOT
TORSDOF 0
ENDMDL
