MODEL 1
REMARK minimizedAffinity 0.531392694
REMARK minimizedRMSD -1
REMARK  0 active torsions:
REMARK  status: ('A' for Active; 'I' for Inactive)
ROOT
ATOM      1  C   UNL d   1       1.736  -0.169   0.837  0.00  0.00     0.078 C 
ATOM      2  C1  UNL d   1       0.355   0.351   1.104  0.00  0.00    -0.077 A 
ATOM      3  C2  UNL d   1       0.104   1.727   1.174  0.00  0.00    -0.001 A 
ATOM      4  C3  UNL d   1      -1.184   2.197   1.433  0.00  0.00     0.003 A 
ATOM      5  C4  UNL d   1      -2.232   1.299   1.624  0.00  0.00    -0.005 A 
ATOM      6  C5  UNL d   1      -1.991  -0.072   1.558  0.00  0.00     0.003 A 
ATOM      7  C6  UNL d   1      -0.703  -0.544   1.300  0.00  0.00    -0.001 A 
ENDROOT
TORSDOF 0
ENDMDL
