MODEL 1
REMARK minimizedAffinity 1.93273246
REMARK minimizedRMSD -1
REMARK  0 active torsions:
REMARK  status: ('A' for Active; 'I' for Inactive)
ROOT
ATOM      1  C   UNL d   1       2.787   0.001   0.018  0.00  0.00     0.078 C 
ATOM      2  C1  UNL d   1       1.694   0.819   0.639  0.00  0.00    -0.077 A 
ATOM      3  C2  UNL d   1       1.069   0.406   1.822  0.00  0.00    -0.001 A 
ATOM      4  C3  UNL d   1       0.046   1.172   2.385  0.00  0.00     0.003 A 
ATOM      5  C4  UNL d   1      -0.361   2.354   1.771  0.00  0.00    -0.005 A 
ATOM      6  C5  UNL d   1       0.254   2.772   0.592  0.00  0.00     0.003 A 
ATOM      7  C6  UNL d   1       1.276   2.007   0.028  0.00  0.00    -0.001 A 
ENDROOT
TORSDOF 0
ENDMDL
