MODEL 1
REMARK minimizedAffinity 3.42397308
REMARK minimizedRMSD -1
REMARK  0 active torsions:
REMARK  status: ('A' for Active; 'I' for Inactive)
ROOT
ATOM      1  C   UNL d   1      -2.729   2.355   2.563  0.00  0.00     0.078 C 
ATOM      2  C1  UNL d   1      -1.463   1.639   2.198  0.00  0.00    -0.077 A 
ATOM      3  C2  UNL d   1      -1.210   0.340   2.656  0.00  0.00    -0.001 A 
ATOM      4  C3  UNL d   1      -0.023  -0.310   2.316  0.00  0.00     0.003 A 
ATOM      5  C4  UNL d   1       0.922   0.331   1.517  0.00  0.00    -0.005 A 
ATOM      6  C5  UNL d   1       0.680   1.624   1.058  0.00  0.00     0.003 A 
ATOM      7  C6  UNL d   1      -0.506   2.276   1.397  0.00  0.00    -0.001 A 
ENDROOT
TORSDOF 0
ENDMDL
