MODEL 1
REMARK minimizedAffinity -0.622743428
REMARK minimizedRMSD -1
REMARK  0 active torsions:
REMARK  status: ('A' for Active; 'I' for Inactive)
ROOT
ATOM      1  C   UNL d   1       0.399   1.851   1.082  0.00  0.00     0.078 C 
ATOM      2  C1  UNL d   1      -0.915   1.525   1.728  0.00  0.00    -0.077 A 
ATOM      3  C2  UNL d   1      -1.244   0.207   2.068  0.00  0.00    -0.001 A 
ATOM      4  C3  UNL d   1      -2.474  -0.083   2.659  0.00  0.00     0.003 A 
ATOM      5  C4  UNL d   1      -3.386   0.939   2.916  0.00  0.00    -0.005 A 
ATOM      6  C5  UNL d   1      -3.068   2.253   2.579  0.00  0.00     0.003 A 
ATOM      7  C6  UNL d   1      -1.838   2.545   1.987  0.00  0.00    -0.001 A 
ENDROOT
TORSDOF 0
ENDMDL
