MODEL 1
REMARK minimizedAffinity -0.29090488
REMARK minimizedRMSD -1
REMARK  0 active torsions:
REMARK  status: ('A' for Active; 'I' for Inactive)
ROOT
ATOM      1  C   UNL d   1      -3.369  -5.236  -1.042  0.00  0.00     0.078 C 
ATOM      2  C1  UNL d   1      -3.602  -3.872  -1.619  0.00  0.00    -0.077 A 
ATOM      3  C2  UNL d   1      -4.214  -2.864  -0.864  0.00  0.00    -0.001 A 
ATOM      4  C3  UNL d   1      -4.433  -1.601  -1.417  0.00  0.00     0.003 A 
ATOM      5  C4  UNL d   1      -4.044  -1.335  -2.729  0.00  0.00    -0.005 A 
ATOM      6  C5  UNL d   1      -3.437  -2.332  -3.489  0.00  0.00     0.003 A 
ATOM      7  C6  UNL d   1      -3.217  -3.595  -2.937  0.00  0.00    -0.001 A 
ENDROOT
TORSDOF 0
ENDMDL
