MODEL 1
REMARK minimizedAffinity -3.06157589
REMARK minimizedRMSD -1
REMARK  0 active torsions:
REMARK  status: ('A' for Active; 'I' for Inactive)
ROOT
ATOM      1  C   UNL d   1       1.954   0.707   0.294  0.00  0.00     0.078 C 
ATOM      2  C1  UNL d   1       0.597   0.910   0.898  0.00  0.00    -0.077 A 
ATOM      3  C2  UNL d   1      -0.215  -0.182   1.228  0.00  0.00    -0.001 A 
ATOM      4  C3  UNL d   1      -1.481   0.021   1.782  0.00  0.00     0.003 A 
ATOM      5  C4  UNL d   1      -1.946   1.315   2.009  0.00  0.00    -0.005 A 
ATOM      6  C5  UNL d   1      -1.145   2.408   1.681  0.00  0.00     0.003 A 
ATOM      7  C6  UNL d   1       0.120   2.206   1.128  0.00  0.00    -0.001 A 
ENDROOT
TORSDOF 0
ENDMDL
