MODEL 1
REMARK minimizedAffinity -4.3217597
REMARK minimizedRMSD -1
REMARK  1 active torsions:
REMARK  status: ('A' for Active; 'I' for Inactive)
REMARK    1  A    between atoms: C1_2  and  C2_3 
ROOT
ATOM      1  C2  UNL d   1      -4.841  -3.031  -4.353  0.00  0.00    -0.081 A 
ATOM      2  C3  UNL d   1      -3.935  -2.686  -5.363  0.00  0.00     0.006 A 
ATOM      3  C4  UNL d   1      -3.045  -3.635  -5.872  0.00  0.00     0.002 A 
ATOM      4  C5  UNL d   1      -3.052  -4.946  -5.386  0.00  0.00    -0.080 A 
ATOM      5  C6  UNL d   1      -2.123  -5.983  -5.944  0.00  0.00     0.076 C 
ATOM      6  C7  UNL d   1      -3.945  -5.287  -4.364  0.00  0.00     0.002 A 
ATOM      7  C8  UNL d   1      -4.834  -4.339  -3.855  0.00  0.00     0.006 A 
ENDROOT
BRANCH   1   8
ATOM      8  C1  UNL d   1      -5.845  -2.027  -3.848  0.00  0.00     0.054 C 
ATOM      9  C   UNL d   1      -5.940  -0.825  -4.775  0.00  0.00     0.018 C 
ENDBRANCH   1   8
TORSDOF 1
ENDMDL
