MODEL 1
REMARK minimizedAffinity -2.87763953
REMARK minimizedRMSD -1
REMARK  1 active torsions:
REMARK  status: ('A' for Active; 'I' for Inactive)
REMARK    1  A    between atoms: C1_2  and  C2_3 
ROOT
ATOM      1  C2  UNL d   1      -5.942  -3.295  -4.868  0.00  0.00    -0.081 A 
ATOM      2  C3  UNL d   1      -5.969  -1.934  -5.195  0.00  0.00     0.006 A 
ATOM      3  C4  UNL d   1      -6.000  -0.965  -4.190  0.00  0.00     0.002 A 
ATOM      4  C5  UNL d   1      -5.995  -1.339  -2.842  0.00  0.00    -0.080 A 
ATOM      5  C6  UNL d   1      -5.997  -0.308  -1.753  0.00  0.00     0.076 C 
ATOM      6  C7  UNL d   1      -5.986  -2.700  -2.515  0.00  0.00     0.002 A 
ATOM      7  C8  UNL d   1      -5.956  -3.669  -3.520  0.00  0.00     0.006 A 
ENDROOT
BRANCH   1   8
ATOM      8  C1  UNL d   1      -5.844  -4.341  -5.949  0.00  0.00     0.054 C 
ATOM      9  C   UNL d   1      -5.280  -5.647  -5.405  0.00  0.00     0.018 C 
ENDBRANCH   1   8
TORSDOF 1
ENDMDL
