MODEL 1
REMARK minimizedAffinity -2.24605608
REMARK minimizedRMSD -1
REMARK  1 active torsions:
REMARK  status: ('A' for Active; 'I' for Inactive)
REMARK    1  A    between atoms: C1_2  and  C2_3 
ROOT
ATOM      1  C2  UNL d   1      -4.736  -4.007  -4.933  0.00  0.00    -0.081 A 
ATOM      2  C3  UNL d   1      -4.537  -5.357  -4.615  0.00  0.00     0.006 A 
ATOM      3  C4  UNL d   1      -3.348  -5.999  -4.968  0.00  0.00     0.002 A 
ATOM      4  C5  UNL d   1      -2.336  -5.303  -5.636  0.00  0.00    -0.080 A 
ATOM      5  C6  UNL d   1      -1.042  -5.973  -5.993  0.00  0.00     0.076 C 
ATOM      6  C7  UNL d   1      -2.541  -3.959  -5.969  0.00  0.00     0.002 A 
ATOM      7  C8  UNL d   1      -3.730  -3.316  -5.617  0.00  0.00     0.006 A 
ENDROOT
BRANCH   1   8
ATOM      8  C1  UNL d   1      -5.990  -3.294  -4.497  0.00  0.00     0.054 C 
ATOM      9  C   UNL d   1      -5.995  -1.846  -4.965  0.00  0.00     0.018 C 
ENDBRANCH   1   8
TORSDOF 1
ENDMDL
