MODEL 1
REMARK minimizedAffinity -3.32405782
REMARK minimizedRMSD -1
REMARK  1 active torsions:
REMARK  status: ('A' for Active; 'I' for Inactive)
REMARK    1  A    between atoms: C1_2  and  C2_3 
ROOT
ATOM      1  C2  UNL d   1      -4.625  -4.394  -4.785  0.00  0.00    -0.081 A 
ATOM      2  C3  UNL d   1      -4.191  -5.468  -3.998  0.00  0.00     0.006 A 
ATOM      3  C4  UNL d   1      -2.910  -5.998  -4.167  0.00  0.00     0.002 A 
ATOM      4  C5  UNL d   1      -2.039  -5.459  -5.119  0.00  0.00    -0.080 A 
ATOM      5  C6  UNL d   1      -0.650  -6.000  -5.290  0.00  0.00     0.076 C 
ATOM      6  C7  UNL d   1      -2.478  -4.397  -5.918  0.00  0.00     0.002 A 
ATOM      7  C8  UNL d   1      -3.759  -3.867  -5.749  0.00  0.00     0.006 A 
ENDROOT
BRANCH   1   8
ATOM      8  C1  UNL d   1      -5.982  -3.778  -4.560  0.00  0.00     0.054 C 
ATOM      9  C   UNL d   1      -5.996  -2.309  -4.960  0.00  0.00     0.018 C 
ENDBRANCH   1   8
TORSDOF 1
ENDMDL
