MODEL 1
REMARK minimizedAffinity 3.54595375
REMARK minimizedRMSD -1
REMARK  1 active torsions:
REMARK  status: ('A' for Active; 'I' for Inactive)
REMARK    1  A    between atoms: C1_2  and  C2_3 
ROOT
ATOM      1  C2  UNL d   1      -0.962  -1.404   2.609  0.00  0.00    -0.081 A 
ATOM      2  C3  UNL d   1      -1.249  -0.361   1.721  0.00  0.00     0.006 A 
ATOM      3  C4  UNL d   1      -0.530  -0.227   0.531  0.00  0.00     0.002 A 
ATOM      4  C5  UNL d   1       0.480  -1.138   0.205  0.00  0.00    -0.080 A 
ATOM      5  C6  UNL d   1       1.238  -1.023  -1.084  0.00  0.00     0.076 C 
ATOM      6  C7  UNL d   1       0.778  -2.170   1.101  0.00  0.00     0.002 A 
ATOM      7  C8  UNL d   1       0.061  -2.304   2.291  0.00  0.00     0.006 A 
ENDROOT
BRANCH   1   8
ATOM      8  C1  UNL d   1      -1.779  -1.590   3.863  0.00  0.00     0.054 C 
ATOM      9  C   UNL d   1      -3.103  -0.844   3.776  0.00  0.00     0.018 C 
ENDBRANCH   1   8
TORSDOF 1
ENDMDL
