MODEL 1
REMARK minimizedAffinity -3.20192909
REMARK minimizedRMSD -1
REMARK  1 active torsions:
REMARK  status: ('A' for Active; 'I' for Inactive)
REMARK    1  A    between atoms: C1_2  and  C2_3 
ROOT
ATOM      1  C2  UNL d   1      -4.666  -4.035  -4.610  0.00  0.00    -0.081 A 
ATOM      2  C3  UNL d   1      -3.446  -3.357  -4.499  0.00  0.00     0.006 A 
ATOM      3  C4  UNL d   1      -2.249  -3.994  -4.836  0.00  0.00     0.002 A 
ATOM      4  C5  UNL d   1      -2.253  -5.315  -5.297  0.00  0.00    -0.080 A 
ATOM      5  C6  UNL d   1      -0.978  -6.000  -5.691  0.00  0.00     0.076 C 
ATOM      6  C7  UNL d   1      -3.470  -5.998  -5.391  0.00  0.00     0.002 A 
ATOM      7  C8  UNL d   1      -4.667  -5.362  -5.054  0.00  0.00     0.006 A 
ENDROOT
BRANCH   1   8
ATOM      8  C1  UNL d   1      -5.964  -3.330  -4.309  0.00  0.00     0.054 C 
ATOM      9  C   UNL d   1      -6.000  -1.944  -4.936  0.00  0.00     0.018 C 
ENDBRANCH   1   8
TORSDOF 1
ENDMDL
