MODEL 1
REMARK minimizedAffinity -1.48345983
REMARK minimizedRMSD -1
REMARK  1 active torsions:
REMARK  status: ('A' for Active; 'I' for Inactive)
REMARK    1  A    between atoms: C1_2  and  C2_3 
ROOT
ATOM      1  C2  UNL d   1      -4.562  -4.694  -5.272  0.00  0.00    -0.081 A 
ATOM      2  C3  UNL d   1      -4.337  -3.396  -5.748  0.00  0.00     0.006 A 
ATOM      3  C4  UNL d   1      -4.811  -2.290  -5.039  0.00  0.00     0.002 A 
ATOM      4  C5  UNL d   1      -5.510  -2.462  -3.840  0.00  0.00    -0.080 A 
ATOM      5  C6  UNL d   1      -5.998  -1.281  -3.053  0.00  0.00     0.076 C 
ATOM      6  C7  UNL d   1      -5.750  -3.758  -3.373  0.00  0.00     0.002 A 
ATOM      7  C8  UNL d   1      -5.277  -4.865  -4.081  0.00  0.00     0.006 A 
ENDROOT
BRANCH   1   8
ATOM      8  C1  UNL d   1      -3.996  -5.886  -6.000  0.00  0.00     0.054 C 
ATOM      9  C   UNL d   1      -2.475  -5.867  -5.994  0.00  0.00     0.018 C 
ENDBRANCH   1   8
TORSDOF 1
ENDMDL
