MODEL 1
REMARK minimizedAffinity -3.06884837
REMARK minimizedRMSD -1
REMARK  1 active torsions:
REMARK  status: ('A' for Active; 'I' for Inactive)
REMARK    1  A    between atoms: C1_2  and  C2_3 
ROOT
ATOM      1  C2  UNL d   1      -4.397  -4.564  -5.090  0.00  0.00    -0.081 A 
ATOM      2  C3  UNL d   1      -4.156  -4.904  -3.754  0.00  0.00     0.006 A 
ATOM      3  C4  UNL d   1      -2.871  -5.255  -3.333  0.00  0.00     0.002 A 
ATOM      4  C5  UNL d   1      -1.806  -5.266  -4.239  0.00  0.00    -0.080 A 
ATOM      5  C6  UNL d   1      -0.416  -5.613  -3.794  0.00  0.00     0.076 C 
ATOM      6  C7  UNL d   1      -2.050  -4.944  -5.578  0.00  0.00     0.002 A 
ATOM      7  C8  UNL d   1      -3.334  -4.593  -6.000  0.00  0.00     0.006 A 
ENDROOT
BRANCH   1   8
ATOM      8  C1  UNL d   1      -5.768  -4.122  -5.534  0.00  0.00     0.054 C 
ATOM      9  C   UNL d   1      -5.998  -2.648  -5.233  0.00  0.00     0.018 C 
ENDBRANCH   1   8
TORSDOF 1
ENDMDL
