MODEL 1
REMARK minimizedAffinity -3.11804867
REMARK minimizedRMSD -1
REMARK  1 active torsions:
REMARK  status: ('A' for Active; 'I' for Inactive)
REMARK    1  A    between atoms: C1_2  and  C2_3 
ROOT
ATOM      1  C2  UNL d   1      -4.896  -3.265  -5.031  0.00  0.00    -0.081 A 
ATOM      2  C3  UNL d   1      -4.956  -4.572  -4.534  0.00  0.00     0.006 A 
ATOM      3  C4  UNL d   1      -3.905  -5.464  -4.758  0.00  0.00     0.002 A 
ATOM      4  C5  UNL d   1      -2.772  -5.062  -5.474  0.00  0.00    -0.080 A 
ATOM      5  C6  UNL d   1      -1.623  -6.000  -5.695  0.00  0.00     0.076 C 
ATOM      6  C7  UNL d   1      -2.720  -3.760  -5.986  0.00  0.00     0.002 A 
ATOM      7  C8  UNL d   1      -3.771  -2.868  -5.763  0.00  0.00     0.006 A 
ENDROOT
BRANCH   1   8
ATOM      8  C1  UNL d   1      -5.999  -2.281  -4.737  0.00  0.00     0.054 C 
ATOM      9  C   UNL d   1      -5.996  -1.868  -3.272  0.00  0.00     0.018 C 
ENDBRANCH   1   8
TORSDOF 1
ENDMDL
