MODEL 1
REMARK minimizedAffinity -4.04797316
REMARK minimizedRMSD -1
REMARK  1 active torsions:
REMARK  status: ('A' for Active; 'I' for Inactive)
REMARK    1  A    between atoms: C1_2  and  C2_3 
ROOT
ATOM      1  C2  UNL d   1      -4.664  -4.224  -4.409  0.00  0.00    -0.081 A 
ATOM      2  C3  UNL d   1      -3.841  -4.656  -3.362  0.00  0.00     0.006 A 
ATOM      3  C4  UNL d   1      -2.579  -5.193  -3.629  0.00  0.00     0.002 A 
ATOM      4  C5  UNL d   1      -2.116  -5.299  -4.944  0.00  0.00    -0.080 A 
ATOM      5  C6  UNL d   1      -0.751  -5.845  -5.242  0.00  0.00     0.076 C 
ATOM      6  C7  UNL d   1      -2.945  -4.883  -5.992  0.00  0.00     0.002 A 
ATOM      7  C8  UNL d   1      -4.207  -4.347  -5.726  0.00  0.00     0.006 A 
ENDROOT
BRANCH   1   8
ATOM      8  C1  UNL d   1      -5.998  -3.585  -4.121  0.00  0.00     0.054 C 
ATOM      9  C   UNL d   1      -5.990  -2.104  -4.472  0.00  0.00     0.018 C 
ENDBRANCH   1   8
TORSDOF 1
ENDMDL
