MODEL 1
REMARK minimizedAffinity -3.99075508
REMARK minimizedRMSD -1
REMARK  1 active torsions:
REMARK  status: ('A' for Active; 'I' for Inactive)
REMARK    1  A    between atoms: C1_2  and  C2_3 
ROOT
ATOM      1  C2  UNL d   1      -4.018  -3.055  -4.220  0.00  0.00    -0.081 A 
ATOM      2  C3  UNL d   1      -3.495  -3.999  -3.327  0.00  0.00     0.006 A 
ATOM      3  C4  UNL d   1      -2.581  -4.959  -3.767  0.00  0.00     0.002 A 
ATOM      4  C5  UNL d   1      -2.170  -4.988  -5.104  0.00  0.00    -0.080 A 
ATOM      5  C6  UNL d   1      -1.167  -5.995  -5.583  0.00  0.00     0.076 C 
ATOM      6  C7  UNL d   1      -2.705  -4.056  -6.000  0.00  0.00     0.002 A 
ATOM      7  C8  UNL d   1      -3.619  -3.096  -5.561  0.00  0.00     0.006 A 
ENDROOT
BRANCH   1   8
ATOM      8  C1  UNL d   1      -4.954  -1.977  -3.735  0.00  0.00     0.054 C 
ATOM      9  C   UNL d   1      -6.000  -1.639  -4.787  0.00  0.00     0.018 C 
ENDBRANCH   1   8
TORSDOF 1
ENDMDL
