MODEL 1
REMARK minimizedAffinity 2.0189774
REMARK minimizedRMSD -1
REMARK  1 active torsions:
REMARK  status: ('A' for Active; 'I' for Inactive)
REMARK    1  A    between atoms: C1_2  and  C2_3 
ROOT
ATOM      1  C2  UNL d   1       0.895   1.680  -3.098  0.00  0.00    -0.081 A 
ATOM      2  C3  UNL d   1       0.896   2.482  -4.246  0.00  0.00     0.006 A 
ATOM      3  C4  UNL d   1      -0.135   3.396  -4.472  0.00  0.00     0.002 A 
ATOM      4  C5  UNL d   1      -1.180   3.529  -3.552  0.00  0.00    -0.080 A 
ATOM      5  C6  UNL d   1      -2.278   4.528  -3.767  0.00  0.00     0.076 C 
ATOM      6  C7  UNL d   1      -1.191   2.716  -2.413  0.00  0.00     0.002 A 
ATOM      7  C8  UNL d   1      -0.160   1.801  -2.187  0.00  0.00     0.006 A 
ENDROOT
BRANCH   1   8
ATOM      8  C1  UNL d   1       2.040   0.740  -2.819  0.00  0.00     0.054 C 
ATOM      9  C   UNL d   1       3.369   1.481  -2.783  0.00  0.00     0.018 C 
ENDBRANCH   1   8
TORSDOF 1
ENDMDL
