MODEL 1
REMARK minimizedAffinity 4.24324608
REMARK minimizedRMSD -1
REMARK  1 active torsions:
REMARK  status: ('A' for Active; 'I' for Inactive)
REMARK    1  A    between atoms: C1_2  and  C2_3 
ROOT
ATOM      1  C2  UNL d   1      -1.229  -1.709   1.566  0.00  0.00    -0.081 A 
ATOM      2  C3  UNL d   1       0.127  -1.419   1.764  0.00  0.00     0.006 A 
ATOM      3  C4  UNL d   1       0.904  -0.919   0.717  0.00  0.00     0.002 A 
ATOM      4  C5  UNL d   1       0.338  -0.694  -0.542  0.00  0.00    -0.080 A 
ATOM      5  C6  UNL d   1       1.154  -0.129  -1.667  0.00  0.00     0.076 C 
ATOM      6  C7  UNL d   1      -1.012  -1.000  -0.745  0.00  0.00     0.002 A 
ATOM      7  C8  UNL d   1      -1.789  -1.501   0.301  0.00  0.00     0.006 A 
ENDROOT
BRANCH   1   8
ATOM      8  C1  UNL d   1      -2.085  -2.187   2.711  0.00  0.00     0.054 C 
ATOM      9  C   UNL d   1      -2.203  -1.125   3.795  0.00  0.00     0.018 C 
ENDBRANCH   1   8
TORSDOF 1
ENDMDL
