MODEL 1
REMARK minimizedAffinity -2.78735971
REMARK minimizedRMSD -1
REMARK  0 active torsions:
REMARK  status: ('A' for Active; 'I' for Inactive)
ROOT
ATOM      1  C1  DEN d   1      -1.119  -0.978   0.160  0.00  0.00     0.130 A 
ATOM      2  C2  DEN d   1      -0.944   0.345  -0.432  0.00  0.00    -0.031 A 
ATOM      3  C3  DEN d   1       0.427   0.803  -0.131  0.00  0.00     0.027 A 
ATOM      4  C4  DEN d   1       2.289  -0.404   1.183  0.00  0.00     0.027 A 
ATOM      5  C5  DEN d   1       2.607  -1.544   1.887  0.00  0.00    -0.003 A 
ATOM      6  C6  DEN d   1       1.703  -2.553   2.092  0.00  0.00     0.001 A 
ATOM      7  C7  DEN d   1       0.449  -2.460   1.549  0.00  0.00     0.017 A 
ATOM      8  C8  DEN d   1       0.118  -1.310   0.844  0.00  0.00    -0.094 A 
ATOM      9  C9  DEN d   1       1.050  -0.308   0.637  0.00  0.00    -0.072 A 
ENDROOT
TORSDOF 0
ENDMDL
