MODEL 1
REMARK minimizedAffinity -1.38133419
REMARK minimizedRMSD -1
REMARK  0 active torsions:
REMARK  status: ('A' for Active; 'I' for Inactive)
ROOT
ATOM      1  C1  DEN d   1      -0.541  -2.120   1.139  0.00  0.00     0.130 A 
ATOM      2  C2  DEN d   1       0.497  -2.626   2.032  0.00  0.00    -0.031 A 
ATOM      3  C3  DEN d   1       1.561  -1.606   2.119  0.00  0.00     0.027 A 
ATOM      4  C4  DEN d   1       1.699   0.698   0.967  0.00  0.00     0.027 A 
ATOM      5  C5  DEN d   1       1.060   1.562   0.106  0.00  0.00    -0.003 A 
ATOM      6  C6  DEN d   1      -0.131   1.248  -0.494  0.00  0.00     0.001 A 
ATOM      7  C7  DEN d   1      -0.743   0.057  -0.204  0.00  0.00     0.017 A 
ATOM      8  C8  DEN d   1      -0.101  -0.823   0.658  0.00  0.00    -0.094 A 
ATOM      9  C9  DEN d   1       1.096  -0.482   1.263  0.00  0.00    -0.072 A 
ENDROOT
TORSDOF 0
ENDMDL
