MODEL 1
REMARK minimizedAffinity -5.7421751
REMARK minimizedRMSD -1
REMARK  0 active torsions:
REMARK  status: ('A' for Active; 'I' for Inactive)
ROOT
ATOM      1  C1  DEN d   1       1.562   1.159   0.464  0.00  0.00     0.130 A 
ATOM      2  C2  DEN d   1       2.832   0.529   0.815  0.00  0.00    -0.031 A 
ATOM      3  C3  DEN d   1       2.546  -0.840   1.289  0.00  0.00     0.027 A 
ATOM      4  C4  DEN d   1       0.274  -2.042   1.507  0.00  0.00     0.027 A 
ATOM      5  C5  DEN d   1      -1.086  -1.908   1.340  0.00  0.00    -0.003 A 
ATOM      6  C6  DEN d   1      -1.658  -0.742   0.906  0.00  0.00     0.001 A 
ATOM      7  C7  DEN d   1      -0.862   0.324   0.580  0.00  0.00     0.017 A 
ATOM      8  C8  DEN d   1       0.511   0.200   0.752  0.00  0.00    -0.094 A 
ATOM      9  C9  DEN d   1       1.070  -0.992   1.181  0.00  0.00    -0.072 A 
ENDROOT
TORSDOF 0
ENDMDL
