MODEL 1
REMARK minimizedAffinity -2.20608044
REMARK minimizedRMSD -1
REMARK  0 active torsions:
REMARK  status: ('A' for Active; 'I' for Inactive)
ROOT
ATOM      1  C1  DEN d   1       2.557  -0.722  -0.242  0.00  0.00     0.130 A 
ATOM      2  C2  DEN d   1       3.393   0.105   0.625  0.00  0.00    -0.031 A 
ATOM      3  C3  DEN d   1       2.520   1.092   1.293  0.00  0.00     0.027 A 
ATOM      4  C4  DEN d   1      -0.029   1.415   1.073  0.00  0.00     0.027 A 
ATOM      5  C5  DEN d   1      -1.169   0.960   0.448  0.00  0.00    -0.003 A 
ATOM      6  C6  DEN d   1      -1.141  -0.057  -0.469  0.00  0.00     0.001 A 
ATOM      7  C7  DEN d   1       0.044  -0.683  -0.754  0.00  0.00     0.017 A 
ATOM      8  C8  DEN d   1       1.198  -0.224  -0.133  0.00  0.00    -0.094 A 
ATOM      9  C9  DEN d   1       1.148   0.797   0.801  0.00  0.00    -0.072 A 
ENDROOT
TORSDOF 0
ENDMDL
