MODEL 1
REMARK minimizedAffinity -2.93420863
REMARK minimizedRMSD -1
REMARK  0 active torsions:
REMARK  status: ('A' for Active; 'I' for Inactive)
ROOT
ATOM      1  C1  DEN d   1      -0.728  -0.661   0.105  0.00  0.00     0.130 A 
ATOM      2  C2  DEN d   1      -1.301   0.646   0.415  0.00  0.00    -0.031 A 
ATOM      3  C3  DEN d   1      -0.231   1.490   0.984  0.00  0.00     0.027 A 
ATOM      4  C4  DEN d   1       2.245   0.905   1.409  0.00  0.00     0.027 A 
ATOM      5  C5  DEN d   1       3.195  -0.088   1.317  0.00  0.00    -0.003 A 
ATOM      6  C6  DEN d   1       2.899  -1.342   0.851  0.00  0.00     0.001 A 
ATOM      7  C7  DEN d   1       1.631  -1.622   0.416  0.00  0.00     0.017 A 
ATOM      8  C8  DEN d   1       0.665  -0.628   0.512  0.00  0.00    -0.094 A 
ATOM      9  C9  DEN d   1       0.987   0.636   0.975  0.00  0.00    -0.072 A 
ENDROOT
TORSDOF 0
ENDMDL
