MODEL 1
REMARK minimizedAffinity -2.69518447
REMARK minimizedRMSD -1
REMARK  0 active torsions:
REMARK  status: ('A' for Active; 'I' for Inactive)
ROOT
ATOM      1  C1  DEN d   1      -3.610   2.173  -1.144  0.00  0.00     0.130 A 
ATOM      2  C2  DEN d   1      -4.828   1.369  -1.111  0.00  0.00    -0.031 A 
ATOM      3  C3  DEN d   1      -5.982   2.289  -1.056  0.00  0.00     0.027 A 
ATOM      4  C4  DEN d   1      -6.000   4.868  -1.023  0.00  0.00     0.027 A 
ATOM      5  C5  DEN d   1      -5.210   5.996  -1.025  0.00  0.00    -0.003 A 
ATOM      6  C6  DEN d   1      -3.841   5.929  -1.032  0.00  0.00     0.001 A 
ATOM      7  C7  DEN d   1      -3.222   4.709  -1.083  0.00  0.00     0.017 A 
ATOM      8  C8  DEN d   1      -4.012   3.567  -1.075  0.00  0.00    -0.094 A 
ATOM      9  C9  DEN d   1      -5.393   3.655  -1.080  0.00  0.00    -0.072 A 
ENDROOT
TORSDOF 0
ENDMDL
