MODEL 1
REMARK minimizedAffinity 6.81170893
REMARK minimizedRMSD -1
REMARK  0 active torsions:
REMARK  status: ('A' for Active; 'I' for Inactive)
ROOT
ATOM      1  C1  DEN d   1      -2.681   0.174  -0.571  0.00  0.00     0.130 A 
ATOM      2  C2  DEN d   1      -3.765   1.152  -0.603  0.00  0.00    -0.031 A 
ATOM      3  C3  DEN d   1      -3.679   1.969   0.624  0.00  0.00     0.027 A 
ATOM      4  C4  DEN d   1      -1.978   1.819   2.557  0.00  0.00     0.027 A 
ATOM      5  C5  DEN d   1      -0.881   1.138   3.036  0.00  0.00    -0.003 A 
ATOM      6  C6  DEN d   1      -0.332   0.075   2.369  0.00  0.00     0.001 A 
ATOM      7  C7  DEN d   1      -0.852  -0.310   1.161  0.00  0.00     0.017 A 
ATOM      8  C8  DEN d   1      -1.963   0.367   0.675  0.00  0.00    -0.094 A 
ATOM      9  C9  DEN d   1      -2.495   1.447   1.359  0.00  0.00    -0.072 A 
ENDROOT
TORSDOF 0
ENDMDL
