MODEL 1
REMARK minimizedAffinity 1.96112084
REMARK minimizedRMSD -1
REMARK  0 active torsions:
REMARK  status: ('A' for Active; 'I' for Inactive)
ROOT
ATOM      1  C1  DEN d   1      -1.589   0.760   2.240  0.00  0.00     0.130 A 
ATOM      2  C2  DEN d   1      -1.433  -0.398   1.364  0.00  0.00    -0.031 A 
ATOM      3  C3  DEN d   1       0.012  -0.662   1.211  0.00  0.00     0.027 A 
ATOM      4  C4  DEN d   1       2.012   0.598   2.243  0.00  0.00     0.027 A 
ATOM      5  C5  DEN d   1       2.378   1.656   3.046  0.00  0.00    -0.003 A 
ATOM      6  C6  DEN d   1       1.458   2.502   3.604  0.00  0.00     0.001 A 
ATOM      7  C7  DEN d   1       0.121   2.279   3.404  0.00  0.00     0.017 A 
ATOM      8  C8  DEN d   1      -0.256   1.219   2.590  0.00  0.00    -0.094 A 
ATOM      9  C9  DEN d   1       0.689   0.367   2.044  0.00  0.00    -0.072 A 
ENDROOT
TORSDOF 0
ENDMDL
