MODEL 1
REMARK minimizedAffinity 8.41910744
REMARK minimizedRMSD -1
REMARK  0 active torsions:
REMARK  status: ('A' for Active; 'I' for Inactive)
ROOT
ATOM      1  C1  DEN d   1      -5.639   5.400  -1.832  0.00  0.00     0.130 A 
ATOM      2  C2  DEN d   1      -5.627   4.119  -2.533  0.00  0.00    -0.031 A 
ATOM      3  C3  DEN d   1      -5.744   3.046  -1.525  0.00  0.00     0.027 A 
ATOM      4  C4  DEN d   1      -5.948   3.243   1.039  0.00  0.00     0.027 A 
ATOM      5  C5  DEN d   1      -5.992   4.124   2.097  0.00  0.00    -0.003 A 
ATOM      6  C6  DEN d   1      -5.888   5.478   1.924  0.00  0.00     0.001 A 
ATOM      7  C7  DEN d   1      -5.780   5.995   0.660  0.00  0.00     0.017 A 
ATOM      8  C8  DEN d   1      -5.728   5.114  -0.411  0.00  0.00    -0.094 A 
ATOM      9  C9  DEN d   1      -5.847   3.748  -0.217  0.00  0.00    -0.072 A 
ENDROOT
TORSDOF 0
ENDMDL
