MODEL 1
REMARK minimizedAffinity 6.1589942
REMARK minimizedRMSD -1
REMARK  0 active torsions:
REMARK  status: ('A' for Active; 'I' for Inactive)
ROOT
ATOM      1  C1  DEN d   1       0.798  -0.821   0.404  0.00  0.00     0.130 A 
ATOM      2  C2  DEN d   1       2.118  -0.508   0.944  0.00  0.00    -0.031 A 
ATOM      3  C3  DEN d   1       1.935   0.380   2.110  0.00  0.00     0.027 A 
ATOM      4  C4  DEN d   1      -0.252   1.291   3.129  0.00  0.00     0.027 A 
ATOM      5  C5  DEN d   1      -1.624   1.310   3.008  0.00  0.00    -0.003 A 
ATOM      6  C6  DEN d   1      -2.277   0.654   1.999  0.00  0.00     0.001 A 
ATOM      7  C7  DEN d   1      -1.562  -0.088   1.096  0.00  0.00     0.017 A 
ATOM      8  C8  DEN d   1      -0.177  -0.106   1.207  0.00  0.00    -0.094 A 
ATOM      9  C9  DEN d   1       0.464   0.554   2.242  0.00  0.00    -0.072 A 
ENDROOT
TORSDOF 0
ENDMDL
