MODEL 1
REMARK minimizedAffinity -0.89735949
REMARK minimizedRMSD -1
REMARK  0 active torsions:
REMARK  status: ('A' for Active; 'I' for Inactive)
ROOT
ATOM      1  C1  DEN d   1       2.008   1.821   2.281  0.00  0.00     0.130 A 
ATOM      2  C2  DEN d   1       1.489   2.618   3.390  0.00  0.00    -0.031 A 
ATOM      3  C3  DEN d   1       0.055   2.302   3.548  0.00  0.00     0.027 A 
ATOM      4  C4  DEN d   1      -1.403   0.661   2.194  0.00  0.00     0.027 A 
ATOM      5  C5  DEN d   1      -1.409  -0.234   1.147  0.00  0.00    -0.003 A 
ATOM      6  C6  DEN d   1      -0.295  -0.480   0.390  0.00  0.00     0.001 A 
ATOM      7  C7  DEN d   1       0.885   0.144   0.697  0.00  0.00     0.017 A 
ATOM      8  C8  DEN d   1       0.898   1.053   1.746  0.00  0.00    -0.094 A 
ATOM      9  C9  DEN d   1      -0.236   1.279   2.508  0.00  0.00    -0.072 A 
ENDROOT
TORSDOF 0
ENDMDL
