MODEL 1
REMARK minimizedAffinity 0.36435616
REMARK minimizedRMSD -1
REMARK  0 active torsions:
REMARK  status: ('A' for Active; 'I' for Inactive)
ROOT
ATOM      1  C1  DEN d   1       1.822  -0.173   2.125  0.00  0.00     0.130 A 
ATOM      2  C2  DEN d   1       1.893  -0.746   0.784  0.00  0.00    -0.031 A 
ATOM      3  C3  DEN d   1       0.556  -0.631   0.167  0.00  0.00     0.027 A 
ATOM      4  C4  DEN d   1      -1.604   0.375   1.152  0.00  0.00     0.027 A 
ATOM      5  C5  DEN d   1      -2.160   0.973   2.262  0.00  0.00    -0.003 A 
ATOM      6  C6  DEN d   1      -1.442   1.199   3.406  0.00  0.00     0.001 A 
ATOM      7  C7  DEN d   1      -0.114   0.864   3.452  0.00  0.00     0.017 A 
ATOM      8  C8  DEN d   1       0.451   0.254   2.339  0.00  0.00    -0.094 A 
ATOM      9  C9  DEN d   1      -0.288   0.046   1.187  0.00  0.00    -0.072 A 
ENDROOT
TORSDOF 0
ENDMDL
