MODEL 1
REMARK minimizedAffinity 11.5161457
REMARK minimizedRMSD -1
REMARK  0 active torsions:
REMARK  status: ('A' for Active; 'I' for Inactive)
ROOT
ATOM      1  C1  DEN d   1      -2.368  -0.092  -0.617  0.00  0.00     0.130 A 
ATOM      2  C2  DEN d   1      -3.259   1.060  -0.724  0.00  0.00    -0.031 A 
ATOM      3  C3  DEN d   1      -3.221   1.788   0.560  0.00  0.00     0.027 A 
ATOM      4  C4  DEN d   1      -1.872   1.249   2.691  0.00  0.00     0.027 A 
ATOM      5  C5  DEN d   1      -0.985   0.366   3.265  0.00  0.00    -0.003 A 
ATOM      6  C6  DEN d   1      -0.527  -0.742   2.602  0.00  0.00     0.001 A 
ATOM      7  C7  DEN d   1      -0.919  -0.971   1.310  0.00  0.00     0.017 A 
ATOM      8  C8  DEN d   1      -1.819  -0.088   0.728  0.00  0.00    -0.094 A 
ATOM      9  C9  DEN d   1      -2.262   1.033   1.410  0.00  0.00    -0.072 A 
ENDROOT
TORSDOF 0
ENDMDL
