MODEL 1
REMARK minimizedAffinity 9.42437649
REMARK minimizedRMSD -1
REMARK  0 active torsions:
REMARK  status: ('A' for Active; 'I' for Inactive)
ROOT
ATOM      1  C1  DEN d   1       1.899   0.505   2.250  0.00  0.00     0.130 A 
ATOM      2  C2  DEN d   1       2.025  -0.779   2.932  0.00  0.00    -0.031 A 
ATOM      3  C3  DEN d   1       0.696  -1.150   3.457  0.00  0.00     0.027 A 
ATOM      4  C4  DEN d   1      -1.535   0.132   3.275  0.00  0.00     0.027 A 
ATOM      5  C5  DEN d   1      -2.137   1.275   2.798  0.00  0.00    -0.003 A 
ATOM      6  C6  DEN d   1      -1.435   2.250   2.140  0.00  0.00     0.001 A 
ATOM      7  C7  DEN d   1      -0.097   2.079   1.901  0.00  0.00     0.017 A 
ATOM      8  C8  DEN d   1       0.518   0.932   2.385  0.00  0.00    -0.094 A 
ATOM      9  C9  DEN d   1      -0.211  -0.048   3.038  0.00  0.00    -0.072 A 
ENDROOT
TORSDOF 0
ENDMDL
