MODEL 1
REMARK minimizedAffinity 6.48755217
REMARK minimizedRMSD -1
REMARK  0 active torsions:
REMARK  status: ('A' for Active; 'I' for Inactive)
ROOT
ATOM      1  C1  DEN d   1      -2.230  -2.667  -0.415  0.00  0.00     0.130 A 
ATOM      2  C2  DEN d   1      -1.050  -2.432  -1.243  0.00  0.00    -0.031 A 
ATOM      3  C3  DEN d   1      -0.267  -1.343  -0.624  0.00  0.00     0.027 A 
ATOM      4  C4  DEN d   1      -0.763  -0.009   1.527  0.00  0.00     0.027 A 
ATOM      5  C5  DEN d   1      -1.654   0.158   2.564  0.00  0.00    -0.003 A 
ATOM      6  C6  DEN d   1      -2.807  -0.575   2.662  0.00  0.00     0.001 A 
ATOM      7  C7  DEN d   1      -3.077  -1.541   1.729  0.00  0.00     0.017 A 
ATOM      8  C8  DEN d   1      -2.187  -1.711   0.677  0.00  0.00    -0.094 A 
ATOM      9  C9  DEN d   1      -1.021  -0.968   0.603  0.00  0.00    -0.072 A 
ENDROOT
TORSDOF 0
ENDMDL
