MODEL 1
REMARK minimizedAffinity 2.68155408
REMARK minimizedRMSD -1
REMARK  0 active torsions:
REMARK  status: ('A' for Active; 'I' for Inactive)
ROOT
ATOM      1  C1  DEN d   1      -3.683  -0.140  -0.571  0.00  0.00     0.130 A 
ATOM      2  C2  DEN d   1      -4.423   1.103  -0.772  0.00  0.00    -0.031 A 
ATOM      3  C3  DEN d   1      -3.885   2.111   0.163  0.00  0.00     0.027 A 
ATOM      4  C4  DEN d   1      -1.982   1.871   1.889  0.00  0.00     0.027 A 
ATOM      5  C5  DEN d   1      -1.063   1.002   2.432  0.00  0.00    -0.003 A 
ATOM      6  C6  DEN d   1      -0.975  -0.308   2.039  0.00  0.00     0.001 A 
ATOM      7  C7  DEN d   1      -1.792  -0.774   1.043  0.00  0.00     0.017 A 
ATOM      8  C8  DEN d   1      -2.728   0.095   0.496  0.00  0.00    -0.094 A 
ATOM      9  C9  DEN d   1      -2.792   1.418   0.898  0.00  0.00    -0.072 A 
ENDROOT
TORSDOF 0
ENDMDL
