MODEL 1
REMARK minimizedAffinity 7.12401724
REMARK minimizedRMSD -1
REMARK  0 active torsions:
REMARK  status: ('A' for Active; 'I' for Inactive)
ROOT
ATOM      1  C1  DEN d   1       0.145  -0.949   0.989  0.00  0.00     0.130 A 
ATOM      2  C2  DEN d   1      -1.128  -1.547   0.597  0.00  0.00    -0.031 A 
ATOM      3  C3  DEN d   1      -2.210  -0.789   1.258  0.00  0.00     0.027 A 
ATOM      4  C4  DEN d   1      -2.038   1.242   2.838  0.00  0.00     0.027 A 
ATOM      5  C5  DEN d   1      -1.167   2.100   3.473  0.00  0.00    -0.003 A 
ATOM      6  C6  DEN d   1       0.192   1.981   3.353  0.00  0.00     0.001 A 
ATOM      7  C7  DEN d   1       0.720   1.010   2.543  0.00  0.00     0.017 A 
ATOM      8  C8  DEN d   1      -0.152   0.137   1.905  0.00  0.00    -0.094 A 
ATOM      9  C9  DEN d   1      -1.523   0.281   2.030  0.00  0.00    -0.072 A 
ENDROOT
TORSDOF 0
ENDMDL
