MODEL 1
REMARK minimizedAffinity 11.3897028
REMARK minimizedRMSD -1
REMARK  3 active torsions:
REMARK  status: ('A' for Active; 'I' for Inactive)
REMARK    1  A    between atoms: C3'_2  and  C2'_3 
REMARK    2  A    between atoms: C2'_3  and  C1'_4 
REMARK    3  A    between atoms: C1'_4  and  C1_5 
ROOT
ATOM      1  C1  N4B d   1      -3.939   3.390   5.879  0.00  0.00    -0.075 A 
ATOM      2  C2  N4B d   1      -4.777   4.525   5.939  0.00  0.00     0.002 A 
ATOM      3  C3  N4B d   1      -4.228   5.782   5.989  0.00  0.00     0.002 A 
ATOM      4  C4  N4B d   1      -2.848   5.928   5.998  0.00  0.00    -0.004 A 
ATOM      5  C5  N4B d   1      -2.046   4.828   5.914  0.00  0.00     0.002 A 
ATOM      6  C6  N4B d   1      -2.585   3.558   5.860  0.00  0.00     0.002 A 
ENDROOT
BRANCH   1   7
ATOM      7  C1' N4B d   1      -4.492   1.991   5.911  0.00  0.00     0.057 C 
BRANCH   7   8
ATOM      8  C2' N4B d   1      -4.884   1.576   4.496  0.00  0.00     0.009 C 
BRANCH   8   9
ATOM      9  C3' N4B d   1      -4.273   0.241   4.106  0.00  0.00     0.004 C 
ATOM     10  C4' N4B d   1      -3.621   0.273   2.756  0.00  0.00     0.003 C 
ENDBRANCH   8   9
ENDBRANCH   7   8
ENDBRANCH   1   7
TORSDOF 3
ENDMDL
