MODEL 1
REMARK minimizedAffinity -0.412759215
REMARK minimizedRMSD -1
REMARK  3 active torsions:
REMARK  status: ('A' for Active; 'I' for Inactive)
REMARK    1  A    between atoms: C3'_2  and  C2'_3 
REMARK    2  A    between atoms: C2'_3  and  C1'_4 
REMARK    3  A    between atoms: C1'_4  and  C1_5 
ROOT
ATOM      1  C1  N4B d   1       2.593   1.065  -2.773  0.00  0.00    -0.075 A 
ATOM      2  C2  N4B d   1       3.213  -0.154  -3.127  0.00  0.00     0.002 A 
ATOM      3  C3  N4B d   1       3.901  -0.256  -4.311  0.00  0.00     0.002 A 
ATOM      4  C4  N4B d   1       3.966   0.837  -5.163  0.00  0.00    -0.004 A 
ATOM      5  C5  N4B d   1       3.387   2.018  -4.802  0.00  0.00     0.002 A 
ATOM      6  C6  N4B d   1       2.695   2.136  -3.613  0.00  0.00     0.002 A 
ENDROOT
BRANCH   1   7
ATOM      7  C1' N4B d   1       1.758   1.199  -1.529  0.00  0.00     0.057 C 
BRANCH   7   8
ATOM      8  C2' N4B d   1       0.310   0.847  -1.858  0.00  0.00     0.009 C 
BRANCH   8   9
ATOM      9  C3' N4B d   1      -0.127   1.430  -3.191  0.00  0.00     0.004 C 
ATOM     10  C4' N4B d   1      -0.985   0.488  -3.983  0.00  0.00     0.003 C 
ENDBRANCH   8   9
ENDBRANCH   7   8
ENDBRANCH   1   7
TORSDOF 3
ENDMDL
