MODEL 1
REMARK minimizedAffinity 0.464405149
REMARK minimizedRMSD -1
REMARK  3 active torsions:
REMARK  status: ('A' for Active; 'I' for Inactive)
REMARK    1  A    between atoms: C3'_2  and  C2'_3 
REMARK    2  A    between atoms: C2'_3  and  C1'_4 
REMARK    3  A    between atoms: C1'_4  and  C1_5 
ROOT
ATOM      1  C1  N4B d   1       5.519  -2.079   4.246  0.00  0.00    -0.075 A 
ATOM      2  C2  N4B d   1       5.153  -2.336   5.586  0.00  0.00     0.002 A 
ATOM      3  C3  N4B d   1       4.856  -3.616   5.983  0.00  0.00     0.002 A 
ATOM      4  C4  N4B d   1       4.899  -4.649   5.058  0.00  0.00    -0.004 A 
ATOM      5  C5  N4B d   1       5.278  -4.397   3.772  0.00  0.00     0.002 A 
ATOM      6  C6  N4B d   1       5.584  -3.116   3.360  0.00  0.00     0.002 A 
ENDROOT
BRANCH   1   7
ATOM      7  C1' N4B d   1       5.770  -0.684   3.745  0.00  0.00     0.057 C 
BRANCH   7   8
ATOM      8  C2' N4B d   1       5.455  -0.623   2.253  0.00  0.00     0.009 C 
BRANCH   8   9
ATOM      9  C3' N4B d   1       4.966   0.751   1.831  0.00  0.00     0.004 C 
ATOM     10  C4' N4B d   1       4.334   0.750   0.471  0.00  0.00     0.003 C 
ENDBRANCH   8   9
ENDBRANCH   7   8
ENDBRANCH   1   7
TORSDOF 3
ENDMDL
