MODEL 1
REMARK minimizedAffinity 7.83213902
REMARK minimizedRMSD -1
REMARK  3 active torsions:
REMARK  status: ('A' for Active; 'I' for Inactive)
REMARK    1  A    between atoms: C3'_2  and  C2'_3 
REMARK    2  A    between atoms: C2'_3  and  C1'_4 
REMARK    3  A    between atoms: C1'_4  and  C1_5 
ROOT
ATOM      1  C1  N4B d   1      -0.062   0.310  -0.116  0.00  0.00    -0.075 A 
ATOM      2  C2  N4B d   1      -0.191   0.126   1.278  0.00  0.00     0.002 A 
ATOM      3  C3  N4B d   1       0.682   0.749   2.137  0.00  0.00     0.002 A 
ATOM      4  C4  N4B d   1       1.699   1.541   1.626  0.00  0.00    -0.004 A 
ATOM      5  C5  N4B d   1       1.801   1.734   0.279  0.00  0.00     0.002 A 
ATOM      6  C6  N4B d   1       0.929   1.118  -0.595  0.00  0.00     0.002 A 
ENDROOT
BRANCH   1   7
ATOM      7  C1' N4B d   1      -0.938  -0.418  -1.098  0.00  0.00     0.057 C 
BRANCH   7   8
ATOM      8  C2' N4B d   1      -0.799  -1.921  -0.875  0.00  0.00     0.009 C 
BRANCH   8   9
ATOM      9  C3' N4B d   1      -2.113  -2.652  -1.090  0.00  0.00     0.004 C 
ATOM     10  C4' N4B d   1      -1.974  -4.141  -0.983  0.00  0.00     0.003 C 
ENDBRANCH   8   9
ENDBRANCH   7   8
ENDBRANCH   1   7
TORSDOF 3
ENDMDL
