MODEL 1
REMARK minimizedAffinity 8.32212162
REMARK minimizedRMSD -1
REMARK  3 active torsions:
REMARK  status: ('A' for Active; 'I' for Inactive)
REMARK    1  A    between atoms: C3'_2  and  C2'_3 
REMARK    2  A    between atoms: C2'_3  and  C1'_4 
REMARK    3  A    between atoms: C1'_4  and  C1_5 
ROOT
ATOM      1  C1  N4B d   1      -1.237  -2.391   0.315  0.00  0.00    -0.075 A 
ATOM      2  C2  N4B d   1      -1.035  -1.297  -0.556  0.00  0.00     0.002 A 
ATOM      3  C3  N4B d   1      -0.123  -0.322  -0.233  0.00  0.00     0.002 A 
ATOM      4  C4  N4B d   1       0.581  -0.409   0.959  0.00  0.00    -0.004 A 
ATOM      5  C5  N4B d   1       0.399  -1.482   1.782  0.00  0.00     0.002 A 
ATOM      6  C6  N4B d   1      -0.511  -2.471   1.468  0.00  0.00     0.002 A 
ENDROOT
BRANCH   1   7
ATOM      7  C1' N4B d   1      -2.284  -3.437   0.046  0.00  0.00     0.057 C 
BRANCH   7   8
ATOM      8  C2' N4B d   1      -1.743  -4.438  -0.970  0.00  0.00     0.009 C 
BRANCH   8   9
ATOM      9  C3' N4B d   1      -2.016  -5.873  -0.555  0.00  0.00     0.004 C 
ATOM     10  C4' N4B d   1      -3.202  -5.999   0.353  0.00  0.00     0.003 C 
ENDBRANCH   8   9
ENDBRANCH   7   8
ENDBRANCH   1   7
TORSDOF 3
ENDMDL
