MODEL 1
REMARK minimizedAffinity -4.66278505
REMARK minimizedRMSD -1
REMARK  1 active torsions:
REMARK  status: ('A' for Active; 'I' for Inactive)
REMARK    1  A    between atoms: C1_2  and  C2_3 
ROOT
ATOM      1  C2  UNL d   1       0.169  -0.700  -1.319  0.00  0.00    -0.077 A 
ATOM      2  C3  UNL d   1       0.527   0.645  -1.150  0.00  0.00     0.002 A 
ATOM      3  C4  UNL d   1       0.283   1.294   0.062  0.00  0.00     0.002 A 
ATOM      4  C5  UNL d   1      -0.315   0.605   1.115  0.00  0.00    -0.004 A 
ATOM      5  C6  UNL d   1      -0.677  -0.732   0.956  0.00  0.00     0.002 A 
ATOM      6  C7  UNL d   1      -0.435  -1.382  -0.255  0.00  0.00     0.002 A 
ENDROOT
BRANCH   1   7
ATOM      7  C1  UNL d   1       0.475  -1.415  -2.609  0.00  0.00     0.055 C 
ATOM      8  C   UNL d   1      -0.245  -2.753  -2.685  0.00  0.00     0.019 C 
ENDBRANCH   1   7
TORSDOF 1
ENDMDL
