MODEL 1
REMARK minimizedAffinity -2.34957719
REMARK minimizedRMSD -1
REMARK  1 active torsions:
REMARK  status: ('A' for Active; 'I' for Inactive)
REMARK    1  A    between atoms: C1_2  and  C2_3 
ROOT
ATOM      1  C2  UNL d   1       0.032   1.556   0.474  0.00  0.00    -0.077 A 
ATOM      2  C3  UNL d   1      -0.239   0.949   1.708  0.00  0.00     0.002 A 
ATOM      3  C4  UNL d   1      -0.596  -0.400   1.768  0.00  0.00     0.002 A 
ATOM      4  C5  UNL d   1      -0.681  -1.153   0.599  0.00  0.00    -0.004 A 
ATOM      5  C6  UNL d   1      -0.415  -0.557  -0.634  0.00  0.00     0.002 A 
ATOM      6  C7  UNL d   1      -0.059   0.791  -0.695  0.00  0.00     0.002 A 
ENDROOT
BRANCH   1   7
ATOM      7  C1  UNL d   1       0.465   2.998   0.412  0.00  0.00     0.055 C 
ATOM      8  C   UNL d   1       1.955   3.140   0.687  0.00  0.00     0.019 C 
ENDBRANCH   1   7
TORSDOF 1
ENDMDL
