MODEL 1
REMARK minimizedAffinity -2.41930556
REMARK minimizedRMSD -1
REMARK  1 active torsions:
REMARK  status: ('A' for Active; 'I' for Inactive)
REMARK    1  A    between atoms: C1_2  and  C2_3 
ROOT
ATOM      1  C2  UNL d   1      -0.098   0.840   0.124  0.00  0.00    -0.077 A 
ATOM      2  C3  UNL d   1       0.070  -0.323  -0.640  0.00  0.00     0.002 A 
ATOM      3  C4  UNL d   1      -0.312  -1.565  -0.130  0.00  0.00     0.002 A 
ATOM      4  C5  UNL d   1      -0.869  -1.655   1.145  0.00  0.00    -0.004 A 
ATOM      5  C6  UNL d   1      -1.038  -0.504   1.913  0.00  0.00     0.002 A 
ATOM      6  C7  UNL d   1      -0.656   0.738   1.405  0.00  0.00     0.002 A 
ENDROOT
BRANCH   1   7
ATOM      7  C1  UNL d   1       0.268   2.187  -0.444  0.00  0.00     0.055 C 
ATOM      8  C   UNL d   1       0.296   3.255   0.639  0.00  0.00     0.019 C 
ENDBRANCH   1   7
TORSDOF 1
ENDMDL
