MODEL 1
REMARK minimizedAffinity -3.35952163
REMARK minimizedRMSD -1
REMARK  1 active torsions:
REMARK  status: ('A' for Active; 'I' for Inactive)
REMARK    1  A    between atoms: C1_2  and  C2_3 
ROOT
ATOM      1  C2  UNL d   1      -0.415  -1.165  -0.287  0.00  0.00    -0.077 A 
ATOM      2  C3  UNL d   1       0.038  -0.996  -1.603  0.00  0.00     0.002 A 
ATOM      3  C4  UNL d   1      -0.031  -2.051  -2.515  0.00  0.00     0.002 A 
ATOM      4  C5  UNL d   1      -0.556  -3.280  -2.122  0.00  0.00    -0.004 A 
ATOM      5  C6  UNL d   1      -1.008  -3.459  -0.815  0.00  0.00     0.002 A 
ATOM      6  C7  UNL d   1      -0.938  -2.406   0.098  0.00  0.00     0.002 A 
ENDROOT
BRANCH   1   7
ATOM      7  C1  UNL d   1      -0.386  -0.013   0.684  0.00  0.00     0.055 C 
ATOM      8  C   UNL d   1      -0.214   1.315  -0.038  0.00  0.00     0.019 C 
ENDBRANCH   1   7
TORSDOF 1
ENDMDL
