MODEL 1
REMARK minimizedAffinity -1.35860813
REMARK minimizedRMSD -1
REMARK  1 active torsions:
REMARK  status: ('A' for Active; 'I' for Inactive)
REMARK    1  A    between atoms: C1_2  and  C2_3 
ROOT
ATOM      1  C2  UNL d   1      -0.235   1.078   0.034  0.00  0.00    -0.077 A 
ATOM      2  C3  UNL d   1       0.179  -0.175  -0.439  0.00  0.00     0.002 A 
ATOM      3  C4  UNL d   1      -0.304  -1.346   0.147  0.00  0.00     0.002 A 
ATOM      4  C5  UNL d   1      -1.206  -1.276   1.207  0.00  0.00    -0.004 A 
ATOM      5  C6  UNL d   1      -1.621  -0.034   1.687  0.00  0.00     0.002 A 
ATOM      6  C7  UNL d   1      -1.139   1.138   1.103  0.00  0.00     0.002 A 
ENDROOT
BRANCH   1   7
ATOM      7  C1  UNL d   1       0.247   2.342  -0.629  0.00  0.00     0.055 C 
ATOM      8  C   UNL d   1       0.693   3.372   0.399  0.00  0.00     0.019 C 
ENDBRANCH   1   7
TORSDOF 1
ENDMDL
