MODEL 1
REMARK minimizedAffinity -3.70616388
REMARK minimizedRMSD -1
REMARK  1 active torsions:
REMARK  status: ('A' for Active; 'I' for Inactive)
REMARK    1  A    between atoms: C1_2  and  C2_3 
ROOT
ATOM      1  C2  UNL d   1      -0.393   0.599  -0.367  0.00  0.00    -0.077 A 
ATOM      2  C3  UNL d   1      -0.816   0.555   0.969  0.00  0.00     0.002 A 
ATOM      3  C4  UNL d   1      -1.103  -0.667   1.579  0.00  0.00     0.002 A 
ATOM      4  C5  UNL d   1      -0.967  -1.854   0.862  0.00  0.00    -0.004 A 
ATOM      5  C6  UNL d   1      -0.550  -1.821  -0.468  0.00  0.00     0.002 A 
ATOM      6  C7  UNL d   1      -0.263  -0.600  -1.079  0.00  0.00     0.002 A 
ENDROOT
BRANCH   1   7
ATOM      7  C1  UNL d   1      -0.035   1.913  -1.012  0.00  0.00     0.055 C 
ATOM      8  C   UNL d   1       0.542   2.889   0.004  0.00  0.00     0.019 C 
ENDBRANCH   1   7
TORSDOF 1
ENDMDL
