MODEL 1
REMARK minimizedAffinity -3.12919617
REMARK minimizedRMSD -1
REMARK  1 active torsions:
REMARK  status: ('A' for Active; 'I' for Inactive)
REMARK    1  A    between atoms: C1_2  and  C2_3 
ROOT
ATOM      1  C2  UNL d   1      -0.401  -0.808   0.091  0.00  0.00    -0.077 A 
ATOM      2  C3  UNL d   1      -0.061  -0.866  -1.268  0.00  0.00     0.002 A 
ATOM      3  C4  UNL d   1      -0.192  -2.061  -1.978  0.00  0.00     0.002 A 
ATOM      4  C5  UNL d   1      -0.667  -3.204  -1.340  0.00  0.00    -0.004 A 
ATOM      5  C6  UNL d   1      -1.006  -3.157   0.011  0.00  0.00     0.002 A 
ATOM      6  C7  UNL d   1      -0.874  -1.965   0.724  0.00  0.00     0.002 A 
ENDROOT
BRANCH   1   7
ATOM      7  C1  UNL d   1      -0.306   0.492   0.847  0.00  0.00     0.055 C 
ATOM      8  C   UNL d   1       0.139   1.629  -0.061  0.00  0.00     0.019 C 
ENDBRANCH   1   7
TORSDOF 1
ENDMDL
