MODEL 1
REMARK minimizedAffinity -2.91082764
REMARK minimizedRMSD -1
REMARK  1 active torsions:
REMARK  status: ('A' for Active; 'I' for Inactive)
REMARK    1  A    between atoms: C1_2  and  C2_3 
ROOT
ATOM      1  C2  UNL d   1       0.716   1.531   0.244  0.00  0.00    -0.077 A 
ATOM      2  C3  UNL d   1       0.722   0.746   1.405  0.00  0.00     0.002 A 
ATOM      3  C4  UNL d   1      -0.020  -0.435   1.462  0.00  0.00     0.002 A 
ATOM      4  C5  UNL d   1      -0.769  -0.844   0.361  0.00  0.00    -0.004 A 
ATOM      5  C6  UNL d   1      -0.782  -0.069  -0.798  0.00  0.00     0.002 A 
ATOM      6  C7  UNL d   1      -0.042   1.113  -0.857  0.00  0.00     0.002 A 
ENDROOT
BRANCH   1   7
ATOM      7  C1  UNL d   1       1.555   2.780   0.163  0.00  0.00     0.055 C 
ATOM      8  C   UNL d   1       2.797   2.671   1.035  0.00  0.00     0.019 C 
ENDBRANCH   1   7
TORSDOF 1
ENDMDL
