MODEL 1
REMARK minimizedAffinity -0.126333565
REMARK minimizedRMSD -1
REMARK  1 active torsions:
REMARK  status: ('A' for Active; 'I' for Inactive)
REMARK    1  A    between atoms: C1_2  and  C2_3 
ROOT
ATOM      1  C2  UNL d   1      -0.364   0.209   0.019  0.00  0.00    -0.077 A 
ATOM      2  C3  UNL d   1      -0.545   0.309   1.406  0.00  0.00     0.002 A 
ATOM      3  C4  UNL d   1      -0.978  -0.795   2.143  0.00  0.00     0.002 A 
ATOM      4  C5  UNL d   1      -1.229  -2.007   1.503  0.00  0.00    -0.004 A 
ATOM      5  C6  UNL d   1      -1.055  -2.116   0.124  0.00  0.00     0.002 A 
ATOM      6  C7  UNL d   1      -0.623  -1.013  -0.615  0.00  0.00     0.002 A 
ENDROOT
BRANCH   1   7
ATOM      7  C1  UNL d   1       0.149   1.385  -0.771  0.00  0.00     0.055 C 
ATOM      8  C   UNL d   1       0.770   2.434   0.140  0.00  0.00     0.019 C 
ENDBRANCH   1   7
TORSDOF 1
ENDMDL
