MODEL 1
REMARK minimizedAffinity 10.6683187
REMARK minimizedRMSD -1
REMARK  1 active torsions:
REMARK  status: ('A' for Active; 'I' for Inactive)
REMARK    1  A    between atoms: C1_2  and  C2_3 
ROOT
ATOM      1  C2  UNL d   1       2.364   5.888  -5.278  0.00  0.00    -0.081 A 
ATOM      2  C3  UNL d   1       1.163   5.949  -5.994  0.00  0.00     0.006 A 
ATOM      3  C4  UNL d   1      -0.062   5.970  -5.322  0.00  0.00     0.002 A 
ATOM      4  C5  UNL d   1      -0.105   5.938  -3.924  0.00  0.00    -0.080 A 
ATOM      5  C6  UNL d   1      -1.411   5.991  -3.189  0.00  0.00     0.076 C 
ATOM      6  C7  UNL d   1       1.095   5.859  -3.209  0.00  0.00     0.002 A 
ATOM      7  C8  UNL d   1       2.320   5.837  -3.880  0.00  0.00     0.006 A 
ENDROOT
BRANCH   1   8
ATOM      8  C1  UNL d   1       3.688   5.930  -5.998  0.00  0.00     0.054 C 
ATOM      9  C   UNL d   1       4.695   4.982  -5.361  0.00  0.00     0.018 C 
ENDBRANCH   1   8
TORSDOF 1
ENDMDL
