MODEL 1
REMARK minimizedAffinity -0.760804594
REMARK minimizedRMSD -1
REMARK  1 active torsions:
REMARK  status: ('A' for Active; 'I' for Inactive)
REMARK    1  A    between atoms: C1_2  and  C2_3 
ROOT
ATOM      1  C2  UNL d   1      -3.345   5.918  -3.994  0.00  0.00    -0.081 A 
ATOM      2  C3  UNL d   1      -2.599   5.992  -2.811  0.00  0.00     0.006 A 
ATOM      3  C4  UNL d   1      -1.203   6.000  -2.854  0.00  0.00     0.002 A 
ATOM      4  C5  UNL d   1      -0.530   5.942  -4.080  0.00  0.00    -0.080 A 
ATOM      5  C6  UNL d   1       0.968   5.981  -4.141  0.00  0.00     0.076 C 
ATOM      6  C7  UNL d   1      -1.275   5.851  -5.260  0.00  0.00     0.002 A 
ATOM      7  C8  UNL d   1      -2.671   5.842  -5.218  0.00  0.00     0.006 A 
ENDROOT
BRANCH   1   8
ATOM      8  C1  UNL d   1      -4.851   5.974  -3.954  0.00  0.00     0.054 C 
ATOM      9  C   UNL d   1      -5.441   5.997  -5.357  0.00  0.00     0.018 C 
ENDBRANCH   1   8
TORSDOF 1
ENDMDL
