MODEL 1
REMARK minimizedAffinity 6.28188705
REMARK minimizedRMSD -1
REMARK  1 active torsions:
REMARK  status: ('A' for Active; 'I' for Inactive)
REMARK    1  A    between atoms: C1_2  and  C2_3 
ROOT
ATOM      1  C2  UNL d   1       1.313   1.680  -0.471  0.00  0.00    -0.081 A 
ATOM      2  C3  UNL d   1       1.371   0.522  -1.256  0.00  0.00     0.006 A 
ATOM      3  C4  UNL d   1       0.821  -0.675  -0.792  0.00  0.00     0.002 A 
ATOM      4  C5  UNL d   1       0.197  -0.733   0.458  0.00  0.00    -0.080 A 
ATOM      5  C6  UNL d   1      -0.425  -2.004   0.954  0.00  0.00     0.076 C 
ATOM      6  C7  UNL d   1       0.154   0.420   1.250  0.00  0.00     0.002 A 
ATOM      7  C8  UNL d   1       0.705   1.617   0.787  0.00  0.00     0.006 A 
ENDROOT
BRANCH   1   8
ATOM      8  C1  UNL d   1       1.848   2.989  -0.995  0.00  0.00     0.054 C 
ATOM      9  C   UNL d   1       1.112   4.172  -0.383  0.00  0.00     0.018 C 
ENDBRANCH   1   8
TORSDOF 1
ENDMDL
