MODEL 1
REMARK minimizedAffinity -4.18180132
REMARK minimizedRMSD -1
REMARK  1 active torsions:
REMARK  status: ('A' for Active; 'I' for Inactive)
REMARK    1  A    between atoms: C1_2  and  C2_3 
ROOT
ATOM      1  C2  UNL d   1       1.331   5.864  -5.164  0.00  0.00    -0.081 A 
ATOM      2  C3  UNL d   1       1.259   5.855  -3.766  0.00  0.00     0.006 A 
ATOM      3  C4  UNL d   1       0.022   5.910  -3.119  0.00  0.00     0.002 A 
ATOM      4  C5  UNL d   1      -1.163   5.967  -3.859  0.00  0.00    -0.080 A 
ATOM      5  C6  UNL d   1      -2.499   5.997  -3.178  0.00  0.00     0.076 C 
ATOM      6  C7  UNL d   1      -1.092   5.994  -5.256  0.00  0.00     0.002 A 
ATOM      7  C8  UNL d   1       0.145   5.939  -5.903  0.00  0.00     0.006 A 
ENDROOT
BRANCH   1   8
ATOM      8  C1  UNL d   1       2.659   5.739  -5.865  0.00  0.00     0.054 C 
ATOM      9  C   UNL d   1       3.815   5.996  -4.909  0.00  0.00     0.018 C 
ENDBRANCH   1   8
TORSDOF 1
ENDMDL
