MODEL 1
REMARK minimizedAffinity -1.68549335
REMARK minimizedRMSD -1
REMARK  1 active torsions:
REMARK  status: ('A' for Active; 'I' for Inactive)
REMARK    1  A    between atoms: C1_2  and  C2_3 
ROOT
ATOM      1  C2  UNL d   1      -1.333   5.417  -3.196  0.00  0.00    -0.081 A 
ATOM      2  C3  UNL d   1      -0.102   5.950  -2.794  0.00  0.00     0.006 A 
ATOM      3  C4  UNL d   1       0.973   5.999  -3.685  0.00  0.00     0.002 A 
ATOM      4  C5  UNL d   1       0.832   5.525  -4.994  0.00  0.00    -0.080 A 
ATOM      5  C6  UNL d   1       1.969   5.601  -5.969  0.00  0.00     0.076 C 
ATOM      6  C7  UNL d   1      -0.392   4.978  -5.390  0.00  0.00     0.002 A 
ATOM      7  C8  UNL d   1      -1.467   4.927  -4.499  0.00  0.00     0.006 A 
ENDROOT
BRANCH   1   8
ATOM      8  C1  UNL d   1      -2.513   5.422  -2.257  0.00  0.00     0.054 C 
ATOM      9  C   UNL d   1      -3.752   5.997  -2.929  0.00  0.00     0.018 C 
ENDBRANCH   1   8
TORSDOF 1
ENDMDL
