MODEL 1
REMARK minimizedAffinity 1.57445276
REMARK minimizedRMSD -1
REMARK  1 active torsions:
REMARK  status: ('A' for Active; 'I' for Inactive)
REMARK    1  A    between atoms: C1_2  and  C2_3 
ROOT
ATOM      1  C2  UNL d   1       3.214   5.926  -4.892  0.00  0.00    -0.081 A 
ATOM      2  C3  UNL d   1       2.359   5.866  -5.999  0.00  0.00     0.006 A 
ATOM      3  C4  UNL d   1       0.973   5.877  -5.825  0.00  0.00     0.002 A 
ATOM      4  C5  UNL d   1       0.419   5.957  -4.543  0.00  0.00    -0.080 A 
ATOM      5  C6  UNL d   1      -1.067   6.000  -4.344  0.00  0.00     0.076 C 
ATOM      6  C7  UNL d   1       1.273   6.000  -3.436  0.00  0.00     0.002 A 
ATOM      7  C8  UNL d   1       2.659   5.988  -3.609  0.00  0.00     0.006 A 
ENDROOT
BRANCH   1   8
ATOM      8  C1  UNL d   1       4.708   5.980  -5.080  0.00  0.00     0.054 C 
ATOM      9  C   UNL d   1       5.377   4.714  -4.563  0.00  0.00     0.018 C 
ENDBRANCH   1   8
TORSDOF 1
ENDMDL
