MODEL 1
REMARK minimizedAffinity -2.0510211
REMARK minimizedRMSD -1
REMARK  1 active torsions:
REMARK  status: ('A' for Active; 'I' for Inactive)
REMARK    1  A    between atoms: C1_2  and  C2_3 
ROOT
ATOM      1  C2  UNL d   1       1.926   6.000  -4.711  0.00  0.00    -0.081 A 
ATOM      2  C3  UNL d   1       1.168   6.000  -3.533  0.00  0.00     0.006 A 
ATOM      3  C4  UNL d   1      -0.227   5.957  -3.590  0.00  0.00     0.002 A 
ATOM      4  C5  UNL d   1      -0.886   5.906  -4.822  0.00  0.00    -0.080 A 
ATOM      5  C6  UNL d   1      -2.382   5.829  -4.896  0.00  0.00     0.076 C 
ATOM      6  C7  UNL d   1      -0.130   5.923  -5.999  0.00  0.00     0.002 A 
ATOM      7  C8  UNL d   1       1.265   5.967  -5.943  0.00  0.00     0.006 A 
ENDROOT
BRANCH   1   8
ATOM      8  C1  UNL d   1       3.433   5.980  -4.652  0.00  0.00     0.054 C 
ATOM      9  C   UNL d   1       4.030   5.470  -5.956  0.00  0.00     0.018 C 
ENDBRANCH   1   8
TORSDOF 1
ENDMDL
