MODEL 1
REMARK minimizedAffinity 0.118867546
REMARK minimizedRMSD -1
REMARK  1 active torsions:
REMARK  status: ('A' for Active; 'I' for Inactive)
REMARK    1  A    between atoms: C1_2  and  C2_3 
ROOT
ATOM      1  C2  UNL d   1      -2.316   5.969  -3.896  0.00  0.00    -0.081 A 
ATOM      2  C3  UNL d   1      -2.026   5.979  -5.265  0.00  0.00     0.006 A 
ATOM      3  C4  UNL d   1      -0.701   5.995  -5.708  0.00  0.00     0.002 A 
ATOM      4  C5  UNL d   1       0.354   5.992  -4.790  0.00  0.00    -0.080 A 
ATOM      5  C6  UNL d   1       1.781   5.978  -5.252  0.00  0.00     0.076 C 
ATOM      6  C7  UNL d   1       0.064   6.000  -3.421  0.00  0.00     0.002 A 
ATOM      7  C8  UNL d   1      -1.260   5.985  -2.978  0.00  0.00     0.006 A 
ENDROOT
BRANCH   1   8
ATOM      8  C1  UNL d   1      -3.743   5.887  -3.415  0.00  0.00     0.054 C 
ATOM      9  C   UNL d   1      -3.821   5.961  -1.897  0.00  0.00     0.018 C 
ENDBRANCH   1   8
TORSDOF 1
ENDMDL
