MODEL 1
REMARK minimizedAffinity 3.58273363
REMARK minimizedRMSD -1
REMARK  1 active torsions:
REMARK  status: ('A' for Active; 'I' for Inactive)
REMARK    1  A    between atoms: C1_2  and  C2_3 
ROOT
ATOM      1  C2  UNL d   1      -1.760   5.743  -4.262  0.00  0.00    -0.081 A 
ATOM      2  C3  UNL d   1      -0.767   5.815  -3.277  0.00  0.00     0.006 A 
ATOM      3  C4  UNL d   1       0.581   5.886  -3.635  0.00  0.00     0.002 A 
ATOM      4  C5  UNL d   1       0.959   5.893  -4.982  0.00  0.00    -0.080 A 
ATOM      5  C6  UNL d   1       2.401   5.999  -5.379  0.00  0.00     0.076 C 
ATOM      6  C7  UNL d   1      -0.032   5.803  -5.965  0.00  0.00     0.002 A 
ATOM      7  C8  UNL d   1      -1.380   5.732  -5.608  0.00  0.00     0.006 A 
ENDROOT
BRANCH   1   8
ATOM      8  C1  UNL d   1      -3.218   5.732  -3.881  0.00  0.00     0.054 C 
ATOM      9  C   UNL d   1      -3.397   5.557  -2.379  0.00  0.00     0.018 C 
ENDBRANCH   1   8
TORSDOF 1
ENDMDL
