MODEL 1
REMARK minimizedAffinity 5.4566493
REMARK minimizedRMSD -1
REMARK  1 active torsions:
REMARK  status: ('A' for Active; 'I' for Inactive)
REMARK    1  A    between atoms: C1_2  and  C2_3 
ROOT
ATOM      1  C2  UNL d   1       1.760   2.007  -0.358  0.00  0.00    -0.081 A 
ATOM      2  C3  UNL d   1       1.175   3.056   0.361  0.00  0.00     0.006 A 
ATOM      3  C4  UNL d   1       0.432   2.796   1.515  0.00  0.00     0.002 A 
ATOM      4  C5  UNL d   1       0.270   1.484   1.974  0.00  0.00    -0.080 A 
ATOM      5  C6  UNL d   1      -0.499   1.193   3.228  0.00  0.00     0.076 C 
ATOM      6  C7  UNL d   1       0.840   0.434   1.245  0.00  0.00     0.002 A 
ATOM      7  C8  UNL d   1       1.582   0.694   0.091  0.00  0.00     0.006 A 
ENDROOT
BRANCH   1   8
ATOM      8  C1  UNL d   1       2.615   2.290  -1.567  0.00  0.00     0.054 C 
ATOM      9  C   UNL d   1       2.323   1.309  -2.693  0.00  0.00     0.018 C 
ENDBRANCH   1   8
TORSDOF 1
ENDMDL
