MODEL 1
REMARK minimizedAffinity 6.87215614
REMARK minimizedRMSD -1
REMARK  1 active torsions:
REMARK  status: ('A' for Active; 'I' for Inactive)
REMARK    1  A    between atoms: C1_2  and  C2_3 
ROOT
ATOM      1  C2  UNL d   1       0.340   1.299   1.994  0.00  0.00    -0.081 A 
ATOM      2  C3  UNL d   1       0.422   0.372   0.948  0.00  0.00     0.006 A 
ATOM      3  C4  UNL d   1       0.894   0.760  -0.308  0.00  0.00     0.002 A 
ATOM      4  C5  UNL d   1       1.299   2.080  -0.537  0.00  0.00    -0.080 A 
ATOM      5  C6  UNL d   1       1.835   2.503  -1.872  0.00  0.00     0.076 C 
ATOM      6  C7  UNL d   1       1.200   3.011   0.502  0.00  0.00     0.002 A 
ATOM      7  C8  UNL d   1       0.727   2.623   1.758  0.00  0.00     0.006 A 
ENDROOT
BRANCH   1   8
ATOM      8  C1  UNL d   1      -0.107   0.869   3.367  0.00  0.00     0.054 C 
ATOM      9  C   UNL d   1      -1.624   0.911   3.494  0.00  0.00     0.018 C 
ENDBRANCH   1   8
TORSDOF 1
ENDMDL
