MODEL 1
REMARK minimizedAffinity -2.84434009
REMARK minimizedRMSD -1
REMARK  1 active torsions:
REMARK  status: ('A' for Active; 'I' for Inactive)
REMARK    1  A    between atoms: C1_2  and  C2_3 
ROOT
ATOM      1  C2  UNL d   1      -0.398   5.933  -3.814  0.00  0.00    -0.081 A 
ATOM      2  C3  UNL d   1      -1.595   5.990  -4.538  0.00  0.00     0.006 A 
ATOM      3  C4  UNL d   1      -2.825   5.999  -3.875  0.00  0.00     0.002 A 
ATOM      4  C5  UNL d   1      -2.878   5.960  -2.477  0.00  0.00    -0.080 A 
ATOM      5  C6  UNL d   1      -4.190   6.000  -1.752  0.00  0.00     0.076 C 
ATOM      6  C7  UNL d   1      -1.682   5.885  -1.754  0.00  0.00     0.002 A 
ATOM      7  C8  UNL d   1      -0.453   5.875  -2.417  0.00  0.00     0.006 A 
ENDROOT
BRANCH   1   8
ATOM      8  C1  UNL d   1       0.930   5.988  -4.524  0.00  0.00     0.054 C 
ATOM      9  C   UNL d   1       0.794   5.585  -5.985  0.00  0.00     0.018 C 
ENDBRANCH   1   8
TORSDOF 1
ENDMDL
