MODEL 1
REMARK minimizedAffinity -3.30106974
REMARK minimizedRMSD -1
REMARK  1 active torsions:
REMARK  status: ('A' for Active; 'I' for Inactive)
REMARK    1  A    between atoms: C1_2  and  C2_3 
ROOT
ATOM      1  C2  UNL d   1       2.955   5.941  -4.855  0.00  0.00    -0.081 A 
ATOM      2  C3  UNL d   1       2.149   5.895  -6.000  0.00  0.00     0.006 A 
ATOM      3  C4  UNL d   1       0.757   5.901  -5.887  0.00  0.00     0.002 A 
ATOM      4  C5  UNL d   1       0.147   5.961  -4.629  0.00  0.00    -0.080 A 
ATOM      5  C6  UNL d   1      -1.346   5.999  -4.495  0.00  0.00     0.076 C 
ATOM      6  C7  UNL d   1       0.951   5.990  -3.485  0.00  0.00     0.002 A 
ATOM      7  C8  UNL d   1       2.344   5.983  -3.597  0.00  0.00     0.006 A 
ENDROOT
BRANCH   1   8
ATOM      8  C1  UNL d   1       4.456   6.000  -4.976  0.00  0.00     0.054 C 
ATOM      9  C   UNL d   1       5.027   4.666  -5.435  0.00  0.00     0.018 C 
ENDBRANCH   1   8
TORSDOF 1
ENDMDL
