MODEL 1
REMARK minimizedAffinity 1.90191793
REMARK minimizedRMSD -1
REMARK  1 active torsions:
REMARK  status: ('A' for Active; 'I' for Inactive)
REMARK    1  A    between atoms: C1_2  and  C2_3 
ROOT
ATOM      1  C2  UNL d   1       0.941   0.413  -0.518  0.00  0.00    -0.081 A 
ATOM      2  C3  UNL d   1       0.340   0.412   0.747  0.00  0.00     0.006 A 
ATOM      3  C4  UNL d   1       0.409   1.542   1.565  0.00  0.00     0.002 A 
ATOM      4  C5  UNL d   1       1.071   2.695   1.128  0.00  0.00    -0.080 A 
ATOM      5  C6  UNL d   1       1.125   3.926   1.984  0.00  0.00     0.076 C 
ATOM      6  C7  UNL d   1       1.686   2.690  -0.128  0.00  0.00     0.002 A 
ATOM      7  C8  UNL d   1       1.619   1.560  -0.946  0.00  0.00     0.006 A 
ENDROOT
BRANCH   1   8
ATOM      8  C1  UNL d   1       0.814  -0.782  -1.428  0.00  0.00     0.054 C 
ATOM      9  C   UNL d   1       2.142  -1.114  -2.094  0.00  0.00     0.018 C 
ENDBRANCH   1   8
TORSDOF 1
ENDMDL
