MODEL 1
REMARK minimizedAffinity 10.7710114
REMARK minimizedRMSD -1
REMARK  1 active torsions:
REMARK  status: ('A' for Active; 'I' for Inactive)
REMARK    1  A    between atoms: C1_2  and  C2_3 
ROOT
ATOM      1  C2  UNL d   1      -3.063  -1.565  -1.560  0.00  0.00    -0.081 A 
ATOM      2  C3  UNL d   1      -4.387  -1.789  -1.957  0.00  0.00     0.006 A 
ATOM      3  C4  UNL d   1      -5.231  -2.594  -1.187  0.00  0.00     0.002 A 
ATOM      4  C5  UNL d   1      -4.768  -3.180  -0.005  0.00  0.00    -0.080 A 
ATOM      5  C6  UNL d   1      -5.672  -4.021   0.846  0.00  0.00     0.076 C 
ATOM      6  C7  UNL d   1      -3.440  -2.971   0.383  0.00  0.00     0.002 A 
ATOM      7  C8  UNL d   1      -2.596  -2.167  -0.387  0.00  0.00     0.006 A 
ENDROOT
BRANCH   1   8
ATOM      8  C1  UNL d   1      -2.170  -0.646  -2.353  0.00  0.00     0.054 C 
ATOM      9  C   UNL d   1      -2.178  -1.007  -3.832  0.00  0.00     0.018 C 
ENDBRANCH   1   8
TORSDOF 1
ENDMDL
