MODEL 1
REMARK minimizedAffinity 6.59286976
REMARK minimizedRMSD -1
REMARK  1 active torsions:
REMARK  status: ('A' for Active; 'I' for Inactive)
REMARK    1  A    between atoms: C1_2  and  C2_3 
ROOT
ATOM      1  C2  UNL d   1      -0.399  -1.257   1.153  0.00  0.00    -0.081 A 
ATOM      2  C3  UNL d   1      -0.934  -0.101   1.734  0.00  0.00     0.006 A 
ATOM      3  C4  UNL d   1      -0.392   1.154   1.444  0.00  0.00     0.002 A 
ATOM      4  C5  UNL d   1       0.687   1.274   0.563  0.00  0.00    -0.080 A 
ATOM      5  C6  UNL d   1       1.259   2.618   0.220  0.00  0.00     0.076 C 
ATOM      6  C7  UNL d   1       1.234   0.118  -0.004  0.00  0.00     0.002 A 
ATOM      7  C8  UNL d   1       0.693  -1.137   0.286  0.00  0.00     0.006 A 
ENDROOT
BRANCH   1   8
ATOM      8  C1  UNL d   1      -1.022  -2.604   1.413  0.00  0.00     0.054 C 
ATOM      9  C   UNL d   1      -1.416  -2.759   2.875  0.00  0.00     0.018 C 
ENDBRANCH   1   8
TORSDOF 1
ENDMDL
