MODEL 1
REMARK minimizedAffinity 5.05295706
REMARK minimizedRMSD -1
REMARK  0 active torsions:
REMARK  status: ('A' for Active; 'I' for Inactive)
ROOT
ATOM      1  C   UNL d   1      -1.513  -3.731  -2.507  0.00  0.00     0.023 A 
ATOM      2  C1  UNL d   1      -0.833  -3.881  -1.299  0.00  0.00     0.003 A 
ATOM      3  C2  UNL d   1      -0.430  -2.754  -0.578  0.00  0.00     0.048 A 
ATOM      4  C3  UNL d   1      -0.712  -1.481  -1.072  0.00  0.00     0.023 A 
ATOM      5  C4  UNL d   1      -1.393  -1.326  -2.280  0.00  0.00     0.048 A 
ATOM      6  C5  UNL d   1      -1.793  -2.455  -2.997  0.00  0.00     0.003 A 
ATOM      7  I   UNL d   1      -0.113   0.197  -0.001  0.00  0.00    -0.146 I 
ENDROOT
TORSDOF 0
ENDMDL
