MODEL 1
REMARK minimizedAffinity -0.1428781
REMARK minimizedRMSD -1
REMARK  0 active torsions:
REMARK  status: ('A' for Active; 'I' for Inactive)
ROOT
ATOM      1  C   UNL d   1      -5.128   0.343  -4.100  0.00  0.00     0.023 A 
ATOM      2  C1  UNL d   1      -5.783   1.321  -3.352  0.00  0.00     0.003 A 
ATOM      3  C2  UNL d   1      -6.000   2.589  -3.895  0.00  0.00     0.048 A 
ATOM      4  C3  UNL d   1      -5.560   2.871  -5.188  0.00  0.00     0.023 A 
ATOM      5  C4  UNL d   1      -4.904   1.895  -5.940  0.00  0.00     0.048 A 
ATOM      6  C5  UNL d   1      -4.689   0.629  -5.392  0.00  0.00     0.003 A 
ATOM      7  I   UNL d   1      -5.881   4.757  -5.999  0.00  0.00    -0.146 I 
ENDROOT
TORSDOF 0
ENDMDL
