MODEL 1
REMARK minimizedAffinity 0.901812017
REMARK minimizedRMSD -1
REMARK  0 active torsions:
REMARK  status: ('A' for Active; 'I' for Inactive)
ROOT
ATOM      1  C   UNL d   1      -1.394  -4.059  -0.670  0.00  0.00     0.023 A 
ATOM      2  C1  UNL d   1      -1.636  -3.306   0.479  0.00  0.00     0.003 A 
ATOM      3  C2  UNL d   1      -1.470  -1.920   0.454  0.00  0.00     0.048 A 
ATOM      4  C3  UNL d   1      -1.062  -1.293  -0.723  0.00  0.00     0.023 A 
ATOM      5  C4  UNL d   1      -0.821  -2.043  -1.875  0.00  0.00     0.048 A 
ATOM      6  C5  UNL d   1      -0.987  -3.429  -1.845  0.00  0.00     0.003 A 
ATOM      7  I   UNL d   1      -0.815   0.770  -0.763  0.00  0.00    -0.146 I 
ENDROOT
TORSDOF 0
ENDMDL
