MODEL 1
REMARK minimizedAffinity 8.91586685
REMARK minimizedRMSD -1
REMARK  0 active torsions:
REMARK  status: ('A' for Active; 'I' for Inactive)
ROOT
ATOM      1  C   UNL d   1      -0.174   1.535   1.321  0.00  0.00     0.023 A 
ATOM      2  C1  UNL d   1      -0.343   1.175  -0.016  0.00  0.00     0.003 A 
ATOM      3  C2  UNL d   1       0.124  -0.060  -0.472  0.00  0.00     0.048 A 
ATOM      4  C3  UNL d   1       0.757  -0.930   0.415  0.00  0.00     0.023 A 
ATOM      5  C4  UNL d   1       0.927  -0.574   1.754  0.00  0.00     0.048 A 
ATOM      6  C5  UNL d   1       0.460   0.662   2.205  0.00  0.00     0.003 A 
ATOM      7  I   UNL d   1       1.452  -2.769  -0.261  0.00  0.00    -0.146 I 
ENDROOT
TORSDOF 0
ENDMDL
