MODEL 1
REMARK minimizedAffinity 4.64107418
REMARK minimizedRMSD -1
REMARK  0 active torsions:
REMARK  status: ('A' for Active; 'I' for Inactive)
ROOT
ATOM      1  C   UNL d   1      -3.612   5.482  -1.531  0.00  0.00     0.023 A 
ATOM      2  C1  UNL d   1      -2.826   5.849  -2.623  0.00  0.00     0.003 A 
ATOM      3  C2  UNL d   1      -3.407   5.997  -3.884  0.00  0.00     0.048 A 
ATOM      4  C3  UNL d   1      -4.775   5.777  -4.046  0.00  0.00     0.023 A 
ATOM      5  C4  UNL d   1      -5.565   5.411  -2.956  0.00  0.00     0.048 A 
ATOM      6  C5  UNL d   1      -4.980   5.263  -1.697  0.00  0.00     0.003 A 
ATOM      7  I   UNL d   1      -5.641   5.997  -5.922  0.00  0.00    -0.146 I 
ENDROOT
TORSDOF 0
ENDMDL
