MODEL 1
REMARK minimizedAffinity -0.614013433
REMARK minimizedRMSD -1
REMARK  0 active torsions:
REMARK  status: ('A' for Active; 'I' for Inactive)
ROOT
ATOM      1  N1  IND d   1       1.344  -0.166  -1.441  0.00  0.00    -0.196 N 
ATOM      2  C2  IND d   1       1.998   0.341  -0.353  0.00  0.00     0.054 A 
ATOM      3  C3  IND d   1       1.161   0.417   0.706  0.00  0.00    -0.031 A 
ATOM      4  C4  IND d   1      -1.294  -0.330   0.907  0.00  0.00     0.051 A 
ATOM      5  C5  IND d   1      -2.335  -0.819   0.169  0.00  0.00    -0.031 A 
ATOM      6  C6  IND d   1      -2.199  -1.124  -1.170  0.00  0.00     0.015 A 
ATOM      7  C7  IND d   1      -1.009  -0.962  -1.821  0.00  0.00    -0.016 A 
ATOM      8  C8  IND d   1       0.048  -0.458  -1.076  0.00  0.00    -0.047 A 
ATOM      9  C9  IND d   1      -0.095  -0.107   0.273  0.00  0.00    -0.096 A 
ATOM     10  HN1 IND d   1       1.685  -0.283  -2.221  0.00  0.00     0.298 HD
ENDROOT
TORSDOF 0
ENDMDL
