MODEL 1
REMARK minimizedAffinity -3.68639827
REMARK minimizedRMSD -1
REMARK  0 active torsions:
REMARK  status: ('A' for Active; 'I' for Inactive)
ROOT
ATOM      1  N1  IND d   1       0.940   0.856   0.356  0.00  0.00    -0.196 N 
ATOM      2  C2  IND d   1       0.845  -0.480   0.628  0.00  0.00     0.054 A 
ATOM      3  C3  IND d   1       1.676  -0.815   1.640  0.00  0.00    -0.031 A 
ATOM      4  C4  IND d   1       3.208   0.686   3.063  0.00  0.00     0.051 A 
ATOM      5  C5  IND d   1       3.662   1.971   3.168  0.00  0.00    -0.031 A 
ATOM      6  C6  IND d   1       3.220   2.971   2.326  0.00  0.00     0.015 A 
ATOM      7  C7  IND d   1       2.296   2.724   1.350  0.00  0.00    -0.016 A 
ATOM      8  C8  IND d   1       1.839   1.419   1.236  0.00  0.00    -0.047 A 
ATOM      9  C9  IND d   1       2.315   0.391   2.060  0.00  0.00    -0.096 A 
ATOM     10  HN1 IND d   1       0.511   1.275  -0.260  0.00  0.00     0.298 HD
ENDROOT
TORSDOF 0
ENDMDL
