MODEL 1
REMARK minimizedAffinity -4.82531023
REMARK minimizedRMSD -1
REMARK  0 active torsions:
REMARK  status: ('A' for Active; 'I' for Inactive)
ROOT
ATOM      1  N1  IND d   1      -2.295  -0.391  -0.393  0.00  0.00    -0.196 N 
ATOM      2  C2  IND d   1      -2.474  -0.686   0.930  0.00  0.00     0.054 A 
ATOM      3  C3  IND d   1      -1.279  -0.780   1.556  0.00  0.00    -0.031 A 
ATOM      4  C4  IND d   1       1.090  -0.389   0.627  0.00  0.00     0.051 A 
ATOM      5  C5  IND d   1       1.763  -0.134  -0.535  0.00  0.00    -0.031 A 
ATOM      6  C6  IND d   1       1.104   0.055  -1.732  0.00  0.00     0.015 A 
ATOM      7  C7  IND d   1      -0.259   0.007  -1.811  0.00  0.00    -0.016 A 
ATOM      8  C8  IND d   1      -0.946  -0.259  -0.634  0.00  0.00    -0.047 A 
ATOM      9  C9  IND d   1      -0.280  -0.493   0.576  0.00  0.00    -0.096 A 
ATOM     10  HN1 IND d   1      -2.921  -0.302  -0.976  0.00  0.00     0.298 HD
ENDROOT
TORSDOF 0
ENDMDL
