MODEL 1
REMARK minimizedAffinity -3.58375835
REMARK minimizedRMSD -1
REMARK  0 active torsions:
REMARK  status: ('A' for Active; 'I' for Inactive)
ROOT
ATOM      1  N1  IND d   1       1.628   0.355   1.304  0.00  0.00    -0.196 N 
ATOM      2  C2  IND d   1       1.824  -0.361   0.156  0.00  0.00     0.054 A 
ATOM      3  C3  IND d   1       2.537   0.365  -0.735  0.00  0.00    -0.031 A 
ATOM      4  C4  IND d   1       3.570   2.709  -0.481  0.00  0.00     0.051 A 
ATOM      5  C5  IND d   1       3.630   3.773   0.374  0.00  0.00    -0.031 A 
ATOM      6  C6  IND d   1       3.015   3.751   1.610  0.00  0.00     0.015 A 
ATOM      7  C7  IND d   1       2.324   2.654   2.042  0.00  0.00    -0.016 A 
ATOM      8  C8  IND d   1       2.255   1.575   1.173  0.00  0.00    -0.047 A 
ATOM      9  C9  IND d   1       2.842   1.607  -0.099  0.00  0.00    -0.096 A 
ATOM     10  HN1 IND d   1       1.186   0.089   1.992  0.00  0.00     0.298 HD
ENDROOT
TORSDOF 0
ENDMDL
