MODEL 1
REMARK minimizedAffinity -2.66433358
REMARK minimizedRMSD -1
REMARK  0 active torsions:
REMARK  status: ('A' for Active; 'I' for Inactive)
ROOT
ATOM      1  N1  IND d   1       1.448   0.329   1.419  0.00  0.00    -0.196 N 
ATOM      2  C2  IND d   1       1.340  -0.391   0.262  0.00  0.00     0.054 A 
ATOM      3  C3  IND d   1       1.959   0.254  -0.753  0.00  0.00    -0.031 A 
ATOM      4  C4  IND d   1       3.300   2.452  -0.717  0.00  0.00     0.051 A 
ATOM      5  C5  IND d   1       3.646   3.489   0.102  0.00  0.00    -0.031 A 
ATOM      6  C6  IND d   1       3.271   3.526   1.429  0.00  0.00     0.015 A 
ATOM      7  C7  IND d   1       2.543   2.516   1.993  0.00  0.00    -0.016 A 
ATOM      8  C8  IND d   1       2.184   1.464   1.162  0.00  0.00    -0.047 A 
ATOM      9  C9  IND d   1       2.525   1.442  -0.197  0.00  0.00    -0.096 A 
ATOM     10  HN1 IND d   1       1.112   0.110   2.179  0.00  0.00     0.298 HD
ENDROOT
TORSDOF 0
ENDMDL
