MODEL 1
REMARK minimizedAffinity -0.965040624
REMARK minimizedRMSD -1
REMARK  0 active torsions:
REMARK  status: ('A' for Active; 'I' for Inactive)
ROOT
ATOM      1  N1  IND d   1       4.151   4.737  -0.241  0.00  0.00    -0.196 N 
ATOM      2  C2  IND d   1       4.605   3.920  -1.239  0.00  0.00     0.054 A 
ATOM      3  C3  IND d   1       4.362   2.626  -0.933  0.00  0.00    -0.031 A 
ATOM      4  C4  IND d   1       3.142   1.626   1.102  0.00  0.00     0.051 A 
ATOM      5  C5  IND d   1       2.580   1.973   2.298  0.00  0.00    -0.031 A 
ATOM      6  C6  IND d   1       2.510   3.286   2.717  0.00  0.00     0.015 A 
ATOM      7  C7  IND d   1       2.990   4.307   1.946  0.00  0.00    -0.016 A 
ATOM      8  C8  IND d   1       3.567   3.957   0.733  0.00  0.00    -0.047 A 
ATOM      9  C9  IND d   1       3.680   2.623   0.322  0.00  0.00    -0.096 A 
ATOM     10  HN1 IND d   1       4.219   5.594  -0.224  0.00  0.00     0.298 HD
ENDROOT
TORSDOF 0
ENDMDL
