MODEL 1
REMARK minimizedAffinity -4.5403471
REMARK minimizedRMSD -1
REMARK  0 active torsions:
REMARK  status: ('A' for Active; 'I' for Inactive)
ROOT
ATOM      1  N1  IND d   1       3.256  -0.865  -1.440  0.00  0.00    -0.196 N 
ATOM      2  C2  IND d   1       3.062  -0.769  -2.790  0.00  0.00     0.054 A 
ATOM      3  C3  IND d   1       1.753  -0.573  -3.065  0.00  0.00    -0.031 A 
ATOM      4  C4  IND d   1      -0.230  -0.276  -1.451  0.00  0.00     0.051 A 
ATOM      5  C5  IND d   1      -0.555  -0.321  -0.124  0.00  0.00    -0.031 A 
ATOM      6  C6  IND d   1       0.393  -0.552   0.852  0.00  0.00     0.015 A 
ATOM      7  C7  IND d   1       1.710  -0.735   0.536  0.00  0.00    -0.016 A 
ATOM      8  C8  IND d   1       2.042  -0.697  -0.811  0.00  0.00    -0.047 A 
ATOM      9  C9  IND d   1       1.078  -0.506  -1.808  0.00  0.00    -0.096 A 
ATOM     10  HN1 IND d   1       4.009  -1.006  -1.050  0.00  0.00     0.298 HD
ENDROOT
TORSDOF 0
ENDMDL
