MODEL 1
REMARK minimizedAffinity -2.58998275
REMARK minimizedRMSD -1
REMARK  0 active torsions:
REMARK  status: ('A' for Active; 'I' for Inactive)
ROOT
ATOM      1  N1  IND d   1       1.404   0.110   1.776  0.00  0.00    -0.196 N 
ATOM      2  C2  IND d   1       1.127  -0.677   0.693  0.00  0.00     0.054 A 
ATOM      3  C3  IND d   1       1.501  -0.054  -0.448  0.00  0.00    -0.031 A 
ATOM      4  C4  IND d   1       2.679   2.213  -0.763  0.00  0.00     0.051 A 
ATOM      5  C5  IND d   1       3.105   3.311  -0.070  0.00  0.00    -0.031 A 
ATOM      6  C6  IND d   1       2.985   3.399   1.302  0.00  0.00     0.015 A 
ATOM      7  C7  IND d   1       2.444   2.383   2.036  0.00  0.00    -0.016 A 
ATOM      8  C8  IND d   1       2.004   1.269   1.335  0.00  0.00    -0.047 A 
ATOM      9  C9  IND d   1       2.084   1.192  -0.061  0.00  0.00    -0.096 A 
ATOM     10  HN1 IND d   1       1.232  -0.086   2.595  0.00  0.00     0.298 HD
ENDROOT
TORSDOF 0
ENDMDL
