MODEL 1
REMARK minimizedAffinity 3.79286957
REMARK minimizedRMSD -1
REMARK  0 active torsions:
REMARK  status: ('A' for Active; 'I' for Inactive)
ROOT
ATOM      1  N1  IND d   1      -0.371  -0.225  -1.371  0.00  0.00    -0.196 N 
ATOM      2  C2  IND d   1      -0.042  -0.118  -0.048  0.00  0.00     0.054 A 
ATOM      3  C3  IND d   1       1.290  -0.274   0.119  0.00  0.00    -0.031 A 
ATOM      4  C4  IND d   1       3.132  -0.612  -1.647  0.00  0.00     0.051 A 
ATOM      5  C5  IND d   1       3.317  -0.811  -2.986  0.00  0.00    -0.031 A 
ATOM      6  C6  IND d   1       2.260  -0.822  -3.874  0.00  0.00     0.015 A 
ATOM      7  C7  IND d   1       0.976  -0.622  -3.455  0.00  0.00    -0.016 A 
ATOM      8  C8  IND d   1       0.784  -0.427  -2.095  0.00  0.00    -0.047 A 
ATOM      9  C9  IND d   1       1.847  -0.457  -1.183  0.00  0.00    -0.096 A 
ATOM     10  HN1 IND d   1      -1.165  -0.174  -1.696  0.00  0.00     0.298 HD
ENDROOT
TORSDOF 0
ENDMDL
