MODEL 1
REMARK minimizedAffinity 2.04260373
REMARK minimizedRMSD -1
REMARK  0 active torsions:
REMARK  status: ('A' for Active; 'I' for Inactive)
ROOT
ATOM      1  N1  IND d   1       1.342  -0.000   0.376  0.00  0.00    -0.196 N 
ATOM      2  C2  IND d   1       0.001   0.140   0.151  0.00  0.00     0.054 A 
ATOM      3  C3  IND d   1      -0.273  -0.000  -1.165  0.00  0.00    -0.031 A 
ATOM      4  C4  IND d   1       1.311  -0.565  -3.114  0.00  0.00     0.051 A 
ATOM      5  C5  IND d   1       2.633  -0.750  -3.409  0.00  0.00    -0.031 A 
ATOM      6  C6  IND d   1       3.611  -0.696  -2.437  0.00  0.00     0.015 A 
ATOM      7  C7  IND d   1       3.301  -0.466  -1.126  0.00  0.00    -0.016 A 
ATOM      8  C8  IND d   1       1.961  -0.270  -0.824  0.00  0.00    -0.047 A 
ATOM      9  C9  IND d   1       0.969  -0.282  -1.813  0.00  0.00    -0.096 A 
ATOM     10  HN1 IND d   1       1.733   0.068   1.139  0.00  0.00     0.298 HD
ENDROOT
TORSDOF 0
ENDMDL
