MODEL 1
REMARK minimizedAffinity 1.3204515
REMARK minimizedRMSD -1
REMARK  0 active torsions:
REMARK  status: ('A' for Active; 'I' for Inactive)
ROOT
ATOM      1  N1  IND d   1       1.178  -0.259  -0.098  0.00  0.00    -0.196 N 
ATOM      2  C2  IND d   1       0.349  -0.621   0.927  0.00  0.00     0.054 A 
ATOM      3  C3  IND d   1       0.570   0.160   2.009  0.00  0.00    -0.031 A 
ATOM      4  C4  IND d   1       2.172   2.156   2.285  0.00  0.00     0.051 A 
ATOM      5  C5  IND d   1       3.159   2.843   1.636  0.00  0.00    -0.031 A 
ATOM      6  C6  IND d   1       3.543   2.526   0.349  0.00  0.00     0.015 A 
ATOM      7  C7  IND d   1       2.942   1.513  -0.344  0.00  0.00    -0.016 A 
ATOM      8  C8  IND d   1       1.944   0.810   0.314  0.00  0.00    -0.047 A 
ATOM      9  C9  IND d   1       1.580   1.099   1.636  0.00  0.00    -0.096 A 
ATOM     10  HN1 IND d   1       1.214  -0.635  -0.870  0.00  0.00     0.298 HD
ENDROOT
TORSDOF 0
ENDMDL
