MODEL 1
REMARK minimizedAffinity -4.07420206
REMARK minimizedRMSD -1
REMARK  0 active torsions:
REMARK  status: ('A' for Active; 'I' for Inactive)
ROOT
ATOM      1  N1  IND d   1       0.964  -0.067  -0.484  0.00  0.00    -0.196 N 
ATOM      2  C2  IND d   1       1.223  -0.233   0.848  0.00  0.00     0.054 A 
ATOM      3  C3  IND d   1       0.088  -0.545   1.512  0.00  0.00    -0.031 A 
ATOM      4  C4  IND d   1      -2.288  -0.934   0.599  0.00  0.00     0.051 A 
ATOM      5  C5  IND d   1      -3.026  -0.861  -0.549  0.00  0.00    -0.031 A 
ATOM      6  C6  IND d   1      -2.459  -0.516  -1.759  0.00  0.00     0.015 A 
ATOM      7  C7  IND d   1      -1.126  -0.240  -1.869  0.00  0.00    -0.016 A 
ATOM      8  C8  IND d   1      -0.375  -0.306  -0.704  0.00  0.00    -0.047 A 
ATOM      9  C9  IND d   1      -0.952  -0.615   0.535  0.00  0.00    -0.096 A 
ATOM     10  HN1 IND d   1       1.541   0.150  -1.084  0.00  0.00     0.298 HD
ENDROOT
TORSDOF 0
ENDMDL
