MODEL 1
REMARK minimizedAffinity -4.5974474
REMARK minimizedRMSD -1
REMARK  0 active torsions:
REMARK  status: ('A' for Active; 'I' for Inactive)
ROOT
ATOM      1  N1  IND d   1       1.843   1.238   1.227  0.00  0.00    -0.196 N 
ATOM      2  C2  IND d   1       1.758   2.309   2.071  0.00  0.00     0.054 A 
ATOM      3  C3  IND d   1       2.275   3.412   1.484  0.00  0.00    -0.031 A 
ATOM      4  C4  IND d   1       3.220   3.710  -0.892  0.00  0.00     0.051 A 
ATOM      5  C5  IND d   1       3.538   3.008  -2.021  0.00  0.00    -0.031 A 
ATOM      6  C6  IND d   1       3.300   1.653  -2.127  0.00  0.00     0.015 A 
ATOM      7  C7  IND d   1       2.722   0.948  -1.110  0.00  0.00    -0.016 A 
ATOM      8  C8  IND d   1       2.404   1.657   0.041  0.00  0.00    -0.047 A 
ATOM      9  C9  IND d   1       2.682   3.024   0.171  0.00  0.00    -0.096 A 
ATOM     10  HN1 IND d   1       1.588   0.436   1.406  0.00  0.00     0.298 HD
ENDROOT
TORSDOF 0
ENDMDL
