MODEL 1
REMARK minimizedAffinity -1.05677378
REMARK minimizedRMSD -1
REMARK  0 active torsions:
REMARK  status: ('A' for Active; 'I' for Inactive)
ROOT
ATOM      1  N1  IND d   1      -1.416   0.133  -2.335  0.00  0.00    -0.196 N 
ATOM      2  C2  IND d   1      -2.418  -0.741  -2.020  0.00  0.00     0.054 A 
ATOM      3  C3  IND d   1      -2.161  -1.345  -0.839  0.00  0.00    -0.031 A 
ATOM      4  C4  IND d   1      -0.207  -0.976   0.796  0.00  0.00     0.051 A 
ATOM      5  C5  IND d   1       0.976  -0.304   0.927  0.00  0.00    -0.031 A 
ATOM      6  C6  IND d   1       1.430   0.567  -0.042  0.00  0.00     0.015 A 
ATOM      7  C7  IND d   1       0.709   0.809  -1.177  0.00  0.00    -0.016 A 
ATOM      8  C8  IND d   1      -0.489   0.124  -1.316  0.00  0.00    -0.047 A 
ATOM      9  C9  IND d   1      -0.934  -0.794  -0.356  0.00  0.00    -0.096 A 
ATOM     10  HN1 IND d   1      -1.371   0.609  -3.050  0.00  0.00     0.298 HD
ENDROOT
TORSDOF 0
ENDMDL
