MODEL 1
REMARK minimizedAffinity -4.82893276
REMARK minimizedRMSD -1
REMARK  0 active torsions:
REMARK  status: ('A' for Active; 'I' for Inactive)
ROOT
ATOM      1  N1  IND d   1       0.694  -0.282  -1.994  0.00  0.00    -0.196 N 
ATOM      2  C2  IND d   1       1.654   0.087  -1.094  0.00  0.00     0.054 A 
ATOM      3  C3  IND d   1       1.126   0.175   0.148  0.00  0.00    -0.031 A 
ATOM      4  C4  IND d   1      -1.266  -0.343   0.948  0.00  0.00     0.051 A 
ATOM      5  C5  IND d   1      -2.507  -0.681   0.486  0.00  0.00    -0.031 A 
ATOM      6  C6  IND d   1      -2.749  -0.910  -0.853  0.00  0.00     0.015 A 
ATOM      7  C7  IND d   1      -1.752  -0.821  -1.783  0.00  0.00    -0.016 A 
ATOM      8  C8  IND d   1      -0.492  -0.472  -1.318  0.00  0.00    -0.047 A 
ATOM      9  C9  IND d   1      -0.249  -0.196   0.034  0.00  0.00    -0.096 A 
ATOM     10  HN1 IND d   1       0.811  -0.380  -2.840  0.00  0.00     0.298 HD
ENDROOT
TORSDOF 0
ENDMDL
