MODEL 1
REMARK minimizedAffinity -3.12247229
REMARK minimizedRMSD -1
REMARK  0 active torsions:
REMARK  status: ('A' for Active; 'I' for Inactive)
ROOT
ATOM      1  N1  IND d   1       1.120  -0.142   0.537  0.00  0.00    -0.196 N 
ATOM      2  C2  IND d   1       1.834   0.057  -0.611  0.00  0.00     0.054 A 
ATOM      3  C3  IND d   1       1.060  -0.180  -1.694  0.00  0.00    -0.031 A 
ATOM      4  C4  IND d   1      -1.434  -0.806  -1.817  0.00  0.00     0.051 A 
ATOM      5  C5  IND d   1      -2.502  -1.135  -1.030  0.00  0.00    -0.031 A 
ATOM      6  C6  IND d   1      -2.416  -1.147   0.348  0.00  0.00     0.015 A 
ATOM      7  C7  IND d   1      -1.257  -0.818   0.992  0.00  0.00    -0.016 A 
ATOM      8  C8  IND d   1      -0.169  -0.491   0.196  0.00  0.00    -0.047 A 
ATOM      9  C9  IND d   1      -0.238  -0.518  -1.203  0.00  0.00    -0.096 A 
ATOM     10  HN1 IND d   1       1.424  -0.062   1.337  0.00  0.00     0.298 HD
ENDROOT
TORSDOF 0
ENDMDL
