MODEL 1
REMARK minimizedAffinity -0.554864526
REMARK minimizedRMSD -1
REMARK  0 active torsions:
REMARK  status: ('A' for Active; 'I' for Inactive)
ROOT
ATOM      1  N1  IND d   1       1.328  -0.647  -3.656  0.00  0.00    -0.196 N 
ATOM      2  C2  IND d   1       2.684  -0.809  -3.610  0.00  0.00     0.054 A 
ATOM      3  C3  IND d   1       3.146  -0.559  -2.364  0.00  0.00    -0.031 A 
ATOM      4  C4  IND d   1       1.841   0.032  -0.225  0.00  0.00     0.051 A 
ATOM      5  C5  IND d   1       0.584   0.327   0.223  0.00  0.00    -0.031 A 
ATOM      6  C6  IND d   1      -0.512   0.310  -0.615  0.00  0.00     0.015 A 
ATOM      7  C7  IND d   1      -0.393  -0.016  -1.937  0.00  0.00    -0.016 A 
ATOM      8  C8  IND d   1       0.883  -0.309  -2.397  0.00  0.00    -0.047 A 
ATOM      9  C9  IND d   1       2.005  -0.252  -1.560  0.00  0.00    -0.096 A 
ATOM     10  HN1 IND d   1       0.835  -0.740  -4.355  0.00  0.00     0.298 HD
ENDROOT
TORSDOF 0
ENDMDL
