MODEL 1
REMARK minimizedAffinity -1.46355772
REMARK minimizedRMSD -1
REMARK  0 active torsions:
REMARK  status: ('A' for Active; 'I' for Inactive)
ROOT
ATOM      1  N1  IND d   1       2.785   1.947   1.446  0.00  0.00    -0.196 N 
ATOM      2  C2  IND d   1       2.365   2.947   2.278  0.00  0.00     0.054 A 
ATOM      3  C3  IND d   1       2.722   4.153   1.782  0.00  0.00    -0.031 A 
ATOM      4  C4  IND d   1       3.909   4.725  -0.430  0.00  0.00     0.051 A 
ATOM      5  C5  IND d   1       4.519   4.144  -1.507  0.00  0.00    -0.031 A 
ATOM      6  C6  IND d   1       4.581   2.774  -1.659  0.00  0.00     0.015 A 
ATOM      7  C7  IND d   1       4.022   1.930  -0.741  0.00  0.00    -0.016 A 
ATOM      8  C8  IND d   1       3.408   2.515   0.357  0.00  0.00    -0.047 A 
ATOM      9  C9  IND d   1       3.380   3.904   0.538  0.00  0.00    -0.096 A 
ATOM     10  HN1 IND d   1       2.677   1.104   1.580  0.00  0.00     0.298 HD
ENDROOT
TORSDOF 0
ENDMDL
