MODEL 1
REMARK minimizedAffinity -3.76929188
REMARK minimizedRMSD -1
REMARK  0 active torsions:
REMARK  status: ('A' for Active; 'I' for Inactive)
ROOT
ATOM      1  C   UNL d   1      -1.641   1.151   1.799  0.00  0.00     0.172 C 
ATOM      2  N   UNL d   1      -0.671   0.525   0.931  0.00  0.00    -0.070 N 
ATOM      3  C1  UNL d   1      -0.333   0.950  -0.326  0.00  0.00    -0.004 A 
ATOM      4  C2  UNL d   1       0.624   0.090  -0.819  0.00  0.00    -0.047 A 
ATOM      5  C3  UNL d   1       0.868  -0.887   0.175  0.00  0.00    -0.047 A 
ATOM      6  C4  UNL d   1       0.053  -0.594   1.248  0.00  0.00    -0.004 A 
ENDROOT
TORSDOF 0
ENDMDL
