MODEL 1
REMARK minimizedAffinity -3.49355054
REMARK minimizedRMSD -1
REMARK  0 active torsions:
REMARK  status: ('A' for Active; 'I' for Inactive)
ROOT
ATOM      1  C   UNL d   1       1.287  -0.129  -1.071  0.00  0.00     0.172 C 
ATOM      2  N   UNL d   1       0.106   0.304  -0.362  0.00  0.00    -0.070 N 
ATOM      3  C1  UNL d   1      -0.525  -0.387   0.638  0.00  0.00    -0.004 A 
ATOM      4  C2  UNL d   1      -1.606   0.360   1.051  0.00  0.00    -0.047 A 
ATOM      5  C3  UNL d   1      -1.627   1.542   0.273  0.00  0.00    -0.047 A 
ATOM      6  C4  UNL d   1      -0.556   1.481  -0.594  0.00  0.00    -0.004 A 
ENDROOT
TORSDOF 0
ENDMDL
