MODEL 1
REMARK minimizedAffinity -0.860561728
REMARK minimizedRMSD -1
REMARK  0 active torsions:
REMARK  status: ('A' for Active; 'I' for Inactive)
ROOT
ATOM      1  C   UNL d   1       0.454  -0.476  -0.778  0.00  0.00     0.172 C 
ATOM      2  N   UNL d   1      -0.117  -0.087   0.490  0.00  0.00    -0.070 N 
ATOM      3  C1  UNL d   1      -0.058  -0.813   1.650  0.00  0.00    -0.004 A 
ATOM      4  C2  UNL d   1      -0.718  -0.102   2.628  0.00  0.00    -0.047 A 
ATOM      5  C3  UNL d   1      -1.191   1.093   2.036  0.00  0.00    -0.047 A 
ATOM      6  C4  UNL d   1      -0.805   1.077   0.712  0.00  0.00    -0.004 A 
ENDROOT
TORSDOF 0
ENDMDL
