MODEL 1
REMARK minimizedAffinity -3.10561657
REMARK minimizedRMSD -1
REMARK  0 active torsions:
REMARK  status: ('A' for Active; 'I' for Inactive)
ROOT
ATOM      1  C   UNL d   1       0.262  -0.457   1.376  0.00  0.00     0.172 C 
ATOM      2  N   UNL d   1      -0.674   0.539   0.909  0.00  0.00    -0.070 N 
ATOM      3  C1  UNL d   1      -1.302   1.472   1.690  0.00  0.00    -0.004 A 
ATOM      4  C2  UNL d   1      -2.111   2.231   0.872  0.00  0.00    -0.047 A 
ATOM      5  C3  UNL d   1      -1.965   1.736  -0.446  0.00  0.00    -0.047 A 
ATOM      6  C4  UNL d   1      -1.070   0.689  -0.394  0.00  0.00    -0.004 A 
ENDROOT
TORSDOF 0
ENDMDL
