MODEL 1
REMARK minimizedAffinity -3.26756048
REMARK minimizedRMSD -1
REMARK  0 active torsions:
REMARK  status: ('A' for Active; 'I' for Inactive)
ROOT
ATOM      1  C   UNL d   1       0.722  -1.028  -0.482  0.00  0.00     0.172 C 
ATOM      2  N   UNL d   1      -0.135  -0.195   0.327  0.00  0.00    -0.070 N 
ATOM      3  C1  UNL d   1      -0.484  -0.436   1.629  0.00  0.00    -0.004 A 
ATOM      4  C2  UNL d   1      -1.310   0.588   2.041  0.00  0.00    -0.047 A 
ATOM      5  C3  UNL d   1      -1.463   1.474   0.948  0.00  0.00    -0.047 A 
ATOM      6  C4  UNL d   1      -0.725   0.966  -0.099  0.00  0.00    -0.004 A 
ENDROOT
TORSDOF 0
ENDMDL
