MODEL 1
REMARK minimizedAffinity -3.41352582
REMARK minimizedRMSD -1
REMARK  0 active torsions:
REMARK  status: ('A' for Active; 'I' for Inactive)
ROOT
ATOM      1  C   UNL d   1       0.625  -0.176  -0.337  0.00  0.00     0.172 C 
ATOM      2  N   UNL d   1       0.052   0.998   0.278  0.00  0.00    -0.070 N 
ATOM      3  C1  UNL d   1      -0.621   1.028   1.470  0.00  0.00    -0.004 A 
ATOM      4  C2  UNL d   1      -1.006   2.330   1.705  0.00  0.00    -0.047 A 
ATOM      5  C3  UNL d   1      -0.550   3.110   0.616  0.00  0.00    -0.047 A 
ATOM      6  C4  UNL d   1       0.102   2.260  -0.253  0.00  0.00    -0.004 A 
ENDROOT
TORSDOF 0
ENDMDL
