MODEL 1
REMARK minimizedAffinity -3.78663969
REMARK minimizedRMSD -1
REMARK  0 active torsions:
REMARK  status: ('A' for Active; 'I' for Inactive)
ROOT
ATOM      1  C   UNL d   1      -0.063   3.140  -0.979  0.00  0.00     0.172 C 
ATOM      2  N   UNL d   1      -0.329   2.199   0.083  0.00  0.00    -0.070 N 
ATOM      3  C1  UNL d   1      -0.951   2.488   1.268  0.00  0.00    -0.004 A 
ATOM      4  C2  UNL d   1      -1.014   1.326   2.006  0.00  0.00    -0.047 A 
ATOM      5  C3  UNL d   1      -0.407   0.304   1.239  0.00  0.00    -0.047 A 
ATOM      6  C4  UNL d   1       0.008   0.872   0.053  0.00  0.00    -0.004 A 
ENDROOT
TORSDOF 0
ENDMDL
