MODEL 1
REMARK minimizedAffinity -4.02904606
REMARK minimizedRMSD -1
REMARK  0 active torsions:
REMARK  status: ('A' for Active; 'I' for Inactive)
ROOT
ATOM      1  C   UNL d   1       0.694   0.078  -0.031  0.00  0.00     0.172 C 
ATOM      2  N   UNL d   1      -0.511   0.757   0.384  0.00  0.00    -0.070 N 
ATOM      3  C1  UNL d   1      -0.569   1.993   0.970  0.00  0.00    -0.004 A 
ATOM      4  C2  UNL d   1      -1.894   2.284   1.211  0.00  0.00    -0.047 A 
ATOM      5  C3  UNL d   1      -2.659   1.184   0.755  0.00  0.00    -0.047 A 
ATOM      6  C4  UNL d   1      -1.777   0.253   0.248  0.00  0.00    -0.004 A 
ENDROOT
TORSDOF 0
ENDMDL
