MODEL 1
REMARK minimizedAffinity -4.27078104
REMARK minimizedRMSD -1
REMARK  0 active torsions:
REMARK  status: ('A' for Active; 'I' for Inactive)
ROOT
ATOM      1  C   UNL d   1       0.578  -0.514   2.216  0.00  0.00     0.172 C 
ATOM      2  N   UNL d   1      -0.412   0.303   1.554  0.00  0.00    -0.070 N 
ATOM      3  C1  UNL d   1      -1.038   1.394   2.095  0.00  0.00    -0.004 A 
ATOM      4  C2  UNL d   1      -1.907   1.894   1.150  0.00  0.00    -0.047 A 
ATOM      5  C3  UNL d   1      -1.800   1.074   0.001  0.00  0.00    -0.047 A 
ATOM      6  C4  UNL d   1      -0.867   0.097   0.279  0.00  0.00    -0.004 A 
ENDROOT
TORSDOF 0
ENDMDL
