MODEL 1
REMARK minimizedAffinity -3.33447814
REMARK minimizedRMSD -1
REMARK  0 active torsions:
REMARK  status: ('A' for Active; 'I' for Inactive)
ROOT
ATOM      1  C   UNL d   1      -0.442   3.084  -0.364  0.00  0.00     0.172 C 
ATOM      2  N   UNL d   1      -0.643   1.944   0.500  0.00  0.00    -0.070 N 
ATOM      3  C1  UNL d   1      -0.216   0.667   0.249  0.00  0.00    -0.004 A 
ATOM      4  C2  UNL d   1      -0.601  -0.122   1.311  0.00  0.00    -0.047 A 
ATOM      5  C3  UNL d   1      -1.284   0.708   2.231  0.00  0.00    -0.047 A 
ATOM      6  C4  UNL d   1      -1.295   1.983   1.704  0.00  0.00    -0.004 A 
ENDROOT
TORSDOF 0
ENDMDL
