MODEL 1
REMARK minimizedAffinity -3.35259843
REMARK minimizedRMSD -1
REMARK  0 active torsions:
REMARK  status: ('A' for Active; 'I' for Inactive)
ROOT
ATOM      1  C   UNL d   1      -1.324   2.983   1.033  0.00  0.00     0.172 C 
ATOM      2  N   UNL d   1      -1.228   1.545   1.128  0.00  0.00    -0.070 N 
ATOM      3  C1  UNL d   1      -1.826   0.767   2.082  0.00  0.00    -0.004 A 
ATOM      4  C2  UNL d   1      -1.492  -0.546   1.826  0.00  0.00    -0.047 A 
ATOM      5  C3  UNL d   1      -0.664  -0.556   0.679  0.00  0.00    -0.047 A 
ATOM      6  C4  UNL d   1      -0.517   0.752   0.267  0.00  0.00    -0.004 A 
ENDROOT
TORSDOF 0
ENDMDL
