MODEL 1
REMARK minimizedAffinity -4.02037191
REMARK minimizedRMSD -1
REMARK  0 active torsions:
REMARK  status: ('A' for Active; 'I' for Inactive)
ROOT
ATOM      1  C   UNL d   1      -0.060  -0.423  -0.387  0.00  0.00     0.172 C 
ATOM      2  N   UNL d   1      -0.197   1.014  -0.349  0.00  0.00    -0.070 N 
ATOM      3  C1  UNL d   1       0.423   1.897  -1.190  0.00  0.00    -0.004 A 
ATOM      4  C2  UNL d   1       0.034   3.169  -0.829  0.00  0.00    -0.047 A 
ATOM      5  C3  UNL d   1      -0.851   3.045   0.269  0.00  0.00    -0.047 A 
ATOM      6  C4  UNL d   1      -0.976   1.700   0.545  0.00  0.00    -0.004 A 
ENDROOT
TORSDOF 0
ENDMDL
