MODEL 1
REMARK minimizedAffinity -4.13545513
REMARK minimizedRMSD -1
REMARK  0 active torsions:
REMARK  status: ('A' for Active; 'I' for Inactive)
ROOT
ATOM      1  C   UNL d   1       0.060   0.103   0.413  0.00  0.00     0.172 C 
ATOM      2  N   UNL d   1      -0.843   1.215   0.598  0.00  0.00    -0.070 N 
ATOM      3  C1  UNL d   1      -0.727   2.444   0.007  0.00  0.00    -0.004 A 
ATOM      4  C2  UNL d   1      -1.780   3.221   0.438  0.00  0.00    -0.047 A 
ATOM      5  C3  UNL d   1      -2.556   2.432   1.319  0.00  0.00    -0.047 A 
ATOM      6  C4  UNL d   1      -1.953   1.194   1.401  0.00  0.00    -0.004 A 
ENDROOT
TORSDOF 0
ENDMDL
