MODEL 1
REMARK minimizedAffinity -3.91753745
REMARK minimizedRMSD -1
REMARK  0 active torsions:
REMARK  status: ('A' for Active; 'I' for Inactive)
ROOT
ATOM      1  C   UNL d   1       0.391  -0.027   1.094  0.00  0.00     0.172 C 
ATOM      2  N   UNL d   1      -0.335   1.188   0.805  0.00  0.00    -0.070 N 
ATOM      3  C1  UNL d   1      -1.129   1.872   1.687  0.00  0.00    -0.004 A 
ATOM      4  C2  UNL d   1      -1.639   2.971   1.030  0.00  0.00    -0.047 A 
ATOM      5  C3  UNL d   1      -1.135   2.945  -0.293  0.00  0.00    -0.047 A 
ATOM      6  C4  UNL d   1      -0.331   1.831  -0.404  0.00  0.00    -0.004 A 
ENDROOT
TORSDOF 0
ENDMDL
