MODEL 1
REMARK minimizedAffinity -3.78108335
REMARK minimizedRMSD -1
REMARK  0 active torsions:
REMARK  status: ('A' for Active; 'I' for Inactive)
ROOT
ATOM      1  C   UNL d   1      -0.738  -0.197  -0.047  0.00  0.00     0.172 C 
ATOM      2  N   UNL d   1      -0.871   1.231   0.115  0.00  0.00    -0.070 N 
ATOM      3  C1  UNL d   1      -0.270   2.183  -0.665  0.00  0.00    -0.004 A 
ATOM      4  C2  UNL d   1      -0.648   3.420  -0.189  0.00  0.00    -0.047 A 
ATOM      5  C3  UNL d   1      -1.505   3.204   0.917  0.00  0.00    -0.047 A 
ATOM      6  C4  UNL d   1      -1.626   1.840   1.082  0.00  0.00    -0.004 A 
ENDROOT
TORSDOF 0
ENDMDL
