MODEL 1
REMARK minimizedAffinity -2.75207877
REMARK minimizedRMSD -1
REMARK  0 active torsions:
REMARK  status: ('A' for Active; 'I' for Inactive)
ROOT
ATOM      1  C   UNL d   1      -1.185   1.836   2.327  0.00  0.00     0.172 C 
ATOM      2  N   UNL d   1      -0.342   1.183   1.353  0.00  0.00    -0.070 N 
ATOM      3  C1  UNL d   1       0.207  -0.065   1.482  0.00  0.00    -0.004 A 
ATOM      4  C2  UNL d   1       0.940  -0.323   0.344  0.00  0.00    -0.047 A 
ATOM      5  C3  UNL d   1       0.830   0.810  -0.497  0.00  0.00    -0.047 A 
ATOM      6  C4  UNL d   1       0.030   1.727   0.153  0.00  0.00    -0.004 A 
ENDROOT
TORSDOF 0
ENDMDL
