MODEL 1
REMARK minimizedAffinity -4.10734177
REMARK minimizedRMSD -1
REMARK  0 active torsions:
REMARK  status: ('A' for Active; 'I' for Inactive)
ROOT
ATOM      1  C   UNL d   1       0.646  -0.249  -0.724  0.00  0.00     0.172 C 
ATOM      2  N   UNL d   1      -0.128   0.813  -0.126  0.00  0.00    -0.070 N 
ATOM      3  C1  UNL d   1      -0.091   2.132  -0.494  0.00  0.00    -0.004 A 
ATOM      4  C2  UNL d   1      -0.971   2.820   0.313  0.00  0.00    -0.047 A 
ATOM      5  C3  UNL d   1      -1.556   1.882   1.197  0.00  0.00    -0.047 A 
ATOM      6  C4  UNL d   1      -1.016   0.648   0.903  0.00  0.00    -0.004 A 
ENDROOT
TORSDOF 0
ENDMDL
