MODEL 1
REMARK minimizedAffinity -4.14081097
REMARK minimizedRMSD -1
REMARK  0 active torsions:
REMARK  status: ('A' for Active; 'I' for Inactive)
ROOT
ATOM      1  C   UNL d   1       0.275   0.065  -0.314  0.00  0.00     0.172 C 
ATOM      2  N   UNL d   1      -0.278   1.334   0.098  0.00  0.00    -0.070 N 
ATOM      3  C1  UNL d   1      -0.020   2.545  -0.487  0.00  0.00    -0.004 A 
ATOM      4  C2  UNL d   1      -0.737   3.504   0.195  0.00  0.00    -0.047 A 
ATOM      5  C3  UNL d   1      -1.449   2.847   1.226  0.00  0.00    -0.047 A 
ATOM      6  C4  UNL d   1      -1.147   1.505   1.143  0.00  0.00    -0.004 A 
ENDROOT
TORSDOF 0
ENDMDL
