MODEL 1
REMARK minimizedAffinity -5.12101841
REMARK minimizedRMSD -1
REMARK  2 active torsions:
REMARK  status: ('A' for Active; 'I' for Inactive)
REMARK    1  A    between atoms: C1_2  and  C2_3 
REMARK    2  A    between atoms: C2_3  and  C3_4 
ROOT
ATOM      1  C3  UNL d   1       0.178   0.374  -0.020  0.00  0.00    -0.075 A 
ATOM      2  C4  UNL d   1       1.405   0.418   0.658  0.00  0.00     0.002 A 
ATOM      3  C5  UNL d   1       1.465   0.170   2.030  0.00  0.00     0.002 A 
ATOM      4  C6  UNL d   1       0.301  -0.112   2.742  0.00  0.00    -0.004 A 
ATOM      5  C7  UNL d   1      -0.925  -0.142   2.081  0.00  0.00     0.002 A 
ATOM      6  C8  UNL d   1      -0.988   0.101   0.708  0.00  0.00     0.002 A 
ENDROOT
BRANCH   1   7
ATOM      7  C2  UNL d   1       0.109   0.612  -1.510  0.00  0.00     0.056 C 
BRANCH   7   8
ATOM      8  C1  UNL d   1       1.404   0.272  -2.255  0.00  0.00     0.007 C 
ATOM      9  C   UNL d   1       1.249  -0.888  -3.230  0.00  0.00     0.009 C 
ENDBRANCH   7   8
ENDBRANCH   1   7
TORSDOF 2
ENDMDL
