MODEL 1
REMARK minimizedAffinity -2.60305882
REMARK minimizedRMSD -1
REMARK  2 active torsions:
REMARK  status: ('A' for Active; 'I' for Inactive)
REMARK    1  A    between atoms: C1_2  and  C2_3 
REMARK    2  A    between atoms: C2_3  and  C3_4 
ROOT
ATOM      1  C3  UNL d   1       0.347  -0.012  -0.048  0.00  0.00    -0.075 A 
ATOM      2  C4  UNL d   1      -0.586  -0.142   0.990  0.00  0.00     0.002 A 
ATOM      3  C5  UNL d   1      -0.237   0.182   2.301  0.00  0.00     0.002 A 
ATOM      4  C6  UNL d   1       1.049   0.630   2.593  0.00  0.00    -0.004 A 
ATOM      5  C7  UNL d   1       1.990   0.747   1.572  0.00  0.00     0.002 A 
ATOM      6  C8  UNL d   1       1.642   0.427   0.258  0.00  0.00     0.002 A 
ENDROOT
BRANCH   1   7
ATOM      7  C2  UNL d   1      -0.033  -0.333  -1.474  0.00  0.00     0.056 C 
BRANCH   7   8
ATOM      8  C1  UNL d   1       1.162  -0.450  -2.427  0.00  0.00     0.007 C 
ATOM      9  C   UNL d   1       0.896  -1.368  -3.612  0.00  0.00     0.009 C 
ENDBRANCH   7   8
ENDBRANCH   1   7
TORSDOF 2
ENDMDL
