MODEL 1
REMARK minimizedAffinity -5.5952425
REMARK minimizedRMSD -1
REMARK  2 active torsions:
REMARK  status: ('A' for Active; 'I' for Inactive)
REMARK    1  A    between atoms: C1_2  and  C2_3 
REMARK    2  A    between atoms: C2_3  and  C3_4 
ROOT
ATOM      1  C3  UNL d   1      -0.454  -0.223   0.926  0.00  0.00    -0.075 A 
ATOM      2  C4  UNL d   1      -1.694   0.226   1.402  0.00  0.00     0.002 A 
ATOM      3  C5  UNL d   1      -2.059   0.019   2.733  0.00  0.00     0.002 A 
ATOM      4  C6  UNL d   1      -1.195  -0.646   3.600  0.00  0.00    -0.004 A 
ATOM      5  C7  UNL d   1       0.032  -1.111   3.134  0.00  0.00     0.002 A 
ATOM      6  C8  UNL d   1       0.402  -0.902   1.804  0.00  0.00     0.002 A 
ENDROOT
BRANCH   1   7
ATOM      7  C2  UNL d   1      -0.040   0.024  -0.505  0.00  0.00     0.056 C 
BRANCH   7   8
ATOM      8  C1  UNL d   1       0.409  -1.237  -1.251  0.00  0.00     0.007 C 
ATOM      9  C   UNL d   1       0.853  -0.963  -2.681  0.00  0.00     0.009 C 
ENDBRANCH   7   8
ENDBRANCH   1   7
TORSDOF 2
ENDMDL
