MODEL 1
REMARK minimizedAffinity -4.91766596
REMARK minimizedRMSD -1
REMARK  2 active torsions:
REMARK  status: ('A' for Active; 'I' for Inactive)
REMARK    1  A    between atoms: C1_2  and  C2_3 
REMARK    2  A    between atoms: C2_3  and  C3_4 
ROOT
ATOM      1  C3  UNL d   1       0.764   0.303  -0.268  0.00  0.00    -0.075 A 
ATOM      2  C4  UNL d   1       2.088   0.315   0.196  0.00  0.00     0.002 A 
ATOM      3  C5  UNL d   1       2.363   0.519   1.548  0.00  0.00     0.002 A 
ATOM      4  C6  UNL d   1       1.322   0.724   2.451  0.00  0.00    -0.004 A 
ATOM      5  C7  UNL d   1       0.004   0.731   1.999  0.00  0.00     0.002 A 
ATOM      6  C8  UNL d   1      -0.274   0.522   0.647  0.00  0.00     0.002 A 
ENDROOT
BRANCH   1   7
ATOM      7  C2  UNL d   1       0.458   0.053  -1.725  0.00  0.00     0.056 C 
BRANCH   7   8
ATOM      8  C1  UNL d   1       1.698   0.006  -2.624  0.00  0.00     0.007 C 
ATOM      9  C   UNL d   1       1.716  -1.195  -3.560  0.00  0.00     0.009 C 
ENDBRANCH   7   8
ENDBRANCH   1   7
TORSDOF 2
ENDMDL
