MODEL 1
REMARK minimizedAffinity -3.53332806
REMARK minimizedRMSD -1
REMARK  2 active torsions:
REMARK  status: ('A' for Active; 'I' for Inactive)
REMARK    1  A    between atoms: C1_2  and  C2_3 
REMARK    2  A    between atoms: C2_3  and  C3_4 
ROOT
ATOM      1  C3  UNL d   1      -0.411   0.325   0.261  0.00  0.00    -0.075 A 
ATOM      2  C4  UNL d   1      -1.462   0.258   1.187  0.00  0.00     0.002 A 
ATOM      3  C5  UNL d   1      -1.208   0.359   2.555  0.00  0.00     0.002 A 
ATOM      4  C6  UNL d   1       0.097   0.516   3.014  0.00  0.00    -0.004 A 
ATOM      5  C7  UNL d   1       1.151   0.568   2.104  0.00  0.00     0.002 A 
ATOM      6  C8  UNL d   1       0.899   0.472   0.734  0.00  0.00     0.002 A 
ENDROOT
BRANCH   1   7
ATOM      7  C2  UNL d   1      -0.683   0.247  -1.223  0.00  0.00     0.056 C 
BRANCH   7   8
ATOM      8  C1  UNL d   1       0.579   0.303  -2.091  0.00  0.00     0.007 C 
ATOM      9  C   UNL d   1       0.690  -0.864  -3.064  0.00  0.00     0.009 C 
ENDBRANCH   7   8
ENDBRANCH   1   7
TORSDOF 2
ENDMDL
