MODEL 1
REMARK minimizedAffinity -3.3069427
REMARK minimizedRMSD -1
REMARK  2 active torsions:
REMARK  status: ('A' for Active; 'I' for Inactive)
REMARK    1  A    between atoms: C1_2  and  C2_3 
REMARK    2  A    between atoms: C2_3  and  C3_4 
ROOT
ATOM      1  C3  UNL d   1      -1.283   0.285   2.135  0.00  0.00    -0.075 A 
ATOM      2  C4  UNL d   1      -0.454   0.208   3.264  0.00  0.00     0.002 A 
ATOM      3  C5  UNL d   1       0.930   0.106   3.119  0.00  0.00     0.002 A 
ATOM      4  C6  UNL d   1       1.501   0.069   1.849  0.00  0.00    -0.004 A 
ATOM      5  C7  UNL d   1       0.685   0.127   0.721  0.00  0.00     0.002 A 
ATOM      6  C8  UNL d   1      -0.700   0.234   0.862  0.00  0.00     0.002 A 
ENDROOT
BRANCH   1   7
ATOM      7  C2  UNL d   1      -2.779   0.425   2.285  0.00  0.00     0.056 C 
BRANCH   7   8
ATOM      8  C1  UNL d   1      -3.539   0.455   0.954  0.00  0.00     0.007 C 
ATOM      9  C   UNL d   1      -4.774  -0.436   0.948  0.00  0.00     0.009 C 
ENDBRANCH   7   8
ENDBRANCH   1   7
TORSDOF 2
ENDMDL
