MODEL 1
REMARK minimizedAffinity -6.02991343
REMARK minimizedRMSD -1
REMARK  2 active torsions:
REMARK  status: ('A' for Active; 'I' for Inactive)
REMARK    1  A    between atoms: C1_2  and  C2_3 
REMARK    2  A    between atoms: C2_3  and  C3_4 
ROOT
ATOM      1  C3  UNL d   1      -0.568   0.114   1.961  0.00  0.00    -0.075 A 
ATOM      2  C4  UNL d   1       0.556   0.104   2.799  0.00  0.00     0.002 A 
ATOM      3  C5  UNL d   1       1.839   0.225   2.264  0.00  0.00     0.002 A 
ATOM      4  C6  UNL d   1       2.015   0.347   0.888  0.00  0.00    -0.004 A 
ATOM      5  C7  UNL d   1       0.906   0.341   0.044  0.00  0.00     0.002 A 
ATOM      6  C8  UNL d   1      -0.379   0.225   0.577  0.00  0.00     0.002 A 
ENDROOT
BRANCH   1   7
ATOM      7  C2  UNL d   1      -1.961   0.013   2.536  0.00  0.00     0.056 C 
BRANCH   7   8
ATOM      8  C1  UNL d   1      -2.976   0.955   1.879  0.00  0.00     0.007 C 
ATOM      9  C   UNL d   1      -4.044   0.222   1.077  0.00  0.00     0.009 C 
ENDBRANCH   7   8
ENDBRANCH   1   7
TORSDOF 2
ENDMDL
