MODEL 1
REMARK minimizedAffinity -5.64737368
REMARK minimizedRMSD -1
REMARK  2 active torsions:
REMARK  status: ('A' for Active; 'I' for Inactive)
REMARK    1  A    between atoms: C1_2  and  C2_3 
REMARK    2  A    between atoms: C2_3  and  C3_4 
ROOT
ATOM      1  C3  UNL d   1      -0.026  -0.068   0.581  0.00  0.00    -0.075 A 
ATOM      2  C4  UNL d   1       0.804   0.431   1.596  0.00  0.00     0.002 A 
ATOM      3  C5  UNL d   1       0.479   0.231   2.938  0.00  0.00     0.002 A 
ATOM      4  C6  UNL d   1      -0.681  -0.460   3.282  0.00  0.00    -0.004 A 
ATOM      5  C7  UNL d   1      -1.521  -0.945   2.282  0.00  0.00     0.002 A 
ATOM      6  C8  UNL d   1      -1.196  -0.750   0.938  0.00  0.00     0.002 A 
ENDROOT
BRANCH   1   7
ATOM      7  C2  UNL d   1       0.335   0.120  -0.873  0.00  0.00     0.056 C 
BRANCH   7   8
ATOM      8  C1  UNL d   1       0.735  -1.175  -1.589  0.00  0.00     0.007 C 
ATOM      9  C   UNL d   1       1.039  -0.975  -3.068  0.00  0.00     0.009 C 
ENDBRANCH   7   8
ENDBRANCH   1   7
TORSDOF 2
ENDMDL
