MODEL 1
REMARK minimizedAffinity 2.99899459
REMARK minimizedRMSD -1
REMARK  2 active torsions:
REMARK  status: ('A' for Active; 'I' for Inactive)
REMARK    1  A    between atoms: C1_2  and  C2_3 
REMARK    2  A    between atoms: C2_3  and  C3_4 
ROOT
ATOM      1  C3  UNL d   1       2.516   2.084   1.686  0.00  0.00    -0.075 A 
ATOM      2  C4  UNL d   1       2.138   1.276   0.604  0.00  0.00     0.002 A 
ATOM      3  C5  UNL d   1       1.040   0.422   0.707  0.00  0.00     0.002 A 
ATOM      4  C6  UNL d   1       0.313   0.356   1.894  0.00  0.00    -0.004 A 
ATOM      5  C7  UNL d   1       0.689   1.142   2.981  0.00  0.00     0.002 A 
ATOM      6  C8  UNL d   1       1.785   2.001   2.879  0.00  0.00     0.002 A 
ENDROOT
BRANCH   1   7
ATOM      7  C2  UNL d   1       3.685   3.032   1.572  0.00  0.00     0.056 C 
BRANCH   7   8
ATOM      8  C1  UNL d   1       5.053   2.342   1.607  0.00  0.00     0.007 C 
ATOM      9  C   UNL d   1       5.193   1.345   2.750  0.00  0.00     0.009 C 
ENDBRANCH   7   8
ENDBRANCH   1   7
TORSDOF 2
ENDMDL
