MODEL 1
REMARK minimizedAffinity 6.27123213
REMARK minimizedRMSD -1
REMARK  2 active torsions:
REMARK  status: ('A' for Active; 'I' for Inactive)
REMARK    1  A    between atoms: C1_2  and  C2_3 
REMARK    2  A    between atoms: C2_3  and  C3_4 
ROOT
ATOM      1  C3  UNL d   1       0.673   0.691   0.070  0.00  0.00    -0.075 A 
ATOM      2  C4  UNL d   1       1.945   0.882   0.631  0.00  0.00     0.002 A 
ATOM      3  C5  UNL d   1       2.079   1.334   1.944  0.00  0.00     0.002 A 
ATOM      4  C6  UNL d   1       0.948   1.610   2.708  0.00  0.00    -0.004 A 
ATOM      5  C7  UNL d   1      -0.320   1.440   2.156  0.00  0.00     0.002 A 
ATOM      6  C8  UNL d   1      -0.458   0.983   0.844  0.00  0.00     0.002 A 
ENDROOT
BRANCH   1   7
ATOM      7  C2  UNL d   1       0.521   0.174  -1.340  0.00  0.00     0.056 C 
BRANCH   7   8
ATOM      8  C1  UNL d   1       1.785   0.312  -2.196  0.00  0.00     0.007 C 
ATOM      9  C   UNL d   1       2.077  -0.922  -3.039  0.00  0.00     0.009 C 
ENDBRANCH   7   8
ENDBRANCH   1   7
TORSDOF 2
ENDMDL
