MODEL 1
REMARK minimizedAffinity -4.43085814
REMARK minimizedRMSD -1
REMARK  2 active torsions:
REMARK  status: ('A' for Active; 'I' for Inactive)
REMARK    1  A    between atoms: C1_2  and  C2_3 
REMARK    2  A    between atoms: C2_3  and  C3_4 
ROOT
ATOM      1  C3  UNL d   1       0.090  -0.145   0.454  0.00  0.00    -0.075 A 
ATOM      2  C4  UNL d   1      -0.803  -0.506   1.473  0.00  0.00     0.002 A 
ATOM      3  C5  UNL d   1      -0.720   0.089   2.732  0.00  0.00     0.002 A 
ATOM      4  C6  UNL d   1       0.262   1.042   2.991  0.00  0.00    -0.004 A 
ATOM      5  C7  UNL d   1       1.165   1.397   1.992  0.00  0.00     0.002 A 
ATOM      6  C8  UNL d   1       1.081   0.806   0.729  0.00  0.00     0.002 A 
ENDROOT
BRANCH   1   7
ATOM      7  C2  UNL d   1      -0.014  -0.764  -0.920  0.00  0.00     0.056 C 
BRANCH   7   8
ATOM      8  C1  UNL d   1       0.696   0.034  -2.018  0.00  0.00     0.007 C 
ATOM      9  C   UNL d   1       1.373  -0.847  -3.059  0.00  0.00     0.009 C 
ENDBRANCH   7   8
ENDBRANCH   1   7
TORSDOF 2
ENDMDL
