MODEL 1
REMARK minimizedAffinity -4.42323446
REMARK minimizedRMSD -1
REMARK  1 active torsions:
REMARK  status: ('A' for Active; 'I' for Inactive)
REMARK    1  A    between atoms: C3_4  and  O_7 
ROOT
ATOM      1  C   UNL d   1      -0.118  -0.120   0.318  0.00  0.00    -0.033 A 
ATOM      2  C1  UNL d   1      -0.948  -0.443   1.393  0.00  0.00     0.039 A 
ATOM      3  C2  UNL d   1      -0.405  -0.630   2.665  0.00  0.00    -0.080 A 
ATOM      4  C3  UNL d   1       0.968  -0.491   2.849  0.00  0.00     0.150 A 
ATOM      5  C4  UNL d   1       1.801  -0.166   1.784  0.00  0.00    -0.007 A 
ATOM      6  C5  UNL d   1       1.257   0.020   0.514  0.00  0.00     0.039 A 
ENDROOT
BRANCH   4   7
ATOM      7  O   UNL d   1       1.544  -0.669   4.072  0.00  0.00    -0.526 OA
ATOM      8  H5  UNL d   1       0.851  -0.918   4.706  0.00  0.00     0.418 HD
ENDBRANCH   4   7
TORSDOF 1
ENDMDL
