MODEL 1
REMARK minimizedAffinity -3.77633739
REMARK minimizedRMSD -1
REMARK  1 active torsions:
REMARK  status: ('A' for Active; 'I' for Inactive)
REMARK    1  A    between atoms: C3_4  and  O_7 
ROOT
ATOM      1  C   UNL d   1       2.037  -1.525   2.398  0.00  0.00    -0.033 A 
ATOM      2  C1  UNL d   1       2.436  -1.609   1.062  0.00  0.00     0.039 A 
ATOM      3  C2  UNL d   1       1.614  -1.101   0.054  0.00  0.00    -0.080 A 
ATOM      4  C3  UNL d   1       0.400  -0.512   0.393  0.00  0.00     0.150 A 
ATOM      5  C4  UNL d   1      -0.002  -0.422   1.722  0.00  0.00    -0.007 A 
ATOM      6  C5  UNL d   1       0.819  -0.930   2.728  0.00  0.00     0.039 A 
ENDROOT
BRANCH   4   7
ATOM      7  O   UNL d   1      -0.438  -0.007  -0.556  0.00  0.00    -0.526 OA
ATOM      8  H5  UNL d   1      -0.043  -0.165  -1.430  0.00  0.00     0.418 HD
ENDBRANCH   4   7
TORSDOF 1
ENDMDL
