MODEL 1
REMARK minimizedAffinity -5.36770821
REMARK minimizedRMSD -1
REMARK  1 active torsions:
REMARK  status: ('A' for Active; 'I' for Inactive)
REMARK    1  A    between atoms: C3_4  and  O_7 
ROOT
ATOM      1  C   UNL d   1       1.815  -0.817   2.905  0.00  0.00    -0.033 A 
ATOM      2  C1  UNL d   1       2.173  -1.199   1.611  0.00  0.00     0.039 A 
ATOM      3  C2  UNL d   1       1.278  -1.020   0.555  0.00  0.00    -0.080 A 
ATOM      4  C3  UNL d   1       0.029  -0.457   0.806  0.00  0.00     0.150 A 
ATOM      5  C4  UNL d   1      -0.333  -0.071   2.092  0.00  0.00    -0.007 A 
ATOM      6  C5  UNL d   1       0.562  -0.252   3.146  0.00  0.00     0.039 A 
ENDROOT
BRANCH   4   7
ATOM      7  O   UNL d   1      -0.880  -0.267  -0.192  0.00  0.00    -0.526 OA
ATOM      8  H5  UNL d   1      -0.503  -0.607  -1.021  0.00  0.00     0.418 HD
ENDBRANCH   4   7
TORSDOF 1
ENDMDL
