MODEL 1
REMARK minimizedAffinity -4.72642612
REMARK minimizedRMSD -1
REMARK  1 active torsions:
REMARK  status: ('A' for Active; 'I' for Inactive)
REMARK    1  A    between atoms: C3_4  and  O_7 
ROOT
ATOM      1  C   UNL d   1      -0.783  -0.511  -0.130  0.00  0.00    -0.033 A 
ATOM      2  C1  UNL d   1       0.583  -0.241  -0.228  0.00  0.00     0.039 A 
ATOM      3  C2  UNL d   1       1.393  -0.307   0.908  0.00  0.00    -0.080 A 
ATOM      4  C3  UNL d   1       0.825  -0.644   2.133  0.00  0.00     0.150 A 
ATOM      5  C4  UNL d   1      -0.535  -0.918   2.237  0.00  0.00    -0.007 A 
ATOM      6  C5  UNL d   1      -1.342  -0.851   1.103  0.00  0.00     0.039 A 
ENDROOT
BRANCH   4   7
ATOM      7  O   UNL d   1       1.574  -0.716   3.270  0.00  0.00    -0.526 OA
ATOM      8  H5  UNL d   1       2.489  -0.474   3.051  0.00  0.00     0.418 HD
ENDBRANCH   4   7
TORSDOF 1
ENDMDL
