MODEL 1
REMARK minimizedAffinity -3.55122137
REMARK minimizedRMSD -1
REMARK  1 active torsions:
REMARK  status: ('A' for Active; 'I' for Inactive)
REMARK    1  A    between atoms: C3_4  and  O_7 
ROOT
ATOM      1  C   UNL d   1      -0.796  -0.097   0.111  0.00  0.00    -0.033 A 
ATOM      2  C1  UNL d   1      -1.270  -0.845   1.190  0.00  0.00     0.039 A 
ATOM      3  C2  UNL d   1      -0.444  -1.092   2.288  0.00  0.00    -0.080 A 
ATOM      4  C3  UNL d   1       0.853  -0.586   2.295  0.00  0.00     0.150 A 
ATOM      5  C4  UNL d   1       1.331   0.164   1.226  0.00  0.00    -0.007 A 
ATOM      6  C5  UNL d   1       0.504   0.409   0.130  0.00  0.00     0.039 A 
ENDROOT
BRANCH   4   7
ATOM      7  O   UNL d   1       1.698  -0.805   3.342  0.00  0.00    -0.526 OA
ATOM      8  H5  UNL d   1       1.241  -1.362   3.995  0.00  0.00     0.418 HD
ENDBRANCH   4   7
TORSDOF 1
ENDMDL
