MODEL 1
REMARK minimizedAffinity -3.4825387
REMARK minimizedRMSD -1
REMARK  1 active torsions:
REMARK  status: ('A' for Active; 'I' for Inactive)
REMARK    1  A    between atoms: C3_4  and  O_7 
ROOT
ATOM      1  C   UNL d   1      -0.255   0.205  -0.197  0.00  0.00    -0.033 A 
ATOM      2  C1  UNL d   1      -1.098   0.069   0.907  0.00  0.00     0.039 A 
ATOM      3  C2  UNL d   1      -0.569  -0.264   2.155  0.00  0.00    -0.080 A 
ATOM      4  C3  UNL d   1       0.804  -0.457   2.286  0.00  0.00     0.150 A 
ATOM      5  C4  UNL d   1       1.650  -0.319   1.191  0.00  0.00    -0.007 A 
ATOM      6  C5  UNL d   1       1.120   0.012  -0.055  0.00  0.00     0.039 A 
ENDROOT
BRANCH   4   7
ATOM      7  O   UNL d   1       1.366  -0.788   3.483  0.00  0.00    -0.526 OA
ATOM      8  H5  UNL d   1       0.658  -0.877   4.142  0.00  0.00     0.418 HD
ENDBRANCH   4   7
TORSDOF 1
ENDMDL
