MODEL 1
REMARK minimizedAffinity -4.23368597
REMARK minimizedRMSD -1
REMARK  1 active torsions:
REMARK  status: ('A' for Active; 'I' for Inactive)
REMARK    1  A    between atoms: C3_4  and  O_7 
ROOT
ATOM      1  C   UNL d   1      -0.099  -0.524   0.093  0.00  0.00    -0.033 A 
ATOM      2  C1  UNL d   1       1.285  -0.518  -0.089  0.00  0.00     0.039 A 
ATOM      3  C2  UNL d   1       2.134  -0.774   0.990  0.00  0.00    -0.080 A 
ATOM      4  C3  UNL d   1       1.586  -1.035   2.243  0.00  0.00     0.150 A 
ATOM      5  C4  UNL d   1       0.208  -1.045   2.431  0.00  0.00    -0.007 A 
ATOM      6  C5  UNL d   1      -0.638  -0.788   1.352  0.00  0.00     0.039 A 
ENDROOT
BRANCH   4   7
ATOM      7  O   UNL d   1       2.374  -1.286   3.327  0.00  0.00    -0.526 OA
ATOM      8  H5  UNL d   1       3.304  -1.217   3.054  0.00  0.00     0.418 HD
ENDBRANCH   4   7
TORSDOF 1
ENDMDL
