MODEL 1
REMARK minimizedAffinity 6.18263483
REMARK minimizedRMSD -1
REMARK  1 active torsions:
REMARK  status: ('A' for Active; 'I' for Inactive)
REMARK    1  A    between atoms: N_2  and  C1_3 
ROOT
ATOM      1  C1  UNL d   1       0.895  -0.666   1.300  0.00  0.00     0.143 A 
ATOM      2  C2  UNL d   1      -0.097   0.313   1.180  0.00  0.00    -0.057 A 
ATOM      3  C3  UNL d   1      -0.481   0.808  -0.072  0.00  0.00     0.033 A 
ATOM      4  C4  UNL d   1       0.143   0.351  -1.228  0.00  0.00    -0.042 A 
ATOM      5  C5  UNL d   1       1.149  -0.603  -1.131  0.00  0.00     0.033 A 
ATOM      6  C6  UNL d   1       1.524  -1.098   0.122  0.00  0.00    -0.057 A 
ENDROOT
BRANCH   1   7
ATOM      7  N   UNL d   1       1.390  -1.126   2.523  0.00  0.00    -0.732 N 
ATOM      8  C   UNL d   1       2.812  -1.124   2.791  0.00  0.00     0.284 C 
ATOM      9  H3  UNL d   1       0.818  -0.828   3.310  0.00  0.00     0.395 HD
ENDBRANCH   1   7
TORSDOF 1
ENDMDL
