MODEL 1
REMARK minimizedAffinity 3.49330783
REMARK minimizedRMSD -1
REMARK  1 active torsions:
REMARK  status: ('A' for Active; 'I' for Inactive)
REMARK    1  A    between atoms: N_2  and  C1_3 
ROOT
ATOM      1  C1  UNL d   1       0.399   1.774   2.230  0.00  0.00     0.143 A 
ATOM      2  C2  UNL d   1       1.251   2.039   3.307  0.00  0.00    -0.057 A 
ATOM      3  C3  UNL d   1       1.937   3.255   3.409  0.00  0.00     0.033 A 
ATOM      4  C4  UNL d   1       1.805   4.220   2.415  0.00  0.00    -0.042 A 
ATOM      5  C5  UNL d   1       0.983   3.968   1.322  0.00  0.00     0.033 A 
ATOM      6  C6  UNL d   1       0.296   2.754   1.230  0.00  0.00    -0.057 A 
ENDROOT
BRANCH   1   7
ATOM      7  N   UNL d   1      -0.234   0.546   2.022  0.00  0.00    -0.732 N 
ATOM      8  C   UNL d   1       0.398  -0.688   2.437  0.00  0.00     0.284 C 
ATOM      9  H3  UNL d   1      -1.233   0.586   2.212  0.00  0.00     0.395 HD
ENDBRANCH   1   7
TORSDOF 1
ENDMDL
