MODEL 1
REMARK minimizedAffinity 3.417974
REMARK minimizedRMSD -1
REMARK  1 active torsions:
REMARK  status: ('A' for Active; 'I' for Inactive)
REMARK    1  A    between atoms: N_2  and  C1_3 
ROOT
ATOM      1  C1  UNL d   1       2.341  -0.750   2.006  0.00  0.00     0.143 A 
ATOM      2  C2  UNL d   1       1.266  -0.756   2.902  0.00  0.00    -0.057 A 
ATOM      3  C3  UNL d   1      -0.058  -0.735   2.447  0.00  0.00     0.033 A 
ATOM      4  C4  UNL d   1      -0.331  -0.678   1.084  0.00  0.00    -0.042 A 
ATOM      5  C5  UNL d   1       0.722  -0.646   0.176  0.00  0.00     0.033 A 
ATOM      6  C6  UNL d   1       2.042  -0.674   0.637  0.00  0.00    -0.057 A 
ENDROOT
BRANCH   1   7
ATOM      7  N   UNL d   1       3.679  -0.671   2.398  0.00  0.00    -0.732 N 
ATOM      8  C   UNL d   1       4.177  -1.480   3.490  0.00  0.00     0.284 C 
ATOM      9  H3  UNL d   1       4.313  -0.607   1.605  0.00  0.00     0.395 HD
ENDBRANCH   1   7
TORSDOF 1
ENDMDL
