MODEL 1
REMARK minimizedAffinity -3.22244692
REMARK minimizedRMSD -1
REMARK  1 active torsions:
REMARK  status: ('A' for Active; 'I' for Inactive)
REMARK    1  A    between atoms: N_2  and  C1_3 
ROOT
ATOM      1  C1  UNL d   1       0.177  -1.460  -0.392  0.00  0.00     0.143 A 
ATOM      2  C2  UNL d   1       0.551  -2.754  -0.014  0.00  0.00    -0.057 A 
ATOM      3  C3  UNL d   1      -0.122  -3.878  -0.508  0.00  0.00     0.033 A 
ATOM      4  C4  UNL d   1      -1.203  -3.726  -1.370  0.00  0.00    -0.042 A 
ATOM      5  C5  UNL d   1      -1.608  -2.448  -1.739  0.00  0.00     0.033 A 
ATOM      6  C6  UNL d   1      -0.928  -1.330  -1.248  0.00  0.00    -0.057 A 
ENDROOT
BRANCH   1   7
ATOM      7  N   UNL d   1       0.743  -0.300   0.142  0.00  0.00    -0.732 N 
ATOM      8  C   UNL d   1       0.711  -0.052   1.567  0.00  0.00     0.284 C 
ATOM      9  H3  UNL d   1       1.626  -0.059  -0.302  0.00  0.00     0.395 HD
ENDBRANCH   1   7
TORSDOF 1
ENDMDL
