MODEL 1
REMARK minimizedAffinity 2.59039497
REMARK minimizedRMSD -1
REMARK  1 active torsions:
REMARK  status: ('A' for Active; 'I' for Inactive)
REMARK    1  A    between atoms: N_2  and  C1_3 
ROOT
ATOM      1  C1  UNL d   1      -5.926  -1.074   2.785  0.00  0.00     0.143 A 
ATOM      2  C2  UNL d   1      -5.919  -2.445   2.509  0.00  0.00    -0.057 A 
ATOM      3  C3  UNL d   1      -5.963  -3.393   3.538  0.00  0.00     0.033 A 
ATOM      4  C4  UNL d   1      -5.985  -2.985   4.868  0.00  0.00    -0.042 A 
ATOM      5  C5  UNL d   1      -5.968  -1.628   5.167  0.00  0.00     0.033 A 
ATOM      6  C6  UNL d   1      -5.931  -0.685   4.134  0.00  0.00    -0.057 A 
ENDROOT
BRANCH   1   7
ATOM      7  N   UNL d   1      -5.785  -0.083   1.810  0.00  0.00    -0.732 N 
ATOM      8  C   UNL d   1      -4.492   0.510   1.544  0.00  0.00     0.284 C 
ATOM      9  H3  UNL d   1      -6.333  -0.279   0.976  0.00  0.00     0.395 HD
ENDBRANCH   1   7
TORSDOF 1
ENDMDL
