MODEL 1
REMARK minimizedAffinity -2.02097464
REMARK minimizedRMSD -1
REMARK  1 active torsions:
REMARK  status: ('A' for Active; 'I' for Inactive)
REMARK    1  A    between atoms: N_2  and  C1_3 
ROOT
ATOM      1  C1  UNL d   1      -1.148   0.098  -1.411  0.00  0.00     0.143 A 
ATOM      2  C2  UNL d   1      -1.232  -0.263  -0.062  0.00  0.00    -0.057 A 
ATOM      3  C3  UNL d   1      -0.081  -0.447   0.713  0.00  0.00     0.033 A 
ATOM      4  C4  UNL d   1       1.180  -0.301   0.143  0.00  0.00    -0.042 A 
ATOM      5  C5  UNL d   1       1.287   0.034  -1.202  0.00  0.00     0.033 A 
ATOM      6  C6  UNL d   1       0.134   0.223  -1.970  0.00  0.00    -0.057 A 
ENDROOT
BRANCH   1   7
ATOM      7  N   UNL d   1      -2.254   0.200  -2.260  0.00  0.00    -0.732 N 
ATOM      8  C   UNL d   1      -2.531  -0.832  -3.235  0.00  0.00     0.284 C 
ATOM      9  H3  UNL d   1      -3.079   0.552  -1.781  0.00  0.00     0.395 HD
ENDBRANCH   1   7
TORSDOF 1
ENDMDL
