MODEL 1
REMARK minimizedAffinity -2.34019232
REMARK minimizedRMSD -1
REMARK  1 active torsions:
REMARK  status: ('A' for Active; 'I' for Inactive)
REMARK    1  A    between atoms: N_2  and  C1_3 
ROOT
ATOM      1  C1  UNL d   1      -0.871   0.056  -0.581  0.00  0.00     0.143 A 
ATOM      2  C2  UNL d   1      -1.454  -1.182  -0.875  0.00  0.00    -0.057 A 
ATOM      3  C3  UNL d   1      -2.617  -1.271  -1.648  0.00  0.00     0.033 A 
ATOM      4  C4  UNL d   1      -3.237  -0.118  -2.118  0.00  0.00    -0.042 A 
ATOM      5  C5  UNL d   1      -2.690   1.124  -1.817  0.00  0.00     0.033 A 
ATOM      6  C6  UNL d   1      -1.524   1.206  -1.050  0.00  0.00    -0.057 A 
ENDROOT
BRANCH   1   7
ATOM      7  N   UNL d   1       0.229   0.216   0.265  0.00  0.00    -0.732 N 
ATOM      8  C   UNL d   1       0.044   0.392   1.690  0.00  0.00     0.284 C 
ATOM      9  H3  UNL d   1       1.001  -0.399   0.019  0.00  0.00     0.395 HD
ENDBRANCH   1   7
TORSDOF 1
ENDMDL
