MODEL 1
REMARK minimizedAffinity 9.75004101
REMARK minimizedRMSD -1
REMARK  0 active torsions:
REMARK  status: ('A' for Active; 'I' for Inactive)
ROOT
ATOM      1  C   UNL d   1      -2.813   0.427   1.874  0.00  0.00     0.078 C 
ATOM      2  C1  UNL d   1      -3.931  -0.369   2.478  0.00  0.00    -0.077 A 
ATOM      3  C2  UNL d   1      -4.895   0.243   3.289  0.00  0.00    -0.001 A 
ATOM      4  C3  UNL d   1      -5.925  -0.512   3.853  0.00  0.00     0.003 A 
ATOM      5  C4  UNL d   1      -6.000  -1.882   3.613  0.00  0.00    -0.005 A 
ATOM      6  C5  UNL d   1      -5.044  -2.500   2.809  0.00  0.00     0.003 A 
ATOM      7  C6  UNL d   1      -4.013  -1.747   2.245  0.00  0.00    -0.001 A 
ENDROOT
TORSDOF 0
ENDMDL
