MODEL 1
REMARK minimizedAffinity -2.63593125
REMARK minimizedRMSD -1
REMARK  0 active torsions:
REMARK  status: ('A' for Active; 'I' for Inactive)
ROOT
ATOM      1  C   UNL d   1       1.367   4.680  -1.180  0.00  0.00     0.078 C 
ATOM      2  C1  UNL d   1       0.717   3.507  -0.510  0.00  0.00    -0.077 A 
ATOM      3  C2  UNL d   1      -0.232   2.727  -1.181  0.00  0.00    -0.001 A 
ATOM      4  C3  UNL d   1      -0.837   1.644  -0.541  0.00  0.00     0.003 A 
ATOM      5  C4  UNL d   1      -0.500   1.331   0.774  0.00  0.00    -0.005 A 
ATOM      6  C5  UNL d   1       0.442   2.103   1.452  0.00  0.00     0.003 A 
ATOM      7  C6  UNL d   1       1.048   3.186   0.813  0.00  0.00    -0.001 A 
ENDROOT
TORSDOF 0
ENDMDL
