MODEL 1
REMARK minimizedAffinity 2.09914231
REMARK minimizedRMSD -1
REMARK  0 active torsions:
REMARK  status: ('A' for Active; 'I' for Inactive)
ROOT
ATOM      1  C   UNL d   1      -0.528   1.365   1.033  0.00  0.00     0.078 C 
ATOM      2  C1  UNL d   1      -0.278   2.549   0.147  0.00  0.00    -0.077 A 
ATOM      3  C2  UNL d   1       0.625   2.474  -0.920  0.00  0.00    -0.001 A 
ATOM      4  C3  UNL d   1       0.855   3.586  -1.731  0.00  0.00     0.003 A 
ATOM      5  C4  UNL d   1       0.186   4.783  -1.482  0.00  0.00    -0.005 A 
ATOM      6  C5  UNL d   1      -0.713   4.869  -0.421  0.00  0.00     0.003 A 
ATOM      7  C6  UNL d   1      -0.944   3.757   0.391  0.00  0.00    -0.001 A 
ENDROOT
TORSDOF 0
ENDMDL
