MODEL 1
REMARK minimizedAffinity 2.92578721
REMARK minimizedRMSD -1
REMARK  0 active torsions:
REMARK  status: ('A' for Active; 'I' for Inactive)
ROOT
ATOM      1  C   UNL d   1      -0.028   0.376   1.694  0.00  0.00     0.078 C 
ATOM      2  C1  UNL d   1       0.407   1.528   0.838  0.00  0.00    -0.077 A 
ATOM      3  C2  UNL d   1      -0.014   1.636  -0.493  0.00  0.00    -0.001 A 
ATOM      4  C3  UNL d   1       0.407   2.708  -1.281  0.00  0.00     0.003 A 
ATOM      5  C4  UNL d   1       1.250   3.681  -0.748  0.00  0.00    -0.005 A 
ATOM      6  C5  UNL d   1       1.675   3.581   0.575  0.00  0.00     0.003 A 
ATOM      7  C6  UNL d   1       1.256   2.509   1.365  0.00  0.00    -0.001 A 
ENDROOT
TORSDOF 0
ENDMDL
