MODEL 1
REMARK minimizedAffinity 1.96764255
REMARK minimizedRMSD -1
REMARK  0 active torsions:
REMARK  status: ('A' for Active; 'I' for Inactive)
ROOT
ATOM      1  C   UNL d   1      -0.015   2.994  -1.135  0.00  0.00     0.078 C 
ATOM      2  C1  UNL d   1      -0.170   2.060   0.029  0.00  0.00    -0.077 A 
ATOM      3  C2  UNL d   1       0.944   1.627   0.758  0.00  0.00    -0.001 A 
ATOM      4  C3  UNL d   1       0.786   0.750   1.833  0.00  0.00     0.003 A 
ATOM      5  C4  UNL d   1      -0.484   0.298   2.186  0.00  0.00    -0.005 A 
ATOM      6  C5  UNL d   1      -1.598   0.722   1.465  0.00  0.00     0.003 A 
ATOM      7  C6  UNL d   1      -1.442   1.599   0.390  0.00  0.00    -0.001 A 
ENDROOT
TORSDOF 0
ENDMDL
