MODEL 1
REMARK minimizedAffinity 3.0321033
REMARK minimizedRMSD -1
REMARK  0 active torsions:
REMARK  status: ('A' for Active; 'I' for Inactive)
ROOT
ATOM      1  C   UNL d   1       0.762   1.554   1.907  0.00  0.00     0.078 C 
ATOM      2  C1  UNL d   1       0.916   2.439   0.707  0.00  0.00    -0.077 A 
ATOM      3  C2  UNL d   1       1.689   3.605   0.765  0.00  0.00    -0.001 A 
ATOM      4  C3  UNL d   1       1.816   4.424  -0.358  0.00  0.00     0.003 A 
ATOM      5  C4  UNL d   1       1.171   4.087  -1.547  0.00  0.00    -0.005 A 
ATOM      6  C5  UNL d   1       0.398   2.931  -1.613  0.00  0.00     0.003 A 
ATOM      7  C6  UNL d   1       0.270   2.110  -0.491  0.00  0.00    -0.001 A 
ENDROOT
TORSDOF 0
ENDMDL
