MODEL 1
REMARK minimizedAffinity 1.48156202
REMARK minimizedRMSD -1
REMARK  0 active torsions:
REMARK  status: ('A' for Active; 'I' for Inactive)
ROOT
ATOM      1  C   UNL d   1      -0.003   1.251   1.136  0.00  0.00     0.078 C 
ATOM      2  C1  UNL d   1       0.123   2.350   0.123  0.00  0.00    -0.077 A 
ATOM      3  C2  UNL d   1      -0.433   2.219  -1.156  0.00  0.00    -0.001 A 
ATOM      4  C3  UNL d   1      -0.299   3.245  -2.092  0.00  0.00     0.003 A 
ATOM      5  C4  UNL d   1       0.390   4.410  -1.760  0.00  0.00    -0.005 A 
ATOM      6  C5  UNL d   1       0.948   4.548  -0.491  0.00  0.00     0.003 A 
ATOM      7  C6  UNL d   1       0.816   3.523   0.446  0.00  0.00    -0.001 A 
ENDROOT
TORSDOF 0
ENDMDL
