MODEL 1
REMARK minimizedAffinity -3.94798636
REMARK minimizedRMSD -1
REMARK  0 active torsions:
REMARK  status: ('A' for Active; 'I' for Inactive)
ROOT
ATOM      1  C   UNL d   1      -0.499  -0.020   3.588  0.00  0.00     0.020 A 
ATOM      2  C1  UNL d   1      -1.326  -0.881   2.869  0.00  0.00     0.020 A 
ATOM      3  C2  UNL d   1      -1.197  -0.976   1.481  0.00  0.00     0.034 A 
ATOM      4  C3  UNL d   1      -0.237  -0.210   0.810  0.00  0.00     0.017 A 
ATOM      5  C4  UNL d   1       0.593   0.654   1.533  0.00  0.00     0.017 A 
ATOM      6  C5  UNL d   1       0.459   0.746   2.922  0.00  0.00     0.034 A 
ATOM      7 Cl   UNL d   1       1.799   1.631   0.774  0.00  0.00    -0.070 Cl
ATOM      8 Cl1  UNL d   1      -0.132  -0.379  -0.907  0.00  0.00    -0.070 Cl
ENDROOT
TORSDOF 0
ENDMDL
