MODEL 1
REMARK minimizedAffinity 0.791133165
REMARK minimizedRMSD -1
REMARK  0 active torsions:
REMARK  status: ('A' for Active; 'I' for Inactive)
ROOT
ATOM      1  C   UNL d   1      -1.607  -1.537   2.269  0.00  0.00     0.020 A 
ATOM      2  C1  UNL d   1      -1.307  -1.757   0.925  0.00  0.00     0.020 A 
ATOM      3  C2  UNL d   1      -0.451  -0.886   0.249  0.00  0.00     0.034 A 
ATOM      4  C3  UNL d   1       0.109   0.210   0.916  0.00  0.00     0.017 A 
ATOM      5  C4  UNL d   1      -0.193   0.430   2.265  0.00  0.00     0.017 A 
ATOM      6  C5  UNL d   1      -1.051  -0.445   2.937  0.00  0.00     0.034 A 
ATOM      7 Cl   UNL d   1       0.459   1.761   3.155  0.00  0.00    -0.070 Cl
ATOM      8 Cl1  UNL d   1       1.160   1.246   0.018  0.00  0.00    -0.070 Cl
ENDROOT
TORSDOF 0
ENDMDL
