MODEL 1
REMARK minimizedAffinity -4.33668613
REMARK minimizedRMSD -1
REMARK  0 active torsions:
REMARK  status: ('A' for Active; 'I' for Inactive)
ROOT
ATOM      1  C   UNL d   1      -1.391  -0.806   1.906  0.00  0.00     0.020 A 
ATOM      2  C1  UNL d   1      -0.507  -0.394   2.902  0.00  0.00     0.020 A 
ATOM      3  C2  UNL d   1       0.696   0.225   2.556  0.00  0.00     0.034 A 
ATOM      4  C3  UNL d   1       1.018   0.434   1.210  0.00  0.00     0.017 A 
ATOM      5  C4  UNL d   1       0.130   0.021   0.211  0.00  0.00     0.017 A 
ATOM      6  C5  UNL d   1      -1.073  -0.599   0.563  0.00  0.00     0.034 A 
ATOM      7 Cl   UNL d   1       0.458   0.245  -1.471  0.00  0.00    -0.070 Cl
ATOM      8 Cl1  UNL d   1       2.522   1.207   0.855  0.00  0.00    -0.070 Cl
ENDROOT
TORSDOF 0
ENDMDL
