MODEL 1
REMARK minimizedAffinity 1.45034635
REMARK minimizedRMSD -1
REMARK  0 active torsions:
REMARK  status: ('A' for Active; 'I' for Inactive)
ROOT
ATOM      1  C   UNL d   1       1.157  -1.533  -3.022  0.00  0.00     0.020 A 
ATOM      2  C1  UNL d   1      -0.129  -2.071  -3.015  0.00  0.00     0.020 A 
ATOM      3  C2  UNL d   1      -1.086  -1.581  -2.124  0.00  0.00     0.034 A 
ATOM      4  C3  UNL d   1      -0.759  -0.549  -1.237  0.00  0.00     0.017 A 
ATOM      5  C4  UNL d   1       0.532  -0.009  -1.244  0.00  0.00     0.017 A 
ATOM      6  C5  UNL d   1       1.487  -0.504  -2.139  0.00  0.00     0.034 A 
ATOM      7 Cl   UNL d   1       1.011   1.265  -0.179  0.00  0.00    -0.070 Cl
ATOM      8 Cl1  UNL d   1      -1.992   0.009  -0.163  0.00  0.00    -0.070 Cl
ENDROOT
TORSDOF 0
ENDMDL
