MODEL 1
REMARK minimizedAffinity -3.63744926
REMARK minimizedRMSD -1
REMARK  0 active torsions:
REMARK  status: ('A' for Active; 'I' for Inactive)
ROOT
ATOM      1  C   UNL d   1      -1.561   0.771   3.001  0.00  0.00     0.020 A 
ATOM      2  C1  UNL d   1      -0.170   0.791   3.099  0.00  0.00     0.020 A 
ATOM      3  C2  UNL d   1       0.611   0.832   1.942  0.00  0.00     0.034 A 
ATOM      4  C3  UNL d   1       0.002   0.853   0.682  0.00  0.00     0.017 A 
ATOM      5  C4  UNL d   1      -1.394   0.833   0.584  0.00  0.00     0.017 A 
ATOM      6  C5  UNL d   1      -2.171   0.792   1.746  0.00  0.00     0.034 A 
ATOM      7 Cl   UNL d   1      -2.217   0.857  -0.935  0.00  0.00    -0.070 Cl
ATOM      8 Cl1  UNL d   1       1.030   0.904  -0.706  0.00  0.00    -0.070 Cl
ENDROOT
TORSDOF 0
ENDMDL
