MODEL 1
REMARK minimizedAffinity -2.81150651
REMARK minimizedRMSD -1
REMARK  0 active torsions:
REMARK  status: ('A' for Active; 'I' for Inactive)
ROOT
ATOM      1  C   UNL d   1      -0.088   0.296  -1.720  0.00  0.00     0.020 A 
ATOM      2  C1  UNL d   1       0.954  -0.020  -0.849  0.00  0.00     0.020 A 
ATOM      3  C2  UNL d   1       0.677  -0.346   0.481  0.00  0.00     0.034 A 
ATOM      4  C3  UNL d   1      -0.644  -0.357   0.942  0.00  0.00     0.017 A 
ATOM      5  C4  UNL d   1      -1.689  -0.040   0.067  0.00  0.00     0.017 A 
ATOM      6  C5  UNL d   1      -1.406   0.286  -1.263  0.00  0.00     0.034 A 
ATOM      7 Cl   UNL d   1      -3.345  -0.032   0.563  0.00  0.00    -0.070 Cl
ATOM      8 Cl1  UNL d   1      -0.914  -0.771   2.598  0.00  0.00    -0.070 Cl
ENDROOT
TORSDOF 0
ENDMDL
