MODEL 1
REMARK minimizedAffinity -4.96966076
REMARK minimizedRMSD -1
REMARK  0 active torsions:
REMARK  status: ('A' for Active; 'I' for Inactive)
ROOT
ATOM      1  C   UNL d   1       0.041  -0.460   3.087  0.00  0.00     0.020 A 
ATOM      2  C1  UNL d   1       1.101   0.212   2.482  0.00  0.00     0.020 A 
ATOM      3  C2  UNL d   1       1.004   0.611   1.147  0.00  0.00     0.034 A 
ATOM      4  C3  UNL d   1      -0.156   0.336   0.413  0.00  0.00     0.017 A 
ATOM      5  C4  UNL d   1      -1.220  -0.339   1.022  0.00  0.00     0.017 A 
ATOM      6  C5  UNL d   1      -1.118  -0.735   2.359  0.00  0.00     0.034 A 
ATOM      7 Cl   UNL d   1      -2.684  -0.712   0.182  0.00  0.00    -0.070 Cl
ATOM      8 Cl1  UNL d   1      -0.208   0.858  -1.233  0.00  0.00    -0.070 Cl
ENDROOT
TORSDOF 0
ENDMDL
