MODEL 1
REMARK minimizedAffinity -4.10366297
REMARK minimizedRMSD -1
REMARK  0 active torsions:
REMARK  status: ('A' for Active; 'I' for Inactive)
ROOT
ATOM      1  C   UNL d   1       1.439  -0.407   2.459  0.00  0.00     0.020 A 
ATOM      2  C1  UNL d   1       0.228  -0.689   3.090  0.00  0.00     0.020 A 
ATOM      3  C2  UNL d   1      -0.966  -0.628   2.368  0.00  0.00     0.034 A 
ATOM      4  C3  UNL d   1      -0.952  -0.284   1.011  0.00  0.00     0.017 A 
ATOM      5  C4  UNL d   1       0.264  -0.001   0.379  0.00  0.00     0.017 A 
ATOM      6  C5  UNL d   1       1.457  -0.064   1.106  0.00  0.00     0.034 A 
ATOM      7 Cl   UNL d   1       0.362   0.430  -1.292  0.00  0.00    -0.070 Cl
ATOM      8 Cl1  UNL d   1      -2.466  -0.228   0.181  0.00  0.00    -0.070 Cl
ENDROOT
TORSDOF 0
ENDMDL
