MODEL 1
REMARK minimizedAffinity -4.60403061
REMARK minimizedRMSD -1
REMARK  0 active torsions:
REMARK  status: ('A' for Active; 'I' for Inactive)
ROOT
ATOM      1  C   UNL d   1       0.268  -0.536   2.983  0.00  0.00     0.020 A 
ATOM      2  C1  UNL d   1       1.307  -0.090   2.167  0.00  0.00     0.020 A 
ATOM      3  C2  UNL d   1       1.036   0.347   0.868  0.00  0.00     0.034 A 
ATOM      4  C3  UNL d   1      -0.276   0.339   0.382  0.00  0.00     0.017 A 
ATOM      5  C4  UNL d   1      -1.318  -0.108   1.202  0.00  0.00     0.017 A 
ATOM      6  C5  UNL d   1      -1.041  -0.545   2.501  0.00  0.00     0.034 A 
ATOM      7 Cl   UNL d   1      -2.963  -0.147   0.673  0.00  0.00    -0.070 Cl
ATOM      8 Cl1  UNL d   1      -0.538   0.894  -1.233  0.00  0.00    -0.070 Cl
ENDROOT
TORSDOF 0
ENDMDL
