MODEL 1
REMARK minimizedAffinity -4.04814005
REMARK minimizedRMSD -1
REMARK  0 active torsions:
REMARK  status: ('A' for Active; 'I' for Inactive)
ROOT
ATOM      1  C   UNL d   1      -2.188   0.539   1.024  0.00  0.00     0.020 A 
ATOM      2  C1  UNL d   1      -1.645   0.717  -0.248  0.00  0.00     0.020 A 
ATOM      3  C2  UNL d   1      -0.260   0.804  -0.410  0.00  0.00     0.034 A 
ATOM      4  C3  UNL d   1       0.585   0.714   0.702  0.00  0.00     0.017 A 
ATOM      5  C4  UNL d   1       0.039   0.536   1.978  0.00  0.00     0.017 A 
ATOM      6  C5  UNL d   1      -1.348   0.449   2.134  0.00  0.00     0.034 A 
ATOM      7 Cl   UNL d   1       1.018   0.416   3.397  0.00  0.00    -0.070 Cl
ATOM      8 Cl1  UNL d   1       2.287   0.830   0.428  0.00  0.00    -0.070 Cl
ENDROOT
TORSDOF 0
ENDMDL
