MODEL 1
REMARK minimizedAffinity -4.09339762
REMARK minimizedRMSD -1
REMARK  0 active torsions:
REMARK  status: ('A' for Active; 'I' for Inactive)
ROOT
ATOM      1  C   UNL d   1       0.316   0.404  -1.341  0.00  0.00     0.020 A 
ATOM      2  C1  UNL d   1      -0.919   0.325  -0.698  0.00  0.00     0.020 A 
ATOM      3  C2  UNL d   1      -0.982   0.345   0.697  0.00  0.00     0.034 A 
ATOM      4  C3  UNL d   1       0.191   0.444   1.453  0.00  0.00     0.017 A 
ATOM      5  C4  UNL d   1       1.430   0.523   0.807  0.00  0.00     0.017 A 
ATOM      6  C5  UNL d   1       1.488   0.503  -0.590  0.00  0.00     0.034 A 
ATOM      7 Cl   UNL d   1       2.921   0.647   1.673  0.00  0.00    -0.070 Cl
ATOM      8 Cl1  UNL d   1       0.038   0.464   3.174  0.00  0.00    -0.070 Cl
ENDROOT
TORSDOF 0
ENDMDL
