MODEL 1
REMARK minimizedAffinity -2.25032473
REMARK minimizedRMSD -1
REMARK  0 active torsions:
REMARK  status: ('A' for Active; 'I' for Inactive)
ROOT
ATOM      1  C   UNL d   1       1.778  -2.314  -1.908  0.00  0.00     0.020 A 
ATOM      2  C1  UNL d   1       1.329  -1.908  -3.164  0.00  0.00     0.020 A 
ATOM      3  C2  UNL d   1       0.416  -0.857  -3.273  0.00  0.00     0.034 A 
ATOM      4  C3  UNL d   1      -0.050  -0.208  -2.124  0.00  0.00     0.017 A 
ATOM      5  C4  UNL d   1       0.402  -0.615  -0.864  0.00  0.00     0.017 A 
ATOM      6  C5  UNL d   1       1.316  -1.668  -0.761  0.00  0.00     0.034 A 
ATOM      7 Cl   UNL d   1      -0.127   0.138   0.599  0.00  0.00    -0.070 Cl
ATOM      8 Cl1  UNL d   1      -1.178   1.085  -2.333  0.00  0.00    -0.070 Cl
ENDROOT
TORSDOF 0
ENDMDL
