MODEL 1
REMARK minimizedAffinity 0.867965758
REMARK minimizedRMSD -1
REMARK  0 active torsions:
REMARK  status: ('A' for Active; 'I' for Inactive)
ROOT
ATOM      1  C   UNL d   1      -0.910   1.221  -1.425  0.00  0.00     0.020 A 
ATOM      2  C1  UNL d   1       0.235   0.619  -0.904  0.00  0.00     0.020 A 
ATOM      3  C2  UNL d   1       0.144  -0.191   0.230  0.00  0.00     0.034 A 
ATOM      4  C3  UNL d   1      -1.095  -0.400   0.848  0.00  0.00     0.017 A 
ATOM      5  C4  UNL d   1      -2.243   0.205   0.324  0.00  0.00     0.017 A 
ATOM      6  C5  UNL d   1      -2.146   1.014  -0.812  0.00  0.00     0.034 A 
ATOM      7 Cl   UNL d   1      -3.806  -0.007   1.031  0.00  0.00    -0.070 Cl
ATOM      8 Cl1  UNL d   1      -1.134  -1.413   2.247  0.00  0.00    -0.070 Cl
ENDROOT
TORSDOF 0
ENDMDL
