MODEL 1
REMARK minimizedAffinity -3.71884775
REMARK minimizedRMSD -1
REMARK  0 active torsions:
REMARK  status: ('A' for Active; 'I' for Inactive)
ROOT
ATOM      1  C   UNL d   1       0.030   0.145   2.834  0.00  0.00     0.020 A 
ATOM      2  C1  UNL d   1       1.238  -0.227   2.245  0.00  0.00     0.020 A 
ATOM      3  C2  UNL d   1       1.368  -0.222   0.855  0.00  0.00     0.034 A 
ATOM      4  C3  UNL d   1       0.288   0.155   0.048  0.00  0.00     0.017 A 
ATOM      5  C4  UNL d   1      -0.924   0.528   0.640  0.00  0.00     0.017 A 
ATOM      6  C5  UNL d   1      -1.049   0.522   2.033  0.00  0.00     0.034 A 
ATOM      7 Cl   UNL d   1      -2.301   1.007  -0.289  0.00  0.00    -0.070 Cl
ATOM      8 Cl1  UNL d   1       0.519   0.139  -1.664  0.00  0.00    -0.070 Cl
ENDROOT
TORSDOF 0
ENDMDL
