MODEL 1
REMARK minimizedAffinity -0.166313067
REMARK minimizedRMSD -1
REMARK  0 active torsions:
REMARK  status: ('A' for Active; 'I' for Inactive)
ROOT
ATOM      1  C   UNL d   1      -2.091  -0.218   3.096  0.00  0.00     0.020 A 
ATOM      2  C1  UNL d   1      -1.680  -0.538   1.803  0.00  0.00     0.020 A 
ATOM      3  C2  UNL d   1      -0.572   0.102   1.244  0.00  0.00     0.034 A 
ATOM      4  C3  UNL d   1       0.129   1.066   1.978  0.00  0.00     0.017 A 
ATOM      5  C4  UNL d   1      -0.285   1.387   3.276  0.00  0.00     0.017 A 
ATOM      6  C5  UNL d   1      -1.395   0.743   3.831  0.00  0.00     0.034 A 
ATOM      7 Cl   UNL d   1       0.529   2.565   4.243  0.00  0.00    -0.070 Cl
ATOM      8 Cl1  UNL d   1       1.490   1.818   1.224  0.00  0.00    -0.070 Cl
ENDROOT
TORSDOF 0
ENDMDL
