MODEL 1
REMARK minimizedAffinity -4.59104061
REMARK minimizedRMSD -1
REMARK  0 active torsions:
REMARK  status: ('A' for Active; 'I' for Inactive)
ROOT
ATOM      1  C   UNL d   1      -2.576  -1.385   1.681  0.00  0.00     0.020 A 
ATOM      2  C1  UNL d   1      -2.335  -1.166   3.037  0.00  0.00     0.020 A 
ATOM      3  C2  UNL d   1      -1.223  -0.421   3.436  0.00  0.00     0.034 A 
ATOM      4  C3  UNL d   1      -0.349   0.108   2.480  0.00  0.00     0.017 A 
ATOM      5  C4  UNL d   1      -0.592  -0.113   1.119  0.00  0.00     0.017 A 
ATOM      6  C5  UNL d   1      -1.707  -0.860   0.725  0.00  0.00     0.034 A 
ATOM      7 Cl   UNL d   1       0.441   0.507  -0.120  0.00  0.00    -0.070 Cl
ATOM      8 Cl1  UNL d   1       1.005   1.020   3.045  0.00  0.00    -0.070 Cl
ENDROOT
TORSDOF 0
ENDMDL
