MODEL 1
REMARK minimizedAffinity -2.83562994
REMARK minimizedRMSD -1
REMARK  0 active torsions:
REMARK  status: ('A' for Active; 'I' for Inactive)
ROOT
ATOM      1  C   UNL d   1       0.798   1.243   2.863  0.00  0.00     0.020 A 
ATOM      2  C1  UNL d   1       1.869   1.418   1.988  0.00  0.00     0.020 A 
ATOM      3  C2  UNL d   1       1.711   1.145   0.628  0.00  0.00     0.034 A 
ATOM      4  C3  UNL d   1       0.478   0.696   0.139  0.00  0.00     0.017 A 
ATOM      5  C4  UNL d   1      -0.596   0.521   1.018  0.00  0.00     0.017 A 
ATOM      6  C5  UNL d   1      -0.432   0.795   2.379  0.00  0.00     0.034 A 
ATOM      7 Cl   UNL d   1      -2.146  -0.030   0.489  0.00  0.00    -0.070 Cl
ATOM      8 Cl1  UNL d   1       0.354   0.379  -1.555  0.00  0.00    -0.070 Cl
ENDROOT
TORSDOF 0
ENDMDL
