MODEL 1
REMARK minimizedAffinity -3.91721606
REMARK minimizedRMSD -1
REMARK  0 active torsions:
REMARK  status: ('A' for Active; 'I' for Inactive)
ROOT
ATOM      1  C   UNL d   1      -2.104  -0.022   3.292  0.00  0.00     0.020 A 
ATOM      2  C1  UNL d   1      -0.810  -0.536   3.219  0.00  0.00     0.020 A 
ATOM      3  C2  UNL d   1      -0.213  -0.750   1.975  0.00  0.00     0.034 A 
ATOM      4  C3  UNL d   1      -0.910  -0.449   0.799  0.00  0.00     0.017 A 
ATOM      5  C4  UNL d   1      -2.208   0.068   0.874  0.00  0.00     0.017 A 
ATOM      6  C5  UNL d   1      -2.801   0.280   2.122  0.00  0.00     0.034 A 
ATOM      7 Cl   UNL d   1      -3.131   0.464  -0.533  0.00  0.00    -0.070 Cl
ATOM      8 Cl1  UNL d   1      -0.110  -0.738  -0.705  0.00  0.00    -0.070 Cl
ENDROOT
TORSDOF 0
ENDMDL
