MODEL 1
REMARK minimizedAffinity -1.37729454
REMARK minimizedRMSD -1
REMARK  0 active torsions:
REMARK  status: ('A' for Active; 'I' for Inactive)
ROOT
ATOM      1  C   UNL d   1       0.198  -3.862  -1.423  0.00  0.00     0.020 A 
ATOM      2  C1  UNL d   1       1.518  -3.719  -1.847  0.00  0.00     0.020 A 
ATOM      3  C2  UNL d   1       1.943  -2.514  -2.411  0.00  0.00     0.034 A 
ATOM      4  C3  UNL d   1       1.047  -1.448  -2.553  0.00  0.00     0.017 A 
ATOM      5  C4  UNL d   1      -0.278  -1.593  -2.127  0.00  0.00     0.017 A 
ATOM      6  C5  UNL d   1      -0.698  -2.802  -1.563  0.00  0.00     0.034 A 
ATOM      7 Cl   UNL d   1      -1.441  -0.323  -2.268  0.00  0.00    -0.070 Cl
ATOM      8 Cl1  UNL d   1       1.642   0.013  -3.258  0.00  0.00    -0.070 Cl
ENDROOT
TORSDOF 0
ENDMDL
