MODEL 1
REMARK minimizedAffinity -5.57868719
REMARK minimizedRMSD -1
REMARK  0 active torsions:
REMARK  status: ('A' for Active; 'I' for Inactive)
ROOT
ATOM      1  C   UNL d   1       0.389  -0.078   2.574  0.00  0.00     0.020 A 
ATOM      2  C1  UNL d   1      -0.965   0.064   2.877  0.00  0.00     0.020 A 
ATOM      3  C2  UNL d   1      -1.892   0.262   1.852  0.00  0.00     0.034 A 
ATOM      4  C3  UNL d   1      -1.467   0.320   0.519  0.00  0.00     0.017 A 
ATOM      5  C4  UNL d   1      -0.108   0.178   0.217  0.00  0.00     0.017 A 
ATOM      6  C5  UNL d   1       0.816  -0.020   1.247  0.00  0.00     0.034 A 
ATOM      7 Cl   UNL d   1       0.492   0.239  -1.403  0.00  0.00    -0.070 Cl
ATOM      8 Cl1  UNL d   1      -2.669   0.568  -0.697  0.00  0.00    -0.070 Cl
ENDROOT
TORSDOF 0
ENDMDL
