MODEL 1
REMARK minimizedAffinity -4.09833527
REMARK minimizedRMSD -1
REMARK  1 active torsions:
REMARK  status: ('A' for Active; 'I' for Inactive)
REMARK    1  A    between atoms: C1_2  and  C2_3 
ROOT
ATOM      1  C2  UNL d   1      -0.282   0.149   0.070  0.00  0.00    -0.076 A 
ATOM      2  C3  UNL d   1       0.846  -0.688  -0.005  0.00  0.00     0.004 A 
ATOM      3  C4  UNL d   1       1.366  -1.295   1.137  0.00  0.00    -0.003 A 
ATOM      4  C5  UNL d   1       0.767  -1.076   2.373  0.00  0.00     0.000 A 
ATOM      5  C6  UNL d   1      -0.363  -0.263   2.463  0.00  0.00     0.000 A 
ATOM      6  C7  UNL d   1      -0.910   0.343   1.319  0.00  0.00    -0.073 A 
ATOM      7  C8  UNL d   1      -2.126   1.215   1.476  0.00  0.00     0.078 C 
ENDROOT
BRANCH   1   8
ATOM      8  C1  UNL d   1      -0.785   0.802  -1.197  0.00  0.00     0.053 C 
ATOM      9  C   UNL d   1      -0.013   2.064  -1.549  0.00  0.00     0.018 C 
ENDBRANCH   1   8
TORSDOF 1
ENDMDL
