MODEL 1
REMARK minimizedAffinity -4.63428354
REMARK minimizedRMSD -1
REMARK  1 active torsions:
REMARK  status: ('A' for Active; 'I' for Inactive)
REMARK    1  A    between atoms: C1_2  and  C2_3 
ROOT
ATOM      1  C2  UNL d   1       0.261  -0.157  -0.283  0.00  0.00    -0.076 A 
ATOM      2  C3  UNL d   1      -0.656   0.457   0.587  0.00  0.00     0.004 A 
ATOM      3  C4  UNL d   1      -0.577   0.265   1.966  0.00  0.00    -0.003 A 
ATOM      4  C5  UNL d   1       0.422  -0.543   2.497  0.00  0.00     0.000 A 
ATOM      5  C6  UNL d   1       1.352  -1.146   1.650  0.00  0.00     0.000 A 
ATOM      6  C7  UNL d   1       1.296  -0.950   0.259  0.00  0.00    -0.073 A 
ATOM      7  C8  UNL d   1       2.320  -1.629  -0.608  0.00  0.00     0.078 C 
ENDROOT
BRANCH   1   8
ATOM      8  C1  UNL d   1       0.110   0.066  -1.770  0.00  0.00     0.053 C 
ATOM      9  C   UNL d   1      -0.824   1.223  -2.094  0.00  0.00     0.018 C 
ENDBRANCH   1   8
TORSDOF 1
ENDMDL
