MODEL 1
REMARK minimizedAffinity -0.944267988
REMARK minimizedRMSD -1
REMARK  1 active torsions:
REMARK  status: ('A' for Active; 'I' for Inactive)
REMARK    1  A    between atoms: C1_2  and  C2_3 
ROOT
ATOM      1  C2  UNL d   1       0.312  -0.484  -0.212  0.00  0.00    -0.076 A 
ATOM      2  C3  UNL d   1      -0.708   0.098   0.560  0.00  0.00     0.004 A 
ATOM      3  C4  UNL d   1      -0.896  -0.265   1.892  0.00  0.00    -0.003 A 
ATOM      4  C5  UNL d   1      -0.065  -1.216   2.475  0.00  0.00     0.000 A 
ATOM      5  C6  UNL d   1       0.963  -1.791   1.730  0.00  0.00     0.000 A 
ATOM      6  C7  UNL d   1       1.176  -1.424   0.390  0.00  0.00    -0.073 A 
ATOM      7  C8  UNL d   1       2.297  -2.080  -0.369  0.00  0.00     0.078 C 
ENDROOT
BRANCH   1   8
ATOM      8  C1  UNL d   1       0.451  -0.071  -1.660  0.00  0.00     0.053 C 
ATOM      9  C   UNL d   1      -0.315   1.204  -1.978  0.00  0.00     0.018 C 
ENDBRANCH   1   8
TORSDOF 1
ENDMDL
