MODEL 1
REMARK minimizedAffinity -4.58266735
REMARK minimizedRMSD -1
REMARK  1 active torsions:
REMARK  status: ('A' for Active; 'I' for Inactive)
REMARK    1  A    between atoms: C1_2  and  C2_3 
ROOT
ATOM      1  C2  UNL d   1      -0.831   1.132  -1.058  0.00  0.00    -0.076 A 
ATOM      2  C3  UNL d   1      -1.296   1.867   0.046  0.00  0.00     0.004 A 
ATOM      3  C4  UNL d   1      -1.300   1.314   1.326  0.00  0.00    -0.003 A 
ATOM      4  C5  UNL d   1      -0.839   0.017   1.522  0.00  0.00     0.000 A 
ATOM      5  C6  UNL d   1      -0.358  -0.721   0.440  0.00  0.00     0.000 A 
ATOM      6  C7  UNL d   1      -0.331  -0.172  -0.853  0.00  0.00    -0.073 A 
ATOM      7  C8  UNL d   1       0.193  -1.014  -1.984  0.00  0.00     0.078 C 
ENDROOT
BRANCH   1   8
ATOM      8  C1  UNL d   1      -0.875   1.774  -2.426  0.00  0.00     0.053 C 
ATOM      9  C   UNL d   1      -1.148   3.269  -2.360  0.00  0.00     0.018 C 
ENDBRANCH   1   8
TORSDOF 1
ENDMDL
