MODEL 1
REMARK minimizedAffinity -2.51684117
REMARK minimizedRMSD -1
REMARK  1 active torsions:
REMARK  status: ('A' for Active; 'I' for Inactive)
REMARK    1  A    between atoms: C1_2  and  C2_3 
ROOT
ATOM      1  C2  UNL d   1      -0.208   0.388  -0.558  0.00  0.00    -0.076 A 
ATOM      2  C3  UNL d   1      -0.614   0.768   0.733  0.00  0.00     0.004 A 
ATOM      3  C4  UNL d   1      -0.127   0.109   1.861  0.00  0.00    -0.003 A 
ATOM      4  C5  UNL d   1       0.774  -0.940   1.716  0.00  0.00     0.000 A 
ATOM      5  C6  UNL d   1       1.201  -1.318   0.443  0.00  0.00     0.000 A 
ATOM      6  C7  UNL d   1       0.733  -0.654  -0.703  0.00  0.00    -0.073 A 
ATOM      7  C8  UNL d   1       1.222  -1.108  -2.051  0.00  0.00     0.078 C 
ENDROOT
BRANCH   1   8
ATOM      8  C1  UNL d   1      -0.791   1.121  -1.745  0.00  0.00     0.053 C 
ATOM      9  C   UNL d   1      -0.044   2.408  -2.059  0.00  0.00     0.018 C 
ENDBRANCH   1   8
TORSDOF 1
ENDMDL
