MODEL 1
REMARK minimizedAffinity -1.47567284
REMARK minimizedRMSD -1
REMARK  1 active torsions:
REMARK  status: ('A' for Active; 'I' for Inactive)
REMARK    1  A    between atoms: C1_2  and  C2_3 
ROOT
ATOM      1  C2  UNL d   1      -0.167   0.323  -1.577  0.00  0.00    -0.076 A 
ATOM      2  C3  UNL d   1       0.660  -0.369  -2.478  0.00  0.00     0.004 A 
ATOM      3  C4  UNL d   1       1.663  -1.223  -2.022  0.00  0.00    -0.003 A 
ATOM      4  C5  UNL d   1       1.854  -1.399  -0.656  0.00  0.00     0.000 A 
ATOM      5  C6  UNL d   1       1.031  -0.734   0.253  0.00  0.00     0.000 A 
ATOM      6  C7  UNL d   1       0.005   0.118  -0.191  0.00  0.00    -0.073 A 
ATOM      7  C8  UNL d   1      -0.849   0.814   0.833  0.00  0.00     0.078 C 
ENDROOT
BRANCH   1   8
ATOM      8  C1  UNL d   1      -1.221   1.256  -2.130  0.00  0.00     0.053 C 
ATOM      9  C   UNL d   1      -0.621   2.405  -2.926  0.00  0.00     0.018 C 
ENDBRANCH   1   8
TORSDOF 1
ENDMDL
