MODEL 1
REMARK minimizedAffinity -4.70932007
REMARK minimizedRMSD -1
REMARK  1 active torsions:
REMARK  status: ('A' for Active; 'I' for Inactive)
REMARK    1  A    between atoms: C1_2  and  C2_3 
ROOT
ATOM      1  C2  UNL d   1       0.348   1.609  -1.453  0.00  0.00    -0.076 A 
ATOM      2  C3  UNL d   1      -0.827   0.972  -1.889  0.00  0.00     0.004 A 
ATOM      3  C4  UNL d   1      -1.794   1.667  -2.613  0.00  0.00    -0.003 A 
ATOM      4  C5  UNL d   1      -1.601   3.010  -2.915  0.00  0.00     0.000 A 
ATOM      5  C6  UNL d   1      -0.433   3.654  -2.506  0.00  0.00     0.000 A 
ATOM      6  C7  UNL d   1       0.559   2.963  -1.789  0.00  0.00    -0.073 A 
ATOM      7  C8  UNL d   1       1.796   3.708  -1.368  0.00  0.00     0.078 C 
ENDROOT
BRANCH   1   8
ATOM      8  C1  UNL d   1       1.348   0.811  -0.647  0.00  0.00     0.053 C 
ATOM      9  C   UNL d   1       1.463  -0.629  -1.122  0.00  0.00     0.018 C 
ENDBRANCH   1   8
TORSDOF 1
ENDMDL
