MODEL 1
REMARK minimizedAffinity -4.60574961
REMARK minimizedRMSD -1
REMARK  1 active torsions:
REMARK  status: ('A' for Active; 'I' for Inactive)
REMARK    1  A    between atoms: C1_2  and  C2_3 
ROOT
ATOM      1  C2  UNL d   1      -0.007  -0.444  -0.196  0.00  0.00    -0.076 A 
ATOM      2  C3  UNL d   1      -1.066   0.119   0.537  0.00  0.00     0.004 A 
ATOM      3  C4  UNL d   1      -1.193  -0.110   1.906  0.00  0.00    -0.003 A 
ATOM      4  C5  UNL d   1      -0.262  -0.906   2.565  0.00  0.00     0.000 A 
ATOM      5  C6  UNL d   1       0.805  -1.458   1.857  0.00  0.00     0.000 A 
ATOM      6  C7  UNL d   1       0.957  -1.224   0.479  0.00  0.00    -0.073 A 
ATOM      7  C8  UNL d   1       2.123  -1.849  -0.236  0.00  0.00     0.078 C 
ENDROOT
BRANCH   1   8
ATOM      8  C1  UNL d   1       0.063  -0.183  -1.683  0.00  0.00     0.053 C 
ATOM      9  C   UNL d   1      -0.690   1.074  -2.091  0.00  0.00     0.018 C 
ENDBRANCH   1   8
TORSDOF 1
ENDMDL
