MODEL 1
REMARK minimizedAffinity -2.14092183
REMARK minimizedRMSD -1
REMARK  1 active torsions:
REMARK  status: ('A' for Active; 'I' for Inactive)
REMARK    1  A    between atoms: C1_2  and  C2_3 
ROOT
ATOM      1  C2  UNL d   1      -0.642   1.078  -1.313  0.00  0.00    -0.076 A 
ATOM      2  C3  UNL d   1      -0.157  -0.108  -1.893  0.00  0.00     0.004 A 
ATOM      3  C4  UNL d   1       0.327  -1.148  -1.102  0.00  0.00    -0.003 A 
ATOM      4  C5  UNL d   1       0.335  -1.020   0.283  0.00  0.00     0.000 A 
ATOM      5  C6  UNL d   1      -0.158   0.142   0.876  0.00  0.00     0.000 A 
ATOM      6  C7  UNL d   1      -0.666   1.193   0.093  0.00  0.00    -0.073 A 
ATOM      7  C8  UNL d   1      -1.179   2.426   0.786  0.00  0.00     0.078 C 
ENDROOT
BRANCH   1   8
ATOM      8  C1  UNL d   1      -1.130   2.183  -2.223  0.00  0.00     0.053 C 
ATOM      9  C   UNL d   1       0.012   2.963  -2.855  0.00  0.00     0.018 C 
ENDBRANCH   1   8
TORSDOF 1
ENDMDL
