MODEL 1
REMARK minimizedAffinity -2.03780675
REMARK minimizedRMSD -1
REMARK  1 active torsions:
REMARK  status: ('A' for Active; 'I' for Inactive)
REMARK    1  A    between atoms: C1_2  and  C2_3 
ROOT
ATOM      1  C2  UNL d   1      -0.280  -0.133  -0.203  0.00  0.00    -0.076 A 
ATOM      2  C3  UNL d   1      -1.110   0.034   0.919  0.00  0.00     0.004 A 
ATOM      3  C4  UNL d   1      -0.816  -0.592   2.129  0.00  0.00    -0.003 A 
ATOM      4  C5  UNL d   1       0.313  -1.396   2.237  0.00  0.00     0.000 A 
ATOM      5  C6  UNL d   1       1.157  -1.559   1.139  0.00  0.00     0.000 A 
ATOM      6  C7  UNL d   1       0.884  -0.922  -0.083  0.00  0.00    -0.073 A 
ATOM      7  C8  UNL d   1       1.825  -1.138  -1.236  0.00  0.00     0.078 C 
ENDROOT
BRANCH   1   8
ATOM      8  C1  UNL d   1      -0.665   0.549  -1.496  0.00  0.00     0.053 C 
ATOM      9  C   UNL d   1      -0.765   2.059  -1.351  0.00  0.00     0.018 C 
ENDBRANCH   1   8
TORSDOF 1
ENDMDL
