MODEL 1
REMARK minimizedAffinity -4.23908472
REMARK minimizedRMSD -1
REMARK  1 active torsions:
REMARK  status: ('A' for Active; 'I' for Inactive)
REMARK    1  A    between atoms: C1_2  and  C2_3 
ROOT
ATOM      1  C2  UNL d   1       1.585   1.240   0.910  0.00  0.00    -0.081 A 
ATOM      2  C3  UNL d   1       1.759   0.027   0.231  0.00  0.00     0.006 A 
ATOM      3  C4  UNL d   1       0.711  -0.527  -0.508  0.00  0.00     0.002 A 
ATOM      4  C5  UNL d   1      -0.524   0.125  -0.587  0.00  0.00    -0.080 A 
ATOM      5  C6  UNL d   1      -1.648  -0.443  -1.402  0.00  0.00     0.076 C 
ATOM      6  C7  UNL d   1      -0.704   1.327   0.105  0.00  0.00     0.002 A 
ATOM      7  C8  UNL d   1       0.343   1.882   0.845  0.00  0.00     0.006 A 
ENDROOT
BRANCH   1   8
ATOM      8  C1  UNL d   1       2.733   1.872   1.655  0.00  0.00     0.054 C 
ATOM      9  C   UNL d   1       2.939   3.318   1.229  0.00  0.00     0.018 C 
ENDBRANCH   1   8
TORSDOF 1
ENDMDL
