MODEL 1
REMARK minimizedAffinity -4.77806377
REMARK minimizedRMSD -1
REMARK  1 active torsions:
REMARK  status: ('A' for Active; 'I' for Inactive)
REMARK    1  A    between atoms: C1_2  and  C2_3 
ROOT
ATOM      1  C2  UNL d   1       0.702   0.262   0.176  0.00  0.00    -0.081 A 
ATOM      2  C3  UNL d   1      -0.023   0.811  -0.889  0.00  0.00     0.006 A 
ATOM      3  C4  UNL d   1      -1.282   0.306  -1.224  0.00  0.00     0.002 A 
ATOM      4  C5  UNL d   1      -1.840  -0.750  -0.496  0.00  0.00    -0.080 A 
ATOM      5  C6  UNL d   1      -3.203  -1.281  -0.825  0.00  0.00     0.076 C 
ATOM      6  C7  UNL d   1      -1.108  -1.310   0.557  0.00  0.00     0.002 A 
ATOM      7  C8  UNL d   1       0.151  -0.806   0.892  0.00  0.00     0.006 A 
ENDROOT
BRANCH   1   8
ATOM      8  C1  UNL d   1       2.031   0.847   0.580  0.00  0.00     0.054 C 
ATOM      9  C   UNL d   1       1.852   2.144   1.356  0.00  0.00     0.018 C 
ENDBRANCH   1   8
TORSDOF 1
ENDMDL
