MODEL 1
REMARK minimizedAffinity -1.50661945
REMARK minimizedRMSD -1
REMARK  1 active torsions:
REMARK  status: ('A' for Active; 'I' for Inactive)
REMARK    1  A    between atoms: C1_2  and  C2_3 
ROOT
ATOM      1  C2  UNL d   1      -1.612  -1.987  -0.132  0.00  0.00    -0.081 A 
ATOM      2  C3  UNL d   1      -0.535  -1.301   0.442  0.00  0.00     0.006 A 
ATOM      3  C4  UNL d   1      -0.258   0.017   0.074  0.00  0.00     0.002 A 
ATOM      4  C5  UNL d   1      -1.057   0.674  -0.868  0.00  0.00    -0.080 A 
ATOM      5  C6  UNL d   1      -0.788   2.099  -1.250  0.00  0.00     0.076 C 
ATOM      6  C7  UNL d   1      -2.122  -0.017  -1.455  0.00  0.00     0.002 A 
ATOM      7  C8  UNL d   1      -2.399  -1.336  -1.088  0.00  0.00     0.006 A 
ENDROOT
BRANCH   1   8
ATOM      8  C1  UNL d   1      -1.953  -3.388   0.310  0.00  0.00     0.054 C 
ATOM      9  C   UNL d   1      -1.375  -3.689   1.686  0.00  0.00     0.018 C 
ENDBRANCH   1   8
TORSDOF 1
ENDMDL
