MODEL 1
REMARK minimizedAffinity -3.47920918
REMARK minimizedRMSD -1
REMARK  1 active torsions:
REMARK  status: ('A' for Active; 'I' for Inactive)
REMARK    1  A    between atoms: C1_2  and  C2_3 
ROOT
ATOM      1  C2  UNL d   1       1.890   1.362   0.668  0.00  0.00    -0.081 A 
ATOM      2  C3  UNL d   1       2.070   0.066   0.169  0.00  0.00     0.006 A 
ATOM      3  C4  UNL d   1       0.988  -0.652  -0.345  0.00  0.00     0.002 A 
ATOM      4  C5  UNL d   1      -0.290  -0.085  -0.374  0.00  0.00    -0.080 A 
ATOM      5  C6  UNL d   1      -1.455  -0.834  -0.951  0.00  0.00     0.076 C 
ATOM      6  C7  UNL d   1      -0.474   1.203   0.141  0.00  0.00     0.002 A 
ATOM      7  C8  UNL d   1       0.607   1.921   0.655  0.00  0.00     0.006 A 
ENDROOT
BRANCH   1   8
ATOM      8  C1  UNL d   1       3.066   2.164   1.163  0.00  0.00     0.054 C 
ATOM      9  C   UNL d   1       2.876   2.589   2.612  0.00  0.00     0.018 C 
ENDBRANCH   1   8
TORSDOF 1
ENDMDL
