MODEL 1
REMARK minimizedAffinity -2.24470353
REMARK minimizedRMSD -1
REMARK  1 active torsions:
REMARK  status: ('A' for Active; 'I' for Inactive)
REMARK    1  A    between atoms: C1_2  and  C2_3 
ROOT
ATOM      1  C2  UNL d   1       1.305   1.376   0.677  0.00  0.00    -0.081 A 
ATOM      2  C3  UNL d   1       1.515   0.244  -0.119  0.00  0.00     0.006 A 
ATOM      3  C4  UNL d   1       0.490  -0.252  -0.930  0.00  0.00     0.002 A 
ATOM      4  C5  UNL d   1      -0.757   0.381  -0.964  0.00  0.00    -0.080 A 
ATOM      5  C6  UNL d   1      -1.855  -0.122  -1.852  0.00  0.00     0.076 C 
ATOM      6  C7  UNL d   1      -0.972   1.502  -0.155  0.00  0.00     0.002 A 
ATOM      7  C8  UNL d   1       0.052   1.998   0.656  0.00  0.00     0.006 A 
ENDROOT
BRANCH   1   8
ATOM      8  C1  UNL d   1       2.428   1.951   1.502  0.00  0.00     0.054 C 
ATOM      9  C   UNL d   1       2.706   3.399   1.126  0.00  0.00     0.018 C 
ENDBRANCH   1   8
TORSDOF 1
ENDMDL
