MODEL 1
REMARK minimizedAffinity -4.10203743
REMARK minimizedRMSD -1
REMARK  1 active torsions:
REMARK  status: ('A' for Active; 'I' for Inactive)
REMARK    1  A    between atoms: C1_2  and  C2_3 
ROOT
ATOM      1  C2  UNL d   1       1.415   1.252   1.125  0.00  0.00    -0.081 A 
ATOM      2  C3  UNL d   1       1.577  -0.045   0.624  0.00  0.00     0.006 A 
ATOM      3  C4  UNL d   1       0.553  -0.656  -0.103  0.00  0.00     0.002 A 
ATOM      4  C5  UNL d   1      -0.646   0.022  -0.348  0.00  0.00    -0.080 A 
ATOM      5  C6  UNL d   1      -1.742  -0.611  -1.153  0.00  0.00     0.076 C 
ATOM      6  C7  UNL d   1      -0.815   1.312   0.168  0.00  0.00     0.002 A 
ATOM      7  C8  UNL d   1       0.209   1.923   0.895  0.00  0.00     0.006 A 
ENDROOT
BRANCH   1   8
ATOM      8  C1  UNL d   1       2.542   1.939   1.854  0.00  0.00     0.054 C 
ATOM      9  C   UNL d   1       2.352   3.448   1.872  0.00  0.00     0.018 C 
ENDBRANCH   1   8
TORSDOF 1
ENDMDL
