MODEL 1
REMARK minimizedAffinity -2.69536781
REMARK minimizedRMSD -1
REMARK  1 active torsions:
REMARK  status: ('A' for Active; 'I' for Inactive)
REMARK    1  A    between atoms: C1_2  and  C2_3 
ROOT
ATOM      1  C2  UNL d   1       1.653   0.861   0.367  0.00  0.00    -0.081 A 
ATOM      2  C3  UNL d   1       0.476   1.554   0.056  0.00  0.00     0.006 A 
ATOM      3  C4  UNL d   1      -0.772   0.978   0.306  0.00  0.00     0.002 A 
ATOM      4  C5  UNL d   1      -0.865  -0.295   0.878  0.00  0.00    -0.080 A 
ATOM      5  C6  UNL d   1      -2.198  -0.912   1.180  0.00  0.00     0.076 C 
ATOM      6  C7  UNL d   1       0.311  -0.995   1.173  0.00  0.00     0.002 A 
ATOM      7  C8  UNL d   1       1.559  -0.420   0.923  0.00  0.00     0.006 A 
ENDROOT
BRANCH   1   8
ATOM      8  C1  UNL d   1       3.000   1.505   0.159  0.00  0.00     0.054 C 
ATOM      9  C   UNL d   1       3.037   2.910   0.742  0.00  0.00     0.018 C 
ENDBRANCH   1   8
TORSDOF 1
ENDMDL
