MODEL 1
REMARK minimizedAffinity -5.34609032
REMARK minimizedRMSD -1
REMARK  1 active torsions:
REMARK  status: ('A' for Active; 'I' for Inactive)
REMARK    1  A    between atoms: C1_2  and  C2_3 
ROOT
ATOM      1  C2  UNL d   1       1.661   1.529   0.800  0.00  0.00    -0.081 A 
ATOM      2  C3  UNL d   1       0.374   1.969   1.131  0.00  0.00     0.006 A 
ATOM      3  C4  UNL d   1      -0.749   1.255   0.708  0.00  0.00     0.002 A 
ATOM      4  C5  UNL d   1      -0.605   0.086  -0.047  0.00  0.00    -0.080 A 
ATOM      5  C6  UNL d   1      -1.801  -0.706  -0.482  0.00  0.00     0.076 C 
ATOM      6  C7  UNL d   1       0.681  -0.344  -0.393  0.00  0.00     0.002 A 
ATOM      7  C8  UNL d   1       1.805   0.370   0.029  0.00  0.00     0.006 A 
ENDROOT
BRANCH   1   8
ATOM      8  C1  UNL d   1       2.877   2.261   1.309  0.00  0.00     0.054 C 
ATOM      9  C   UNL d   1       2.677   3.769   1.257  0.00  0.00     0.018 C 
ENDBRANCH   1   8
TORSDOF 1
ENDMDL
