MODEL 1
REMARK minimizedAffinity -2.7138021
REMARK minimizedRMSD -1
REMARK  1 active torsions:
REMARK  status: ('A' for Active; 'I' for Inactive)
REMARK    1  A    between atoms: C1_2  and  C2_3 
ROOT
ATOM      1  C2  UNL d   1       0.590   0.029  -0.280  0.00  0.00    -0.081 A 
ATOM      2  C3  UNL d   1      -0.312   0.371  -1.295  0.00  0.00     0.006 A 
ATOM      3  C4  UNL d   1      -1.581  -0.211  -1.340  0.00  0.00     0.002 A 
ATOM      4  C5  UNL d   1      -1.973  -1.138  -0.368  0.00  0.00    -0.080 A 
ATOM      5  C6  UNL d   1      -3.343  -1.747  -0.388  0.00  0.00     0.076 C 
ATOM      6  C7  UNL d   1      -1.065  -1.493   0.636  0.00  0.00     0.002 A 
ATOM      7  C8  UNL d   1       0.204  -0.912   0.682  0.00  0.00     0.006 A 
ENDROOT
BRANCH   1   8
ATOM      8  C1  UNL d   1       1.935   0.703  -0.191  0.00  0.00     0.054 C 
ATOM      9  C   UNL d   1       1.878   1.937   0.698  0.00  0.00     0.018 C 
ENDBRANCH   1   8
TORSDOF 1
ENDMDL
