MODEL 1
REMARK minimizedAffinity -3.0800035
REMARK minimizedRMSD -1
REMARK  1 active torsions:
REMARK  status: ('A' for Active; 'I' for Inactive)
REMARK    1  A    between atoms: C1_2  and  C2_3 
ROOT
ATOM      1  C2  UNL d   1       1.146   1.722   0.019  0.00  0.00    -0.081 A 
ATOM      2  C3  UNL d   1      -0.174   2.177  -0.089  0.00  0.00     0.006 A 
ATOM      3  C4  UNL d   1      -1.200   1.295  -0.435  0.00  0.00     0.002 A 
ATOM      4  C5  UNL d   1      -0.926  -0.056  -0.672  0.00  0.00    -0.080 A 
ATOM      5  C6  UNL d   1      -2.023  -1.020  -1.015  0.00  0.00     0.076 C 
ATOM      6  C7  UNL d   1       0.396  -0.507  -0.582  0.00  0.00     0.002 A 
ATOM      7  C8  UNL d   1       1.423   0.375  -0.236  0.00  0.00     0.006 A 
ENDROOT
BRANCH   1   8
ATOM      8  C1  UNL d   1       2.245   2.657   0.456  0.00  0.00     0.054 C 
ATOM      9  C   UNL d   1       2.223   2.872   1.962  0.00  0.00     0.018 C 
ENDBRANCH   1   8
TORSDOF 1
ENDMDL
