MODEL 1
REMARK minimizedAffinity -5.30539083
REMARK minimizedRMSD -1
REMARK  1 active torsions:
REMARK  status: ('A' for Active; 'I' for Inactive)
REMARK    1  A    between atoms: C1_2  and  C2_3 
ROOT
ATOM      1  C2  UNL d   1       0.907   0.717   0.588  0.00  0.00    -0.081 A 
ATOM      2  C3  UNL d   1       0.655  -0.661   0.591  0.00  0.00     0.006 A 
ATOM      3  C4  UNL d   1      -0.644  -1.143   0.416  0.00  0.00     0.002 A 
ATOM      4  C5  UNL d   1      -1.711  -0.258   0.228  0.00  0.00    -0.080 A 
ATOM      5  C6  UNL d   1      -3.106  -0.763   0.008  0.00  0.00     0.076 C 
ATOM      6  C7  UNL d   1      -1.461   1.119   0.241  0.00  0.00     0.002 A 
ATOM      7  C8  UNL d   1      -0.163   1.602   0.417  0.00  0.00     0.006 A 
ENDROOT
BRANCH   1   8
ATOM      8  C1  UNL d   1       2.316   1.238   0.711  0.00  0.00     0.054 C 
ATOM      9  C   UNL d   1       2.332   2.678   1.203  0.00  0.00     0.018 C 
ENDBRANCH   1   8
TORSDOF 1
ENDMDL
