MODEL 1
REMARK minimizedAffinity -4.01743889
REMARK minimizedRMSD -1
REMARK  1 active torsions:
REMARK  status: ('A' for Active; 'I' for Inactive)
REMARK    1  A    between atoms: C1_2  and  C2_3 
ROOT
ATOM      1  C2  UNL d   1       0.595   0.818   1.011  0.00  0.00    -0.081 A 
ATOM      2  C3  UNL d   1       1.028   0.345  -0.234  0.00  0.00     0.006 A 
ATOM      3  C4  UNL d   1       0.135  -0.294  -1.097  0.00  0.00     0.002 A 
ATOM      4  C5  UNL d   1      -1.205  -0.464  -0.735  0.00  0.00    -0.080 A 
ATOM      5  C6  UNL d   1      -2.180  -1.121  -1.665  0.00  0.00     0.076 C 
ATOM      6  C7  UNL d   1      -1.633  -0.007   0.516  0.00  0.00     0.002 A 
ATOM      7  C8  UNL d   1      -0.741   0.632   1.381  0.00  0.00     0.006 A 
ENDROOT
BRANCH   1   8
ATOM      8  C1  UNL d   1       1.540   1.565   1.918  0.00  0.00     0.054 C 
ATOM      9  C   UNL d   1       2.381   2.565   1.137  0.00  0.00     0.018 C 
ENDBRANCH   1   8
TORSDOF 1
ENDMDL
