MODEL 1
REMARK minimizedAffinity -0.410809398
REMARK minimizedRMSD -1
REMARK  1 active torsions:
REMARK  status: ('A' for Active; 'I' for Inactive)
REMARK    1  A    between atoms: C1_2  and  C2_3 
ROOT
ATOM      1  C2  UNL d   1       1.521   1.250  -0.848  0.00  0.00    -0.081 A 
ATOM      2  C3  UNL d   1       1.129   0.731  -2.088  0.00  0.00     0.006 A 
ATOM      3  C4  UNL d   1      -0.107   0.096  -2.230  0.00  0.00     0.002 A 
ATOM      4  C5  UNL d   1      -0.974  -0.024  -1.139  0.00  0.00    -0.080 A 
ATOM      5  C6  UNL d   1      -2.317  -0.676  -1.286  0.00  0.00     0.076 C 
ATOM      6  C7  UNL d   1      -0.575   0.479   0.104  0.00  0.00     0.002 A 
ATOM      7  C8  UNL d   1       0.661   1.113   0.248  0.00  0.00     0.006 A 
ENDROOT
BRANCH   1   8
ATOM      8  C1  UNL d   1       2.825   1.992  -0.705  0.00  0.00     0.054 C 
ATOM      9  C   UNL d   1       2.744   3.050   0.386  0.00  0.00     0.018 C 
ENDBRANCH   1   8
TORSDOF 1
ENDMDL
