MODEL 1
REMARK minimizedAffinity -3.68084669
REMARK minimizedRMSD -1
REMARK  0 active torsions:
REMARK  status: ('A' for Active; 'I' for Inactive)
ROOT
ATOM      1  C   UNL d   1      -0.384   0.705  -0.167  0.00  0.00     0.172 C 
ATOM      2  N   UNL d   1       0.699  -0.206   0.120  0.00  0.00    -0.070 N 
ATOM      3  C1  UNL d   1       0.882  -1.435  -0.455  0.00  0.00    -0.004 A 
ATOM      4  C2  UNL d   1       2.024  -1.988   0.083  0.00  0.00    -0.047 A 
ATOM      5  C3  UNL d   1       2.545  -1.059   1.016  0.00  0.00    -0.047 A 
ATOM      6  C4  UNL d   1       1.705   0.034   1.019  0.00  0.00    -0.004 A 
ENDROOT
TORSDOF 0
ENDMDL
