MODEL 1
REMARK minimizedAffinity -3.92883587
REMARK minimizedRMSD -1
REMARK  0 active torsions:
REMARK  status: ('A' for Active; 'I' for Inactive)
ROOT
ATOM      1  C   UNL d   1      -0.356  -0.064  -0.040  0.00  0.00     0.172 C 
ATOM      2  N   UNL d   1       1.014  -0.235   0.383  0.00  0.00    -0.070 N 
ATOM      3  C1  UNL d   1       1.636  -1.434   0.610  0.00  0.00    -0.004 A 
ATOM      4  C2  UNL d   1       2.932  -1.170   0.996  0.00  0.00    -0.047 A 
ATOM      5  C3  UNL d   1       3.095   0.235   1.002  0.00  0.00    -0.047 A 
ATOM      6  C4  UNL d   1       1.892   0.790   0.618  0.00  0.00    -0.004 A 
ENDROOT
TORSDOF 0
ENDMDL
