MODEL 1
REMARK minimizedAffinity -3.09294176
REMARK minimizedRMSD -1
REMARK  0 active torsions:
REMARK  status: ('A' for Active; 'I' for Inactive)
ROOT
ATOM      1  C   UNL d   1      -0.665   0.687  -0.138  0.00  0.00     0.172 C 
ATOM      2  N   UNL d   1       0.333  -0.342   0.033  0.00  0.00    -0.070 N 
ATOM      3  C1  UNL d   1       0.393  -1.519  -0.665  0.00  0.00    -0.004 A 
ATOM      4  C2  UNL d   1       1.486  -2.224  -0.210  0.00  0.00    -0.047 A 
ATOM      5  C3  UNL d   1       2.104  -1.445   0.796  0.00  0.00    -0.047 A 
ATOM      6  C4  UNL d   1       1.369  -0.285   0.926  0.00  0.00    -0.004 A 
ENDROOT
TORSDOF 0
ENDMDL
