MODEL 1
REMARK minimizedAffinity -1.64879894
REMARK minimizedRMSD -1
REMARK  0 active torsions:
REMARK  status: ('A' for Active; 'I' for Inactive)
ROOT
ATOM      1  C   UNL d   1      -1.550   1.847  -0.654  0.00  0.00     0.172 C 
ATOM      2  N   UNL d   1      -2.653   1.233   0.046  0.00  0.00    -0.070 N 
ATOM      3  C1  UNL d   1      -3.787   0.730  -0.535  0.00  0.00    -0.004 A 
ATOM      4  C2  UNL d   1      -4.591   0.234   0.469  0.00  0.00    -0.047 A 
ATOM      5  C3  UNL d   1      -3.918   0.448   1.695  0.00  0.00    -0.047 A 
ATOM      6  C4  UNL d   1      -2.721   1.068   1.405  0.00  0.00    -0.004 A 
ENDROOT
TORSDOF 0
ENDMDL
