MODEL 1
REMARK minimizedAffinity -3.54311061
REMARK minimizedRMSD -1
REMARK  0 active torsions:
REMARK  status: ('A' for Active; 'I' for Inactive)
ROOT
ATOM      1  C   UNL d   1       2.932  -2.170  -2.263  0.00  0.00     0.172 C 
ATOM      2  N   UNL d   1       2.709  -1.497  -1.005  0.00  0.00    -0.070 N 
ATOM      3  C1  UNL d   1       3.677  -1.165  -0.095  0.00  0.00    -0.004 A 
ATOM      4  C2  UNL d   1       3.062  -0.538   0.966  0.00  0.00    -0.047 A 
ATOM      5  C3  UNL d   1       1.676  -0.492   0.685  0.00  0.00    -0.047 A 
ATOM      6  C4  UNL d   1       1.485  -1.092  -0.542  0.00  0.00    -0.004 A 
ENDROOT
TORSDOF 0
ENDMDL
