MODEL 1
REMARK minimizedAffinity -2.19930339
REMARK minimizedRMSD -1
REMARK  0 active torsions:
REMARK  status: ('A' for Active; 'I' for Inactive)
ROOT
ATOM      1  C   UNL d   1      -0.836   0.469  -0.383  0.00  0.00     0.172 C 
ATOM      2  N   UNL d   1       0.215  -0.514  -0.258  0.00  0.00    -0.070 N 
ATOM      3  C1  UNL d   1       1.343  -0.383   0.507  0.00  0.00    -0.004 A 
ATOM      4  C2  UNL d   1       2.089  -1.532   0.358  0.00  0.00    -0.047 A 
ATOM      5  C3  UNL d   1       1.386  -2.382  -0.528  0.00  0.00    -0.047 A 
ATOM      6  C4  UNL d   1       0.229  -1.727  -0.894  0.00  0.00    -0.004 A 
ENDROOT
TORSDOF 0
ENDMDL
