MODEL 1
REMARK minimizedAffinity -3.69460773
REMARK minimizedRMSD -1
REMARK  0 active torsions:
REMARK  status: ('A' for Active; 'I' for Inactive)
ROOT
ATOM      1  C   UNL d   1      -0.496  -0.321  -0.706  0.00  0.00     0.172 C 
ATOM      2  N   UNL d   1       0.806  -0.479  -0.101  0.00  0.00    -0.070 N 
ATOM      3  C1  UNL d   1       1.655  -1.534  -0.298  0.00  0.00    -0.004 A 
ATOM      4  C2  UNL d   1       2.788  -1.310   0.454  0.00  0.00    -0.047 A 
ATOM      5  C3  UNL d   1       2.613  -0.078   1.127  0.00  0.00    -0.047 A 
ATOM      6  C4  UNL d   1       1.377   0.415   0.766  0.00  0.00    -0.004 A 
ENDROOT
TORSDOF 0
ENDMDL
