MODEL 1
REMARK minimizedAffinity -3.23423767
REMARK minimizedRMSD -1
REMARK  0 active torsions:
REMARK  status: ('A' for Active; 'I' for Inactive)
ROOT
ATOM      1  C   UNL d   1      -1.754   1.003  -0.179  0.00  0.00     0.172 C 
ATOM      2  N   UNL d   1      -0.709   0.008  -0.142  0.00  0.00    -0.070 N 
ATOM      3  C1  UNL d   1       0.439   0.083   0.602  0.00  0.00    -0.004 A 
ATOM      4  C2  UNL d   1       1.173  -1.059   0.362  0.00  0.00    -0.047 A 
ATOM      5  C3  UNL d   1       0.442  -1.847  -0.558  0.00  0.00    -0.047 A 
ATOM      6  C4  UNL d   1      -0.719  -1.163  -0.853  0.00  0.00    -0.004 A 
ENDROOT
TORSDOF 0
ENDMDL
