MODEL 1
REMARK minimizedAffinity -1.90334892
REMARK minimizedRMSD -1
REMARK  0 active torsions:
REMARK  status: ('A' for Active; 'I' for Inactive)
ROOT
ATOM      1  C   UNL d   1      -0.716  -0.023  -0.367  0.00  0.00     0.172 C 
ATOM      2  N   UNL d   1       0.428  -0.903  -0.380  0.00  0.00    -0.070 N 
ATOM      3  C1  UNL d   1       0.382  -2.272  -0.393  0.00  0.00    -0.004 A 
ATOM      4  C2  UNL d   1       1.679  -2.737  -0.402  0.00  0.00    -0.047 A 
ATOM      5  C3  UNL d   1       2.534  -1.610  -0.394  0.00  0.00    -0.047 A 
ATOM      6  C4  UNL d   1       1.734  -0.487  -0.380  0.00  0.00    -0.004 A 
ENDROOT
TORSDOF 0
ENDMDL
