MODEL 1
REMARK minimizedAffinity -6.14199591
REMARK minimizedRMSD -1
REMARK  2 active torsions:
REMARK  status: ('A' for Active; 'I' for Inactive)
REMARK    1  A    between atoms: C1_2  and  C2_3 
REMARK    2  A    between atoms: C2_3  and  C3_4 
ROOT
ATOM      1  C3  UNL d   1       0.179  -0.182   0.215  0.00  0.00    -0.075 A 
ATOM      2  C4  UNL d   1       0.873  -1.164  -0.506  0.00  0.00     0.002 A 
ATOM      3  C5  UNL d   1       0.654  -2.518  -0.249  0.00  0.00     0.002 A 
ATOM      4  C6  UNL d   1      -0.252  -2.906   0.736  0.00  0.00    -0.004 A 
ATOM      5  C7  UNL d   1      -0.934  -1.938   1.469  0.00  0.00     0.002 A 
ATOM      6  C8  UNL d   1      -0.720  -0.583   1.212  0.00  0.00     0.002 A 
ENDROOT
BRANCH   1   7
ATOM      7  C2  UNL d   1       0.390   1.285  -0.077  0.00  0.00     0.056 C 
BRANCH   7   8
ATOM      8  C1  UNL d   1       1.847   1.743   0.053  0.00  0.00     0.007 C 
ATOM      9  C   UNL d   1       1.982   3.224   0.384  0.00  0.00     0.009 C 
ENDBRANCH   7   8
ENDBRANCH   1   7
TORSDOF 2
ENDMDL
