MODEL 1
REMARK minimizedAffinity -4.96112394
REMARK minimizedRMSD -1
REMARK  2 active torsions:
REMARK  status: ('A' for Active; 'I' for Inactive)
REMARK    1  A    between atoms: C1_2  and  C2_3 
REMARK    2  A    between atoms: C2_3  and  C3_4 
ROOT
ATOM      1  C3  UNL d   1      -0.216  -0.114  -0.068  0.00  0.00    -0.075 A 
ATOM      2  C4  UNL d   1      -1.328  -0.546   0.669  0.00  0.00     0.002 A 
ATOM      3  C5  UNL d   1      -1.394  -1.853   1.151  0.00  0.00     0.002 A 
ATOM      4  C6  UNL d   1      -0.356  -2.746   0.896  0.00  0.00    -0.004 A 
ATOM      5  C7  UNL d   1       0.746  -2.333   0.150  0.00  0.00     0.002 A 
ATOM      6  C8  UNL d   1       0.817  -1.024  -0.330  0.00  0.00     0.002 A 
ENDROOT
BRANCH   1   7
ATOM      7  C2  UNL d   1      -0.125   1.308  -0.568  0.00  0.00     0.056 C 
BRANCH   7   8
ATOM      8  C1  UNL d   1       0.885   2.173   0.193  0.00  0.00     0.007 C 
ATOM      9  C   UNL d   1       0.263   3.417   0.812  0.00  0.00     0.009 C 
ENDBRANCH   7   8
ENDBRANCH   1   7
TORSDOF 2
ENDMDL
