MODEL 1
REMARK minimizedAffinity -4.19800282
REMARK minimizedRMSD -1
REMARK  2 active torsions:
REMARK  status: ('A' for Active; 'I' for Inactive)
REMARK    1  A    between atoms: C1_2  and  C2_3 
REMARK    2  A    between atoms: C2_3  and  C3_4 
ROOT
ATOM      1  C3  UNL d   1       0.234  -1.464   0.146  0.00  0.00    -0.075 A 
ATOM      2  C4  UNL d   1       0.663  -0.965  -1.093  0.00  0.00     0.002 A 
ATOM      3  C5  UNL d   1       0.497   0.384  -1.408  0.00  0.00     0.002 A 
ATOM      4  C6  UNL d   1      -0.108   1.247  -0.496  0.00  0.00    -0.004 A 
ATOM      5  C7  UNL d   1      -0.553   0.758   0.730  0.00  0.00     0.002 A 
ATOM      6  C8  UNL d   1      -0.384  -0.590   1.050  0.00  0.00     0.002 A 
ENDROOT
BRANCH   1   7
ATOM      7  C2  UNL d   1       0.437  -2.917   0.505  0.00  0.00     0.056 C 
BRANCH   7   8
ATOM      8  C1  UNL d   1      -0.748  -3.819   0.148  0.00  0.00     0.007 C 
ATOM      9  C   UNL d   1      -2.097  -3.209   0.507  0.00  0.00     0.009 C 
ENDBRANCH   7   8
ENDBRANCH   1   7
TORSDOF 2
ENDMDL
