MODEL 1
REMARK minimizedAffinity -4.55840158
REMARK minimizedRMSD -1
REMARK  2 active torsions:
REMARK  status: ('A' for Active; 'I' for Inactive)
REMARK    1  A    between atoms: C1_2  and  C2_3 
REMARK    2  A    between atoms: C2_3  and  C3_4 
ROOT
ATOM      1  C3  UNL d   1       0.107   0.063  -0.206  0.00  0.00    -0.075 A 
ATOM      2  C4  UNL d   1       0.734  -1.103  -0.670  0.00  0.00     0.002 A 
ATOM      3  C5  UNL d   1       0.440  -2.341  -0.098  0.00  0.00     0.002 A 
ATOM      4  C6  UNL d   1      -0.474  -2.428   0.949  0.00  0.00    -0.004 A 
ATOM      5  C7  UNL d   1      -1.091  -1.275   1.429  0.00  0.00     0.002 A 
ATOM      6  C8  UNL d   1      -0.802  -0.035   0.856  0.00  0.00     0.002 A 
ENDROOT
BRANCH   1   7
ATOM      7  C2  UNL d   1       0.398   1.402  -0.840  0.00  0.00     0.056 C 
BRANCH   7   8
ATOM      8  C1  UNL d   1       0.845   2.479   0.154  0.00  0.00     0.007 C 
ATOM      9  C   UNL d   1       2.252   2.996  -0.113  0.00  0.00     0.009 C 
ENDBRANCH   7   8
ENDBRANCH   1   7
TORSDOF 2
ENDMDL
