MODEL 1
REMARK minimizedAffinity -5.3328023
REMARK minimizedRMSD -1
REMARK  2 active torsions:
REMARK  status: ('A' for Active; 'I' for Inactive)
REMARK    1  A    between atoms: C1_2  and  C2_3 
REMARK    2  A    between atoms: C2_3  and  C3_4 
ROOT
ATOM      1  C3  UNL d   1       0.350  -0.968  -1.070  0.00  0.00    -0.075 A 
ATOM      2  C4  UNL d   1       0.420  -1.897  -2.118  0.00  0.00     0.002 A 
ATOM      3  C5  UNL d   1       0.195  -3.253  -1.879  0.00  0.00     0.002 A 
ATOM      4  C6  UNL d   1      -0.093  -3.698  -0.591  0.00  0.00    -0.004 A 
ATOM      5  C7  UNL d   1      -0.150  -2.786   0.461  0.00  0.00     0.002 A 
ATOM      6  C8  UNL d   1       0.071  -1.428   0.224  0.00  0.00     0.002 A 
ENDROOT
BRANCH   1   7
ATOM      7  C2  UNL d   1       0.564   0.505  -1.327  0.00  0.00     0.056 C 
BRANCH   7   8
ATOM      8  C1  UNL d   1      -0.070   1.420  -0.274  0.00  0.00     0.007 C 
ATOM      9  C   UNL d   1       0.783   2.639   0.053  0.00  0.00     0.009 C 
ENDBRANCH   7   8
ENDBRANCH   1   7
TORSDOF 2
ENDMDL
