MODEL 1
REMARK minimizedAffinity -6.25349426
REMARK minimizedRMSD -1
REMARK  2 active torsions:
REMARK  status: ('A' for Active; 'I' for Inactive)
REMARK    1  A    between atoms: C1_2  and  C2_3 
REMARK    2  A    between atoms: C2_3  and  C3_4 
ROOT
ATOM      1  C3  UNL d   1      -0.172   0.011   0.314  0.00  0.00    -0.075 A 
ATOM      2  C4  UNL d   1      -1.048  -0.416   1.323  0.00  0.00     0.002 A 
ATOM      3  C5  UNL d   1      -1.118  -1.763   1.677  0.00  0.00     0.002 A 
ATOM      4  C6  UNL d   1      -0.323  -2.701   1.021  0.00  0.00    -0.004 A 
ATOM      5  C7  UNL d   1       0.538  -2.291   0.006  0.00  0.00     0.002 A 
ATOM      6  C8  UNL d   1       0.613  -0.942  -0.348  0.00  0.00     0.002 A 
ENDROOT
BRANCH   1   7
ATOM      7  C2  UNL d   1      -0.071   1.472  -0.054  0.00  0.00     0.056 C 
BRANCH   7   8
ATOM      8  C1  UNL d   1       1.346   2.046   0.056  0.00  0.00     0.007 C 
ATOM      9  C   UNL d   1       1.394   3.399   0.753  0.00  0.00     0.009 C 
ENDBRANCH   7   8
ENDBRANCH   1   7
TORSDOF 2
ENDMDL
