MODEL 1
REMARK minimizedAffinity -2.15620565
REMARK minimizedRMSD -1
REMARK  2 active torsions:
REMARK  status: ('A' for Active; 'I' for Inactive)
REMARK    1  A    between atoms: C1_2  and  C2_3 
REMARK    2  A    between atoms: C2_3  and  C3_4 
ROOT
ATOM      1  C3  UNL d   1       0.847   0.982  -0.710  0.00  0.00    -0.075 A 
ATOM      2  C4  UNL d   1       0.826  -0.044   0.247  0.00  0.00     0.002 A 
ATOM      3  C5  UNL d   1       0.943  -1.378  -0.143  0.00  0.00     0.002 A 
ATOM      4  C6  UNL d   1       1.072  -1.705  -1.491  0.00  0.00    -0.004 A 
ATOM      5  C7  UNL d   1       1.077  -0.695  -2.451  0.00  0.00     0.002 A 
ATOM      6  C8  UNL d   1       0.964   0.641  -2.064  0.00  0.00     0.002 A 
ENDROOT
BRANCH   1   7
ATOM      7  C2  UNL d   1       0.750   2.430  -0.292  0.00  0.00     0.056 C 
BRANCH   7   8
ATOM      8  C1  UNL d   1       2.101   3.077   0.031  0.00  0.00     0.007 C 
ATOM      9  C   UNL d   1       2.320   3.296   1.522  0.00  0.00     0.009 C 
ENDBRANCH   7   8
ENDBRANCH   1   7
TORSDOF 2
ENDMDL
