MODEL 1
REMARK minimizedAffinity -3.28493166
REMARK minimizedRMSD -1
REMARK  2 active torsions:
REMARK  status: ('A' for Active; 'I' for Inactive)
REMARK    1  A    between atoms: C1_2  and  C2_3 
REMARK    2  A    between atoms: C2_3  and  C3_4 
ROOT
ATOM      1  C3  UNL d   1       0.444   0.663  -0.435  0.00  0.00    -0.075 A 
ATOM      2  C4  UNL d   1       0.482  -0.382   0.499  0.00  0.00     0.002 A 
ATOM      3  C5  UNL d   1       0.732  -1.691   0.088  0.00  0.00     0.002 A 
ATOM      4  C6  UNL d   1       0.936  -1.973  -1.261  0.00  0.00    -0.004 A 
ATOM      5  C7  UNL d   1       0.884  -0.945  -2.200  0.00  0.00     0.002 A 
ATOM      6  C8  UNL d   1       0.639   0.366  -1.790  0.00  0.00     0.002 A 
ENDROOT
BRANCH   1   7
ATOM      7  C2  UNL d   1       0.203   2.087   0.008  0.00  0.00     0.056 C 
BRANCH   7   8
ATOM      8  C1  UNL d   1       1.328   2.671   0.869  0.00  0.00     0.007 C 
ATOM      9  C   UNL d   1       2.485   3.227   0.049  0.00  0.00     0.009 C 
ENDBRANCH   7   8
ENDBRANCH   1   7
TORSDOF 2
ENDMDL
