MODEL 1
REMARK minimizedAffinity -5.56213903
REMARK minimizedRMSD -1
REMARK  2 active torsions:
REMARK  status: ('A' for Active; 'I' for Inactive)
REMARK    1  A    between atoms: C1_2  and  C2_3 
REMARK    2  A    between atoms: C2_3  and  C3_4 
ROOT
ATOM      1  C3  UNL d   1       0.947   1.853   0.376  0.00  0.00    -0.075 A 
ATOM      2  C4  UNL d   1       0.881   2.083   1.758  0.00  0.00     0.002 A 
ATOM      3  C5  UNL d   1       1.551   3.165   2.329  0.00  0.00     0.002 A 
ATOM      4  C6  UNL d   1       2.304   4.023   1.529  0.00  0.00    -0.004 A 
ATOM      5  C7  UNL d   1       2.390   3.794   0.157  0.00  0.00     0.002 A 
ATOM      6  C8  UNL d   1       1.716   2.715  -0.417  0.00  0.00     0.002 A 
ENDROOT
BRANCH   1   7
ATOM      7  C2  UNL d   1       0.199   0.701  -0.252  0.00  0.00     0.056 C 
BRANCH   7   8
ATOM      8  C1  UNL d   1       0.013  -0.503   0.678  0.00  0.00     0.007 C 
ATOM      9  C   UNL d   1      -0.114  -1.824  -0.068  0.00  0.00     0.009 C 
ENDBRANCH   7   8
ENDBRANCH   1   7
TORSDOF 2
ENDMDL
