MODEL 1
REMARK minimizedAffinity -6.35492802
REMARK minimizedRMSD -1
REMARK  2 active torsions:
REMARK  status: ('A' for Active; 'I' for Inactive)
REMARK    1  A    between atoms: C1_2  and  C2_3 
REMARK    2  A    between atoms: C2_3  and  C3_4 
ROOT
ATOM      1  C3  UNL d   1       0.449  -0.860  -0.558  0.00  0.00    -0.075 A 
ATOM      2  C4  UNL d   1       0.541  -1.577  -1.760  0.00  0.00     0.002 A 
ATOM      3  C5  UNL d   1       0.282  -2.947  -1.789  0.00  0.00     0.002 A 
ATOM      4  C6  UNL d   1      -0.063  -3.620  -0.619  0.00  0.00    -0.004 A 
ATOM      5  C7  UNL d   1      -0.142  -2.921   0.584  0.00  0.00     0.002 A 
ATOM      6  C8  UNL d   1       0.113  -1.549   0.616  0.00  0.00     0.002 A 
ENDROOT
BRANCH   1   7
ATOM      7  C2  UNL d   1       0.700   0.628  -0.525  0.00  0.00     0.056 C 
BRANCH   7   8
ATOM      8  C1  UNL d   1       0.129   1.329   0.713  0.00  0.00     0.007 C 
ATOM      9  C   UNL d   1       0.942   2.543   1.144  0.00  0.00     0.009 C 
ENDBRANCH   7   8
ENDBRANCH   1   7
TORSDOF 2
ENDMDL
