MODEL 1
REMARK minimizedAffinity -4.18350029
REMARK minimizedRMSD -1
REMARK  2 active torsions:
REMARK  status: ('A' for Active; 'I' for Inactive)
REMARK    1  A    between atoms: C1_2  and  C2_3 
REMARK    2  A    between atoms: C2_3  and  C3_4 
ROOT
ATOM      1  C3  UNL d   1      -0.336   0.018   0.286  0.00  0.00    -0.075 A 
ATOM      2  C4  UNL d   1      -0.846   0.063   1.592  0.00  0.00     0.002 A 
ATOM      3  C5  UNL d   1      -1.249  -1.107   2.236  0.00  0.00     0.002 A 
ATOM      4  C6  UNL d   1      -1.157  -2.333   1.582  0.00  0.00    -0.004 A 
ATOM      5  C7  UNL d   1      -0.667  -2.388   0.279  0.00  0.00     0.002 A 
ATOM      6  C8  UNL d   1      -0.259  -1.219  -0.367  0.00  0.00     0.002 A 
ENDROOT
BRANCH   1   7
ATOM      7  C2  UNL d   1       0.130   1.277  -0.406  0.00  0.00     0.056 C 
BRANCH   7   8
ATOM      8  C1  UNL d   1       0.697   2.337   0.544  0.00  0.00     0.007 C 
ATOM      9  C   UNL d   1       1.093   3.626  -0.164  0.00  0.00     0.009 C 
ENDBRANCH   7   8
ENDBRANCH   1   7
TORSDOF 2
ENDMDL
