MODEL 1
REMARK minimizedAffinity -5.21969032
REMARK minimizedRMSD -1
REMARK  2 active torsions:
REMARK  status: ('A' for Active; 'I' for Inactive)
REMARK    1  A    between atoms: C1_2  and  C2_3 
REMARK    2  A    between atoms: C2_3  and  C3_4 
ROOT
ATOM      1  C3  UNL d   1      -0.390  -0.120  -0.030  0.00  0.00    -0.075 A 
ATOM      2  C4  UNL d   1      -1.134  -0.628   1.045  0.00  0.00     0.002 A 
ATOM      3  C5  UNL d   1      -1.093  -1.987   1.356  0.00  0.00     0.002 A 
ATOM      4  C6  UNL d   1      -0.317  -2.856   0.591  0.00  0.00    -0.004 A 
ATOM      5  C7  UNL d   1       0.413  -2.365  -0.489  0.00  0.00     0.002 A 
ATOM      6  C8  UNL d   1       0.377  -1.004  -0.800  0.00  0.00     0.002 A 
ENDROOT
BRANCH   1   7
ATOM      7  C2  UNL d   1      -0.408   1.355  -0.353  0.00  0.00     0.056 C 
BRANCH   7   8
ATOM      8  C1  UNL d   1       0.789   2.131   0.207  0.00  0.00     0.007 C 
ATOM      9  C   UNL d   1       0.427   3.530   0.686  0.00  0.00     0.009 C 
ENDBRANCH   7   8
ENDBRANCH   1   7
TORSDOF 2
ENDMDL
