MODEL 1
REMARK minimizedAffinity -6.38583565
REMARK minimizedRMSD -1
REMARK  2 active torsions:
REMARK  status: ('A' for Active; 'I' for Inactive)
REMARK    1  A    between atoms: C1_2  and  C2_3 
REMARK    2  A    between atoms: C2_3  and  C3_4 
ROOT
ATOM      1  C3  UNL d   1      -0.111  -2.132   0.067  0.00  0.00    -0.075 A 
ATOM      2  C4  UNL d   1       0.371  -0.815   0.045  0.00  0.00     0.002 A 
ATOM      3  C5  UNL d   1      -0.275   0.188   0.768  0.00  0.00     0.002 A 
ATOM      4  C6  UNL d   1      -1.416  -0.110   1.511  0.00  0.00    -0.004 A 
ATOM      5  C7  UNL d   1      -1.913  -1.411   1.526  0.00  0.00     0.002 A 
ATOM      6  C8  UNL d   1      -1.265  -2.417   0.808  0.00  0.00     0.002 A 
ENDROOT
BRANCH   1   7
ATOM      7  C2  UNL d   1       0.602  -3.228  -0.689  0.00  0.00     0.056 C 
BRANCH   7   8
ATOM      8  C1  UNL d   1       0.812  -2.925  -2.176  0.00  0.00     0.007 C 
ATOM      9  C   UNL d   1      -0.481  -2.940  -2.980  0.00  0.00     0.009 C 
ENDBRANCH   7   8
ENDBRANCH   1   7
TORSDOF 2
ENDMDL
