MODEL 1
REMARK minimizedAffinity -6.04363203
REMARK minimizedRMSD -1
REMARK  2 active torsions:
REMARK  status: ('A' for Active; 'I' for Inactive)
REMARK    1  A    between atoms: C1_2  and  C2_3 
REMARK    2  A    between atoms: C2_3  and  C3_4 
ROOT
ATOM      1  C3  UNL d   1       0.028   0.064   0.387  0.00  0.00    -0.075 A 
ATOM      2  C4  UNL d   1      -1.144  -0.273   1.080  0.00  0.00     0.002 A 
ATOM      3  C5  UNL d   1      -1.509  -1.609   1.247  0.00  0.00     0.002 A 
ATOM      4  C6  UNL d   1      -0.716  -2.623   0.714  0.00  0.00    -0.004 A 
ATOM      5  C7  UNL d   1       0.441  -2.299   0.009  0.00  0.00     0.002 A 
ATOM      6  C8  UNL d   1       0.812  -0.964  -0.155  0.00  0.00     0.002 A 
ENDROOT
BRANCH   1   7
ATOM      7  C2  UNL d   1       0.445   1.506   0.229  0.00  0.00     0.056 C 
BRANCH   7   8
ATOM      8  C1  UNL d   1       1.937   1.755   0.474  0.00  0.00     0.007 C 
ATOM      9  C   UNL d   1       2.256   3.206   0.809  0.00  0.00     0.009 C 
ENDBRANCH   7   8
ENDBRANCH   1   7
TORSDOF 2
ENDMDL
