MODEL 1
REMARK minimizedAffinity -4.88976908
REMARK minimizedRMSD -1
REMARK  2 active torsions:
REMARK  status: ('A' for Active; 'I' for Inactive)
REMARK    1  A    between atoms: C1_2  and  C2_3 
REMARK    2  A    between atoms: C2_3  and  C3_4 
ROOT
ATOM      1  C3  UNL d   1       0.097  -0.484  -0.594  0.00  0.00    -0.075 A 
ATOM      2  C4  UNL d   1      -0.691  -0.801   0.522  0.00  0.00     0.002 A 
ATOM      3  C5  UNL d   1      -0.632  -2.073   1.093  0.00  0.00     0.002 A 
ATOM      4  C6  UNL d   1       0.206  -3.045   0.550  0.00  0.00    -0.004 A 
ATOM      5  C7  UNL d   1       0.981  -2.746  -0.568  0.00  0.00     0.002 A 
ATOM      6  C8  UNL d   1       0.928  -1.473  -1.138  0.00  0.00     0.002 A 
ENDROOT
BRANCH   1   7
ATOM      7  C2  UNL d   1       0.060   0.899  -1.198  0.00  0.00     0.056 C 
BRANCH   7   8
ATOM      8  C1  UNL d   1      -0.176   2.019  -0.178  0.00  0.00     0.007 C 
ATOM      9  C   UNL d   1       1.111   2.686   0.289  0.00  0.00     0.009 C 
ENDBRANCH   7   8
ENDBRANCH   1   7
TORSDOF 2
ENDMDL
