MODEL 1
REMARK minimizedAffinity 5.59587479
REMARK minimizedRMSD -1
REMARK  0 active torsions:
REMARK  status: ('A' for Active; 'I' for Inactive)
ROOT
ATOM      1  C   UNL d   1       2.071   0.956   1.307  0.00  0.00     0.020 A 
ATOM      2  C1  UNL d   1       1.162  -0.087   1.135  0.00  0.00     0.020 A 
ATOM      3  C2  UNL d   1      -0.069   0.153   0.519  0.00  0.00     0.034 A 
ATOM      4  C3  UNL d   1      -0.393   1.440   0.074  0.00  0.00     0.017 A 
ATOM      5  C4  UNL d   1       0.520   2.486   0.247  0.00  0.00     0.017 A 
ATOM      6  C5  UNL d   1       1.750   2.240   0.863  0.00  0.00     0.034 A 
ATOM      7 Cl   UNL d   1       0.190   4.100  -0.277  0.00  0.00    -0.070 Cl
ATOM      8 Cl1  UNL d   1      -1.932   1.665  -0.679  0.00  0.00    -0.070 Cl
ENDROOT
TORSDOF 0
ENDMDL
