MODEL 1
REMARK minimizedAffinity -4.48656702
REMARK minimizedRMSD -1
REMARK  0 active torsions:
REMARK  status: ('A' for Active; 'I' for Inactive)
ROOT
ATOM      1  C   UNL d   1       3.085  -1.382   2.187  0.00  0.00     0.020 A 
ATOM      2  C1  UNL d   1       2.204  -1.535   1.117  0.00  0.00     0.020 A 
ATOM      3  C2  UNL d   1       1.452  -0.445   0.671  0.00  0.00     0.034 A 
ATOM      4  C3  UNL d   1       1.580   0.801   1.295  0.00  0.00     0.017 A 
ATOM      5  C4  UNL d   1       2.465   0.953   2.369  0.00  0.00     0.017 A 
ATOM      6  C5  UNL d   1       3.215  -0.141   2.811  0.00  0.00     0.034 A 
ATOM      7 Cl   UNL d   1       2.677   2.459   3.189  0.00  0.00    -0.070 Cl
ATOM      8 Cl1  UNL d   1       0.620   2.104   0.691  0.00  0.00    -0.070 Cl
ENDROOT
TORSDOF 0
ENDMDL
