MODEL 1
REMARK minimizedAffinity -5.85079384
REMARK minimizedRMSD -1
REMARK  0 active torsions:
REMARK  status: ('A' for Active; 'I' for Inactive)
ROOT
ATOM      1  C   UNL d   1       3.055  -1.548   1.495  0.00  0.00     0.020 A 
ATOM      2  C1  UNL d   1       1.898  -2.254   1.821  0.00  0.00     0.020 A 
ATOM      3  C2  UNL d   1       0.644  -1.697   1.562  0.00  0.00     0.034 A 
ATOM      4  C3  UNL d   1       0.544  -0.430   0.976  0.00  0.00     0.017 A 
ATOM      5  C4  UNL d   1       1.707   0.278   0.649  0.00  0.00     0.017 A 
ATOM      6  C5  UNL d   1       2.960  -0.284   0.911  0.00  0.00     0.034 A 
ATOM      7 Cl   UNL d   1       1.664   1.846  -0.076  0.00  0.00    -0.070 Cl
ATOM      8 Cl1  UNL d   1      -1.039   0.198   0.684  0.00  0.00    -0.070 Cl
ENDROOT
TORSDOF 0
ENDMDL
