MODEL 1
REMARK minimizedAffinity -4.79891205
REMARK minimizedRMSD -1
REMARK  0 active torsions:
REMARK  status: ('A' for Active; 'I' for Inactive)
ROOT
ATOM      1  C   UNL d   1       2.668  -1.280   1.490  0.00  0.00     0.020 A 
ATOM      2  C1  UNL d   1       1.625  -2.202   1.561  0.00  0.00     0.020 A 
ATOM      3  C2  UNL d   1       0.366  -1.871   1.055  0.00  0.00     0.034 A 
ATOM      4  C3  UNL d   1       0.147  -0.615   0.477  0.00  0.00     0.017 A 
ATOM      5  C4  UNL d   1       1.196   0.310   0.407  0.00  0.00     0.017 A 
ATOM      6  C5  UNL d   1       2.454  -0.027   0.915  0.00  0.00     0.034 A 
ATOM      7 Cl   UNL d   1       1.003   1.879  -0.292  0.00  0.00    -0.070 Cl
ATOM      8 Cl1  UNL d   1      -1.435  -0.273  -0.128  0.00  0.00    -0.070 Cl
ENDROOT
TORSDOF 0
ENDMDL
