MODEL 1
REMARK minimizedAffinity 2.44312167
REMARK minimizedRMSD -1
REMARK  0 active torsions:
REMARK  status: ('A' for Active; 'I' for Inactive)
ROOT
ATOM      1  C   UNL d   1      -0.717  -1.118   0.581  0.00  0.00     0.020 A 
ATOM      2  C1  UNL d   1      -1.409  -0.162  -0.162  0.00  0.00     0.020 A 
ATOM      3  C2  UNL d   1      -0.849   1.100  -0.370  0.00  0.00     0.034 A 
ATOM      4  C3  UNL d   1       0.407   1.410   0.164  0.00  0.00     0.017 A 
ATOM      5  C4  UNL d   1       1.101   0.450   0.909  0.00  0.00     0.017 A 
ATOM      6  C5  UNL d   1       0.535  -0.812   1.115  0.00  0.00     0.034 A 
ATOM      7 Cl   UNL d   1       2.655   0.759   1.600  0.00  0.00    -0.070 Cl
ATOM      8 Cl1  UNL d   1       1.039   2.991  -0.134  0.00  0.00    -0.070 Cl
ENDROOT
TORSDOF 0
ENDMDL
