MODEL 1
REMARK minimizedAffinity -5.34986401
REMARK minimizedRMSD -1
REMARK  0 active torsions:
REMARK  status: ('A' for Active; 'I' for Inactive)
ROOT
ATOM      1  C   UNL d   1       1.736  -2.046   1.127  0.00  0.00     0.020 A 
ATOM      2  C1  UNL d   1       2.624  -1.050   1.531  0.00  0.00     0.020 A 
ATOM      3  C2  UNL d   1       2.320   0.293   1.298  0.00  0.00     0.034 A 
ATOM      4  C3  UNL d   1       1.126   0.644   0.659  0.00  0.00     0.017 A 
ATOM      5  C4  UNL d   1       0.235  -0.356   0.254  0.00  0.00     0.017 A 
ATOM      6  C5  UNL d   1       0.544  -1.699   0.490  0.00  0.00     0.034 A 
ATOM      7 Cl   UNL d   1      -1.259  -0.001  -0.540  0.00  0.00    -0.070 Cl
ATOM      8 Cl1  UNL d   1       0.815   2.324   0.403  0.00  0.00    -0.070 Cl
ENDROOT
TORSDOF 0
ENDMDL
