MODEL 1
REMARK minimizedAffinity -6.52103853
REMARK minimizedRMSD -1
REMARK  0 active torsions:
REMARK  status: ('A' for Active; 'I' for Inactive)
ROOT
ATOM      1  C   UNL d   1       1.526  -1.849   1.546  0.00  0.00     0.020 A 
ATOM      2  C1  UNL d   1       2.532  -0.885   1.512  0.00  0.00     0.020 A 
ATOM      3  C2  UNL d   1       2.292   0.353   0.912  0.00  0.00     0.034 A 
ATOM      4  C3  UNL d   1       1.043   0.630   0.344  0.00  0.00     0.017 A 
ATOM      5  C4  UNL d   1       0.034  -0.339   0.379  0.00  0.00     0.017 A 
ATOM      6  C5  UNL d   1       0.280  -1.577   0.981  0.00  0.00     0.034 A 
ATOM      7 Cl   UNL d   1      -1.533  -0.071  -0.300  0.00  0.00    -0.070 Cl
ATOM      8 Cl1  UNL d   1       0.816   2.182  -0.381  0.00  0.00    -0.070 Cl
ENDROOT
TORSDOF 0
ENDMDL
