MODEL 1
REMARK minimizedAffinity -1.86108625
REMARK minimizedRMSD -1
REMARK  0 active torsions:
REMARK  status: ('A' for Active; 'I' for Inactive)
ROOT
ATOM      1  C   UNL d   1       1.135   0.819   1.000  0.00  0.00     0.020 A 
ATOM      2  C1  UNL d   1       0.920   1.378  -0.260  0.00  0.00     0.020 A 
ATOM      3  C2  UNL d   1      -0.092   0.878  -1.082  0.00  0.00     0.034 A 
ATOM      4  C3  UNL d   1      -0.892  -0.184  -0.646  0.00  0.00     0.017 A 
ATOM      5  C4  UNL d   1      -0.676  -0.745   0.618  0.00  0.00     0.017 A 
ATOM      6  C5  UNL d   1       0.339  -0.240   1.437  0.00  0.00     0.034 A 
ATOM      7 Cl   UNL d   1      -1.623  -2.057   1.224  0.00  0.00    -0.070 Cl
ATOM      8 Cl1  UNL d   1      -2.125  -0.752  -1.715  0.00  0.00    -0.070 Cl
ENDROOT
TORSDOF 0
ENDMDL
