MODEL 1
REMARK minimizedAffinity -4.84415627
REMARK minimizedRMSD -1
REMARK  0 active torsions:
REMARK  status: ('A' for Active; 'I' for Inactive)
ROOT
ATOM      1  C   UNL d   1       3.070   0.421   1.267  0.00  0.00     0.020 A 
ATOM      2  C1  UNL d   1       3.525  -0.629   2.065  0.00  0.00     0.020 A 
ATOM      3  C2  UNL d   1       2.681  -1.702   2.354  0.00  0.00     0.034 A 
ATOM      4  C3  UNL d   1       1.377  -1.729   1.846  0.00  0.00     0.017 A 
ATOM      5  C4  UNL d   1       0.921  -0.675   1.046  0.00  0.00     0.017 A 
ATOM      6  C5  UNL d   1       1.771   0.397   0.759  0.00  0.00     0.034 A 
ATOM      7 Cl   UNL d   1      -0.675  -0.638   0.382  0.00  0.00    -0.070 Cl
ATOM      8 Cl1  UNL d   1       0.387  -3.089   2.244  0.00  0.00    -0.070 Cl
ENDROOT
TORSDOF 0
ENDMDL
