MODEL 1
REMARK minimizedAffinity 0.332219988
REMARK minimizedRMSD -1
REMARK  0 active torsions:
REMARK  status: ('A' for Active; 'I' for Inactive)
ROOT
ATOM      1  C   UNL d   1      -3.184   1.870   3.617  0.00  0.00     0.078 C 
ATOM      2  C1  UNL d   1      -1.942   1.498   2.864  0.00  0.00    -0.077 A 
ATOM      3  C2  UNL d   1      -1.213   2.461   2.155  0.00  0.00    -0.001 A 
ATOM      4  C3  UNL d   1      -0.063   2.098   1.451  0.00  0.00     0.003 A 
ATOM      5  C4  UNL d   1       0.366   0.772   1.447  0.00  0.00    -0.005 A 
ATOM      6  C5  UNL d   1      -0.355  -0.193   2.147  0.00  0.00     0.003 A 
ATOM      7  C6  UNL d   1      -1.504   0.168   2.852  0.00  0.00    -0.001 A 
ENDROOT
TORSDOF 0
ENDMDL
