MODEL 1
REMARK minimizedAffinity 0.18342568
REMARK minimizedRMSD -1
REMARK  0 active torsions:
REMARK  status: ('A' for Active; 'I' for Inactive)
ROOT
ATOM      1  C   UNL d   1      -3.024   2.266   3.525  0.00  0.00     0.078 C 
ATOM      2  C1  UNL d   1      -2.017   1.500   2.721  0.00  0.00    -0.077 A 
ATOM      3  C2  UNL d   1      -2.133   0.115   2.549  0.00  0.00    -0.001 A 
ATOM      4  C3  UNL d   1      -1.182  -0.587   1.807  0.00  0.00     0.003 A 
ATOM      5  C4  UNL d   1      -0.107   0.088   1.231  0.00  0.00    -0.005 A 
ATOM      6  C5  UNL d   1       0.018   1.465   1.398  0.00  0.00     0.003 A 
ATOM      7  C6  UNL d   1      -0.932   2.169   2.141  0.00  0.00    -0.001 A 
ENDROOT
TORSDOF 0
ENDMDL
