MODEL 1
REMARK minimizedAffinity 3.63519073
REMARK minimizedRMSD -1
REMARK  0 active torsions:
REMARK  status: ('A' for Active; 'I' for Inactive)
ROOT
ATOM      1  C   UNL d   1      -0.543  -1.617   2.541  0.00  0.00     0.078 C 
ATOM      2  C1  UNL d   1      -0.183  -0.268   1.994  0.00  0.00    -0.077 A 
ATOM      3  C2  UNL d   1       0.310  -0.126   0.691  0.00  0.00    -0.001 A 
ATOM      4  C3  UNL d   1       0.650   1.134   0.198  0.00  0.00     0.003 A 
ATOM      5  C4  UNL d   1       0.502   2.263   1.001  0.00  0.00    -0.005 A 
ATOM      6  C5  UNL d   1       0.014   2.132   2.300  0.00  0.00     0.003 A 
ATOM      7  C6  UNL d   1      -0.327   0.872   2.795  0.00  0.00    -0.001 A 
ENDROOT
TORSDOF 0
ENDMDL
