MODEL 1
REMARK minimizedAffinity -2.2062633
REMARK minimizedRMSD -1
REMARK  0 active torsions:
REMARK  status: ('A' for Active; 'I' for Inactive)
ROOT
ATOM      1  C   UNL d   1       0.837   0.740   1.104  0.00  0.00     0.078 C 
ATOM      2  C1  UNL d   1      -0.492   1.023   1.738  0.00  0.00    -0.077 A 
ATOM      3  C2  UNL d   1      -0.834   2.317   2.150  0.00  0.00    -0.001 A 
ATOM      4  C3  UNL d   1      -2.071   2.564   2.747  0.00  0.00     0.003 A 
ATOM      5  C4  UNL d   1      -2.976   1.522   2.940  0.00  0.00    -0.005 A 
ATOM      6  C5  UNL d   1      -2.643   0.231   2.536  0.00  0.00     0.003 A 
ATOM      7  C6  UNL d   1      -1.407  -0.018   1.938  0.00  0.00    -0.001 A 
ENDROOT
TORSDOF 0
ENDMDL
