MODEL 1
REMARK minimizedAffinity -0.739133656
REMARK minimizedRMSD -1
REMARK  0 active torsions:
REMARK  status: ('A' for Active; 'I' for Inactive)
ROOT
ATOM      1  C   UNL d   1      -2.241   2.254   2.569  0.00  0.00     0.078 C 
ATOM      2  C1  UNL d   1      -1.141   1.502   1.881  0.00  0.00    -0.077 A 
ATOM      3  C2  UNL d   1      -0.287   2.142   0.976  0.00  0.00    -0.001 A 
ATOM      4  C3  UNL d   1       0.727   1.428   0.335  0.00  0.00     0.003 A 
ATOM      5  C4  UNL d   1       0.895   0.068   0.593  0.00  0.00    -0.005 A 
ATOM      6  C5  UNL d   1       0.048  -0.578   1.491  0.00  0.00     0.003 A 
ATOM      7  C6  UNL d   1      -0.967   0.135   2.132  0.00  0.00    -0.001 A 
ENDROOT
TORSDOF 0
ENDMDL
