MODEL 1
REMARK minimizedAffinity -3.63835454
REMARK minimizedRMSD -1
REMARK  0 active torsions:
REMARK  status: ('A' for Active; 'I' for Inactive)
ROOT
ATOM      1  C   UNL d   1      -2.775   1.865   3.256  0.00  0.00     0.078 C 
ATOM      2  C1  UNL d   1      -1.588   1.350   2.497  0.00  0.00    -0.077 A 
ATOM      3  C2  UNL d   1      -1.209   0.004   2.577  0.00  0.00    -0.001 A 
ATOM      4  C3  UNL d   1      -0.097  -0.459   1.872  0.00  0.00     0.003 A 
ATOM      5  C4  UNL d   1       0.646   0.417   1.083  0.00  0.00    -0.005 A 
ATOM      6  C5  UNL d   1       0.277   1.758   0.999  0.00  0.00     0.003 A 
ATOM      7  C6  UNL d   1      -0.834   2.223   1.703  0.00  0.00    -0.001 A 
ENDROOT
TORSDOF 0
ENDMDL
