MODEL 1
REMARK minimizedAffinity -4.92375278
REMARK minimizedRMSD -1
REMARK  0 active torsions:
REMARK  status: ('A' for Active; 'I' for Inactive)
ROOT
ATOM      1  C   UNL d   1       1.996   0.396   0.576  0.00  0.00     0.078 C 
ATOM      2  C1  UNL d   1       0.701   0.751   1.244  0.00  0.00    -0.077 A 
ATOM      3  C2  UNL d   1       0.256   2.078   1.295  0.00  0.00    -0.001 A 
ATOM      4  C3  UNL d   1      -0.946   2.396   1.928  0.00  0.00     0.003 A 
ATOM      5  C4  UNL d   1      -1.714   1.393   2.516  0.00  0.00    -0.005 A 
ATOM      6  C5  UNL d   1      -1.278   0.070   2.472  0.00  0.00     0.003 A 
ATOM      7  C6  UNL d   1      -0.076  -0.250   1.839  0.00  0.00    -0.001 A 
ENDROOT
TORSDOF 0
ENDMDL
