MODEL 1
REMARK minimizedAffinity 2.37188101
REMARK minimizedRMSD -1
REMARK  0 active torsions:
REMARK  status: ('A' for Active; 'I' for Inactive)
ROOT
ATOM      1  C   UNL d   1       2.773  -0.499  -0.036  0.00  0.00     0.078 C 
ATOM      2  C1  UNL d   1       1.531   0.071   0.582  0.00  0.00    -0.077 A 
ATOM      3  C2  UNL d   1       1.107   1.371   0.281  0.00  0.00    -0.001 A 
ATOM      4  C3  UNL d   1      -0.045   1.892   0.871  0.00  0.00     0.003 A 
ATOM      5  C4  UNL d   1      -0.783   1.121   1.767  0.00  0.00    -0.005 A 
ATOM      6  C5  UNL d   1      -0.368  -0.173   2.074  0.00  0.00     0.003 A 
ATOM      7  C6  UNL d   1       0.785  -0.696   1.485  0.00  0.00    -0.001 A 
ENDROOT
TORSDOF 0
ENDMDL
