MODEL 1
REMARK minimizedAffinity 1.46828067
REMARK minimizedRMSD -1
REMARK  0 active torsions:
REMARK  status: ('A' for Active; 'I' for Inactive)
ROOT
ATOM      1  C   UNL d   1      -4.094   2.225   3.814  0.00  0.00     0.078 C 
ATOM      2  C1  UNL d   1      -2.913   1.878   2.958  0.00  0.00    -0.077 A 
ATOM      3  C2  UNL d   1      -2.654   0.552   2.589  0.00  0.00    -0.001 A 
ATOM      4  C3  UNL d   1      -1.546   0.242   1.799  0.00  0.00     0.003 A 
ATOM      5  C4  UNL d   1      -0.686   1.253   1.373  0.00  0.00    -0.005 A 
ATOM      6  C5  UNL d   1      -0.934   2.575   1.737  0.00  0.00     0.003 A 
ATOM      7  C6  UNL d   1      -2.042   2.886   2.526  0.00  0.00    -0.001 A 
ENDROOT
TORSDOF 0
ENDMDL
