MODEL 1
REMARK minimizedAffinity -3.5223732
REMARK minimizedRMSD -1
REMARK  0 active torsions:
REMARK  status: ('A' for Active; 'I' for Inactive)
ROOT
ATOM      1  C   UNL d   1      -3.987  -3.413  -1.018  0.00  0.00     0.078 C 
ATOM      2  C1  UNL d   1      -2.936  -3.832  -0.034  0.00  0.00    -0.077 A 
ATOM      3  C2  UNL d   1      -2.283  -5.064  -0.158  0.00  0.00    -0.001 A 
ATOM      4  C3  UNL d   1      -1.314  -5.446   0.772  0.00  0.00     0.003 A 
ATOM      5  C4  UNL d   1      -0.990  -4.601   1.832  0.00  0.00    -0.005 A 
ATOM      6  C5  UNL d   1      -1.637  -3.374   1.964  0.00  0.00     0.003 A 
ATOM      7  C6  UNL d   1      -2.606  -2.991   1.036  0.00  0.00    -0.001 A 
ENDROOT
TORSDOF 0
ENDMDL
