MODEL 1
REMARK minimizedAffinity -1.25909758
REMARK minimizedRMSD -1
REMARK  0 active torsions:
REMARK  status: ('A' for Active; 'I' for Inactive)
ROOT
ATOM      1  C   UNL d   1      -1.750   2.984   2.243  0.00  0.00     0.078 C 
ATOM      2  C1  UNL d   1      -1.173   1.657   1.846  0.00  0.00    -0.077 A 
ATOM      3  C2  UNL d   1      -1.936   0.486   1.925  0.00  0.00    -0.001 A 
ATOM      4  C3  UNL d   1      -1.383  -0.743   1.562  0.00  0.00     0.003 A 
ATOM      5  C4  UNL d   1      -0.064  -0.813   1.119  0.00  0.00    -0.005 A 
ATOM      6  C5  UNL d   1       0.704   0.347   1.039  0.00  0.00     0.003 A 
ATOM      7  C6  UNL d   1       0.153   1.577   1.402  0.00  0.00    -0.001 A 
ENDROOT
TORSDOF 0
ENDMDL
