MODEL 1
REMARK minimizedAffinity 5.50839663
REMARK minimizedRMSD -1
REMARK  0 active torsions:
REMARK  status: ('A' for Active; 'I' for Inactive)
ROOT
ATOM      1  C   UNL d   1      -1.672   2.768   2.875  0.00  0.00     0.078 C 
ATOM      2  C1  UNL d   1      -0.797   1.752   2.203  0.00  0.00    -0.077 A 
ATOM      3  C2  UNL d   1      -0.776   0.420   2.634  0.00  0.00    -0.001 A 
ATOM      4  C3  UNL d   1       0.051  -0.512   2.005  0.00  0.00     0.003 A 
ATOM      5  C4  UNL d   1       0.863  -0.123   0.943  0.00  0.00    -0.005 A 
ATOM      6  C5  UNL d   1       0.851   1.201   0.508  0.00  0.00     0.003 A 
ATOM      7  C6  UNL d   1       0.025   2.135   1.135  0.00  0.00    -0.001 A 
ENDROOT
TORSDOF 0
ENDMDL
