MODEL 1
REMARK minimizedAffinity -2.20116568
REMARK minimizedRMSD -1
REMARK  0 active torsions:
REMARK  status: ('A' for Active; 'I' for Inactive)
ROOT
ATOM      1  C   UNL d   1      -3.464   2.236   3.766  0.00  0.00     0.078 C 
ATOM      2  C1  UNL d   1      -2.378   1.712   2.874  0.00  0.00    -0.077 A 
ATOM      3  C2  UNL d   1      -1.476   2.581   2.249  0.00  0.00    -0.001 A 
ATOM      4  C3  UNL d   1      -0.476   2.080   1.414  0.00  0.00     0.003 A 
ATOM      5  C4  UNL d   1      -0.370   0.708   1.195  0.00  0.00    -0.005 A 
ATOM      6  C5  UNL d   1      -1.264  -0.165   1.812  0.00  0.00     0.003 A 
ATOM      7  C6  UNL d   1      -2.264   0.335   2.647  0.00  0.00    -0.001 A 
ENDROOT
TORSDOF 0
ENDMDL
