MODEL 1
REMARK minimizedAffinity -2.4853313
REMARK minimizedRMSD -1
REMARK  0 active torsions:
REMARK  status: ('A' for Active; 'I' for Inactive)
ROOT
ATOM      1  C   UNL d   1       1.880   0.372   0.233  0.00  0.00     0.078 C 
ATOM      2  C1  UNL d   1       0.531   0.722   0.788  0.00  0.00    -0.077 A 
ATOM      3  C2  UNL d   1       0.228   2.034   1.173  0.00  0.00    -0.001 A 
ATOM      4  C3  UNL d   1      -1.028   2.344   1.697  0.00  0.00     0.003 A 
ATOM      5  C4  UNL d   1      -1.991   1.347   1.842  0.00  0.00    -0.005 A 
ATOM      6  C5  UNL d   1      -1.698   0.038   1.463  0.00  0.00     0.003 A 
ATOM      7  C6  UNL d   1      -0.442  -0.273   0.939  0.00  0.00    -0.001 A 
ENDROOT
TORSDOF 0
ENDMDL
