MODEL 1
REMARK minimizedAffinity -5.07518816
REMARK minimizedRMSD -1
REMARK  0 active torsions:
REMARK  status: ('A' for Active; 'I' for Inactive)
ROOT
ATOM      1  C   UNL d   1       0.655   0.128   0.744  0.00  0.00     0.078 C 
ATOM      2  C1  UNL d   1      -0.537   0.621   1.508  0.00  0.00    -0.077 A 
ATOM      3  C2  UNL d   1      -0.691   1.981   1.805  0.00  0.00    -0.001 A 
ATOM      4  C3  UNL d   1      -1.801   2.425   2.526  0.00  0.00     0.003 A 
ATOM      5  C4  UNL d   1      -2.766   1.515   2.955  0.00  0.00    -0.005 A 
ATOM      6  C5  UNL d   1      -2.620   0.160   2.666  0.00  0.00     0.003 A 
ATOM      7  C6  UNL d   1      -1.511  -0.285   1.946  0.00  0.00    -0.001 A 
ENDROOT
TORSDOF 0
ENDMDL
