MODEL 1
REMARK minimizedAffinity 3.65531826
REMARK minimizedRMSD -1
REMARK  1 active torsions:
REMARK  status: ('A' for Active; 'I' for Inactive)
REMARK    1  A    between atoms: C1_2  and  C2_3 
ROOT
ATOM      1  C2  UNL d   1      -1.513  -0.234   0.596  0.00  0.00    -0.073 A 
ATOM      2  C3  UNL d   1      -1.347  -1.613   0.427  0.00  0.00    -0.002 A 
ATOM      3  C4  UNL d   1      -0.576  -2.106  -0.627  0.00  0.00     0.004 A 
ATOM      4  C5  UNL d   1       0.040  -1.227  -1.517  0.00  0.00    -0.004 A 
ATOM      5  C6  UNL d   1      -0.105   0.155  -1.358  0.00  0.00    -0.075 A 
ATOM      6  C7  UNL d   1       0.550   1.114  -2.308  0.00  0.00     0.076 C 
ATOM      7  C8  UNL d   1      -0.882   0.642  -0.299  0.00  0.00     0.001 A 
ENDROOT
BRANCH   1   8
ATOM      8  C1  UNL d   1      -2.339   0.303   1.736  0.00  0.00     0.053 C 
ATOM      9  C   UNL d   1      -3.728   0.726   1.284  0.00  0.00     0.018 C 
ENDBRANCH   1   8
TORSDOF 1
ENDMDL
