MODEL 1
REMARK minimizedAffinity 8.18685913
REMARK minimizedRMSD -1
REMARK  1 active torsions:
REMARK  status: ('A' for Active; 'I' for Inactive)
REMARK    1  A    between atoms: C1_2  and  C2_3 
ROOT
ATOM      1  C2  UNL d   1      -1.230  -0.423   2.537  0.00  0.00    -0.073 A 
ATOM      2  C3  UNL d   1      -2.510  -0.284   3.084  0.00  0.00    -0.002 A 
ATOM      3  C4  UNL d   1      -3.565   0.182   2.299  0.00  0.00     0.004 A 
ATOM      4  C5  UNL d   1      -3.353   0.508   0.959  0.00  0.00    -0.004 A 
ATOM      5  C6  UNL d   1      -2.083   0.365   0.391  0.00  0.00    -0.075 A 
ATOM      6  C7  UNL d   1      -1.838   0.714  -1.048  0.00  0.00     0.076 C 
ATOM      7  C8  UNL d   1      -1.028  -0.101   1.187  0.00  0.00     0.001 A 
ENDROOT
BRANCH   1   8
ATOM      8  C1  UNL d   1      -0.089  -0.932   3.379  0.00  0.00     0.053 C 
ATOM      9  C   UNL d   1       1.183  -0.128   3.162  0.00  0.00     0.018 C 
ENDBRANCH   1   8
TORSDOF 1
ENDMDL
