MODEL 1
REMARK minimizedAffinity 3.00019312
REMARK minimizedRMSD -1
REMARK  1 active torsions:
REMARK  status: ('A' for Active; 'I' for Inactive)
REMARK    1  A    between atoms: C1_2  and  C2_3 
ROOT
ATOM      1  C2  UNL d   1      -0.989   0.622  -0.164  0.00  0.00    -0.073 A 
ATOM      2  C3  UNL d   1       0.130   1.412  -0.448  0.00  0.00    -0.002 A 
ATOM      3  C4  UNL d   1       1.143   1.565   0.500  0.00  0.00     0.004 A 
ATOM      4  C5  UNL d   1       1.051   0.925   1.736  0.00  0.00    -0.004 A 
ATOM      5  C6  UNL d   1      -0.055   0.122   2.033  0.00  0.00    -0.075 A 
ATOM      6  C7  UNL d   1      -0.171  -0.572   3.359  0.00  0.00     0.076 C 
ATOM      7  C8  UNL d   1      -1.069  -0.025   1.077  0.00  0.00     0.001 A 
ENDROOT
BRANCH   1   8
ATOM      8  C1  UNL d   1      -2.083   0.449  -1.187  0.00  0.00     0.053 C 
ATOM      9  C   UNL d   1      -1.618  -0.362  -2.386  0.00  0.00     0.018 C 
ENDBRANCH   1   8
TORSDOF 1
ENDMDL
