MODEL 1
REMARK minimizedAffinity 1.53054273
REMARK minimizedRMSD -1
REMARK  1 active torsions:
REMARK  status: ('A' for Active; 'I' for Inactive)
REMARK    1  A    between atoms: C1_2  and  C2_3 
ROOT
ATOM      1  C2  UNL d   1      -2.112   0.281   0.601  0.00  0.00    -0.073 A 
ATOM      2  C3  UNL d   1      -3.206   0.597   1.414  0.00  0.00    -0.002 A 
ATOM      3  C4  UNL d   1      -3.088   0.548   2.804  0.00  0.00     0.004 A 
ATOM      4  C5  UNL d   1      -1.876   0.189   3.394  0.00  0.00    -0.004 A 
ATOM      5  C6  UNL d   1      -0.768  -0.119   2.598  0.00  0.00    -0.075 A 
ATOM      6  C7  UNL d   1       0.542  -0.509   3.216  0.00  0.00     0.076 C 
ATOM      7  C8  UNL d   1      -0.895  -0.070   1.203  0.00  0.00     0.001 A 
ENDROOT
BRANCH   1   8
ATOM      8  C1  UNL d   1      -2.232   0.339  -0.900  0.00  0.00     0.053 C 
ATOM      9  C   UNL d   1      -0.874   0.426  -1.578  0.00  0.00     0.018 C 
ENDBRANCH   1   8
TORSDOF 1
ENDMDL
