MODEL 1
REMARK minimizedAffinity 5.30345345
REMARK minimizedRMSD -1
REMARK  1 active torsions:
REMARK  status: ('A' for Active; 'I' for Inactive)
REMARK    1  A    between atoms: C1_2  and  C2_3 
ROOT
ATOM      1  C2  UNL d   1      -1.799  -0.703  -0.088  0.00  0.00    -0.073 A 
ATOM      2  C3  UNL d   1      -3.116  -0.232  -0.057  0.00  0.00    -0.002 A 
ATOM      3  C4  UNL d   1      -3.607   0.415   1.078  0.00  0.00     0.004 A 
ATOM      4  C5  UNL d   1      -2.784   0.604   2.189  0.00  0.00    -0.004 A 
ATOM      5  C6  UNL d   1      -1.461   0.151   2.172  0.00  0.00    -0.075 A 
ATOM      6  C7  UNL d   1      -0.564   0.344   3.360  0.00  0.00     0.076 C 
ATOM      7  C8  UNL d   1      -0.977  -0.500   1.030  0.00  0.00     0.001 A 
ENDROOT
BRANCH   1   8
ATOM      8  C1  UNL d   1      -1.263  -1.396  -1.314  0.00  0.00     0.053 C 
ATOM      9  C   UNL d   1      -0.777  -2.804  -1.006  0.00  0.00     0.018 C 
ENDBRANCH   1   8
TORSDOF 1
ENDMDL
