MODEL 1
REMARK minimizedAffinity 6.21257734
REMARK minimizedRMSD -1
REMARK  1 active torsions:
REMARK  status: ('A' for Active; 'I' for Inactive)
REMARK    1  A    between atoms: C1_2  and  C2_3 
ROOT
ATOM      1  C2  UNL d   1      -2.501  -0.857   0.174  0.00  0.00    -0.073 A 
ATOM      2  C3  UNL d   1      -2.467  -2.231   0.440  0.00  0.00    -0.002 A 
ATOM      3  C4  UNL d   1      -1.613  -3.067  -0.280  0.00  0.00     0.004 A 
ATOM      4  C5  UNL d   1      -0.780  -2.539  -1.267  0.00  0.00    -0.004 A 
ATOM      5  C6  UNL d   1      -0.791  -1.167  -1.539  0.00  0.00    -0.075 A 
ATOM      6  C7  UNL d   1       0.097  -0.584  -2.598  0.00  0.00     0.076 C 
ATOM      7  C8  UNL d   1      -1.653  -0.334  -0.813  0.00  0.00     0.001 A 
ENDROOT
BRANCH   1   8
ATOM      8  C1  UNL d   1      -3.416   0.051   0.953  0.00  0.00     0.053 C 
ATOM      9  C   UNL d   1      -4.879  -0.325   0.775  0.00  0.00     0.018 C 
ENDBRANCH   1   8
TORSDOF 1
ENDMDL
