MODEL 1
REMARK minimizedAffinity 7.41408873
REMARK minimizedRMSD -1
REMARK  1 active torsions:
REMARK  status: ('A' for Active; 'I' for Inactive)
REMARK    1  A    between atoms: C1_2  and  C2_3 
ROOT
ATOM      1  C2  UNL d   1       3.256   4.036  -4.048  0.00  0.00    -0.073 A 
ATOM      2  C3  UNL d   1       4.571   4.318  -4.432  0.00  0.00    -0.002 A 
ATOM      3  C4  UNL d   1       5.582   3.377  -4.228  0.00  0.00     0.004 A 
ATOM      4  C5  UNL d   1       5.287   2.145  -3.646  0.00  0.00    -0.004 A 
ATOM      5  C6  UNL d   1       3.976   1.839  -3.267  0.00  0.00    -0.075 A 
ATOM      6  C7  UNL d   1       3.643   0.519  -2.637  0.00  0.00     0.076 C 
ATOM      7  C8  UNL d   1       2.967   2.790  -3.472  0.00  0.00     0.001 A 
ENDROOT
BRANCH   1   8
ATOM      8  C1  UNL d   1       2.160   5.045  -4.271  0.00  0.00     0.053 C 
ATOM      9  C   UNL d   1       0.861   4.637  -3.594  0.00  0.00     0.018 C 
ENDBRANCH   1   8
TORSDOF 1
ENDMDL
