MODEL 1
REMARK minimizedAffinity 16.6882935
REMARK minimizedRMSD -1
REMARK  1 active torsions:
REMARK  status: ('A' for Active; 'I' for Inactive)
REMARK    1  A    between atoms: C1_2  and  C2_3 
ROOT
ATOM      1  C2  UNL d   1       0.584   1.384   1.983  0.00  0.00    -0.073 A 
ATOM      2  C3  UNL d   1       0.675   0.121   2.578  0.00  0.00    -0.002 A 
ATOM      3  C4  UNL d   1      -0.259  -0.276   3.537  0.00  0.00     0.004 A 
ATOM      4  C5  UNL d   1      -1.295   0.583   3.905  0.00  0.00    -0.004 A 
ATOM      5  C6  UNL d   1      -1.410   1.844   3.313  0.00  0.00    -0.075 A 
ATOM      6  C7  UNL d   1      -2.517   2.780   3.699  0.00  0.00     0.076 C 
ATOM      7  C8  UNL d   1      -0.467   2.236   2.353  0.00  0.00     0.001 A 
ENDROOT
BRANCH   1   8
ATOM      8  C1  UNL d   1       1.585   1.814   0.943  0.00  0.00     0.053 C 
ATOM      9  C   UNL d   1       0.963   2.721  -0.108  0.00  0.00     0.018 C 
ENDBRANCH   1   8
TORSDOF 1
ENDMDL
