MODEL 1
REMARK minimizedAffinity 9.6772995
REMARK minimizedRMSD -1
REMARK  1 active torsions:
REMARK  status: ('A' for Active; 'I' for Inactive)
REMARK    1  A    between atoms: C1_2  and  C2_3 
ROOT
ATOM      1  C2  UNL d   1      -3.560  -2.287  -0.015  0.00  0.00    -0.073 A 
ATOM      2  C3  UNL d   1      -3.826  -0.914   0.023  0.00  0.00    -0.002 A 
ATOM      3  C4  UNL d   1      -3.015  -0.019  -0.678  0.00  0.00     0.004 A 
ATOM      4  C5  UNL d   1      -1.937  -0.489  -1.428  0.00  0.00    -0.004 A 
ATOM      5  C6  UNL d   1      -1.662  -1.859  -1.487  0.00  0.00    -0.075 A 
ATOM      6  C7  UNL d   1      -0.505  -2.379  -2.287  0.00  0.00     0.076 C 
ATOM      7  C8  UNL d   1      -2.479  -2.750  -0.779  0.00  0.00     0.001 A 
ENDROOT
BRANCH   1   8
ATOM      8  C1  UNL d   1      -4.436  -3.257   0.735  0.00  0.00     0.053 C 
ATOM      9  C   UNL d   1      -5.714  -2.602   1.235  0.00  0.00     0.018 C 
ENDBRANCH   1   8
TORSDOF 1
ENDMDL
