MODEL 1
REMARK minimizedAffinity -1.41835451
REMARK minimizedRMSD -1
REMARK  0 active torsions:
REMARK  status: ('A' for Active; 'I' for Inactive)
ROOT
ATOM      1  C   UNL d   1      -0.572  -3.306   0.374  0.00  0.00    -0.002 A 
ATOM      2  C1  UNL d   1       0.750  -3.168  -0.025  0.00  0.00     0.010 A 
ATOM      3  C2  UNL d   1       1.328  -1.902  -0.140  0.00  0.00     0.041 A 
ATOM      4  C3  UNL d   1       0.548  -0.767   0.157  0.00  0.00    -0.075 A 
ATOM      5  S   UNL d   1       1.045   0.882   0.088  0.00  0.00     0.015 SA
ATOM      6  C4  UNL d   1      -0.486   1.442   0.586  0.00  0.00     0.022 A 
ATOM      7  C5  UNL d   1      -1.366   0.409   0.805  0.00  0.00     0.026 A 
ATOM      8  C6  UNL d   1      -0.785  -0.881   0.562  0.00  0.00    -0.082 A 
ATOM      9  C7  UNL d   1      -1.343  -2.178   0.668  0.00  0.00     0.045 A 
ENDROOT
TORSDOF 0
ENDMDL
