MODEL 1
REMARK minimizedAffinity -3.60630774
REMARK minimizedRMSD -1
REMARK  0 active torsions:
REMARK  status: ('A' for Active; 'I' for Inactive)
ROOT
ATOM      1  C   UNL d   1      -0.628   1.081   1.223  0.00  0.00    -0.002 A 
ATOM      2  C1  UNL d   1      -0.099   1.464  -0.002  0.00  0.00     0.010 A 
ATOM      3  C2  UNL d   1       0.437   0.513  -0.873  0.00  0.00     0.041 A 
ATOM      4  C3  UNL d   1       0.431  -0.842  -0.489  0.00  0.00    -0.075 A 
ATOM      5  S   UNL d   1       1.033  -2.181  -1.393  0.00  0.00     0.015 SA
ATOM      6  C4  UNL d   1       0.601  -3.293  -0.176  0.00  0.00     0.022 A 
ATOM      7  C5  UNL d   1       0.012  -2.675   0.902  0.00  0.00     0.026 A 
ATOM      8  C6  UNL d   1      -0.096  -1.253   0.739  0.00  0.00    -0.082 A 
ATOM      9  C7  UNL d   1      -0.632  -0.265   1.600  0.00  0.00     0.045 A 
ENDROOT
TORSDOF 0
ENDMDL
