MODEL 1
REMARK minimizedAffinity -3.69949174
REMARK minimizedRMSD -1
REMARK  0 active torsions:
REMARK  status: ('A' for Active; 'I' for Inactive)
ROOT
ATOM      1  C   UNL d   1      -0.886  -1.840   0.788  0.00  0.00    -0.002 A 
ATOM      2  C1  UNL d   1       0.376  -2.111   0.279  0.00  0.00     0.010 A 
ATOM      3  C2  UNL d   1       1.232  -1.070  -0.088  0.00  0.00     0.041 A 
ATOM      4  C3  UNL d   1       0.794   0.260   0.067  0.00  0.00    -0.075 A 
ATOM      5  S   UNL d   1       1.670   1.694  -0.315  0.00  0.00     0.015 SA
ATOM      6  C4  UNL d   1       0.390   2.700   0.189  0.00  0.00     0.022 A 
ATOM      7  C5  UNL d   1      -0.688   1.976   0.640  0.00  0.00     0.026 A 
ATOM      8  C6  UNL d   1      -0.473   0.557   0.578  0.00  0.00    -0.082 A 
ATOM      9  C7  UNL d   1      -1.317  -0.520   0.940  0.00  0.00     0.045 A 
ENDROOT
TORSDOF 0
ENDMDL
