MODEL 1
REMARK minimizedAffinity -3.30606651
REMARK minimizedRMSD -1
REMARK  0 active torsions:
REMARK  status: ('A' for Active; 'I' for Inactive)
ROOT
ATOM      1  C   UNL d   1       0.684  -2.796  -2.610  0.00  0.00    -0.002 A 
ATOM      2  C1  UNL d   1       0.226  -3.548  -1.537  0.00  0.00     0.010 A 
ATOM      3  C2  UNL d   1      -0.233  -2.923  -0.376  0.00  0.00     0.041 A 
ATOM      4  C3  UNL d   1      -0.226  -1.516  -0.311  0.00  0.00    -0.075 A 
ATOM      5  S   UNL d   1      -0.742  -0.533   1.008  0.00  0.00     0.015 SA
ATOM      6  C4  UNL d   1      -0.367   0.908   0.179  0.00  0.00     0.022 A 
ATOM      7  C5  UNL d   1       0.141   0.664  -1.075  0.00  0.00     0.026 A 
ATOM      8  C6  UNL d   1       0.230  -0.737  -1.379  0.00  0.00    -0.082 A 
ATOM      9  C7  UNL d   1       0.690  -1.400  -2.542  0.00  0.00     0.045 A 
ENDROOT
TORSDOF 0
ENDMDL
