MODEL 1
REMARK minimizedAffinity -4.2677002
REMARK minimizedRMSD -1
REMARK  0 active torsions:
REMARK  status: ('A' for Active; 'I' for Inactive)
ROOT
ATOM      1  C   UNL d   1      -0.671  -0.957   1.626  0.00  0.00    -0.002 A 
ATOM      2  C1  UNL d   1      -0.232  -2.172   1.119  0.00  0.00     0.010 A 
ATOM      3  C2  UNL d   1       0.098  -2.300  -0.232  0.00  0.00     0.041 A 
ATOM      4  C3  UNL d   1      -0.020  -1.175  -1.072  0.00  0.00    -0.075 A 
ATOM      5  S   UNL d   1       0.329  -1.096  -2.758  0.00  0.00     0.015 SA
ATOM      6  C4  UNL d   1      -0.096   0.553  -2.845  0.00  0.00     0.022 A 
ATOM      7  C5  UNL d   1      -0.497   1.046  -1.626  0.00  0.00     0.026 A 
ATOM      8  C6  UNL d   1      -0.459   0.059  -0.584  0.00  0.00    -0.082 A 
ATOM      9  C7  UNL d   1      -0.787   0.156   0.790  0.00  0.00     0.045 A 
ENDROOT
TORSDOF 0
ENDMDL
