MODEL 1
REMARK minimizedAffinity -1.69341457
REMARK minimizedRMSD -1
REMARK  0 active torsions:
REMARK  status: ('A' for Active; 'I' for Inactive)
ROOT
ATOM      1  C   UNL d   1       0.326  -2.808   1.030  0.00  0.00    -0.002 A 
ATOM      2  C1  UNL d   1      -0.960  -2.627   0.542  0.00  0.00     0.010 A 
ATOM      3  C2  UNL d   1      -1.366  -1.382   0.056  0.00  0.00     0.041 A 
ATOM      4  C3  UNL d   1      -0.448  -0.314   0.067  0.00  0.00    -0.075 A 
ATOM      5  S   UNL d   1      -0.723   1.299  -0.478  0.00  0.00     0.015 SA
ATOM      6  C4  UNL d   1       0.861   1.784  -0.078  0.00  0.00     0.022 A 
ATOM      7  C5  UNL d   1       1.595   0.754   0.460  0.00  0.00     0.026 A 
ATOM      8  C6  UNL d   1       0.853  -0.472   0.552  0.00  0.00    -0.082 A 
ATOM      9  C7  UNL d   1       1.234  -1.746   1.039  0.00  0.00     0.045 A 
ENDROOT
TORSDOF 0
ENDMDL
