MODEL 1
REMARK minimizedAffinity 0.107726268
REMARK minimizedRMSD -1
REMARK  0 active torsions:
REMARK  status: ('A' for Active; 'I' for Inactive)
ROOT
ATOM      1  C   UNL d   1       2.091   4.568   0.453  0.00  0.00    -0.002 A 
ATOM      2  C1  UNL d   1       2.907   4.062  -0.549  0.00  0.00     0.010 A 
ATOM      3  C2  UNL d   1       2.589   2.859  -1.184  0.00  0.00     0.041 A 
ATOM      4  C3  UNL d   1       1.424   2.169  -0.793  0.00  0.00    -0.075 A 
ATOM      5  S   UNL d   1       0.835   0.680  -1.432  0.00  0.00     0.015 SA
ATOM      6  C4  UNL d   1      -0.515   0.682  -0.390  0.00  0.00     0.022 A 
ATOM      7  C5  UNL d   1      -0.531   1.784   0.431  0.00  0.00     0.026 A 
ATOM      8  C6  UNL d   1       0.586   2.660   0.212  0.00  0.00    -0.082 A 
ATOM      9  C7  UNL d   1       0.936   3.881   0.837  0.00  0.00     0.045 A 
ENDROOT
TORSDOF 0
ENDMDL
