MODEL 1
REMARK minimizedAffinity -1.62439418
REMARK minimizedRMSD -1
REMARK  0 active torsions:
REMARK  status: ('A' for Active; 'I' for Inactive)
ROOT
ATOM      1  C   UNL d   1       0.156  -2.583   1.105  0.00  0.00    -0.002 A 
ATOM      2  C1  UNL d   1      -1.048  -2.338   0.460  0.00  0.00     0.010 A 
ATOM      3  C2  UNL d   1      -1.267  -1.126  -0.198  0.00  0.00     0.041 A 
ATOM      4  C3  UNL d   1      -0.245  -0.157  -0.199  0.00  0.00    -0.075 A 
ATOM      5  S   UNL d   1      -0.289   1.399  -0.941  0.00  0.00     0.015 SA
ATOM      6  C4  UNL d   1       1.290   1.774  -0.421  0.00  0.00     0.022 A 
ATOM      7  C5  UNL d   1       1.851   0.749   0.303  0.00  0.00     0.026 A 
ATOM      8  C6  UNL d   1       0.976  -0.381   0.442  0.00  0.00    -0.082 A 
ATOM      9  C7  UNL d   1       1.167  -1.619   1.101  0.00  0.00     0.045 A 
ENDROOT
TORSDOF 0
ENDMDL
