MODEL 1
REMARK minimizedAffinity -4.62226248
REMARK minimizedRMSD -1
REMARK  0 active torsions:
REMARK  status: ('A' for Active; 'I' for Inactive)
ROOT
ATOM      1  C   UNL d   1       0.127  -3.419  -1.922  0.00  0.00    -0.002 A 
ATOM      2  C1  UNL d   1       0.460  -2.432  -2.839  0.00  0.00     0.010 A 
ATOM      3  C2  UNL d   1       0.444  -1.086  -2.469  0.00  0.00     0.041 A 
ATOM      4  C3  UNL d   1       0.086  -0.745  -1.150  0.00  0.00    -0.075 A 
ATOM      5  S   UNL d   1      -0.002   0.838  -0.472  0.00  0.00     0.015 SA
ATOM      6  C4  UNL d   1      -0.483   0.240   1.050  0.00  0.00     0.022 A 
ATOM      7  C5  UNL d   1      -0.579  -1.131   1.058  0.00  0.00     0.026 A 
ATOM      8  C6  UNL d   1      -0.252  -1.722  -0.209  0.00  0.00    -0.082 A 
ATOM      9  C7  UNL d   1      -0.228  -3.078  -0.615  0.00  0.00     0.045 A 
ENDROOT
TORSDOF 0
ENDMDL
