MODEL 1
REMARK minimizedAffinity -0.677299082
REMARK minimizedRMSD -1
REMARK  0 active torsions:
REMARK  status: ('A' for Active; 'I' for Inactive)
ROOT
ATOM      1  C   UNL d   1      -0.303  -3.282   0.576  0.00  0.00    -0.002 A 
ATOM      2  C1  UNL d   1       0.964  -3.028   0.069  0.00  0.00     0.010 A 
ATOM      3  C2  UNL d   1       1.353  -1.726  -0.249  0.00  0.00     0.041 A 
ATOM      4  C3  UNL d   1       0.440  -0.673  -0.047  0.00  0.00    -0.075 A 
ATOM      5  S   UNL d   1       0.698   1.002  -0.365  0.00  0.00     0.015 SA
ATOM      6  C4  UNL d   1      -0.867   1.420   0.165  0.00  0.00     0.022 A 
ATOM      7  C5  UNL d   1      -1.583   0.321   0.577  0.00  0.00     0.026 A 
ATOM      8  C6  UNL d   1      -0.841  -0.903   0.463  0.00  0.00    -0.082 A 
ATOM      9  C7  UNL d   1      -1.206  -2.235   0.775  0.00  0.00     0.045 A 
ENDROOT
TORSDOF 0
ENDMDL
