MODEL 1
REMARK minimizedAffinity -4.72811604
REMARK minimizedRMSD -1
REMARK  0 active torsions:
REMARK  status: ('A' for Active; 'I' for Inactive)
ROOT
ATOM      1  C   UNL d   1       0.738  -2.799  -0.579  0.00  0.00    -0.002 A 
ATOM      2  C1  UNL d   1      -0.095  -3.261   0.430  0.00  0.00     0.010 A 
ATOM      3  C2  UNL d   1      -0.836  -2.366   1.205  0.00  0.00     0.041 A 
ATOM      4  C3  UNL d   1      -0.726  -0.986   0.944  0.00  0.00    -0.075 A 
ATOM      5  S   UNL d   1      -1.539   0.295   1.764  0.00  0.00     0.015 SA
ATOM      6  C4  UNL d   1      -0.802   1.485   0.792  0.00  0.00     0.022 A 
ATOM      7  C5  UNL d   1       0.048   0.937  -0.140  0.00  0.00     0.026 A 
ATOM      8  C6  UNL d   1       0.105  -0.496  -0.068  0.00  0.00    -0.082 A 
ATOM      9  C7  UNL d   1       0.844  -1.429  -0.835  0.00  0.00     0.045 A 
ENDROOT
TORSDOF 0
ENDMDL
