MODEL 1
REMARK minimizedAffinity -0.571697831
REMARK minimizedRMSD -1
REMARK  0 active torsions:
REMARK  status: ('A' for Active; 'I' for Inactive)
ROOT
ATOM      1  C   UNL d   1       0.495   0.188   3.004  0.00  0.00    -0.002 A 
ATOM      2  C1  UNL d   1       1.596   0.168   2.159  0.00  0.00     0.010 A 
ATOM      3  C2  UNL d   1       1.437   0.340   0.782  0.00  0.00     0.041 A 
ATOM      4  C3  UNL d   1       0.142   0.537   0.264  0.00  0.00    -0.075 A 
ATOM      5  S   UNL d   1      -0.293   0.770  -1.387  0.00  0.00     0.015 SA
ATOM      6  C4  UNL d   1      -1.950   0.904  -1.010  0.00  0.00     0.022 A 
ATOM      7  C5  UNL d   1      -2.183   0.776   0.339  0.00  0.00     0.026 A 
ATOM      8  C6  UNL d   1      -0.982   0.563   1.096  0.00  0.00    -0.082 A 
ATOM      9  C7  UNL d   1      -0.788   0.384   2.487  0.00  0.00     0.045 A 
ENDROOT
TORSDOF 0
ENDMDL
