MODEL 1
REMARK minimizedAffinity -1.47642863
REMARK minimizedRMSD -1
REMARK  0 active torsions:
REMARK  status: ('A' for Active; 'I' for Inactive)
ROOT
ATOM      1  C   UNL d   1       1.696  -0.193   2.585  0.00  0.00    -0.002 A 
ATOM      2  C1  UNL d   1       0.397  -0.352   3.048  0.00  0.00     0.010 A 
ATOM      3  C2  UNL d   1      -0.674  -0.400   2.154  0.00  0.00     0.041 A 
ATOM      4  C3  UNL d   1      -0.416  -0.286   0.773  0.00  0.00    -0.075 A 
ATOM      5  S   UNL d   1      -1.570  -0.317  -0.507  0.00  0.00     0.015 SA
ATOM      6  C4  UNL d   1      -0.367  -0.121  -1.697  0.00  0.00     0.022 A 
ATOM      7  C5  UNL d   1       0.891  -0.032  -1.149  0.00  0.00     0.026 A 
ATOM      8  C6  UNL d   1       0.884  -0.126   0.284  0.00  0.00    -0.082 A 
ATOM      9  C7  UNL d   1       1.948  -0.080   1.215  0.00  0.00     0.045 A 
ENDROOT
TORSDOF 0
ENDMDL
