MODEL 1
REMARK minimizedAffinity 1.15593076
REMARK minimizedRMSD -1
REMARK  0 active torsions:
REMARK  status: ('A' for Active; 'I' for Inactive)
ROOT
ATOM      1  C   UNL d   1      -0.074   0.112  -1.338  0.00  0.00    -0.002 A 
ATOM      2  C1  UNL d   1       0.991   0.917  -0.961  0.00  0.00     0.010 A 
ATOM      3  C2  UNL d   1       1.306   1.093   0.388  0.00  0.00     0.041 A 
ATOM      4  C3  UNL d   1       0.526   0.438   1.361  0.00  0.00    -0.075 A 
ATOM      5  S   UNL d   1       0.726   0.505   3.072  0.00  0.00     0.015 SA
ATOM      6  C4  UNL d   1      -0.597  -0.534   3.342  0.00  0.00     0.022 A 
ATOM      7  C5  UNL d   1      -1.189  -0.932   2.167  0.00  0.00     0.026 A 
ATOM      8  C6  UNL d   1      -0.551  -0.379   1.006  0.00  0.00    -0.082 A 
ATOM      9  C7  UNL d   1      -0.846  -0.536  -0.370  0.00  0.00     0.045 A 
ENDROOT
TORSDOF 0
ENDMDL
