MODEL 1
REMARK minimizedAffinity -2.19002247
REMARK minimizedRMSD -1
REMARK  0 active torsions:
REMARK  status: ('A' for Active; 'I' for Inactive)
ROOT
ATOM      1  C   UNL d   1      -1.852  -0.060   3.310  0.00  0.00    -0.002 A 
ATOM      2  C1  UNL d   1      -2.950  -0.093   2.462  0.00  0.00     0.010 A 
ATOM      3  C2  UNL d   1      -2.779  -0.070   1.077  0.00  0.00     0.041 A 
ATOM      4  C3  UNL d   1      -1.473  -0.015   0.552  0.00  0.00    -0.075 A 
ATOM      5  S   UNL d   1      -1.021   0.022  -1.111  0.00  0.00     0.015 SA
ATOM      6  C4  UNL d   1       0.640   0.081  -0.736  0.00  0.00     0.022 A 
ATOM      7  C5  UNL d   1       0.863   0.074   0.620  0.00  0.00     0.026 A 
ATOM      8  C6  UNL d   1      -0.351   0.019   1.385  0.00  0.00    -0.082 A 
ATOM      9  C7  UNL d   1      -0.558  -0.005   2.786  0.00  0.00     0.045 A 
ENDROOT
TORSDOF 0
ENDMDL
