MODEL 1
REMARK minimizedAffinity -3.62212324
REMARK minimizedRMSD -1
REMARK  0 active torsions:
REMARK  status: ('A' for Active; 'I' for Inactive)
ROOT
ATOM      1  C   UNL d   1      -1.003  -0.042   3.930  0.00  0.00    -0.002 A 
ATOM      2  C1  UNL d   1      -2.162  -0.229   3.191  0.00  0.00     0.010 A 
ATOM      3  C2  UNL d   1      -2.133  -0.164   1.796  0.00  0.00     0.041 A 
ATOM      4  C3  UNL d   1      -0.907   0.093   1.151  0.00  0.00    -0.075 A 
ATOM      5  S   UNL d   1      -0.632   0.216  -0.546  0.00  0.00     0.015 SA
ATOM      6  C4  UNL d   1       1.032   0.518  -0.329  0.00  0.00     0.022 A 
ATOM      7  C5  UNL d   1       1.385   0.529   0.999  0.00  0.00     0.026 A 
ATOM      8  C6  UNL d   1       0.274   0.283   1.874  0.00  0.00    -0.082 A 
ATOM      9  C7  UNL d   1       0.211   0.212   3.287  0.00  0.00     0.045 A 
ENDROOT
TORSDOF 0
ENDMDL
