MODEL 1
REMARK minimizedAffinity 0.623485565
REMARK minimizedRMSD -1
REMARK  0 active torsions:
REMARK  status: ('A' for Active; 'I' for Inactive)
ROOT
ATOM      1  C   UNL d   1       0.053  -0.007   3.147  0.00  0.00    -0.002 A 
ATOM      2  C1  UNL d   1      -0.769  -1.054   2.757  0.00  0.00     0.010 A 
ATOM      3  C2  UNL d   1      -1.048  -1.274   1.407  0.00  0.00     0.041 A 
ATOM      4  C3  UNL d   1      -0.480  -0.416   0.445  0.00  0.00    -0.075 A 
ATOM      5  S   UNL d   1      -0.680  -0.494  -1.265  0.00  0.00     0.015 SA
ATOM      6  C4  UNL d   1       0.322   0.861  -1.520  0.00  0.00     0.022 A 
ATOM      7  C5  UNL d   1       0.806   1.373  -0.339  0.00  0.00     0.026 A 
ATOM      8  C6  UNL d   1       0.352   0.645   0.813  0.00  0.00    -0.082 A 
ATOM      9  C7  UNL d   1       0.615   0.842   2.190  0.00  0.00     0.045 A 
ENDROOT
TORSDOF 0
ENDMDL
