MODEL 1
REMARK minimizedAffinity 1.12065196
REMARK minimizedRMSD -1
REMARK  0 active torsions:
REMARK  status: ('A' for Active; 'I' for Inactive)
ROOT
ATOM      1  C   UNL d   1       0.778  -1.731  -4.047  0.00  0.00    -0.002 A 
ATOM      2  C1  UNL d   1       1.815  -0.813  -3.961  0.00  0.00     0.010 A 
ATOM      3  C2  UNL d   1       1.941   0.014  -2.843  0.00  0.00     0.041 A 
ATOM      4  C3  UNL d   1       0.999  -0.100  -1.801  0.00  0.00    -0.075 A 
ATOM      5  S   UNL d   1       0.955   0.807  -0.336  0.00  0.00     0.015 SA
ATOM      6  C4  UNL d   1      -0.441  -0.004   0.211  0.00  0.00     0.022 A 
ATOM      7  C5  UNL d   1      -0.876  -0.947  -0.690  0.00  0.00     0.026 A 
ATOM      8  C6  UNL d   1      -0.053  -1.018  -1.864  0.00  0.00    -0.082 A 
ATOM      9  C7  UNL d   1      -0.154  -1.842  -3.011  0.00  0.00     0.045 A 
ENDROOT
TORSDOF 0
ENDMDL
