MODEL 1
REMARK minimizedAffinity -1.05836117
REMARK minimizedRMSD -1
REMARK  0 active torsions:
REMARK  status: ('A' for Active; 'I' for Inactive)
ROOT
ATOM      1  C   UNL d   1       0.095  -0.453   3.067  0.00  0.00    -0.002 A 
ATOM      2  C1  UNL d   1       1.369  -0.565   2.526  0.00  0.00     0.010 A 
ATOM      3  C2  UNL d   1       1.572  -0.422   1.152  0.00  0.00     0.041 A 
ATOM      4  C3  UNL d   1       0.464  -0.160   0.323  0.00  0.00    -0.075 A 
ATOM      5  S   UNL d   1       0.474   0.054  -1.388  0.00  0.00     0.015 SA
ATOM      6  C4  UNL d   1      -1.212   0.301  -1.441  0.00  0.00     0.022 A 
ATOM      7  C5  UNL d   1      -1.784   0.225  -0.194  0.00  0.00     0.026 A 
ATOM      8  C6  UNL d   1      -0.827  -0.041   0.844  0.00  0.00    -0.082 A 
ATOM      9  C7  UNL d   1      -1.001  -0.193   2.241  0.00  0.00     0.045 A 
ENDROOT
TORSDOF 0
ENDMDL
