MODEL 1
REMARK minimizedAffinity -5.18450785
REMARK minimizedRMSD -1
REMARK  0 active torsions:
REMARK  status: ('A' for Active; 'I' for Inactive)
ROOT
ATOM      1  C   UNL d   1      -2.483  -0.549   2.597  0.00  0.00    -0.002 A 
ATOM      2  C1  UNL d   1      -1.334  -0.428   3.365  0.00  0.00     0.010 A 
ATOM      3  C2  UNL d   1      -0.106  -0.139   2.766  0.00  0.00     0.041 A 
ATOM      4  C3  UNL d   1      -0.053   0.031   1.368  0.00  0.00    -0.075 A 
ATOM      5  S   UNL d   1       1.338   0.391   0.416  0.00  0.00     0.015 SA
ATOM      6  C4  UNL d   1       0.440   0.393  -1.032  0.00  0.00     0.022 A 
ATOM      7  C5  UNL d   1      -0.891   0.127  -0.813  0.00  0.00     0.026 A 
ATOM      8  C6  UNL d   1      -1.197  -0.086   0.573  0.00  0.00    -0.082 A 
ATOM      9  C7  UNL d   1      -2.427  -0.381   1.211  0.00  0.00     0.045 A 
ENDROOT
TORSDOF 0
ENDMDL
