MODEL 1
REMARK minimizedAffinity -0.366530806
REMARK minimizedRMSD -1
REMARK  0 active torsions:
REMARK  status: ('A' for Active; 'I' for Inactive)
ROOT
ATOM      1  C   UNL d   1       1.158  -1.619  -2.843  0.00  0.00    -0.002 A 
ATOM      2  C1  UNL d   1      -0.089  -2.226  -2.788  0.00  0.00     0.010 A 
ATOM      3  C2  UNL d   1      -0.933  -2.020  -1.695  0.00  0.00     0.041 A 
ATOM      4  C3  UNL d   1      -0.498  -1.184  -0.648  0.00  0.00    -0.075 A 
ATOM      5  S   UNL d   1      -1.362  -0.785   0.790  0.00  0.00     0.015 SA
ATOM      6  C4  UNL d   1      -0.097   0.201   1.366  0.00  0.00     0.022 A 
ATOM      7  C5  UNL d   1       0.966   0.236   0.495  0.00  0.00     0.026 A 
ATOM      8  C6  UNL d   1       0.752  -0.561  -0.680  0.00  0.00    -0.082 A 
ATOM      9  C7  UNL d   1       1.585  -0.791  -1.802  0.00  0.00     0.045 A 
ENDROOT
TORSDOF 0
ENDMDL
