MODEL 1
REMARK minimizedAffinity -3.27558088
REMARK minimizedRMSD -1
REMARK  0 active torsions:
REMARK  status: ('A' for Active; 'I' for Inactive)
ROOT
ATOM      1  C   UNL d   1      -0.273  -0.661   3.145  0.00  0.00    -0.002 A 
ATOM      2  C1  UNL d   1      -1.499  -1.026   2.606  0.00  0.00     0.010 A 
ATOM      3  C2  UNL d   1      -1.774  -0.808   1.255  0.00  0.00     0.041 A 
ATOM      4  C3  UNL d   1      -0.786  -0.212   0.445  0.00  0.00    -0.075 A 
ATOM      5  S   UNL d   1      -0.900   0.150  -1.236  0.00  0.00     0.015 SA
ATOM      6  C4  UNL d   1       0.677   0.797  -1.279  0.00  0.00     0.022 A 
ATOM      7  C5  UNL d   1       1.289   0.746  -0.049  0.00  0.00     0.026 A 
ATOM      8  C6  UNL d   1       0.456   0.163   0.965  0.00  0.00    -0.082 A 
ATOM      9  C7  UNL d   1       0.704  -0.071   2.339  0.00  0.00     0.045 A 
ENDROOT
TORSDOF 0
ENDMDL
