MODEL 1
REMARK minimizedAffinity -1.62736738
REMARK minimizedRMSD -1
REMARK  0 active torsions:
REMARK  status: ('A' for Active; 'I' for Inactive)
ROOT
ATOM      1  C   UNL d   1      -1.851  -0.886   2.548  0.00  0.00    -0.002 A 
ATOM      2  C1  UNL d   1      -0.735  -0.511   3.282  0.00  0.00     0.010 A 
ATOM      3  C2  UNL d   1       0.395   0.003   2.642  0.00  0.00     0.041 A 
ATOM      4  C3  UNL d   1       0.383   0.136   1.240  0.00  0.00    -0.075 A 
ATOM      5  S   UNL d   1       1.653   0.742   0.243  0.00  0.00     0.015 SA
ATOM      6  C4  UNL d   1       0.742   0.517  -1.181  0.00  0.00     0.022 A 
ATOM      7  C5  UNL d   1      -0.502  -0.006  -0.920  0.00  0.00     0.026 A 
ATOM      8  C6  UNL d   1      -0.729  -0.234   0.480  0.00  0.00    -0.082 A 
ATOM      9  C7  UNL d   1      -1.859  -0.753   1.157  0.00  0.00     0.045 A 
ENDROOT
TORSDOF 0
ENDMDL
