MODEL 1
REMARK minimizedAffinity -0.120507151
REMARK minimizedRMSD -1
REMARK  0 active torsions:
REMARK  status: ('A' for Active; 'I' for Inactive)
ROOT
ATOM      1  C1  BNZ d   1       2.868  -5.995  -3.621  0.00  0.00     0.000 A 
ATOM      2  C2  BNZ d   1       2.208  -6.000  -4.821  0.00  0.00     0.000 A 
ATOM      3  C3  BNZ d   1       2.899  -5.998  -6.000  0.00  0.00     0.000 A 
ATOM      4  C4  BNZ d   1       4.247  -5.952  -5.978  0.00  0.00     0.000 A 
ATOM      5  C5  BNZ d   1       4.926  -5.938  -4.777  0.00  0.00     0.000 A 
ATOM      6  C6  BNZ d   1       4.228  -5.979  -3.592  0.00  0.00     0.000 A 
ENDROOT
TORSDOF 0
ENDMDL
