MODEL 1
REMARK minimizedAffinity -1.27738047
REMARK minimizedRMSD -1
REMARK  0 active torsions:
REMARK  status: ('A' for Active; 'I' for Inactive)
ROOT
ATOM      1  C1  BNZ d   1       1.852  -4.209   3.952  0.00  0.00     0.000 A 
ATOM      2  C2  BNZ d   1       1.156  -3.081   3.608  0.00  0.00     0.000 A 
ATOM      3  C3  BNZ d   1       1.782  -1.869   3.527  0.00  0.00     0.000 A 
ATOM      4  C4  BNZ d   1       3.093  -1.779   3.828  0.00  0.00     0.000 A 
ATOM      5  C5  BNZ d   1       3.807  -2.905   4.186  0.00  0.00     0.000 A 
ATOM      6  C6  BNZ d   1       3.182  -4.130   4.229  0.00  0.00     0.000 A 
ENDROOT
TORSDOF 0
ENDMDL
