MODEL 1
REMARK minimizedAffinity 3.47778511
REMARK minimizedRMSD -1
REMARK  0 active torsions:
REMARK  status: ('A' for Active; 'I' for Inactive)
ROOT
ATOM      1  C1  BNZ d   1       4.663  -5.996  -3.589  0.00  0.00     0.000 A 
ATOM      2  C2  BNZ d   1       5.048  -5.991  -2.275  0.00  0.00     0.000 A 
ATOM      3  C3  BNZ d   1       4.118  -6.000  -1.273  0.00  0.00     0.000 A 
ATOM      4  C4  BNZ d   1       2.806  -5.973  -1.585  0.00  0.00     0.000 A 
ATOM      5  C5  BNZ d   1       2.402  -5.969  -2.906  0.00  0.00     0.000 A 
ATOM      6  C6  BNZ d   1       3.341  -6.000  -3.911  0.00  0.00     0.000 A 
ENDROOT
TORSDOF 0
ENDMDL
