MODEL 1
REMARK minimizedAffinity 2.10144544
REMARK minimizedRMSD -1
REMARK  0 active torsions:
REMARK  status: ('A' for Active; 'I' for Inactive)
ROOT
ATOM      1  C1  BNZ d   1       1.677  -2.299   3.148  0.00  0.00     0.000 A 
ATOM      2  C2  BNZ d   1       1.104  -3.542   3.114  0.00  0.00     0.000 A 
ATOM      3  C3  BNZ d   1       1.683  -4.598   3.760  0.00  0.00     0.000 A 
ATOM      4  C4  BNZ d   1       2.854  -4.419   4.405  0.00  0.00     0.000 A 
ATOM      5  C5  BNZ d   1       3.449  -3.174   4.440  0.00  0.00     0.000 A 
ATOM      6  C6  BNZ d   1       2.843  -2.105   3.821  0.00  0.00     0.000 A 
ENDROOT
TORSDOF 0
ENDMDL
