MODEL 1
REMARK minimizedAffinity 4.79835415
REMARK minimizedRMSD -1
REMARK  0 active torsions:
REMARK  status: ('A' for Active; 'I' for Inactive)
ROOT
ATOM      1  C1  BNZ d   1       2.784   1.288   1.040  0.00  0.00     0.000 A 
ATOM      2  C2  BNZ d   1       2.512   0.016   1.470  0.00  0.00     0.000 A 
ATOM      3  C3  BNZ d   1       2.319  -0.247   2.797  0.00  0.00     0.000 A 
ATOM      4  C4  BNZ d   1       2.437   0.751   3.695  0.00  0.00     0.000 A 
ATOM      5  C5  BNZ d   1       2.720   2.037   3.278  0.00  0.00     0.000 A 
ATOM      6  C6  BNZ d   1       2.875   2.306   1.938  0.00  0.00     0.000 A 
ENDROOT
TORSDOF 0
ENDMDL
