MODEL 1
REMARK minimizedAffinity 7.73578548
REMARK minimizedRMSD -1
REMARK  0 active torsions:
REMARK  status: ('A' for Active; 'I' for Inactive)
ROOT
ATOM      1  C1  BNZ d   1      -3.247   1.945  -1.187  0.00  0.00     0.000 A 
ATOM      2  C2  BNZ d   1      -4.411   2.033  -0.472  0.00  0.00     0.000 A 
ATOM      3  C3  BNZ d   1      -5.624   1.978  -1.100  0.00  0.00     0.000 A 
ATOM      4  C4  BNZ d   1      -5.670   1.877  -2.444  0.00  0.00     0.000 A 
ATOM      5  C5  BNZ d   1      -4.505   1.796  -3.180  0.00  0.00     0.000 A 
ATOM      6  C6  BNZ d   1      -3.286   1.812  -2.540  0.00  0.00     0.000 A 
ENDROOT
TORSDOF 0
ENDMDL
