MODEL 1
REMARK minimizedAffinity 4.70671225
REMARK minimizedRMSD -1
REMARK  0 active torsions:
REMARK  status: ('A' for Active; 'I' for Inactive)
ROOT
ATOM      1  C1  BNZ d   1       1.911  -1.972   3.206  0.00  0.00     0.000 A 
ATOM      2  C2  BNZ d   1       1.271  -3.023   2.604  0.00  0.00     0.000 A 
ATOM      3  C3  BNZ d   1       0.629  -2.859   1.409  0.00  0.00     0.000 A 
ATOM      4  C4  BNZ d   1       0.592  -1.638   0.838  0.00  0.00     0.000 A 
ATOM      5  C5  BNZ d   1       1.225  -0.567   1.437  0.00  0.00     0.000 A 
ATOM      6  C6  BNZ d   1       1.904  -0.744   2.620  0.00  0.00     0.000 A 
ENDROOT
TORSDOF 0
ENDMDL
