MODEL 1
REMARK minimizedAffinity -2.16934609
REMARK minimizedRMSD -1
REMARK  0 active torsions:
REMARK  status: ('A' for Active; 'I' for Inactive)
ROOT
ATOM      1  C1  BNZ d   1       4.136  -5.997  -2.871  0.00  0.00     0.000 A 
ATOM      2  C2  BNZ d   1       4.043  -5.999  -4.237  0.00  0.00     0.000 A 
ATOM      3  C3  BNZ d   1       2.825  -5.976  -4.856  0.00  0.00     0.000 A 
ATOM      4  C4  BNZ d   1       1.702  -5.992  -4.110  0.00  0.00     0.000 A 
ATOM      5  C5  BNZ d   1       1.778  -6.000  -2.731  0.00  0.00     0.000 A 
ATOM      6  C6  BNZ d   1       3.007  -5.984  -2.111  0.00  0.00     0.000 A 
ENDROOT
TORSDOF 0
ENDMDL
