MODEL 1
REMARK minimizedAffinity 5.51341772
REMARK minimizedRMSD -1
REMARK  0 active torsions:
REMARK  status: ('A' for Active; 'I' for Inactive)
ROOT
ATOM      1  C1  BNZ d   1      -3.975   3.368  -0.826  0.00  0.00     0.000 A 
ATOM      2  C2  BNZ d   1      -5.291   3.746  -0.805  0.00  0.00     0.000 A 
ATOM      3  C3  BNZ d   1      -5.999   3.751   0.364  0.00  0.00     0.000 A 
ATOM      4  C4  BNZ d   1      -5.402   3.339   1.502  0.00  0.00     0.000 A 
ATOM      5  C5  BNZ d   1      -4.079   2.946   1.495  0.00  0.00     0.000 A 
ATOM      6  C6  BNZ d   1      -3.358   2.980   0.323  0.00  0.00     0.000 A 
ENDROOT
TORSDOF 0
ENDMDL
