MODEL 1
REMARK minimizedAffinity 7.14881182
REMARK minimizedRMSD -1
REMARK  0 active torsions:
REMARK  status: ('A' for Active; 'I' for Inactive)
ROOT
ATOM      1  C1  BNZ d   1      -4.191   1.236  -3.232  0.00  0.00     0.000 A 
ATOM      2  C2  BNZ d   1      -4.505   0.039  -3.818  0.00  0.00     0.000 A 
ATOM      3  C3  BNZ d   1      -3.712  -1.059  -3.635  0.00  0.00     0.000 A 
ATOM      4  C4  BNZ d   1      -2.587  -0.949  -2.900  0.00  0.00     0.000 A 
ATOM      5  C5  BNZ d   1      -2.251   0.253  -2.311  0.00  0.00     0.000 A 
ATOM      6  C6  BNZ d   1      -3.072   1.347  -2.465  0.00  0.00     0.000 A 
ENDROOT
TORSDOF 0
ENDMDL
