MODEL 1
REMARK minimizedAffinity 4.80534315
REMARK minimizedRMSD -1
REMARK  0 active torsions:
REMARK  status: ('A' for Active; 'I' for Inactive)
ROOT
ATOM      1  N1  IND d   1       1.665  -1.277   0.266  0.00  0.00    -0.196 N 
ATOM      2  C2  IND d   1       2.213  -2.455   0.692  0.00  0.00     0.054 A 
ATOM      3  C3  IND d   1       3.548  -2.319   0.860  0.00  0.00    -0.031 A 
ATOM      4  C4  IND d   1       5.024  -0.227   0.592  0.00  0.00     0.051 A 
ATOM      5  C5  IND d   1       4.982   1.077   0.185  0.00  0.00    -0.031 A 
ATOM      6  C6  IND d   1       3.807   1.676  -0.222  0.00  0.00     0.015 A 
ATOM      7  C7  IND d   1       2.623   0.993  -0.225  0.00  0.00    -0.016 A 
ATOM      8  C8  IND d   1       2.664  -0.333   0.181  0.00  0.00    -0.047 A 
ATOM      9  C9  IND d   1       3.861  -0.959   0.554  0.00  0.00    -0.096 A 
ATOM     10  HN1 IND d   1       0.835  -1.148   0.082  0.00  0.00     0.298 HD
ENDROOT
TORSDOF 0
ENDMDL
