MODEL 1
REMARK minimizedAffinity 0.184154749
REMARK minimizedRMSD -1
REMARK  0 active torsions:
REMARK  status: ('A' for Active; 'I' for Inactive)
ROOT
ATOM      1  N1  IND d   1       1.378  -4.929   2.734  0.00  0.00    -0.196 N 
ATOM      2  C2  IND d   1       2.634  -4.649   2.273  0.00  0.00     0.054 A 
ATOM      3  C3  IND d   1       2.791  -3.315   2.117  0.00  0.00    -0.031 A 
ATOM      4  C4  IND d   1       1.155  -1.401   2.654  0.00  0.00     0.051 A 
ATOM      5  C5  IND d   1      -0.128  -1.163   3.062  0.00  0.00    -0.031 A 
ATOM      6  C6  IND d   1      -0.990  -2.189   3.391  0.00  0.00     0.015 A 
ATOM      7  C7  IND d   1      -0.597  -3.496   3.335  0.00  0.00    -0.016 A 
ATOM      8  C8  IND d   1       0.702  -3.742   2.914  0.00  0.00    -0.047 A 
ATOM      9  C9  IND d   1       1.569  -2.707   2.538  0.00  0.00    -0.096 A 
ATOM     10  HN1 IND d   1       1.063  -5.714   2.887  0.00  0.00     0.298 HD
ENDROOT
TORSDOF 0
ENDMDL
