MODEL 1
REMARK minimizedAffinity 11.0652466
REMARK minimizedRMSD -1
REMARK  0 active torsions:
REMARK  status: ('A' for Active; 'I' for Inactive)
ROOT
ATOM      1  N1  IND d   1      -4.845   4.139   5.031  0.00  0.00    -0.196 N 
ATOM      2  C2  IND d   1      -4.138   4.820   5.983  0.00  0.00     0.054 A 
ATOM      3  C3  IND d   1      -2.849   4.413   5.992  0.00  0.00    -0.031 A 
ATOM      4  C4  IND d   1      -1.658   2.717   4.464  0.00  0.00     0.051 A 
ATOM      5  C5  IND d   1      -1.896   1.813   3.468  0.00  0.00    -0.031 A 
ATOM      6  C6  IND d   1      -3.154   1.635   2.929  0.00  0.00     0.015 A 
ATOM      7  C7  IND d   1      -4.223   2.368   3.360  0.00  0.00    -0.016 A 
ATOM      8  C8  IND d   1      -3.987   3.283   4.377  0.00  0.00    -0.047 A 
ATOM      9  C9  IND d   1      -2.721   3.437   4.957  0.00  0.00    -0.096 A 
ATOM     10  HN1 IND d   1      -5.684   4.231   4.868  0.00  0.00     0.298 HD
ENDROOT
TORSDOF 0
ENDMDL
