MODEL 1
REMARK minimizedAffinity 10.276948
REMARK minimizedRMSD -1
REMARK  0 active torsions:
REMARK  status: ('A' for Active; 'I' for Inactive)
ROOT
ATOM      1  N1  IND d   1       5.971   3.154   0.133  0.00  0.00    -0.196 N 
ATOM      2  C2  IND d   1       5.981   2.683   1.416  0.00  0.00     0.054 A 
ATOM      3  C3  IND d   1       5.953   1.331   1.421  0.00  0.00    -0.031 A 
ATOM      4  C4  IND d   1       5.993  -0.312  -0.560  0.00  0.00     0.051 A 
ATOM      5  C5  IND d   1       5.950  -0.355  -1.926  0.00  0.00    -0.031 A 
ATOM      6  C6  IND d   1       5.914   0.794  -2.690  0.00  0.00     0.015 A 
ATOM      7  C7  IND d   1       5.930   2.033  -2.115  0.00  0.00    -0.016 A 
ATOM      8  C8  IND d   1       5.967   2.080  -0.729  0.00  0.00    -0.047 A 
ATOM      9  C9  IND d   1       5.961   0.918   0.053  0.00  0.00    -0.096 A 
ATOM     10  HN1 IND d   1       5.968   3.983  -0.097  0.00  0.00     0.298 HD
ENDROOT
TORSDOF 0
ENDMDL
