MODEL 1
REMARK minimizedAffinity 11.3711348
REMARK minimizedRMSD -1
REMARK  0 active torsions:
REMARK  status: ('A' for Active; 'I' for Inactive)
ROOT
ATOM      1  N1  IND d   1      -0.328  -1.374  -1.579  0.00  0.00    -0.196 N 
ATOM      2  C2  IND d   1       1.016  -1.259  -1.800  0.00  0.00     0.054 A 
ATOM      3  C3  IND d   1       1.686  -1.244  -0.626  0.00  0.00    -0.031 A 
ATOM      4  C4  IND d   1       0.788  -1.498   1.773  0.00  0.00     0.051 A 
ATOM      5  C5  IND d   1      -0.376  -1.592   2.483  0.00  0.00    -0.031 A 
ATOM      6  C6  IND d   1      -1.608  -1.622   1.863  0.00  0.00     0.015 A 
ATOM      7  C7  IND d   1      -1.722  -1.570   0.503  0.00  0.00    -0.016 A 
ATOM      8  C8  IND d   1      -0.543  -1.467  -0.221  0.00  0.00    -0.047 A 
ATOM      9  C9  IND d   1       0.708  -1.393   0.404  0.00  0.00    -0.096 A 
ATOM     10  HN1 IND d   1      -0.937  -1.386  -2.186  0.00  0.00     0.298 HD
ENDROOT
TORSDOF 0
ENDMDL
