MODEL 1
REMARK minimizedAffinity 13.7455225
REMARK minimizedRMSD -1
REMARK  0 active torsions:
REMARK  status: ('A' for Active; 'I' for Inactive)
ROOT
ATOM      1  N1  IND d   1       2.238  -4.251  -0.693  0.00  0.00    -0.196 N 
ATOM      2  C2  IND d   1       1.372  -5.244  -0.329  0.00  0.00     0.054 A 
ATOM      3  C3  IND d   1       0.524  -4.803   0.627  0.00  0.00    -0.031 A 
ATOM      4  C4  IND d   1       0.309  -2.458   1.666  0.00  0.00     0.051 A 
ATOM      5  C5  IND d   1       0.903  -1.227   1.680  0.00  0.00    -0.031 A 
ATOM      6  C6  IND d   1       1.992  -0.934   0.884  0.00  0.00     0.015 A 
ATOM      7  C7  IND d   1       2.524  -1.862   0.034  0.00  0.00    -0.016 A 
ATOM      8  C8  IND d   1       1.928  -3.115   0.024  0.00  0.00    -0.047 A 
ATOM      9  C9  IND d   1       0.849  -3.431   0.859  0.00  0.00    -0.096 A 
ATOM     10  HN1 IND d   1       2.869  -4.322  -1.272  0.00  0.00     0.298 HD
ENDROOT
TORSDOF 0
ENDMDL
