MODEL 1
REMARK minimizedAffinity 6.76149416
REMARK minimizedRMSD -1
REMARK  0 active torsions:
REMARK  status: ('A' for Active; 'I' for Inactive)
ROOT
ATOM      1  N1  IND d   1      -1.968   3.496  -3.046  0.00  0.00    -0.196 N 
ATOM      2  C2  IND d   1      -1.359   2.281  -3.188  0.00  0.00     0.054 A 
ATOM      3  C3  IND d   1      -2.116   1.461  -3.952  0.00  0.00    -0.031 A 
ATOM      4  C4  IND d   1      -4.342   1.940  -5.153  0.00  0.00     0.051 A 
ATOM      5  C5  IND d   1      -5.308   2.897  -5.291  0.00  0.00    -0.031 A 
ATOM      6  C6  IND d   1      -5.207   4.128  -4.677  0.00  0.00     0.015 A 
ATOM      7  C7  IND d   1      -4.125   4.454  -3.908  0.00  0.00    -0.016 A 
ATOM      8  C8  IND d   1      -3.146   3.482  -3.760  0.00  0.00    -0.047 A 
ATOM      9  C9  IND d   1      -3.263   2.215  -4.347  0.00  0.00    -0.096 A 
ATOM     10  HN1 IND d   1      -1.667   4.157  -2.586  0.00  0.00     0.298 HD
ENDROOT
TORSDOF 0
ENDMDL
