MODEL 1
REMARK minimizedAffinity 15.9422121
REMARK minimizedRMSD -1
REMARK  0 active torsions:
REMARK  status: ('A' for Active; 'I' for Inactive)
ROOT
ATOM      1  N1  IND d   1      -1.487  -0.149   3.092  0.00  0.00    -0.196 N 
ATOM      2  C2  IND d   1      -2.480  -0.745   2.366  0.00  0.00     0.054 A 
ATOM      3  C3  IND d   1      -1.953  -1.596   1.457  0.00  0.00    -0.031 A 
ATOM      4  C4  IND d   1       0.507  -2.240   1.055  0.00  0.00     0.051 A 
ATOM      5  C5  IND d   1       1.780  -1.931   1.447  0.00  0.00    -0.031 A 
ATOM      6  C6  IND d   1       2.033  -0.995   2.429  0.00  0.00     0.015 A 
ATOM      7  C7  IND d   1       1.018  -0.339   3.067  0.00  0.00    -0.016 A 
ATOM      8  C8  IND d   1      -0.274  -0.645   2.666  0.00  0.00    -0.047 A 
ATOM      9  C9  IND d   1      -0.536  -1.563   1.641  0.00  0.00    -0.096 A 
ATOM     10  HN1 IND d   1      -1.601   0.438   3.710  0.00  0.00     0.298 HD
ENDROOT
TORSDOF 0
ENDMDL
