MODEL 1
REMARK minimizedAffinity 10.5118647
REMARK minimizedRMSD -1
REMARK  0 active torsions:
REMARK  status: ('A' for Active; 'I' for Inactive)
ROOT
ATOM      1  C   UNL d   1       5.877   3.020  -5.667  0.00  0.00     0.020 A 
ATOM      2  C1  UNL d   1       6.000   4.188  -4.916  0.00  0.00     0.020 A 
ATOM      3  C2  UNL d   1       4.857   4.866  -4.487  0.00  0.00     0.034 A 
ATOM      4  C3  UNL d   1       3.586   4.376  -4.809  0.00  0.00     0.017 A 
ATOM      5  C4  UNL d   1       3.464   3.203  -5.563  0.00  0.00     0.017 A 
ATOM      6  C5  UNL d   1       4.612   2.529  -5.990  0.00  0.00     0.034 A 
ATOM      7 Cl   UNL d   1       1.930   2.537  -6.000  0.00  0.00    -0.070 Cl
ATOM      8 Cl1  UNL d   1       2.215   5.264  -4.245  0.00  0.00    -0.070 Cl
ENDROOT
TORSDOF 0
ENDMDL
