MODEL 1
REMARK minimizedAffinity -3.93224835
REMARK minimizedRMSD -1
REMARK  0 active torsions:
REMARK  status: ('A' for Active; 'I' for Inactive)
ROOT
ATOM      1  C   UNL d   1      -5.624  -5.679   0.747  0.00  0.00     0.020 A 
ATOM      2  C1  UNL d   1      -5.624  -5.999  -0.610  0.00  0.00     0.020 A 
ATOM      3  C2  UNL d   1      -5.616  -4.982  -1.568  0.00  0.00     0.034 A 
ATOM      4  C3  UNL d   1      -5.607  -3.641  -1.169  0.00  0.00     0.017 A 
ATOM      5  C4  UNL d   1      -5.607  -3.320   0.193  0.00  0.00     0.017 A 
ATOM      6  C5  UNL d   1      -5.615  -4.342   1.147  0.00  0.00     0.034 A 
ATOM      7 Cl   UNL d   1      -5.596  -1.688   0.761  0.00  0.00    -0.070 Cl
ATOM      8 Cl1  UNL d   1      -5.597  -2.435  -2.407  0.00  0.00    -0.070 Cl
ENDROOT
TORSDOF 0
ENDMDL
