MODEL 1
REMARK minimizedAffinity 2.58738065
REMARK minimizedRMSD -1
REMARK  0 active torsions:
REMARK  status: ('A' for Active; 'I' for Inactive)
ROOT
ATOM      1  C   UNL d   1      -5.958  -1.734  -1.315  0.00  0.00     0.020 A 
ATOM      2  C1  UNL d   1      -5.862  -1.997  -2.681  0.00  0.00     0.020 A 
ATOM      3  C2  UNL d   1      -5.805  -3.317  -3.135  0.00  0.00     0.034 A 
ATOM      4  C3  UNL d   1      -5.844  -4.377  -2.222  0.00  0.00     0.017 A 
ATOM      5  C4  UNL d   1      -5.940  -4.112  -0.852  0.00  0.00     0.017 A 
ATOM      6  C5  UNL d   1      -5.997  -2.789  -0.403  0.00  0.00     0.034 A 
ATOM      7 Cl   UNL d   1      -5.994  -5.368   0.334  0.00  0.00    -0.070 Cl
ATOM      8 Cl1  UNL d   1      -5.770  -5.984  -2.854  0.00  0.00    -0.070 Cl
ENDROOT
TORSDOF 0
ENDMDL
