MODEL 1
REMARK minimizedAffinity 6.96323872
REMARK minimizedRMSD -1
REMARK  0 active torsions:
REMARK  status: ('A' for Active; 'I' for Inactive)
ROOT
ATOM      1  C   UNL d   1      -5.362  -5.998  -1.125  0.00  0.00     0.020 A 
ATOM      2  C1  UNL d   1      -5.005  -5.917   0.221  0.00  0.00     0.020 A 
ATOM      3  C2  UNL d   1      -4.849  -4.669   0.828  0.00  0.00     0.034 A 
ATOM      4  C3  UNL d   1      -5.049  -3.497   0.089  0.00  0.00     0.017 A 
ATOM      5  C4  UNL d   1      -5.407  -3.579  -1.261  0.00  0.00     0.017 A 
ATOM      6  C5  UNL d   1      -5.562  -4.831  -1.864  0.00  0.00     0.034 A 
ATOM      7 Cl   UNL d   1      -5.672  -2.177  -2.237  0.00  0.00    -0.070 Cl
ATOM      8 Cl1  UNL d   1      -4.839  -1.988   0.904  0.00  0.00    -0.070 Cl
ENDROOT
TORSDOF 0
ENDMDL
