MODEL 1
REMARK minimizedAffinity 0.797608733
REMARK minimizedRMSD -1
REMARK  0 active torsions:
REMARK  status: ('A' for Active; 'I' for Inactive)
ROOT
ATOM      1  C   UNL d   1      -5.725  -6.000  -0.125  0.00  0.00     0.020 A 
ATOM      2  C1  UNL d   1      -5.940  -5.994  -1.503  0.00  0.00     0.020 A 
ATOM      3  C2  UNL d   1      -5.977  -4.784  -2.199  0.00  0.00     0.034 A 
ATOM      4  C3  UNL d   1      -5.797  -3.575  -1.518  0.00  0.00     0.017 A 
ATOM      5  C4  UNL d   1      -5.581  -3.581  -0.136  0.00  0.00     0.017 A 
ATOM      6  C5  UNL d   1      -5.545  -4.796   0.557  0.00  0.00     0.034 A 
ATOM      7 Cl   UNL d   1      -5.351  -2.129   0.773  0.00  0.00    -0.070 Cl
ATOM      8 Cl1  UNL d   1      -5.854  -2.116  -2.443  0.00  0.00    -0.070 Cl
ENDROOT
TORSDOF 0
ENDMDL
