MODEL 1
REMARK minimizedAffinity -1.20623851
REMARK minimizedRMSD -1
REMARK  0 active torsions:
REMARK  status: ('A' for Active; 'I' for Inactive)
ROOT
ATOM      1  C   UNL d   1      -5.994  -5.788   0.637  0.00  0.00     0.020 A 
ATOM      2  C1  UNL d   1      -5.996  -5.997  -0.742  0.00  0.00     0.020 A 
ATOM      3  C2  UNL d   1      -5.998  -4.906  -1.613  0.00  0.00     0.034 A 
ATOM      4  C3  UNL d   1      -5.996  -3.601  -1.107  0.00  0.00     0.017 A 
ATOM      5  C4  UNL d   1      -5.994  -3.392   0.277  0.00  0.00     0.017 A 
ATOM      6  C5  UNL d   1      -5.992  -4.488   1.145  0.00  0.00     0.034 A 
ATOM      7 Cl   UNL d   1      -5.992  -1.811   0.975  0.00  0.00    -0.070 Cl
ATOM      8 Cl1  UNL d   1      -5.998  -2.299  -2.243  0.00  0.00    -0.070 Cl
ENDROOT
TORSDOF 0
ENDMDL
