MODEL 1
REMARK minimizedAffinity 1.7918632
REMARK minimizedRMSD -1
REMARK  0 active torsions:
REMARK  status: ('A' for Active; 'I' for Inactive)
ROOT
ATOM      1  C   UNL d   1       2.261   0.098  -3.287  0.00  0.00     0.020 A 
ATOM      2  C1  UNL d   1       1.253  -0.789  -2.910  0.00  0.00     0.020 A 
ATOM      3  C2  UNL d   1       0.390  -0.461  -1.863  0.00  0.00     0.034 A 
ATOM      4  C3  UNL d   1       0.532   0.757  -1.189  0.00  0.00     0.017 A 
ATOM      5  C4  UNL d   1       1.544   1.647  -1.568  0.00  0.00     0.017 A 
ATOM      6  C5  UNL d   1       2.406   1.313  -2.617  0.00  0.00     0.034 A 
ATOM      7 Cl   UNL d   1       1.782   3.168  -0.783  0.00  0.00    -0.070 Cl
ATOM      8 Cl1  UNL d   1      -0.571   1.098   0.097  0.00  0.00    -0.070 Cl
ENDROOT
TORSDOF 0
ENDMDL
