MODEL 1
REMARK minimizedAffinity 9.44343853
REMARK minimizedRMSD -1
REMARK  0 active torsions:
REMARK  status: ('A' for Active; 'I' for Inactive)
ROOT
ATOM      1  C   UNL d   1       2.826   5.397  -3.613  0.00  0.00     0.020 A 
ATOM      2  C1  UNL d   1       3.599   4.524  -4.378  0.00  0.00     0.020 A 
ATOM      3  C2  UNL d   1       3.700   3.180  -4.014  0.00  0.00     0.034 A 
ATOM      4  C3  UNL d   1       3.026   2.704  -2.883  0.00  0.00     0.017 A 
ATOM      5  C4  UNL d   1       2.250   3.581  -2.116  0.00  0.00     0.017 A 
ATOM      6  C5  UNL d   1       2.153   4.926  -2.485  0.00  0.00     0.034 A 
ATOM      7 Cl   UNL d   1       1.390   3.068  -0.708  0.00  0.00    -0.070 Cl
ATOM      8 Cl1  UNL d   1       3.195   1.029  -2.492  0.00  0.00    -0.070 Cl
ENDROOT
TORSDOF 0
ENDMDL
