MODEL 1
REMARK minimizedAffinity 8.48248672
REMARK minimizedRMSD -1
REMARK  0 active torsions:
REMARK  status: ('A' for Active; 'I' for Inactive)
ROOT
ATOM      1  C   UNL d   1       2.234   5.249  -5.038  0.00  0.00     0.020 A 
ATOM      2  C1  UNL d   1       1.657   4.175  -5.713  0.00  0.00     0.020 A 
ATOM      3  C2  UNL d   1       2.418   3.040  -6.000  0.00  0.00     0.034 A 
ATOM      4  C3  UNL d   1       3.762   2.977  -5.612  0.00  0.00     0.017 A 
ATOM      5  C4  UNL d   1       4.340   4.056  -4.934  0.00  0.00     0.017 A 
ATOM      6  C5  UNL d   1       3.573   5.190  -4.649  0.00  0.00     0.034 A 
ATOM      7 Cl   UNL d   1       5.991   4.052  -4.423  0.00  0.00    -0.070 Cl
ATOM      8 Cl1  UNL d   1       4.643   1.542  -5.999  0.00  0.00    -0.070 Cl
ENDROOT
TORSDOF 0
ENDMDL
