MODEL 1
REMARK minimizedAffinity 6.69818354
REMARK minimizedRMSD -1
REMARK  0 active torsions:
REMARK  status: ('A' for Active; 'I' for Inactive)
ROOT
ATOM      1  C   UNL d   1      -2.286   0.372   1.716  0.00  0.00     0.020 A 
ATOM      2  C1  UNL d   1      -1.067   0.874   2.169  0.00  0.00     0.020 A 
ATOM      3  C2  UNL d   1      -0.976   2.197   2.606  0.00  0.00     0.034 A 
ATOM      4  C3  UNL d   1      -2.106   3.023   2.590  0.00  0.00     0.017 A 
ATOM      5  C4  UNL d   1      -3.329   2.518   2.135  0.00  0.00     0.017 A 
ATOM      6  C5  UNL d   1      -3.415   1.192   1.699  0.00  0.00     0.034 A 
ATOM      7 Cl   UNL d   1      -4.767   3.476   2.086  0.00  0.00    -0.070 Cl
ATOM      8 Cl1  UNL d   1      -1.921   4.649   3.145  0.00  0.00    -0.070 Cl
ENDROOT
TORSDOF 0
ENDMDL
