MODEL 1
REMARK minimizedAffinity 3.4158721
REMARK minimizedRMSD -1
REMARK  0 active torsions:
REMARK  status: ('A' for Active; 'I' for Inactive)
ROOT
ATOM      1  C   UNL d   1      -5.285  -6.000  -1.281  0.00  0.00     0.020 A 
ATOM      2  C1  UNL d   1      -5.786  -5.753  -2.558  0.00  0.00     0.020 A 
ATOM      3  C2  UNL d   1      -5.999  -4.440  -2.983  0.00  0.00     0.034 A 
ATOM      4  C3  UNL d   1      -5.712  -3.369  -2.129  0.00  0.00     0.017 A 
ATOM      5  C4  UNL d   1      -5.209  -3.618  -0.847  0.00  0.00     0.017 A 
ATOM      6  C5  UNL d   1      -4.997  -4.934  -0.427  0.00  0.00     0.034 A 
ATOM      7 Cl   UNL d   1      -4.831  -2.348   0.263  0.00  0.00    -0.070 Cl
ATOM      8 Cl1  UNL d   1      -6.000  -1.771  -2.720  0.00  0.00    -0.070 Cl
ENDROOT
TORSDOF 0
ENDMDL
