MODEL 1
REMARK minimizedAffinity 13.7381105
REMARK minimizedRMSD -1
REMARK  0 active torsions:
REMARK  status: ('A' for Active; 'I' for Inactive)
ROOT
ATOM      1  C   UNL d   1       4.159   4.146  -3.847  0.00  0.00     0.020 A 
ATOM      2  C1  UNL d   1       3.151   5.002  -3.403  0.00  0.00     0.020 A 
ATOM      3  C2  UNL d   1       2.456   4.711  -2.227  0.00  0.00     0.034 A 
ATOM      4  C3  UNL d   1       2.768   3.563  -1.490  0.00  0.00     0.017 A 
ATOM      5  C4  UNL d   1       3.780   2.705  -1.936  0.00  0.00     0.017 A 
ATOM      6  C5  UNL d   1       4.472   3.000  -3.114  0.00  0.00     0.034 A 
ATOM      7 Cl   UNL d   1       4.222   1.270  -1.081  0.00  0.00    -0.070 Cl
ATOM      8 Cl1  UNL d   1       1.869   3.267  -0.045  0.00  0.00    -0.070 Cl
ENDROOT
TORSDOF 0
ENDMDL
