MODEL 1
REMARK minimizedAffinity 10.2260637
REMARK minimizedRMSD -1
REMARK  0 active torsions:
REMARK  status: ('A' for Active; 'I' for Inactive)
ROOT
ATOM      1  C   UNL d   1       1.063  -1.329  -3.002  0.00  0.00     0.020 A 
ATOM      2  C1  UNL d   1       2.137  -0.589  -3.495  0.00  0.00     0.020 A 
ATOM      3  C2  UNL d   1       2.324   0.731  -3.079  0.00  0.00     0.034 A 
ATOM      4  C3  UNL d   1       1.437   1.315  -2.168  0.00  0.00     0.017 A 
ATOM      5  C4  UNL d   1       0.360   0.571  -1.673  0.00  0.00     0.017 A 
ATOM      6  C5  UNL d   1       0.176  -0.750  -2.093  0.00  0.00     0.034 A 
ATOM      7 Cl   UNL d   1      -0.777   1.222  -0.546  0.00  0.00    -0.070 Cl
ATOM      8 Cl1  UNL d   1       1.730   2.951  -1.697  0.00  0.00    -0.070 Cl
ENDROOT
TORSDOF 0
ENDMDL
