MODEL 1
REMARK minimizedAffinity 3.20387316
REMARK minimizedRMSD -1
REMARK  0 active torsions:
REMARK  status: ('A' for Active; 'I' for Inactive)
ROOT
ATOM      1  C   UNL d   1       1.868   2.232   3.984  0.00  0.00     0.020 A 
ATOM      2  C1  UNL d   1       1.918   0.894   3.596  0.00  0.00     0.020 A 
ATOM      3  C2  UNL d   1       0.792   0.287   3.036  0.00  0.00     0.034 A 
ATOM      4  C3  UNL d   1      -0.389   1.017   2.864  0.00  0.00     0.017 A 
ATOM      5  C4  UNL d   1      -0.439   2.360   3.254  0.00  0.00     0.017 A 
ATOM      6  C5  UNL d   1       0.692   2.963   3.814  0.00  0.00     0.034 A 
ATOM      7 Cl   UNL d   1      -1.860   3.327   3.073  0.00  0.00    -0.070 Cl
ATOM      8 Cl1  UNL d   1      -1.743   0.203   2.165  0.00  0.00    -0.070 Cl
ENDROOT
TORSDOF 0
ENDMDL
