MODEL 1
REMARK minimizedAffinity 1.97383463
REMARK minimizedRMSD -1
REMARK  0 active torsions:
REMARK  status: ('A' for Active; 'I' for Inactive)
ROOT
ATOM      1  C   UNL d   1      -5.482  -4.801   2.438  0.00  0.00     0.020 A 
ATOM      2  C1  UNL d   1      -5.480  -6.000   1.726  0.00  0.00     0.020 A 
ATOM      3  C2  UNL d   1      -5.640  -5.989   0.339  0.00  0.00     0.034 A 
ATOM      4  C3  UNL d   1      -5.802  -4.776  -0.341  0.00  0.00     0.017 A 
ATOM      5  C4  UNL d   1      -5.803  -3.573   0.374  0.00  0.00     0.017 A 
ATOM      6  C5  UNL d   1      -5.643  -3.590   1.763  0.00  0.00     0.034 A 
ATOM      7 Cl   UNL d   1      -5.998  -2.038  -0.395  0.00  0.00    -0.070 Cl
ATOM      8 Cl1  UNL d   1      -5.994  -4.837  -2.057  0.00  0.00    -0.070 Cl
ENDROOT
TORSDOF 0
ENDMDL
