MODEL 1
REMARK minimizedAffinity 7.91695547
REMARK minimizedRMSD -1
REMARK  0 active torsions:
REMARK  status: ('A' for Active; 'I' for Inactive)
ROOT
ATOM      1  C   UNL d   1       2.704   5.882  -5.121  0.00  0.00     0.020 A 
ATOM      2  C1  UNL d   1       1.780   4.994  -5.669  0.00  0.00     0.020 A 
ATOM      3  C2  UNL d   1       2.151   3.673  -5.932  0.00  0.00     0.034 A 
ATOM      4  C3  UNL d   1       3.450   3.238  -5.645  0.00  0.00     0.017 A 
ATOM      5  C4  UNL d   1       4.377   4.130  -5.094  0.00  0.00     0.017 A 
ATOM      6  C5  UNL d   1       3.999   5.451  -4.834  0.00  0.00     0.034 A 
ATOM      7 Cl   UNL d   1       5.998   3.666  -4.714  0.00  0.00    -0.070 Cl
ATOM      8 Cl1  UNL d   1       3.841   1.591  -5.995  0.00  0.00    -0.070 Cl
ENDROOT
TORSDOF 0
ENDMDL
