MODEL 1
REMARK minimizedAffinity 4.28327274
REMARK minimizedRMSD -1
REMARK  0 active torsions:
REMARK  status: ('A' for Active; 'I' for Inactive)
ROOT
ATOM      1  C   UNL d   1      -0.555  -0.037   4.130  0.00  0.00     0.020 A 
ATOM      2  C1  UNL d   1       0.748  -0.386   3.777  0.00  0.00     0.020 A 
ATOM      3  C2  UNL d   1       1.591   0.562   3.192  0.00  0.00     0.034 A 
ATOM      4  C3  UNL d   1       1.131   1.863   2.957  0.00  0.00     0.017 A 
ATOM      5  C4  UNL d   1      -0.177   2.212   3.311  0.00  0.00     0.017 A 
ATOM      6  C5  UNL d   1      -1.016   1.260   3.897  0.00  0.00     0.034 A 
ATOM      7 Cl   UNL d   1      -0.815   3.798   3.053  0.00  0.00    -0.070 Cl
ATOM      8 Cl1  UNL d   1       2.228   2.983   2.230  0.00  0.00    -0.070 Cl
ENDROOT
TORSDOF 0
ENDMDL
