MODEL 1
REMARK minimizedAffinity 7.45271349
REMARK minimizedRMSD -1
REMARK  0 active torsions:
REMARK  status: ('A' for Active; 'I' for Inactive)
ROOT
ATOM      1  C   UNL d   1       4.182  -6.000   4.201  0.00  0.00     0.020 A 
ATOM      2  C1  UNL d   1       4.726  -5.731   5.456  0.00  0.00     0.020 A 
ATOM      3  C2  UNL d   1       4.640  -4.445   5.993  0.00  0.00     0.034 A 
ATOM      4  C3  UNL d   1       4.010  -3.423   5.275  0.00  0.00     0.017 A 
ATOM      5  C4  UNL d   1       3.465  -3.693   4.014  0.00  0.00     0.017 A 
ATOM      6  C5  UNL d   1       3.553  -4.983   3.481  0.00  0.00     0.034 A 
ATOM      7 Cl   UNL d   1       2.673  -2.483   3.068  0.00  0.00    -0.070 Cl
ATOM      8 Cl1  UNL d   1       3.941  -1.856   6.000  0.00  0.00    -0.070 Cl
ENDROOT
TORSDOF 0
ENDMDL
