MODEL 1
REMARK minimizedAffinity 8.12679482
REMARK minimizedRMSD -1
REMARK  0 active torsions:
REMARK  status: ('A' for Active; 'I' for Inactive)
ROOT
ATOM      1  C   UNL d   1       1.848  -3.003   1.917  0.00  0.00     0.020 A 
ATOM      2  C1  UNL d   1       1.506  -4.341   1.725  0.00  0.00     0.020 A 
ATOM      3  C2  UNL d   1       2.467  -5.250   1.277  0.00  0.00     0.034 A 
ATOM      4  C3  UNL d   1       3.774  -4.822   1.018  0.00  0.00     0.017 A 
ATOM      5  C4  UNL d   1       4.116  -3.478   1.211  0.00  0.00     0.017 A 
ATOM      6  C5  UNL d   1       3.150  -2.573   1.660  0.00  0.00     0.034 A 
ATOM      7 Cl   UNL d   1       5.708  -2.876   0.913  0.00  0.00    -0.070 Cl
ATOM      8 Cl1  UNL d   1       4.911  -6.000   0.466  0.00  0.00    -0.070 Cl
ENDROOT
TORSDOF 0
ENDMDL
