MODEL 1
REMARK minimizedAffinity 11.9281492
REMARK minimizedRMSD -1
REMARK  0 active torsions:
REMARK  status: ('A' for Active; 'I' for Inactive)
ROOT
ATOM      1  C   UNL d   1      -5.707  -1.149  -4.076  0.00  0.00     0.020 A 
ATOM      2  C1  UNL d   1      -4.677  -2.078  -4.220  0.00  0.00     0.020 A 
ATOM      3  C2  UNL d   1      -3.656  -2.142  -3.270  0.00  0.00     0.034 A 
ATOM      4  C3  UNL d   1      -3.662  -1.276  -2.171  0.00  0.00     0.017 A 
ATOM      5  C4  UNL d   1      -4.696  -0.343  -2.026  0.00  0.00     0.017 A 
ATOM      6  C5  UNL d   1      -5.716  -0.283  -2.981  0.00  0.00     0.034 A 
ATOM      7 Cl   UNL d   1      -4.772   0.758  -0.697  0.00  0.00    -0.070 Cl
ATOM      8 Cl1  UNL d   1      -2.368  -1.411  -1.034  0.00  0.00    -0.070 Cl
ENDROOT
TORSDOF 0
ENDMDL
