MODEL 1
REMARK minimizedAffinity 10.1610775
REMARK minimizedRMSD -1
REMARK  0 active torsions:
REMARK  status: ('A' for Active; 'I' for Inactive)
ROOT
ATOM      1  C   UNL d   1       4.027  -5.254  -0.819  0.00  0.00     0.020 A 
ATOM      2  C1  UNL d   1       5.410  -5.281  -0.650  0.00  0.00     0.020 A 
ATOM      3  C2  UNL d   1       5.999  -4.581   0.406  0.00  0.00     0.034 A 
ATOM      4  C3  UNL d   1       5.203  -3.850   1.296  0.00  0.00     0.017 A 
ATOM      5  C4  UNL d   1       3.814  -3.824   1.125  0.00  0.00     0.017 A 
ATOM      6  C5  UNL d   1       3.230  -4.527   0.067  0.00  0.00     0.034 A 
ATOM      7 Cl   UNL d   1       2.767  -2.945   2.182  0.00  0.00    -0.070 Cl
ATOM      8 Cl1  UNL d   1       5.998  -3.008   2.578  0.00  0.00    -0.070 Cl
ENDROOT
TORSDOF 0
ENDMDL
