MODEL 1
REMARK minimizedAffinity 3.01570272
REMARK minimizedRMSD -1
REMARK  0 active torsions:
REMARK  status: ('A' for Active; 'I' for Inactive)
ROOT
ATOM      1  C   UNL d   1       4.616  -4.044   5.999  0.00  0.00     0.020 A 
ATOM      2  C1  UNL d   1       4.754  -5.411   5.764  0.00  0.00     0.020 A 
ATOM      3  C2  UNL d   1       4.134  -5.995   4.657  0.00  0.00     0.034 A 
ATOM      4  C3  UNL d   1       3.373  -5.212   3.782  0.00  0.00     0.017 A 
ATOM      5  C4  UNL d   1       3.235  -3.839   4.019  0.00  0.00     0.017 A 
ATOM      6  C5  UNL d   1       3.859  -3.260   5.129  0.00  0.00     0.034 A 
ATOM      7 Cl   UNL d   1       2.313  -2.807   2.984  0.00  0.00    -0.070 Cl
ATOM      8 Cl1  UNL d   1       2.635  -6.000   2.433  0.00  0.00    -0.070 Cl
ENDROOT
TORSDOF 0
ENDMDL
