MODEL 1
REMARK minimizedAffinity 9.36001301
REMARK minimizedRMSD -1
REMARK  0 active torsions:
REMARK  status: ('A' for Active; 'I' for Inactive)
ROOT
ATOM      1  C   UNL d   1      -5.693  -1.304  -4.173  0.00  0.00     0.020 A 
ATOM      2  C1  UNL d   1      -4.743  -2.319  -4.275  0.00  0.00     0.020 A 
ATOM      3  C2  UNL d   1      -3.660  -2.353  -3.393  0.00  0.00     0.034 A 
ATOM      4  C3  UNL d   1      -3.526  -1.370  -2.406  0.00  0.00     0.017 A 
ATOM      5  C4  UNL d   1      -4.481  -0.352  -2.305  0.00  0.00     0.017 A 
ATOM      6  C5  UNL d   1      -5.562  -0.323  -3.190  0.00  0.00     0.034 A 
ATOM      7 Cl   UNL d   1      -4.383   0.896  -1.112  0.00  0.00    -0.070 Cl
ATOM      8 Cl1  UNL d   1      -2.163  -1.474  -1.349  0.00  0.00    -0.070 Cl
ENDROOT
TORSDOF 0
ENDMDL
