MODEL 1
REMARK minimizedAffinity 13.2779627
REMARK minimizedRMSD -1
REMARK  0 active torsions:
REMARK  status: ('A' for Active; 'I' for Inactive)
ROOT
ATOM      1  C   UNL d   1      -4.811  -1.828  -4.220  0.00  0.00     0.020 A 
ATOM      2  C1  UNL d   1      -5.737  -0.827  -3.930  0.00  0.00     0.020 A 
ATOM      3  C2  UNL d   1      -5.546   0.001  -2.822  0.00  0.00     0.034 A 
ATOM      4  C3  UNL d   1      -4.426  -0.170  -2.000  0.00  0.00     0.017 A 
ATOM      5  C4  UNL d   1      -3.498  -1.176  -2.292  0.00  0.00     0.017 A 
ATOM      6  C5  UNL d   1      -3.694  -2.002  -3.402  0.00  0.00     0.034 A 
ATOM      7 Cl   UNL d   1      -2.092  -1.448  -1.324  0.00  0.00    -0.070 Cl
ATOM      8 Cl1  UNL d   1      -4.253   0.891  -0.647  0.00  0.00    -0.070 Cl
ENDROOT
TORSDOF 0
ENDMDL
