MODEL 1
REMARK minimizedAffinity 1.90333664
REMARK minimizedRMSD -1
REMARK  0 active torsions:
REMARK  status: ('A' for Active; 'I' for Inactive)
ROOT
ATOM      1  C   UNL d   1       0.972  -2.839   2.555  0.00  0.00     0.020 A 
ATOM      2  C1  UNL d   1       1.516  -2.860   1.272  0.00  0.00     0.020 A 
ATOM      3  C2  UNL d   1       2.737  -3.498   1.041  0.00  0.00     0.034 A 
ATOM      4  C3  UNL d   1       3.418  -4.116   2.096  0.00  0.00     0.017 A 
ATOM      5  C4  UNL d   1       2.871  -4.095   3.384  0.00  0.00     0.017 A 
ATOM      6  C5  UNL d   1       1.648  -3.455   3.609  0.00  0.00     0.034 A 
ATOM      7 Cl   UNL d   1       3.652  -4.836   4.736  0.00  0.00    -0.070 Cl
ATOM      8 Cl1  UNL d   1       4.923  -4.886   1.739  0.00  0.00    -0.070 Cl
ENDROOT
TORSDOF 0
ENDMDL
