MODEL 1
REMARK minimizedAffinity 1.33278394
REMARK minimizedRMSD -1
REMARK  0 active torsions:
REMARK  status: ('A' for Active; 'I' for Inactive)
ROOT
ATOM      1  C   UNL d   1       2.625  -4.152   2.277  0.00  0.00     0.020 A 
ATOM      2  C1  UNL d   1       3.136  -5.448   2.222  0.00  0.00     0.020 A 
ATOM      3  C2  UNL d   1       3.763  -5.999   3.341  0.00  0.00     0.034 A 
ATOM      4  C3  UNL d   1       3.880  -5.254   4.520  0.00  0.00     0.017 A 
ATOM      5  C4  UNL d   1       3.367  -3.954   4.574  0.00  0.00     0.017 A 
ATOM      6  C5  UNL d   1       2.740  -3.407   3.451  0.00  0.00     0.034 A 
ATOM      7 Cl   UNL d   1       3.473  -2.973   5.994  0.00  0.00    -0.070 Cl
ATOM      8 Cl1  UNL d   1       4.667  -5.999   5.866  0.00  0.00    -0.070 Cl
ENDROOT
TORSDOF 0
ENDMDL
