MODEL 1
REMARK minimizedAffinity 12.1413145
REMARK minimizedRMSD -1
REMARK  0 active torsions:
REMARK  status: ('A' for Active; 'I' for Inactive)
ROOT
ATOM      1  C   UNL d   1       0.211  -2.161   1.669  0.00  0.00     0.020 A 
ATOM      2  C1  UNL d   1       0.627  -1.570   2.861  0.00  0.00     0.020 A 
ATOM      3  C2  UNL d   1       1.820  -1.976   3.463  0.00  0.00     0.034 A 
ATOM      4  C3  UNL d   1       2.601  -2.977   2.874  0.00  0.00     0.017 A 
ATOM      5  C4  UNL d   1       2.183  -3.570   1.677  0.00  0.00     0.017 A 
ATOM      6  C5  UNL d   1       0.987  -3.159   1.078  0.00  0.00     0.034 A 
ATOM      7 Cl   UNL d   1       3.093  -4.810   0.890  0.00  0.00    -0.070 Cl
ATOM      8 Cl1  UNL d   1       4.064  -3.429   3.673  0.00  0.00    -0.070 Cl
ENDROOT
TORSDOF 0
ENDMDL
