MODEL 1
REMARK minimizedAffinity -0.176854059
REMARK minimizedRMSD -1
REMARK  0 active torsions:
REMARK  status: ('A' for Active; 'I' for Inactive)
ROOT
ATOM      1  C   UNL d   1       5.164  -5.645   5.338  0.00  0.00     0.020 A 
ATOM      2  C1  UNL d   1       4.855  -5.999   4.025  0.00  0.00     0.020 A 
ATOM      3  C2  UNL d   1       3.926  -5.250   3.301  0.00  0.00     0.034 A 
ATOM      4  C3  UNL d   1       3.301  -4.144   3.888  0.00  0.00     0.017 A 
ATOM      5  C4  UNL d   1       3.612  -3.790   5.206  0.00  0.00     0.017 A 
ATOM      6  C5  UNL d   1       4.544  -4.543   5.927  0.00  0.00     0.034 A 
ATOM      7 Cl   UNL d   1       2.883  -2.438   5.999  0.00  0.00    -0.070 Cl
ATOM      8 Cl1  UNL d   1       2.162  -3.263   2.934  0.00  0.00    -0.070 Cl
ENDROOT
TORSDOF 0
ENDMDL
