MODEL 1
REMARK minimizedAffinity -4.74204779
REMARK minimizedRMSD -1
REMARK  1 active torsions:
REMARK  status: ('A' for Active; 'I' for Inactive)
REMARK    1  A    between atoms: C3_4  and  O_7 
ROOT
ATOM      1  C   UNL d   1       1.188   0.533  -0.317  0.00  0.00    -0.033 A 
ATOM      2  C1  UNL d   1       1.110   1.085  -1.597  0.00  0.00     0.039 A 
ATOM      3  C2  UNL d   1       1.140   2.471  -1.765  0.00  0.00    -0.080 A 
ATOM      4  C3  UNL d   1       1.249   3.292  -0.646  0.00  0.00     0.150 A 
ATOM      5  C4  UNL d   1       1.331   2.749   0.632  0.00  0.00    -0.007 A 
ATOM      6  C5  UNL d   1       1.300   1.365   0.797  0.00  0.00     0.039 A 
ENDROOT
BRANCH   4   7
ATOM      7  O   UNL d   1       1.277   4.650  -0.760  0.00  0.00    -0.526 OA
ATOM      8  H5  UNL d   1       1.183   4.883  -1.698  0.00  0.00     0.418 HD
ENDBRANCH   4   7
TORSDOF 1
ENDMDL
