MODEL 1
REMARK minimizedAffinity -3.4558897
REMARK minimizedRMSD -1
REMARK  1 active torsions:
REMARK  status: ('A' for Active; 'I' for Inactive)
REMARK    1  A    between atoms: C3_4  and  O_7 
ROOT
ATOM      1  C   UNL d   1       1.137  -0.217  -1.401  0.00  0.00    -0.033 A 
ATOM      2  C1  UNL d   1       1.075  -0.112  -0.010  0.00  0.00     0.039 A 
ATOM      3  C2  UNL d   1       1.088   1.145   0.598  0.00  0.00    -0.080 A 
ATOM      4  C3  UNL d   1       1.161   2.287  -0.195  0.00  0.00     0.150 A 
ATOM      5  C4  UNL d   1       1.219   2.189  -1.582  0.00  0.00    -0.007 A 
ATOM      6  C5  UNL d   1       1.207   0.934  -2.187  0.00  0.00     0.039 A 
ENDROOT
BRANCH   4   7
ATOM      7  O   UNL d   1       1.181   3.535   0.353  0.00  0.00    -0.526 OA
ATOM      8  H5  UNL d   1       1.165   3.447   1.320  0.00  0.00     0.418 HD
ENDBRANCH   4   7
TORSDOF 1
ENDMDL
