MODEL 1
REMARK minimizedAffinity -2.4343133
REMARK minimizedRMSD -1
REMARK  1 active torsions:
REMARK  status: ('A' for Active; 'I' for Inactive)
REMARK    1  A    between atoms: C3_4  and  O_7 
ROOT
ATOM      1  C   UNL d   1       0.964   0.271  -0.667  0.00  0.00    -0.033 A 
ATOM      2  C1  UNL d   1       1.349   0.803  -1.900  0.00  0.00     0.039 A 
ATOM      3  C2  UNL d   1       1.485   2.184  -2.055  0.00  0.00    -0.080 A 
ATOM      4  C3  UNL d   1       1.234   3.021  -0.971  0.00  0.00     0.150 A 
ATOM      5  C4  UNL d   1       0.853   2.498   0.260  0.00  0.00    -0.007 A 
ATOM      6  C5  UNL d   1       0.717   1.119   0.413  0.00  0.00     0.039 A 
ENDROOT
BRANCH   4   7
ATOM      7  O   UNL d   1       1.348   4.375  -1.076  0.00  0.00    -0.526 OA
ATOM      8  H5  UNL d   1       1.590   4.594  -1.992  0.00  0.00     0.418 HD
ENDBRANCH   4   7
TORSDOF 1
ENDMDL
