MODEL 1
REMARK minimizedAffinity -0.165583968
REMARK minimizedRMSD -1
REMARK  1 active torsions:
REMARK  status: ('A' for Active; 'I' for Inactive)
REMARK    1  A    between atoms: C3_4  and  O_7 
ROOT
ATOM      1  C   UNL d   1       0.928   0.281  -0.032  0.00  0.00    -0.033 A 
ATOM      2  C1  UNL d   1       1.282   1.419   0.695  0.00  0.00     0.039 A 
ATOM      3  C2  UNL d   1       1.683   2.579   0.029  0.00  0.00    -0.080 A 
ATOM      4  C3  UNL d   1       1.725   2.588  -1.362  0.00  0.00     0.150 A 
ATOM      5  C4  UNL d   1       1.370   1.459  -2.094  0.00  0.00    -0.007 A 
ATOM      6  C5  UNL d   1       0.970   0.302  -1.427  0.00  0.00     0.039 A 
ENDROOT
BRANCH   4   7
ATOM      7  O   UNL d   1       2.115   3.695  -2.056  0.00  0.00    -0.526 OA
ATOM      8  H5  UNL d   1       2.358   4.388  -1.420  0.00  0.00     0.418 HD
ENDBRANCH   4   7
TORSDOF 1
ENDMDL
