MODEL 1
REMARK minimizedAffinity -3.16838741
REMARK minimizedRMSD -1
REMARK  1 active torsions:
REMARK  status: ('A' for Active; 'I' for Inactive)
REMARK    1  A    between atoms: C3_4  and  O_7 
ROOT
ATOM      1  C   UNL d   1       0.905   1.167  -0.661  0.00  0.00    -0.033 A 
ATOM      2  C1  UNL d   1       0.879   1.821   0.572  0.00  0.00     0.039 A 
ATOM      3  C2  UNL d   1       1.215   3.173   0.655  0.00  0.00    -0.080 A 
ATOM      4  C3  UNL d   1       1.573   3.860  -0.502  0.00  0.00     0.150 A 
ATOM      5  C4  UNL d   1       1.597   3.217  -1.735  0.00  0.00    -0.007 A 
ATOM      6  C5  UNL d   1       1.263   1.865  -1.815  0.00  0.00     0.039 A 
ENDROOT
BRANCH   4   7
ATOM      7  O   UNL d   1       1.913   5.180  -0.470  0.00  0.00    -0.526 OA
ATOM      8  H5  UNL d   1       1.879   5.485   0.452  0.00  0.00     0.418 HD
ENDBRANCH   4   7
TORSDOF 1
ENDMDL
