MODEL 1
REMARK minimizedAffinity -3.72734642
REMARK minimizedRMSD -1
REMARK  1 active torsions:
REMARK  status: ('A' for Active; 'I' for Inactive)
REMARK    1  A    between atoms: C3_4  and  O_7 
ROOT
ATOM      1  C   UNL d   1       0.791  -0.018   0.008  0.00  0.00    -0.033 A 
ATOM      2  C1  UNL d   1       0.873   1.098   0.843  0.00  0.00     0.039 A 
ATOM      3  C2  UNL d   1       1.095   2.364   0.299  0.00  0.00    -0.080 A 
ATOM      4  C3  UNL d   1       1.233   2.501  -1.079  0.00  0.00     0.150 A 
ATOM      5  C4  UNL d   1       1.149   1.394  -1.918  0.00  0.00    -0.007 A 
ATOM      6  C5  UNL d   1       0.928   0.130  -1.372  0.00  0.00     0.039 A 
ENDROOT
BRANCH   4   7
ATOM      7  O   UNL d   1       1.455   3.716  -1.656  0.00  0.00    -0.526 OA
ATOM      8  H5  UNL d   1       1.518   4.384  -0.953  0.00  0.00     0.418 HD
ENDBRANCH   4   7
TORSDOF 1
ENDMDL
