MODEL 1
REMARK minimizedAffinity 1.08507836
REMARK minimizedRMSD -1
REMARK  1 active torsions:
REMARK  status: ('A' for Active; 'I' for Inactive)
REMARK    1  A    between atoms: C3_4  and  O_7 
ROOT
ATOM      1  C   UNL d   1       1.513   2.524   1.057  0.00  0.00    -0.033 A 
ATOM      2  C1  UNL d   1       1.516   3.787   1.651  0.00  0.00     0.039 A 
ATOM      3  C2  UNL d   1       1.690   4.929   0.866  0.00  0.00    -0.080 A 
ATOM      4  C3  UNL d   1       1.857   4.794  -0.509  0.00  0.00     0.150 A 
ATOM      5  C4  UNL d   1       1.851   3.539  -1.108  0.00  0.00    -0.007 A 
ATOM      6  C5  UNL d   1       1.679   2.400  -0.323  0.00  0.00     0.039 A 
ENDROOT
BRANCH   4   7
ATOM      7  O   UNL d   1       2.035   5.879  -1.315  0.00  0.00    -0.526 OA
ATOM      8  H5  UNL d   1       2.046   6.677  -0.760  0.00  0.00     0.418 HD
ENDBRANCH   4   7
TORSDOF 1
ENDMDL
