MODEL 1
REMARK minimizedAffinity -3.06890368
REMARK minimizedRMSD -1
REMARK  1 active torsions:
REMARK  status: ('A' for Active; 'I' for Inactive)
REMARK    1  A    between atoms: C3_4  and  O_7 
ROOT
ATOM      1  C   UNL d   1       0.670   1.232  -0.587  0.00  0.00    -0.033 A 
ATOM      2  C1  UNL d   1       0.781   2.168   0.443  0.00  0.00     0.039 A 
ATOM      3  C2  UNL d   1       1.177   3.477   0.159  0.00  0.00    -0.080 A 
ATOM      4  C3  UNL d   1       1.456   3.836  -1.156  0.00  0.00     0.150 A 
ATOM      5  C4  UNL d   1       1.344   2.910  -2.188  0.00  0.00    -0.007 A 
ATOM      6  C5  UNL d   1       0.950   1.603  -1.902  0.00  0.00     0.039 A 
ENDROOT
BRANCH   4   7
ATOM      7  O   UNL d   1       1.850   5.100  -1.482  0.00  0.00    -0.526 OA
ATOM      8  H5  UNL d   1       1.912   5.623  -0.665  0.00  0.00     0.418 HD
ENDBRANCH   4   7
TORSDOF 1
ENDMDL
