MODEL 1
REMARK minimizedAffinity 3.66796851
REMARK minimizedRMSD -1
REMARK  1 active torsions:
REMARK  status: ('A' for Active; 'I' for Inactive)
REMARK    1  A    between atoms: C3_4  and  O_7 
ROOT
ATOM      1  C   UNL d   1       0.516   0.898  -2.019  0.00  0.00    -0.033 A 
ATOM      2  C1  UNL d   1      -0.369   1.977  -1.979  0.00  0.00     0.039 A 
ATOM      3  C2  UNL d   1       0.121   3.281  -1.879  0.00  0.00    -0.080 A 
ATOM      4  C3  UNL d   1       1.496   3.491  -1.822  0.00  0.00     0.150 A 
ATOM      5  C4  UNL d   1       2.384   2.421  -1.866  0.00  0.00    -0.007 A 
ATOM      6  C5  UNL d   1       1.893   1.120  -1.964  0.00  0.00     0.039 A 
ENDROOT
BRANCH   4   7
ATOM      7  O   UNL d   1       2.021   4.745  -1.720  0.00  0.00    -0.526 OA
ATOM      8  H5  UNL d   1       1.289   5.382  -1.671  0.00  0.00     0.418 HD
ENDBRANCH   4   7
TORSDOF 1
ENDMDL
