MODEL 1
REMARK minimizedAffinity 2.34399843
REMARK minimizedRMSD -1
REMARK  1 active torsions:
REMARK  status: ('A' for Active; 'I' for Inactive)
REMARK    1  A    between atoms: C3_4  and  O_7 
ROOT
ATOM      1  C   UNL d   1       1.420   1.383  -0.088  0.00  0.00    -0.033 A 
ATOM      2  C1  UNL d   1       0.650   1.177  -1.235  0.00  0.00     0.039 A 
ATOM      3  C2  UNL d   1       0.376  -0.121  -1.670  0.00  0.00    -0.080 A 
ATOM      4  C3  UNL d   1       0.876  -1.203  -0.951  0.00  0.00     0.150 A 
ATOM      5  C4  UNL d   1       1.641  -1.005   0.194  0.00  0.00    -0.007 A 
ATOM      6  C5  UNL d   1       1.914   0.292   0.627  0.00  0.00     0.039 A 
ENDROOT
BRANCH   4   7
ATOM      7  O   UNL d   1       0.639  -2.488  -1.339  0.00  0.00    -0.526 OA
ATOM      8  H5  UNL d   1       0.122  -2.470  -2.162  0.00  0.00     0.418 HD
ENDBRANCH   4   7
TORSDOF 1
ENDMDL
