MODEL 1
REMARK minimizedAffinity -2.81001186
REMARK minimizedRMSD -1
REMARK  1 active torsions:
REMARK  status: ('A' for Active; 'I' for Inactive)
REMARK    1  A    between atoms: C3_4  and  O_7 
ROOT
ATOM      1  C   UNL d   1       1.457   1.989   0.066  0.00  0.00    -0.033 A 
ATOM      2  C1  UNL d   1       1.672   2.293  -1.280  0.00  0.00     0.039 A 
ATOM      3  C2  UNL d   1       1.904   3.614  -1.671  0.00  0.00    -0.080 A 
ATOM      4  C3  UNL d   1       1.920   4.619  -0.708  0.00  0.00     0.150 A 
ATOM      5  C4  UNL d   1       1.710   4.323   0.635  0.00  0.00    -0.007 A 
ATOM      6  C5  UNL d   1       1.478   3.004   1.023  0.00  0.00     0.039 A 
ENDROOT
BRANCH   4   7
ATOM      7  O   UNL d   1       2.137   5.922  -1.042  0.00  0.00    -0.526 OA
ATOM      8  H5  UNL d   1       2.237   5.980  -2.007  0.00  0.00     0.418 HD
ENDBRANCH   4   7
TORSDOF 1
ENDMDL
