MODEL 1
REMARK minimizedAffinity -2.61900949
REMARK minimizedRMSD -1
REMARK  1 active torsions:
REMARK  status: ('A' for Active; 'I' for Inactive)
REMARK    1  A    between atoms: C3_4  and  O_7 
ROOT
ATOM      1  C   UNL d   1       1.369   4.211  -0.279  0.00  0.00    -0.033 A 
ATOM      2  C1  UNL d   1       1.081   3.358   0.788  0.00  0.00     0.039 A 
ATOM      3  C2  UNL d   1       0.986   1.981   0.578  0.00  0.00    -0.080 A 
ATOM      4  C3  UNL d   1       1.182   1.470  -0.703  0.00  0.00     0.150 A 
ATOM      5  C4  UNL d   1       1.473   2.314  -1.770  0.00  0.00    -0.007 A 
ATOM      6  C5  UNL d   1       1.566   3.689  -1.558  0.00  0.00     0.039 A 
ENDROOT
BRANCH   4   7
ATOM      7  O   UNL d   1       1.095   0.134  -0.958  0.00  0.00    -0.526 OA
ATOM      8  H5  UNL d   1       0.860  -0.322  -0.133  0.00  0.00     0.418 HD
ENDBRANCH   4   7
TORSDOF 1
ENDMDL
