MODEL 1
REMARK minimizedAffinity 3.73824167
REMARK minimizedRMSD -1
REMARK  2 active torsions:
REMARK  status: ('A' for Active; 'I' for Inactive)
REMARK    1  A    between atoms: C1_2  and  C2_3 
REMARK    2  A    between atoms: C2_3  and  C3_4 
ROOT
ATOM      1  C3  UNL d   1       3.841   2.355   2.926  0.00  0.00    -0.075 A 
ATOM      2  C4  UNL d   1       4.154   3.259   3.952  0.00  0.00     0.002 A 
ATOM      3  C5  UNL d   1       4.376   4.606   3.666  0.00  0.00     0.002 A 
ATOM      4  C6  UNL d   1       4.297   5.065   2.353  0.00  0.00    -0.004 A 
ATOM      5  C7  UNL d   1       4.003   4.173   1.324  0.00  0.00     0.002 A 
ATOM      6  C8  UNL d   1       3.776   2.825   1.608  0.00  0.00     0.002 A 
ENDROOT
BRANCH   1   7
ATOM      7  C2  UNL d   1       3.571   0.902   3.233  0.00  0.00     0.056 C 
BRANCH   7   8
ATOM      8  C1  UNL d   1       2.247   0.654   3.963  0.00  0.00     0.007 C 
ATOM      9  C   UNL d   1       1.155   0.101   3.056  0.00  0.00     0.009 C 
ENDBRANCH   7   8
ENDBRANCH   1   7
TORSDOF 2
ENDMDL
