MODEL 1
REMARK minimizedAffinity 16.044342
REMARK minimizedRMSD -1
REMARK  2 active torsions:
REMARK  status: ('A' for Active; 'I' for Inactive)
REMARK    1  A    between atoms: C1_2  and  C2_3 
REMARK    2  A    between atoms: C2_3  and  C3_4 
ROOT
ATOM      1  C3  UNL d   1       1.466   2.923   0.563  0.00  0.00    -0.075 A 
ATOM      2  C4  UNL d   1       2.818   3.293   0.602  0.00  0.00     0.002 A 
ATOM      3  C5  UNL d   1       3.772   2.436   1.152  0.00  0.00     0.002 A 
ATOM      4  C6  UNL d   1       3.386   1.205   1.678  0.00  0.00    -0.004 A 
ATOM      5  C7  UNL d   1       2.043   0.834   1.660  0.00  0.00     0.002 A 
ATOM      6  C8  UNL d   1       1.087   1.688   1.106  0.00  0.00     0.002 A 
ENDROOT
BRANCH   1   7
ATOM      7  C2  UNL d   1       0.433   3.833  -0.057  0.00  0.00     0.056 C 
BRANCH   7   8
ATOM      8  C1  UNL d   1      -0.522   4.474   0.956  0.00  0.00     0.007 C 
ATOM      9  C   UNL d   1      -0.415   5.992   1.004  0.00  0.00     0.009 C 
ENDBRANCH   7   8
ENDBRANCH   1   7
TORSDOF 2
ENDMDL
