MODEL 1
REMARK minimizedAffinity 11.9258652
REMARK minimizedRMSD -1
REMARK  2 active torsions:
REMARK  status: ('A' for Active; 'I' for Inactive)
REMARK    1  A    between atoms: C1_2  and  C2_3 
REMARK    2  A    between atoms: C2_3  and  C3_4 
ROOT
ATOM      1  C3  UNL d   1      -0.175  -0.656   2.051  0.00  0.00    -0.075 A 
ATOM      2  C4  UNL d   1      -0.267   0.677   2.476  0.00  0.00     0.002 A 
ATOM      3  C5  UNL d   1       0.716   1.229   3.299  0.00  0.00     0.002 A 
ATOM      4  C6  UNL d   1       1.796   0.453   3.715  0.00  0.00    -0.004 A 
ATOM      5  C7  UNL d   1       1.889  -0.878   3.313  0.00  0.00     0.002 A 
ATOM      6  C8  UNL d   1       0.909  -1.431   2.486  0.00  0.00     0.002 A 
ENDROOT
BRANCH   1   7
ATOM      7  C2  UNL d   1      -1.219  -1.250   1.137  0.00  0.00     0.056 C 
BRANCH   7   8
ATOM      8  C1  UNL d   1      -2.647  -1.175   1.689  0.00  0.00     0.007 C 
ATOM      9  C   UNL d   1      -3.688  -1.756   0.743  0.00  0.00     0.009 C 
ENDBRANCH   7   8
ENDBRANCH   1   7
TORSDOF 2
ENDMDL
