MODEL 1
REMARK minimizedAffinity 9.398036
REMARK minimizedRMSD -1
REMARK  2 active torsions:
REMARK  status: ('A' for Active; 'I' for Inactive)
REMARK    1  A    between atoms: C1_2  and  C2_3 
REMARK    2  A    between atoms: C2_3  and  C3_4 
ROOT
ATOM      1  C3  UNL d   1      -0.813  -1.009   1.826  0.00  0.00    -0.075 A 
ATOM      2  C4  UNL d   1      -0.108   0.198   1.714  0.00  0.00     0.002 A 
ATOM      3  C5  UNL d   1       1.089   0.386   2.404  0.00  0.00     0.002 A 
ATOM      4  C6  UNL d   1       1.591  -0.624   3.222  0.00  0.00    -0.004 A 
ATOM      5  C7  UNL d   1       0.891  -1.821   3.354  0.00  0.00     0.002 A 
ATOM      6  C8  UNL d   1      -0.305  -2.014   2.660  0.00  0.00     0.002 A 
ENDROOT
BRANCH   1   7
ATOM      7  C2  UNL d   1      -2.094  -1.230   1.058  0.00  0.00     0.056 C 
BRANCH   7   8
ATOM      8  C1  UNL d   1      -3.355  -0.783   1.806  0.00  0.00     0.007 C 
ATOM      9  C   UNL d   1      -4.159   0.268   1.053  0.00  0.00     0.009 C 
ENDBRANCH   7   8
ENDBRANCH   1   7
TORSDOF 2
ENDMDL
