MODEL 1
REMARK minimizedAffinity 15.0244284
REMARK minimizedRMSD -1
REMARK  2 active torsions:
REMARK  status: ('A' for Active; 'I' for Inactive)
REMARK    1  A    between atoms: C1_2  and  C2_3 
REMARK    2  A    between atoms: C2_3  and  C3_4 
ROOT
ATOM      1  C3  UNL d   1      -0.648  -1.573   2.730  0.00  0.00    -0.075 A 
ATOM      2  C4  UNL d   1       0.421  -2.319   3.248  0.00  0.00     0.002 A 
ATOM      3  C5  UNL d   1       1.563  -1.680   3.730  0.00  0.00     0.002 A 
ATOM      4  C6  UNL d   1       1.656  -0.291   3.692  0.00  0.00    -0.004 A 
ATOM      5  C7  UNL d   1       0.608   0.460   3.164  0.00  0.00     0.002 A 
ATOM      6  C8  UNL d   1      -0.538  -0.177   2.685  0.00  0.00     0.002 A 
ENDROOT
BRANCH   1   7
ATOM      7  C2  UNL d   1      -1.899  -2.257   2.233  0.00  0.00     0.056 C 
BRANCH   7   8
ATOM      8  C1  UNL d   1      -3.133  -1.349   2.197  0.00  0.00     0.007 C 
ATOM      9  C   UNL d   1      -4.273  -1.851   3.073  0.00  0.00     0.009 C 
ENDBRANCH   7   8
ENDBRANCH   1   7
TORSDOF 2
ENDMDL
