MODEL 1
REMARK minimizedAffinity 1.90137684
REMARK minimizedRMSD -1
REMARK  0 active torsions:
REMARK  status: ('A' for Active; 'I' for Inactive)
ROOT
ATOM      1  C   UNL d   1      -0.786  -1.045   0.772  0.00  0.00     0.172 C 
ATOM      2  N   UNL d   1      -1.015   0.377   0.885  0.00  0.00    -0.070 N 
ATOM      3  C1  UNL d   1      -1.891   1.107   0.127  0.00  0.00    -0.004 A 
ATOM      4  C2  UNL d   1      -1.815   2.419   0.542  0.00  0.00    -0.047 A 
ATOM      5  C3  UNL d   1      -0.860   2.480   1.584  0.00  0.00    -0.047 A 
ATOM      6  C4  UNL d   1      -0.380   1.201   1.776  0.00  0.00    -0.004 A 
ENDROOT
TORSDOF 0
ENDMDL
