MODEL 1
REMARK minimizedAffinity -0.997857094
REMARK minimizedRMSD -1
REMARK  0 active torsions:
REMARK  status: ('A' for Active; 'I' for Inactive)
ROOT
ATOM      1  C   UNL d   1       1.938   1.521   1.237  0.00  0.00     0.172 C 
ATOM      2  N   UNL d   1       0.532   1.558   0.910  0.00  0.00    -0.070 N 
ATOM      3  C1  UNL d   1      -0.299   2.633   1.083  0.00  0.00    -0.004 A 
ATOM      4  C2  UNL d   1      -1.556   2.267   0.652  0.00  0.00    -0.047 A 
ATOM      5  C3  UNL d   1      -1.477   0.927   0.205  0.00  0.00    -0.047 A 
ATOM      6  C4  UNL d   1      -0.173   0.513   0.377  0.00  0.00    -0.004 A 
ENDROOT
TORSDOF 0
ENDMDL
