MODEL 1
REMARK minimizedAffinity -2.1230247
REMARK minimizedRMSD -1
REMARK  0 active torsions:
REMARK  status: ('A' for Active; 'I' for Inactive)
ROOT
ATOM      1  C   UNL d   1      -0.609   2.493   1.118  0.00  0.00     0.172 C 
ATOM      2  N   UNL d   1      -0.251   1.157   0.702  0.00  0.00    -0.070 N 
ATOM      3  C1  UNL d   1      -1.131   0.145   0.426  0.00  0.00    -0.004 A 
ATOM      4  C2  UNL d   1      -0.397  -0.965   0.065  0.00  0.00    -0.047 A 
ATOM      5  C3  UNL d   1       0.970  -0.607   0.127  0.00  0.00    -0.047 A 
ATOM      6  C4  UNL d   1       1.032   0.712   0.524  0.00  0.00    -0.004 A 
ENDROOT
TORSDOF 0
ENDMDL
