MODEL 1
REMARK minimizedAffinity -3.68194461
REMARK minimizedRMSD -1
REMARK  0 active torsions:
REMARK  status: ('A' for Active; 'I' for Inactive)
ROOT
ATOM      1  C   UNL d   1      -1.467   1.288   0.828  0.00  0.00     0.172 C 
ATOM      2  N   UNL d   1      -0.111   1.715   0.574  0.00  0.00    -0.070 N 
ATOM      3  C1  UNL d   1       0.911   0.913   0.142  0.00  0.00    -0.004 A 
ATOM      4  C2  UNL d   1       2.039   1.695   0.021  0.00  0.00    -0.047 A 
ATOM      5  C3  UNL d   1       1.683   3.013   0.393  0.00  0.00    -0.047 A 
ATOM      6  C4  UNL d   1       0.346   2.997   0.731  0.00  0.00    -0.004 A 
ENDROOT
TORSDOF 0
ENDMDL
