MODEL 1
REMARK minimizedAffinity -3.29602289
REMARK minimizedRMSD -1
REMARK  0 active torsions:
REMARK  status: ('A' for Active; 'I' for Inactive)
ROOT
ATOM      1  C   UNL d   1       1.874  -0.183  -0.130  0.00  0.00     0.172 C 
ATOM      2  N   UNL d   1       1.145   1.001   0.259  0.00  0.00    -0.070 N 
ATOM      3  C1  UNL d   1      -0.218   1.135   0.257  0.00  0.00    -0.004 A 
ATOM      4  C2  UNL d   1      -0.517   2.408   0.694  0.00  0.00    -0.047 A 
ATOM      5  C3  UNL d   1       0.708   3.061   0.966  0.00  0.00    -0.047 A 
ATOM      6  C4  UNL d   1       1.721   2.167   0.689  0.00  0.00    -0.004 A 
ENDROOT
TORSDOF 0
ENDMDL
