MODEL 1
REMARK minimizedAffinity -3.07378697
REMARK minimizedRMSD -1
REMARK  0 active torsions:
REMARK  status: ('A' for Active; 'I' for Inactive)
ROOT
ATOM      1  C   UNL d   1       0.683  -1.501   0.489  0.00  0.00     0.172 C 
ATOM      2  N   UNL d   1       0.000  -2.231  -0.553  0.00  0.00    -0.070 N 
ATOM      3  C1  UNL d   1      -0.750  -3.363  -0.375  0.00  0.00    -0.004 A 
ATOM      4  C2  UNL d   1      -1.230  -3.750  -1.608  0.00  0.00    -0.047 A 
ATOM      5  C3  UNL d   1      -0.750  -2.819  -2.560  0.00  0.00    -0.047 A 
ATOM      6  C4  UNL d   1       0.008  -1.890  -1.880  0.00  0.00    -0.004 A 
ENDROOT
TORSDOF 0
ENDMDL
