MODEL 1
REMARK minimizedAffinity -2.41378403
REMARK minimizedRMSD -1
REMARK  0 active torsions:
REMARK  status: ('A' for Active; 'I' for Inactive)
ROOT
ATOM      1  C   UNL d   1      -0.082  -1.409  -0.118  0.00  0.00     0.172 C 
ATOM      2  N   UNL d   1      -0.091  -0.007   0.228  0.00  0.00    -0.070 N 
ATOM      3  C1  UNL d   1       0.999   0.728   0.613  0.00  0.00    -0.004 A 
ATOM      4  C2  UNL d   1       0.576   2.017   0.853  0.00  0.00    -0.047 A 
ATOM      5  C3  UNL d   1      -0.816   2.059   0.604  0.00  0.00    -0.047 A 
ATOM      6  C4  UNL d   1      -1.203   0.793   0.219  0.00  0.00    -0.004 A 
ENDROOT
TORSDOF 0
ENDMDL
