MODEL 1
REMARK minimizedAffinity -1.07155192
REMARK minimizedRMSD -1
REMARK  0 active torsions:
REMARK  status: ('A' for Active; 'I' for Inactive)
ROOT
ATOM      1  C   UNL d   1      -0.706   2.645   0.810  0.00  0.00     0.172 C 
ATOM      2  N   UNL d   1      -0.614   1.297   0.300  0.00  0.00    -0.070 N 
ATOM      3  C1  UNL d   1      -1.408   0.757  -0.675  0.00  0.00    -0.004 A 
ATOM      4  C2  UNL d   1      -1.004  -0.545  -0.876  0.00  0.00    -0.047 A 
ATOM      5  C3  UNL d   1       0.071  -0.796   0.010  0.00  0.00    -0.047 A 
ATOM      6  C4  UNL d   1       0.291   0.362   0.726  0.00  0.00    -0.004 A 
ENDROOT
TORSDOF 0
ENDMDL
