MODEL 1
REMARK minimizedAffinity -3.53992343
REMARK minimizedRMSD -1
REMARK  0 active torsions:
REMARK  status: ('A' for Active; 'I' for Inactive)
ROOT
ATOM      1  C   UNL d   1      -0.106   2.676   0.813  0.00  0.00     0.172 C 
ATOM      2  N   UNL d   1       0.108   1.251   0.728  0.00  0.00    -0.070 N 
ATOM      3  C1  UNL d   1       1.317   0.635   0.541  0.00  0.00    -0.004 A 
ATOM      4  C2  UNL d   1       1.098  -0.725   0.517  0.00  0.00    -0.047 A 
ATOM      5  C3  UNL d   1      -0.290  -0.934   0.695  0.00  0.00    -0.047 A 
ATOM      6  C4  UNL d   1      -0.879   0.306   0.823  0.00  0.00    -0.004 A 
ENDROOT
TORSDOF 0
ENDMDL
