MODEL 1
REMARK minimizedAffinity -3.8177278
REMARK minimizedRMSD -1
REMARK  0 active torsions:
REMARK  status: ('A' for Active; 'I' for Inactive)
ROOT
ATOM      1  C   UNL d   1       2.438   0.270  -0.140  0.00  0.00     0.172 C 
ATOM      2  N   UNL d   1       1.724   1.525  -0.093  0.00  0.00    -0.070 N 
ATOM      3  C1  UNL d   1       0.391   1.694  -0.355  0.00  0.00    -0.004 A 
ATOM      4  C2  UNL d   1       0.097   3.032  -0.202  0.00  0.00    -0.047 A 
ATOM      5  C3  UNL d   1       1.296   3.689   0.164  0.00  0.00    -0.047 A 
ATOM      6  C4  UNL d   1       2.287   2.732   0.225  0.00  0.00    -0.004 A 
ENDROOT
TORSDOF 0
ENDMDL
