MODEL 1
REMARK minimizedAffinity -3.96427703
REMARK minimizedRMSD -1
REMARK  0 active torsions:
REMARK  status: ('A' for Active; 'I' for Inactive)
ROOT
ATOM      1  C   UNL d   1       1.987   2.928   1.303  0.00  0.00     0.172 C 
ATOM      2  N   UNL d   1       0.978   1.954   0.962  0.00  0.00    -0.070 N 
ATOM      3  C1  UNL d   1      -0.373   2.178   0.938  0.00  0.00    -0.004 A 
ATOM      4  C2  UNL d   1      -0.989   1.004   0.565  0.00  0.00    -0.047 A 
ATOM      5  C3  UNL d   1       0.026   0.040   0.357  0.00  0.00    -0.047 A 
ATOM      6  C4  UNL d   1       1.234   0.655   0.610  0.00  0.00    -0.004 A 
ENDROOT
TORSDOF 0
ENDMDL
