MODEL 1
REMARK minimizedAffinity -3.84121084
REMARK minimizedRMSD -1
REMARK  0 active torsions:
REMARK  status: ('A' for Active; 'I' for Inactive)
ROOT
ATOM      1  C   UNL d   1      -0.778   0.499   0.691  0.00  0.00     0.172 C 
ATOM      2  N   UNL d   1      -0.011   1.695   0.433  0.00  0.00    -0.070 N 
ATOM      3  C1  UNL d   1      -0.522   2.898   0.025  0.00  0.00    -0.004 A 
ATOM      4  C2  UNL d   1       0.529   3.780  -0.109  0.00  0.00    -0.047 A 
ATOM      5  C3  UNL d   1       1.712   3.082   0.230  0.00  0.00    -0.047 A 
ATOM      6  C4  UNL d   1       1.349   1.793   0.561  0.00  0.00    -0.004 A 
ENDROOT
TORSDOF 0
ENDMDL
