MODEL 1
REMARK minimizedAffinity 0.482638419
REMARK minimizedRMSD -1
REMARK  0 active torsions:
REMARK  status: ('A' for Active; 'I' for Inactive)
ROOT
ATOM      1  C   UNL d   1       1.582  -1.837  -2.750  0.00  0.00     0.172 C 
ATOM      2  N   UNL d   1       1.569  -1.250  -1.431  0.00  0.00    -0.070 N 
ATOM      3  C1  UNL d   1       0.483  -1.177  -0.600  0.00  0.00    -0.004 A 
ATOM      4  C2  UNL d   1       0.880  -0.549   0.560  0.00  0.00    -0.047 A 
ATOM      5  C3  UNL d   1       2.253  -0.233   0.422  0.00  0.00    -0.047 A 
ATOM      6  C4  UNL d   1       2.653  -0.678  -0.820  0.00  0.00    -0.004 A 
ENDROOT
TORSDOF 0
ENDMDL
