MODEL 1
REMARK minimizedAffinity 0.484772444
REMARK minimizedRMSD -1
REMARK  0 active torsions:
REMARK  status: ('A' for Active; 'I' for Inactive)
ROOT
ATOM      1  C   UNL d   1       1.595  -2.935  -3.157  0.00  0.00     0.172 C 
ATOM      2  N   UNL d   1       0.337  -3.033  -2.455  0.00  0.00    -0.070 N 
ATOM      3  C1  UNL d   1      -0.813  -3.585  -2.952  0.00  0.00    -0.004 A 
ATOM      4  C2  UNL d   1      -1.783  -3.486  -1.978  0.00  0.00    -0.047 A 
ATOM      5  C3  UNL d   1      -1.196  -2.851  -0.858  0.00  0.00    -0.047 A 
ATOM      6  C4  UNL d   1       0.117  -2.582  -1.181  0.00  0.00    -0.004 A 
ENDROOT
TORSDOF 0
ENDMDL
