MODEL 1
REMARK minimizedAffinity -3.19257569
REMARK minimizedRMSD -1
REMARK  0 active torsions:
REMARK  status: ('A' for Active; 'I' for Inactive)
ROOT
ATOM      1  C   UNL d   1       0.046  -1.098  -0.190  0.00  0.00     0.172 C 
ATOM      2  N   UNL d   1      -0.009   0.292   0.198  0.00  0.00    -0.070 N 
ATOM      3  C1  UNL d   1       1.069   1.124   0.344  0.00  0.00    -0.004 A 
ATOM      4  C2  UNL d   1       0.598   2.363   0.721  0.00  0.00    -0.047 A 
ATOM      5  C3  UNL d   1      -0.812   2.272   0.806  0.00  0.00    -0.047 A 
ATOM      6  C4  UNL d   1      -1.161   0.979   0.477  0.00  0.00    -0.004 A 
ENDROOT
TORSDOF 0
ENDMDL
