MODEL 1
REMARK minimizedAffinity -3.5210681
REMARK minimizedRMSD -1
REMARK  0 active torsions:
REMARK  status: ('A' for Active; 'I' for Inactive)
ROOT
ATOM      1  C   UNL d   1       0.126   3.433   0.066  0.00  0.00     0.172 C 
ATOM      2  N   UNL d   1       0.162   1.991   0.136  0.00  0.00    -0.070 N 
ATOM      3  C1  UNL d   1       1.281   1.213   0.004  0.00  0.00    -0.004 A 
ATOM      4  C2  UNL d   1       0.896  -0.104   0.132  0.00  0.00    -0.047 A 
ATOM      5  C3  UNL d   1      -0.502  -0.118   0.348  0.00  0.00    -0.047 A 
ATOM      6  C4  UNL d   1      -0.931   1.192   0.345  0.00  0.00    -0.004 A 
ENDROOT
TORSDOF 0
ENDMDL
