MODEL 1
REMARK minimizedAffinity -3.92416286
REMARK minimizedRMSD -1
REMARK  0 active torsions:
REMARK  status: ('A' for Active; 'I' for Inactive)
ROOT
ATOM      1  C   UNL d   1       0.378  -0.707   0.428  0.00  0.00     0.172 C 
ATOM      2  N   UNL d   1       0.437   0.733   0.338  0.00  0.00    -0.070 N 
ATOM      3  C1  UNL d   1      -0.626   1.586   0.472  0.00  0.00    -0.004 A 
ATOM      4  C2  UNL d   1      -0.156   2.873   0.321  0.00  0.00    -0.047 A 
ATOM      5  C3  UNL d   1       1.237   2.791   0.087  0.00  0.00    -0.047 A 
ATOM      6  C4  UNL d   1       1.578   1.455   0.102  0.00  0.00    -0.004 A 
ENDROOT
TORSDOF 0
ENDMDL
