MODEL 1
REMARK minimizedAffinity -3.29525709
REMARK minimizedRMSD -1
REMARK  0 active torsions:
REMARK  status: ('A' for Active; 'I' for Inactive)
ROOT
ATOM      1  C   UNL d   1      -2.263   2.485   1.358  0.00  0.00    -0.002 A 
ATOM      2  C1  UNL d   1      -1.619   2.796   0.169  0.00  0.00     0.010 A 
ATOM      3  C2  UNL d   1      -0.799   1.857  -0.462  0.00  0.00     0.041 A 
ATOM      4  C3  UNL d   1      -0.638   0.588   0.128  0.00  0.00    -0.075 A 
ATOM      5  S   UNL d   1       0.316  -0.720  -0.465  0.00  0.00     0.015 SA
ATOM      6  C4  UNL d   1      -0.110  -1.723   0.846  0.00  0.00     0.022 A 
ATOM      7  C5  UNL d   1      -0.958  -1.091   1.724  0.00  0.00     0.026 A 
ATOM      8  C6  UNL d   1      -1.277   0.251   1.325  0.00  0.00    -0.082 A 
ATOM      9  C7  UNL d   1      -2.100   1.225   1.940  0.00  0.00     0.045 A 
ENDROOT
TORSDOF 0
ENDMDL
