MODEL 1
REMARK minimizedAffinity -0.430455714
REMARK minimizedRMSD -1
REMARK  0 active torsions:
REMARK  status: ('A' for Active; 'I' for Inactive)
ROOT
ATOM      1  C   UNL d   1      -1.962   2.784   2.261  0.00  0.00    -0.002 A 
ATOM      2  C1  UNL d   1      -1.182   3.417   1.303  0.00  0.00     0.010 A 
ATOM      3  C2  UNL d   1      -0.308   2.682   0.500  0.00  0.00     0.041 A 
ATOM      4  C3  UNL d   1      -0.231   1.287   0.677  0.00  0.00    -0.075 A 
ATOM      5  S   UNL d   1       0.768   0.183  -0.193  0.00  0.00     0.015 SA
ATOM      6  C4  UNL d   1       0.183  -1.155   0.686  0.00  0.00     0.022 A 
ATOM      7  C5  UNL d   1      -0.752  -0.787   1.624  0.00  0.00     0.026 A 
ATOM      8  C6  UNL d   1      -1.007   0.627   1.634  0.00  0.00    -0.082 A 
ATOM      9  C7  UNL d   1      -1.883   1.400   2.433  0.00  0.00     0.045 A 
ENDROOT
TORSDOF 0
ENDMDL
