MODEL 1
REMARK minimizedAffinity -3.57043958
REMARK minimizedRMSD -1
REMARK  0 active torsions:
REMARK  status: ('A' for Active; 'I' for Inactive)
ROOT
ATOM      1  C   UNL d   1      -2.270   0.806   1.957  0.00  0.00    -0.002 A 
ATOM      2  C1  UNL d   1      -2.099   1.931   1.163  0.00  0.00     0.010 A 
ATOM      3  C2  UNL d   1      -1.110   1.961   0.178  0.00  0.00     0.041 A 
ATOM      4  C3  UNL d   1      -0.289   0.830   0.001  0.00  0.00    -0.075 A 
ATOM      5  S   UNL d   1       0.986   0.639  -1.143  0.00  0.00     0.015 SA
ATOM      6  C4  UNL d   1       1.333  -0.940  -0.605  0.00  0.00     0.022 A 
ATOM      7  C5  UNL d   1       0.506  -1.328   0.423  0.00  0.00     0.026 A 
ATOM      8  C6  UNL d   1      -0.443  -0.315   0.789  0.00  0.00    -0.082 A 
ATOM      9  C7  UNL d   1      -1.454  -0.314   1.780  0.00  0.00     0.045 A 
ENDROOT
TORSDOF 0
ENDMDL
