MODEL 1
REMARK minimizedAffinity -0.585724473
REMARK minimizedRMSD -1
REMARK  0 active torsions:
REMARK  status: ('A' for Active; 'I' for Inactive)
ROOT
ATOM      1  C   UNL d   1       0.000   0.647   0.000  0.00  0.00    -0.002 A 
ATOM      2  C1  UNL d   1      -0.388  -0.262   0.975  0.00  0.00     0.010 A 
ATOM      3  C2  UNL d   1      -0.395  -1.632   0.706  0.00  0.00     0.041 A 
ATOM      4  C3  UNL d   1       0.000  -2.078  -0.570  0.00  0.00    -0.075 A 
ATOM      5  S   UNL d   1       0.071  -3.709  -1.125  0.00  0.00     0.015 SA
ATOM      6  C4  UNL d   1       0.619  -3.238  -2.669  0.00  0.00     0.022 A 
ATOM      7  C5  UNL d   1       0.750  -1.874  -2.776  0.00  0.00     0.026 A 
ATOM      8  C6  UNL d   1       0.396  -1.183  -1.568  0.00  0.00    -0.082 A 
ATOM      9  C7  UNL d   1       0.391   0.200  -1.265  0.00  0.00     0.045 A 
ENDROOT
TORSDOF 0
ENDMDL
