MODEL 1
REMARK minimizedAffinity -2.83751249
REMARK minimizedRMSD -1
REMARK  0 active torsions:
REMARK  status: ('A' for Active; 'I' for Inactive)
ROOT
ATOM      1  C   UNL d   1      -1.820   2.742   0.476  0.00  0.00    -0.002 A 
ATOM      2  C1  UNL d   1      -1.823   2.359   1.810  0.00  0.00     0.010 A 
ATOM      3  C2  UNL d   1      -1.167   1.195   2.216  0.00  0.00     0.041 A 
ATOM      4  C3  UNL d   1      -0.500   0.416   1.250  0.00  0.00    -0.075 A 
ATOM      5  S   UNL d   1       0.371  -1.048   1.516  0.00  0.00     0.015 SA
ATOM      6  C4  UNL d   1       0.768  -1.199  -0.135  0.00  0.00     0.022 A 
ATOM      7  C5  UNL d   1       0.257  -0.167  -0.885  0.00  0.00     0.026 A 
ATOM      8  C6  UNL d   1      -0.482   0.781  -0.099  0.00  0.00    -0.082 A 
ATOM      9  C7  UNL d   1      -1.157   1.966  -0.479  0.00  0.00     0.045 A 
ENDROOT
TORSDOF 0
ENDMDL
