MODEL 1
REMARK minimizedAffinity -3.23218417
REMARK minimizedRMSD -1
REMARK  0 active torsions:
REMARK  status: ('A' for Active; 'I' for Inactive)
ROOT
ATOM      1  C   UNL d   1      -1.074   0.242   2.521  0.00  0.00    -0.002 A 
ATOM      2  C1  UNL d   1      -1.406   1.514   2.075  0.00  0.00     0.010 A 
ATOM      3  C2  UNL d   1      -1.023   1.942   0.802  0.00  0.00     0.041 A 
ATOM      4  C3  UNL d   1      -0.296   1.061  -0.023  0.00  0.00    -0.075 A 
ATOM      5  S   UNL d   1       0.278   1.368  -1.619  0.00  0.00     0.015 SA
ATOM      6  C4  UNL d   1       0.977  -0.181  -1.746  0.00  0.00     0.022 A 
ATOM      7  C5  UNL d   1       0.787  -0.928  -0.608  0.00  0.00     0.026 A 
ATOM      8  C6  UNL d   1       0.049  -0.224   0.404  0.00  0.00    -0.082 A 
ATOM      9  C7  UNL d   1      -0.352  -0.628   1.700  0.00  0.00     0.045 A 
ENDROOT
TORSDOF 0
ENDMDL
