MODEL 1
REMARK minimizedAffinity -5.44692516
REMARK minimizedRMSD -1
REMARK  0 active torsions:
REMARK  status: ('A' for Active; 'I' for Inactive)
ROOT
ATOM      1  C   UNL d   1      -1.269   3.165   0.053  0.00  0.00    -0.002 A 
ATOM      2  C1  UNL d   1      -1.642   2.781   1.334  0.00  0.00     0.010 A 
ATOM      3  C2  UNL d   1      -1.332   1.506   1.811  0.00  0.00     0.041 A 
ATOM      4  C3  UNL d   1      -0.632   0.616   0.973  0.00  0.00    -0.075 A 
ATOM      5  S   UNL d   1      -0.143  -0.995   1.344  0.00  0.00     0.015 SA
ATOM      6  C4  UNL d   1       0.574  -1.210  -0.187  0.00  0.00     0.022 A 
ATOM      7  C5  UNL d   1       0.452  -0.091  -0.975  0.00  0.00     0.026 A 
ATOM      8  C6  UNL d   1      -0.244   0.981  -0.320  0.00  0.00    -0.082 A 
ATOM      9  C7  UNL d   1      -0.574   2.280  -0.775  0.00  0.00     0.045 A 
ENDROOT
TORSDOF 0
ENDMDL
