MODEL 1
REMARK minimizedAffinity -0.454569668
REMARK minimizedRMSD -1
REMARK  0 active torsions:
REMARK  status: ('A' for Active; 'I' for Inactive)
ROOT
ATOM      1  C   UNL d   1      -3.064   1.743  -0.045  0.00  0.00    -0.002 A 
ATOM      2  C1  UNL d   1      -2.402   1.268  -1.169  0.00  0.00     0.010 A 
ATOM      3  C2  UNL d   1      -1.159   0.645  -1.050  0.00  0.00     0.041 A 
ATOM      4  C3  UNL d   1      -0.586   0.503   0.229  0.00  0.00    -0.075 A 
ATOM      5  S   UNL d   1       0.927  -0.227   0.616  0.00  0.00     0.015 SA
ATOM      6  C4  UNL d   1       0.730   0.072   2.283  0.00  0.00     0.022 A 
ATOM      7  C5  UNL d   1      -0.456   0.713   2.555  0.00  0.00     0.026 A 
ATOM      8  C6  UNL d   1      -1.234   0.972   1.376  0.00  0.00    -0.082 A 
ATOM      9  C7  UNL d   1      -2.493   1.600   1.223  0.00  0.00     0.045 A 
ENDROOT
TORSDOF 0
ENDMDL
