MODEL 1
REMARK minimizedAffinity -5.01219845
REMARK minimizedRMSD -1
REMARK  0 active torsions:
REMARK  status: ('A' for Active; 'I' for Inactive)
ROOT
ATOM      1  C   UNL d   1      -1.529   3.310   0.732  0.00  0.00    -0.002 A 
ATOM      2  C1  UNL d   1      -0.795   3.412  -0.441  0.00  0.00     0.010 A 
ATOM      3  C2  UNL d   1      -0.064   2.323  -0.919  0.00  0.00     0.041 A 
ATOM      4  C3  UNL d   1      -0.086   1.116  -0.193  0.00  0.00    -0.075 A 
ATOM      5  S   UNL d   1       0.731  -0.350  -0.587  0.00  0.00     0.015 SA
ATOM      6  C4  UNL d   1       0.124  -1.147   0.791  0.00  0.00     0.022 A 
ATOM      7  C5  UNL d   1      -0.684  -0.329   1.545  0.00  0.00     0.026 A 
ATOM      8  C6  UNL d   1      -0.819   0.988   0.991  0.00  0.00    -0.082 A 
ATOM      9  C7  UNL d   1      -1.548   2.111   1.450  0.00  0.00     0.045 A 
ENDROOT
TORSDOF 0
ENDMDL
