MODEL 1
REMARK minimizedAffinity -3.47604918
REMARK minimizedRMSD -1
REMARK  0 active torsions:
REMARK  status: ('A' for Active; 'I' for Inactive)
ROOT
ATOM      1  C   UNL d   1       1.038   1.514  -1.202  0.00  0.00    -0.002 A 
ATOM      2  C1  UNL d   1       1.492   0.299  -0.709  0.00  0.00     0.010 A 
ATOM      3  C2  UNL d   1       0.756  -0.397   0.253  0.00  0.00     0.041 A 
ATOM      4  C3  UNL d   1      -0.456   0.154   0.714  0.00  0.00    -0.075 A 
ATOM      5  S   UNL d   1      -1.524  -0.521   1.887  0.00  0.00     0.015 SA
ATOM      6  C4  UNL d   1      -2.609   0.787   1.760  0.00  0.00     0.022 A 
ATOM      7  C5  UNL d   1      -2.182   1.725   0.850  0.00  0.00     0.026 A 
ATOM      8  C6  UNL d   1      -0.934   1.375   0.231  0.00  0.00    -0.082 A 
ATOM      9  C7  UNL d   1      -0.165   2.057  -0.743  0.00  0.00     0.045 A 
ENDROOT
TORSDOF 0
ENDMDL
