MODEL 1
REMARK minimizedAffinity -3.67333698
REMARK minimizedRMSD -1
REMARK  0 active torsions:
REMARK  status: ('A' for Active; 'I' for Inactive)
ROOT
ATOM      1  C   UNL d   1      -1.926   2.462   1.833  0.00  0.00    -0.002 A 
ATOM      2  C1  UNL d   1      -2.116   2.836   0.510  0.00  0.00     0.010 A 
ATOM      3  C2  UNL d   1      -1.568   2.079  -0.528  0.00  0.00     0.041 A 
ATOM      4  C3  UNL d   1      -0.819   0.929  -0.210  0.00  0.00    -0.075 A 
ATOM      5  S   UNL d   1      -0.055  -0.152  -1.315  0.00  0.00     0.015 SA
ATOM      6  C4  UNL d   1       0.542  -1.135  -0.058  0.00  0.00     0.022 A 
ATOM      7  C5  UNL d   1       0.177  -0.665   1.182  0.00  0.00     0.026 A 
ATOM      8  C6  UNL d   1      -0.614   0.532   1.114  0.00  0.00    -0.082 A 
ATOM      9  C7  UNL d   1      -1.182   1.320   2.144  0.00  0.00     0.045 A 
ENDROOT
TORSDOF 0
ENDMDL
