MODEL 1
REMARK minimizedAffinity 0.181724474
REMARK minimizedRMSD -1
REMARK  2 active torsions:
REMARK  status: ('A' for Active; 'I' for Inactive)
REMARK    1  A    between atoms: C2'_3  and  C1'_4 
REMARK    2  A    between atoms: C1'_4  and  C1_5 
ROOT
ATOM      1  C1  I4B d   1       2.021   1.804   1.058  0.00  0.00    -0.075 A 
ATOM      2  C2  I4B d   1       1.590   1.618   2.348  0.00  0.00     0.003 A 
ATOM      3  C3  I4B d   1       0.234   1.305   2.609  0.00  0.00     0.002 A 
ATOM      4  C4  I4B d   1      -0.661   1.237   1.561  0.00  0.00    -0.004 A 
ATOM      5  C5  I4B d   1      -0.218   1.404   0.252  0.00  0.00     0.002 A 
ATOM      6  C6  I4B d   1       1.133   1.677  -0.002  0.00  0.00     0.003 A 
ENDROOT
BRANCH   1   7
ATOM      7  C1' I4B d   1       3.453   2.167   0.821  0.00  0.00     0.060 C 
BRANCH   7   8
ATOM      8  C2' I4B d   1       3.908   1.469  -0.444  0.00  0.00    -0.013 C 
ATOM      9  C4' I4B d   1       5.410   1.434  -0.538  0.00  0.00     0.013 C 
ATOM     10  C3' I4B d   1       3.333   0.084  -0.441  0.00  0.00     0.013 C 
ENDBRANCH   7   8
ENDBRANCH   1   7
TORSDOF 2
ENDMDL
