MODEL 1
REMARK minimizedAffinity 10.1626606
REMARK minimizedRMSD -1
REMARK  2 active torsions:
REMARK  status: ('A' for Active; 'I' for Inactive)
REMARK    1  A    between atoms: C2'_3  and  C1'_4 
REMARK    2  A    between atoms: C1'_4  and  C1_5 
ROOT
ATOM      1  C1  I4B d   1       3.698   0.350  -0.593  0.00  0.00    -0.075 A 
ATOM      2  C2  I4B d   1       3.694   1.636  -1.074  0.00  0.00     0.003 A 
ATOM      3  C3  I4B d   1       4.833   2.462  -0.909  0.00  0.00     0.002 A 
ATOM      4  C4  I4B d   1       5.926   1.981  -0.219  0.00  0.00    -0.004 A 
ATOM      5  C5  I4B d   1       5.937   0.670   0.248  0.00  0.00     0.002 A 
ATOM      6  C6  I4B d   1       4.820  -0.155   0.049  0.00  0.00     0.003 A 
ENDROOT
BRANCH   1   7
ATOM      7  C1' I4B d   1       2.466  -0.483  -0.755  0.00  0.00     0.060 C 
BRANCH   7   8
ATOM      8  C2' I4B d   1       2.858  -1.935  -0.573  0.00  0.00    -0.013 C 
ATOM      9  C4' I4B d   1       2.527  -2.420   0.814  0.00  0.00     0.013 C 
ATOM     10  C3' I4B d   1       2.141  -2.742  -1.614  0.00  0.00     0.013 C 
ENDBRANCH   7   8
ENDBRANCH   1   7
TORSDOF 2
ENDMDL
