MODEL 1
REMARK minimizedAffinity 2.0174284
REMARK minimizedRMSD -1
REMARK  2 active torsions:
REMARK  status: ('A' for Active; 'I' for Inactive)
REMARK    1  A    between atoms: C2'_3  and  C1'_4 
REMARK    2  A    between atoms: C1'_4  and  C1_5 
ROOT
ATOM      1  C1  I4B d   1       0.696   1.085   0.798  0.00  0.00    -0.075 A 
ATOM      2  C2  I4B d   1      -0.303   2.022   0.708  0.00  0.00     0.003 A 
ATOM      3  C3  I4B d   1      -1.012   2.421   1.867  0.00  0.00     0.002 A 
ATOM      4  C4  I4B d   1      -0.726   1.825   3.078  0.00  0.00    -0.004 A 
ATOM      5  C5  I4B d   1       0.303   0.892   3.171  0.00  0.00     0.002 A 
ATOM      6  C6  I4B d   1       1.027   0.528   2.026  0.00  0.00     0.003 A 
ENDROOT
BRANCH   1   7
ATOM      7  C1' I4B d   1       1.402   0.663  -0.452  0.00  0.00     0.060 C 
BRANCH   7   8
ATOM      8  C2' I4B d   1       2.650  -0.097  -0.048  0.00  0.00    -0.013 C 
ATOM      9  C4' I4B d   1       2.649  -1.490  -0.621  0.00  0.00     0.013 C 
ATOM     10  C3' I4B d   1       3.840   0.683  -0.522  0.00  0.00     0.013 C 
ENDBRANCH   7   8
ENDBRANCH   1   7
TORSDOF 2
ENDMDL
