MODEL 1
REMARK minimizedAffinity 8.65099907
REMARK minimizedRMSD -1
REMARK  2 active torsions:
REMARK  status: ('A' for Active; 'I' for Inactive)
REMARK    1  A    between atoms: C2'_3  and  C1'_4 
REMARK    2  A    between atoms: C1'_4  and  C1_5 
ROOT
ATOM      1  C1  I4B d   1       3.369  -0.132  -0.739  0.00  0.00    -0.075 A 
ATOM      2  C2  I4B d   1       2.631  -0.935   0.094  0.00  0.00     0.003 A 
ATOM      3  C3  I4B d   1       2.287  -2.250  -0.305  0.00  0.00     0.002 A 
ATOM      4  C4  I4B d   1       2.657  -2.700  -1.556  0.00  0.00    -0.004 A 
ATOM      5  C5  I4B d   1       3.426  -1.892  -2.389  0.00  0.00     0.002 A 
ATOM      6  C6  I4B d   1       3.795  -0.604  -1.974  0.00  0.00     0.003 A 
ENDROOT
BRANCH   1   7
ATOM      7  C1' I4B d   1       3.686   1.263  -0.300  0.00  0.00     0.060 C 
BRANCH   7   8
ATOM      8  C2' I4B d   1       5.128   1.550  -0.664  0.00  0.00    -0.013 C 
ATOM      9  C4' I4B d   1       5.488   2.984  -0.377  0.00  0.00     0.013 C 
ATOM     10  C3' I4B d   1       5.999   0.608   0.112  0.00  0.00     0.013 C 
ENDBRANCH   7   8
ENDBRANCH   1   7
TORSDOF 2
ENDMDL
