MODEL 1
REMARK minimizedAffinity 4.82513666
REMARK minimizedRMSD -1
REMARK  2 active torsions:
REMARK  status: ('A' for Active; 'I' for Inactive)
REMARK    1  A    between atoms: C2'_3  and  C1'_4 
REMARK    2  A    between atoms: C1'_4  and  C1_5 
ROOT
ATOM      1  C1  I4B d   1       1.476  -2.376  -0.745  0.00  0.00    -0.075 A 
ATOM      2  C2  I4B d   1       0.930  -3.449  -0.086  0.00  0.00     0.003 A 
ATOM      3  C3  I4B d   1      -0.257  -4.052  -0.567  0.00  0.00     0.002 A 
ATOM      4  C4  I4B d   1      -0.889  -3.522  -1.674  0.00  0.00    -0.004 A 
ATOM      5  C5  I4B d   1      -0.321  -2.448  -2.354  0.00  0.00     0.002 A 
ATOM      6  C6  I4B d   1       0.875  -1.879  -1.894  0.00  0.00     0.003 A 
ENDROOT
BRANCH   1   7
ATOM      7  C1' I4B d   1       2.712  -1.743  -0.190  0.00  0.00     0.060 C 
BRANCH   7   8
ATOM      8  C2' I4B d   1       2.824  -0.348  -0.773  0.00  0.00    -0.013 C 
ATOM      9  C4' I4B d   1       1.887   0.608  -0.083  0.00  0.00     0.013 C 
ATOM     10  C3' I4B d   1       4.250   0.097  -0.636  0.00  0.00     0.013 C 
ENDBRANCH   7   8
ENDBRANCH   1   7
TORSDOF 2
ENDMDL
