MODEL 1
REMARK minimizedAffinity 12.9135408
REMARK minimizedRMSD -1
REMARK  2 active torsions:
REMARK  status: ('A' for Active; 'I' for Inactive)
REMARK    1  A    between atoms: C2'_3  and  C1'_4 
REMARK    2  A    between atoms: C1'_4  and  C1_5 
ROOT
ATOM      1  C1  I4B d   1       1.787  -2.481  -0.813  0.00  0.00    -0.075 A 
ATOM      2  C2  I4B d   1       1.336  -3.513  -0.029  0.00  0.00     0.003 A 
ATOM      3  C3  I4B d   1       0.234  -4.298  -0.448  0.00  0.00     0.002 A 
ATOM      4  C4  I4B d   1      -0.415  -3.985  -1.625  0.00  0.00    -0.004 A 
ATOM      5  C5  I4B d   1       0.058  -2.952  -2.430  0.00  0.00     0.002 A 
ATOM      6  C6  I4B d   1       1.173  -2.203  -2.028  0.00  0.00     0.003 A 
ENDROOT
BRANCH   1   7
ATOM      7  C1' I4B d   1       2.933  -1.652  -0.325  0.00  0.00     0.060 C 
BRANCH   7   8
ATOM      8  C2' I4B d   1       2.793  -0.266  -0.920  0.00  0.00    -0.013 C 
ATOM      9  C4' I4B d   1       1.656   0.489  -0.283  0.00  0.00     0.013 C 
ATOM     10  C3' I4B d   1       4.095   0.453  -0.728  0.00  0.00     0.013 C 
ENDBRANCH   7   8
ENDBRANCH   1   7
TORSDOF 2
ENDMDL
