MODEL 1
REMARK minimizedAffinity 10.0362854
REMARK minimizedRMSD -1
REMARK  2 active torsions:
REMARK  status: ('A' for Active; 'I' for Inactive)
REMARK    1  A    between atoms: C2'_3  and  C1'_4 
REMARK    2  A    between atoms: C1'_4  and  C1_5 
ROOT
ATOM      1  C1  I4B d   1       1.281   1.338   0.479  0.00  0.00    -0.075 A 
ATOM      2  C2  I4B d   1       0.028   1.717   0.067  0.00  0.00     0.003 A 
ATOM      3  C3  I4B d   1      -1.000   1.936   1.016  0.00  0.00     0.002 A 
ATOM      4  C4  I4B d   1      -0.746   1.716   2.355  0.00  0.00    -0.004 A 
ATOM      5  C5  I4B d   1       0.532   1.354   2.773  0.00  0.00     0.002 A 
ATOM      6  C6  I4B d   1       1.555   1.176   1.831  0.00  0.00     0.003 A 
ENDROOT
BRANCH   1   7
ATOM      7  C1' I4B d   1       2.333   1.084  -0.553  0.00  0.00     0.060 C 
BRANCH   7   8
ATOM      8  C2' I4B d   1       3.686   1.255   0.107  0.00  0.00    -0.013 C 
ATOM      9  C4' I4B d   1       4.739   0.431  -0.585  0.00  0.00     0.013 C 
ATOM     10  C3' I4B d   1       4.034   2.713   0.079  0.00  0.00     0.013 C 
ENDBRANCH   7   8
ENDBRANCH   1   7
TORSDOF 2
ENDMDL
