MODEL 1
REMARK minimizedAffinity -3.34066772
REMARK minimizedRMSD -1
REMARK  0 active torsions:
REMARK  status: ('A' for Active; 'I' for Inactive)
ROOT
ATOM      1  C   UNL d   1      -1.117   1.192   2.741  0.00  0.00     0.172 C 
ATOM      2  N   UNL d   1      -0.445   0.567   1.627  0.00  0.00    -0.070 N 
ATOM      3  C1  UNL d   1       0.884   0.239   1.578  0.00  0.00    -0.004 A 
ATOM      4  C2  UNL d   1       1.131  -0.337   0.350  0.00  0.00    -0.047 A 
ATOM      5  C3  UNL d   1      -0.091  -0.355  -0.363  0.00  0.00    -0.047 A 
ATOM      6  C4  UNL d   1      -1.050   0.210   0.451  0.00  0.00    -0.004 A 
ENDROOT
TORSDOF 0
ENDMDL
