MODEL 1
REMARK minimizedAffinity -1.64772153
REMARK minimizedRMSD -1
REMARK  0 active torsions:
REMARK  status: ('A' for Active; 'I' for Inactive)
ROOT
ATOM      1  C   UNL d   1      -0.741  -0.737  -1.704  0.00  0.00     0.172 C 
ATOM      2  N   UNL d   1      -0.630  -0.164  -0.383  0.00  0.00    -0.070 N 
ATOM      3  C1  UNL d   1       0.540   0.121   0.268  0.00  0.00    -0.004 A 
ATOM      4  C2  UNL d   1       0.221   0.654   1.498  0.00  0.00    -0.047 A 
ATOM      5  C3  UNL d   1      -1.191   0.689   1.590  0.00  0.00    -0.047 A 
ATOM      6  C4  UNL d   1      -1.692   0.177   0.412  0.00  0.00    -0.004 A 
ENDROOT
TORSDOF 0
ENDMDL
