MODEL 1
REMARK minimizedAffinity -1.70464969
REMARK minimizedRMSD -1
REMARK  0 active torsions:
REMARK  status: ('A' for Active; 'I' for Inactive)
ROOT
ATOM      1  C   UNL d   1       0.444  -0.854  -1.859  0.00  0.00     0.172 C 
ATOM      2  N   UNL d   1       0.728  -0.430  -0.508  0.00  0.00    -0.070 N 
ATOM      3  C1  UNL d   1       1.687  -0.963   0.311  0.00  0.00    -0.004 A 
ATOM      4  C2  UNL d   1       1.641  -0.286   1.511  0.00  0.00    -0.047 A 
ATOM      5  C3  UNL d   1       0.618   0.686   1.410  0.00  0.00    -0.047 A 
ATOM      6  C4  UNL d   1       0.069   0.576   0.150  0.00  0.00    -0.004 A 
ENDROOT
TORSDOF 0
ENDMDL
