MODEL 1
REMARK minimizedAffinity -2.2160151
REMARK minimizedRMSD -1
REMARK  0 active torsions:
REMARK  status: ('A' for Active; 'I' for Inactive)
ROOT
ATOM      1  C   UNL d   1       0.327  -1.106  -1.126  0.00  0.00     0.172 C 
ATOM      2  N   UNL d   1       0.670  -0.401   0.086  0.00  0.00    -0.070 N 
ATOM      3  C1  UNL d   1       1.824  -0.563   0.805  0.00  0.00    -0.004 A 
ATOM      4  C2  UNL d   1       1.770   0.288   1.888  0.00  0.00    -0.047 A 
ATOM      5  C3  UNL d   1       0.540   0.984   1.819  0.00  0.00    -0.047 A 
ATOM      6  C4  UNL d   1      -0.121   0.539   0.694  0.00  0.00    -0.004 A 
ENDROOT
TORSDOF 0
ENDMDL
