MODEL 1
REMARK minimizedAffinity -2.37265825
REMARK minimizedRMSD -1
REMARK  0 active torsions:
REMARK  status: ('A' for Active; 'I' for Inactive)
ROOT
ATOM      1  C   UNL d   1      -1.056  -0.476  -0.497  0.00  0.00     0.172 C 
ATOM      2  N   UNL d   1      -0.663   0.467   0.524  0.00  0.00    -0.070 N 
ATOM      3  C1  UNL d   1       0.453   1.260   0.491  0.00  0.00    -0.004 A 
ATOM      4  C2  UNL d   1       0.468   2.014   1.645  0.00  0.00    -0.047 A 
ATOM      5  C3  UNL d   1      -0.677   1.661   2.397  0.00  0.00    -0.047 A 
ATOM      6  C4  UNL d   1      -1.360   0.701   1.680  0.00  0.00    -0.004 A 
ENDROOT
TORSDOF 0
ENDMDL
