MODEL 1
REMARK minimizedAffinity -4.39116001
REMARK minimizedRMSD -1
REMARK  0 active torsions:
REMARK  status: ('A' for Active; 'I' for Inactive)
ROOT
ATOM      1  C   UNL d   1       0.193  -0.356  -0.248  0.00  0.00     0.172 C 
ATOM      2  N   UNL d   1       0.184   0.101   1.122  0.00  0.00    -0.070 N 
ATOM      3  C1  UNL d   1      -0.811   0.833   1.713  0.00  0.00    -0.004 A 
ATOM      4  C2  UNL d   1      -0.444   1.066   3.021  0.00  0.00    -0.047 A 
ATOM      5  C3  UNL d   1       0.816   0.455   3.222  0.00  0.00    -0.047 A 
ATOM      6  C4  UNL d   1       1.182  -0.135   2.031  0.00  0.00    -0.004 A 
ENDROOT
TORSDOF 0
ENDMDL
