MODEL 1
REMARK minimizedAffinity -2.21436453
REMARK minimizedRMSD -1
REMARK  0 active torsions:
REMARK  status: ('A' for Active; 'I' for Inactive)
ROOT
ATOM      1  C   UNL d   1       0.521   0.017  -1.940  0.00  0.00     0.172 C 
ATOM      2  N   UNL d   1       0.026   0.137  -0.589  0.00  0.00    -0.070 N 
ATOM      3  C1  UNL d   1      -1.096  -0.472  -0.093  0.00  0.00    -0.004 A 
ATOM      4  C2  UNL d   1      -1.224  -0.107   1.230  0.00  0.00    -0.047 A 
ATOM      5  C3  UNL d   1      -0.143   0.752   1.539  0.00  0.00    -0.047 A 
ATOM      6  C4  UNL d   1       0.615   0.886   0.395  0.00  0.00    -0.004 A 
ENDROOT
TORSDOF 0
ENDMDL
