MODEL 1
REMARK minimizedAffinity 2.20088959
REMARK minimizedRMSD -1
REMARK  0 active torsions:
REMARK  status: ('A' for Active; 'I' for Inactive)
ROOT
ATOM      1  C   UNL d   1       3.366   0.226  -3.023  0.00  0.00     0.172 C 
ATOM      2  N   UNL d   1       4.384  -0.695  -3.470  0.00  0.00    -0.070 N 
ATOM      3  C1  UNL d   1       4.746  -0.914  -4.772  0.00  0.00    -0.004 A 
ATOM      4  C2  UNL d   1       5.748  -1.861  -4.778  0.00  0.00    -0.047 A 
ATOM      5  C3  UNL d   1       5.996  -2.223  -3.432  0.00  0.00    -0.047 A 
ATOM      6  C4  UNL d   1       5.138  -1.486  -2.644  0.00  0.00    -0.004 A 
ENDROOT
TORSDOF 0
ENDMDL
