MODEL 1
REMARK minimizedAffinity 2.1097579
REMARK minimizedRMSD -1
REMARK  0 active torsions:
REMARK  status: ('A' for Active; 'I' for Inactive)
ROOT
ATOM      1  C   UNL d   1       0.602   0.161  -4.649  0.00  0.00     0.172 C 
ATOM      2  N   UNL d   1       1.908   0.395  -4.081  0.00  0.00    -0.070 N 
ATOM      3  C1  UNL d   1       2.972  -0.465  -4.144  0.00  0.00    -0.004 A 
ATOM      4  C2  UNL d   1       4.030   0.124  -3.485  0.00  0.00    -0.047 A 
ATOM      5  C3  UNL d   1       3.586   1.381  -3.009  0.00  0.00    -0.047 A 
ATOM      6  C4  UNL d   1       2.269   1.523  -3.392  0.00  0.00    -0.004 A 
ENDROOT
TORSDOF 0
ENDMDL
