MODEL 1
REMARK minimizedAffinity -0.987424254
REMARK minimizedRMSD -1
REMARK  1 active torsions:
REMARK  status: ('A' for Active; 'I' for Inactive)
REMARK    1  A    between atoms: C1_2  and  C2_3 
ROOT
ATOM      1  C2  UNL d   1      -3.913  -0.812   2.658  0.00  0.00    -0.077 A 
ATOM      2  C3  UNL d   1      -2.943  -1.296   1.770  0.00  0.00     0.002 A 
ATOM      3  C4  UNL d   1      -1.643  -0.785   1.797  0.00  0.00     0.002 A 
ATOM      4  C5  UNL d   1      -1.302   0.208   2.712  0.00  0.00    -0.004 A 
ATOM      5  C6  UNL d   1      -2.261   0.698   3.598  0.00  0.00     0.002 A 
ATOM      6  C7  UNL d   1      -3.560   0.189   3.572  0.00  0.00     0.002 A 
ENDROOT
BRANCH   1   7
ATOM      7  C1  UNL d   1      -5.302  -1.396   2.664  0.00  0.00     0.055 C 
ATOM      8  C   UNL d   1      -5.309  -2.800   3.251  0.00  0.00     0.019 C 
ENDBRANCH   1   7
TORSDOF 1
ENDMDL
