MODEL 1
REMARK minimizedAffinity 9.0373764
REMARK minimizedRMSD -1
REMARK  1 active torsions:
REMARK  status: ('A' for Active; 'I' for Inactive)
REMARK    1  A    between atoms: C1_2  and  C2_3 
ROOT
ATOM      1  C2  UNL d   1      -2.342  -4.767  -4.144  0.00  0.00    -0.077 A 
ATOM      2  C3  UNL d   1      -2.791  -3.457  -3.925  0.00  0.00     0.002 A 
ATOM      3  C4  UNL d   1      -2.159  -2.642  -2.984  0.00  0.00     0.002 A 
ATOM      4  C5  UNL d   1      -1.073  -3.126  -2.259  0.00  0.00    -0.004 A 
ATOM      5  C6  UNL d   1      -0.620  -4.428  -2.468  0.00  0.00     0.002 A 
ATOM      6  C7  UNL d   1      -1.251  -5.245  -3.407  0.00  0.00     0.002 A 
ENDROOT
BRANCH   1   7
ATOM      7  C1  UNL d   1      -2.991  -5.631  -5.194  0.00  0.00     0.055 C 
ATOM      8  C   UNL d   1      -4.017  -4.848  -5.999  0.00  0.00     0.019 C 
ENDBRANCH   1   7
TORSDOF 1
ENDMDL
