MODEL 1
REMARK minimizedAffinity 10.0789433
REMARK minimizedRMSD -1
REMARK  1 active torsions:
REMARK  status: ('A' for Active; 'I' for Inactive)
REMARK    1  A    between atoms: C1_2  and  C2_3 
ROOT
ATOM      1  C2  UNL d   1       3.427   3.288  -3.437  0.00  0.00    -0.077 A 
ATOM      2  C3  UNL d   1       3.654   2.954  -4.780  0.00  0.00     0.002 A 
ATOM      3  C4  UNL d   1       4.792   3.420  -5.441  0.00  0.00     0.002 A 
ATOM      4  C5  UNL d   1       5.713   4.219  -4.767  0.00  0.00    -0.004 A 
ATOM      5  C6  UNL d   1       5.496   4.558  -3.433  0.00  0.00     0.002 A 
ATOM      6  C7  UNL d   1       4.358   4.095  -2.770  0.00  0.00     0.002 A 
ENDROOT
BRANCH   1   7
ATOM      7  C1  UNL d   1       2.226   2.746  -2.708  0.00  0.00     0.055 C 
ATOM      8  C   UNL d   1       2.620   1.650  -1.729  0.00  0.00     0.019 C 
ENDBRANCH   1   7
TORSDOF 1
ENDMDL
