MODEL 1
REMARK minimizedAffinity 7.47957611
REMARK minimizedRMSD -1
REMARK  1 active torsions:
REMARK  status: ('A' for Active; 'I' for Inactive)
REMARK    1  A    between atoms: C1_2  and  C2_3 
ROOT
ATOM      1  C2  UNL d   1      -3.945  -0.171   1.490  0.00  0.00    -0.077 A 
ATOM      2  C3  UNL d   1      -3.308  -1.223   0.817  0.00  0.00     0.002 A 
ATOM      3  C4  UNL d   1      -1.989  -1.563   1.125  0.00  0.00     0.002 A 
ATOM      4  C5  UNL d   1      -1.298  -0.859   2.109  0.00  0.00    -0.004 A 
ATOM      5  C6  UNL d   1      -1.923   0.190   2.783  0.00  0.00     0.002 A 
ATOM      6  C7  UNL d   1      -3.240   0.532   2.476  0.00  0.00     0.002 A 
ENDROOT
BRANCH   1   7
ATOM      7  C1  UNL d   1      -5.383   0.165   1.194  0.00  0.00     0.055 C 
ATOM      8  C   UNL d   1      -5.553   0.659  -0.235  0.00  0.00     0.019 C 
ENDBRANCH   1   7
TORSDOF 1
ENDMDL
