MODEL 1
REMARK minimizedAffinity 17.5472813
REMARK minimizedRMSD -1
REMARK  1 active torsions:
REMARK  status: ('A' for Active; 'I' for Inactive)
REMARK    1  A    between atoms: C1_2  and  C2_3 
ROOT
ATOM      1  C2  UNL d   1       0.143  -1.407   2.192  0.00  0.00    -0.077 A 
ATOM      2  C3  UNL d   1      -0.477  -2.343   1.353  0.00  0.00     0.002 A 
ATOM      3  C4  UNL d   1      -1.788  -2.140   0.915  0.00  0.00     0.002 A 
ATOM      4  C5  UNL d   1      -2.487  -1.001   1.308  0.00  0.00    -0.004 A 
ATOM      5  C6  UNL d   1      -1.879  -0.065   2.145  0.00  0.00     0.002 A 
ATOM      6  C7  UNL d   1      -0.570  -0.267   2.584  0.00  0.00     0.002 A 
ENDROOT
BRANCH   1   7
ATOM      7  C1  UNL d   1       1.573  -1.599   2.625  0.00  0.00     0.055 C 
ATOM      8  C   UNL d   1       1.786  -2.978   3.233  0.00  0.00     0.019 C 
ENDBRANCH   1   7
TORSDOF 1
ENDMDL
