MODEL 1
REMARK minimizedAffinity 10.2115173
REMARK minimizedRMSD -1
REMARK  1 active torsions:
REMARK  status: ('A' for Active; 'I' for Inactive)
REMARK    1  A    between atoms: C1_2  and  C2_3 
ROOT
ATOM      1  C2  UNL d   1       0.553  -2.359   1.944  0.00  0.00    -0.077 A 
ATOM      2  C3  UNL d   1       0.102  -1.094   2.347  0.00  0.00     0.002 A 
ATOM      3  C4  UNL d   1      -1.185  -0.665   2.015  0.00  0.00     0.002 A 
ATOM      4  C5  UNL d   1      -2.031  -1.495   1.282  0.00  0.00    -0.004 A 
ATOM      5  C6  UNL d   1      -1.590  -2.753   0.874  0.00  0.00     0.002 A 
ATOM      6  C7  UNL d   1      -0.304  -3.184   1.204  0.00  0.00     0.002 A 
ENDROOT
BRANCH   1   7
ATOM      7  C1  UNL d   1       1.923  -2.843   2.343  0.00  0.00     0.055 C 
ATOM      8  C   UNL d   1       2.552  -1.928   3.383  0.00  0.00     0.019 C 
ENDBRANCH   1   7
TORSDOF 1
ENDMDL
