MODEL 1
REMARK minimizedAffinity 13.4776402
REMARK minimizedRMSD -1
REMARK  1 active torsions:
REMARK  status: ('A' for Active; 'I' for Inactive)
REMARK    1  A    between atoms: C1_2  and  C2_3 
ROOT
ATOM      1  C2  UNL d   1      -5.018  -5.139   3.454  0.00  0.00    -0.077 A 
ATOM      2  C3  UNL d   1      -5.877  -5.072   4.559  0.00  0.00     0.002 A 
ATOM      3  C4  UNL d   1      -5.435  -5.467   5.823  0.00  0.00     0.002 A 
ATOM      4  C5  UNL d   1      -4.131  -5.927   5.994  0.00  0.00    -0.004 A 
ATOM      5  C6  UNL d   1      -3.269  -5.999   4.900  0.00  0.00     0.002 A 
ATOM      6  C7  UNL d   1      -3.710  -5.607   3.636  0.00  0.00     0.002 A 
ENDROOT
BRANCH   1   7
ATOM      7  C1  UNL d   1      -5.478  -4.668   2.099  0.00  0.00     0.055 C 
ATOM      8  C   UNL d   1      -5.262  -3.171   1.931  0.00  0.00     0.019 C 
ENDBRANCH   1   7
TORSDOF 1
ENDMDL
