MODEL 1
REMARK minimizedAffinity 4.67185736
REMARK minimizedRMSD -1
REMARK  1 active torsions:
REMARK  status: ('A' for Active; 'I' for Inactive)
REMARK    1  A    between atoms: C1_2  and  C2_3 
ROOT
ATOM      1  C2  UNL d   1       0.236  -5.235  -4.149  0.00  0.00    -0.077 A 
ATOM      2  C3  UNL d   1      -0.769  -4.484  -3.524  0.00  0.00     0.002 A 
ATOM      3  C4  UNL d   1      -2.072  -4.491  -4.025  0.00  0.00     0.002 A 
ATOM      4  C5  UNL d   1      -2.383  -5.250  -5.151  0.00  0.00    -0.004 A 
ATOM      5  C6  UNL d   1      -1.390  -6.000  -5.781  0.00  0.00     0.002 A 
ATOM      6  C7  UNL d   1      -0.087  -5.993  -5.282  0.00  0.00     0.002 A 
ENDROOT
BRANCH   1   7
ATOM      7  C1  UNL d   1       1.630  -5.268  -3.580  0.00  0.00     0.055 C 
ATOM      8  C   UNL d   1       2.589  -6.000  -4.508  0.00  0.00     0.019 C 
ENDBRANCH   1   7
TORSDOF 1
ENDMDL
