MODEL 1
REMARK minimizedAffinity 8.21731663
REMARK minimizedRMSD -1
REMARK  1 active torsions:
REMARK  status: ('A' for Active; 'I' for Inactive)
REMARK    1  A    between atoms: C1_2  and  C2_3 
ROOT
ATOM      1  C2  UNL d   1      -2.106  -1.037   1.698  0.00  0.00    -0.077 A 
ATOM      2  C3  UNL d   1      -1.261  -0.510   2.685  0.00  0.00     0.002 A 
ATOM      3  C4  UNL d   1      -1.703   0.520   3.517  0.00  0.00     0.002 A 
ATOM      4  C5  UNL d   1      -2.993   1.029   3.374  0.00  0.00    -0.004 A 
ATOM      5  C6  UNL d   1      -3.840   0.513   2.394  0.00  0.00     0.002 A 
ATOM      6  C7  UNL d   1      -3.399  -0.516   1.560  0.00  0.00     0.002 A 
ENDROOT
BRANCH   1   7
ATOM      7  C1  UNL d   1      -1.647  -2.181   0.832  0.00  0.00     0.055 C 
ATOM      8  C   UNL d   1      -2.433  -3.450   1.129  0.00  0.00     0.019 C 
ENDBRANCH   1   7
TORSDOF 1
ENDMDL
