MODEL 1
REMARK minimizedAffinity 10.1761398
REMARK minimizedRMSD -1
REMARK  1 active torsions:
REMARK  status: ('A' for Active; 'I' for Inactive)
REMARK    1  A    between atoms: C1_2  and  C2_3 
ROOT
ATOM      1  C2  UNL d   1      -3.497  -0.136   1.593  0.00  0.00    -0.077 A 
ATOM      2  C3  UNL d   1      -2.960   0.659   2.616  0.00  0.00     0.002 A 
ATOM      3  C4  UNL d   1      -1.628   0.506   3.004  0.00  0.00     0.002 A 
ATOM      4  C5  UNL d   1      -0.821  -0.438   2.373  0.00  0.00    -0.004 A 
ATOM      5  C6  UNL d   1      -1.345  -1.236   1.357  0.00  0.00     0.002 A 
ATOM      6  C7  UNL d   1      -2.677  -1.085   0.968  0.00  0.00     0.002 A 
ENDROOT
BRANCH   1   7
ATOM      7  C1  UNL d   1      -4.919   0.061   1.139  0.00  0.00     0.055 C 
ATOM      8  C   UNL d   1      -4.999   1.043  -0.021  0.00  0.00     0.019 C 
ENDBRANCH   1   7
TORSDOF 1
ENDMDL
