MODEL 1
REMARK minimizedAffinity 10.2975845
REMARK minimizedRMSD -1
REMARK  1 active torsions:
REMARK  status: ('A' for Active; 'I' for Inactive)
REMARK    1  A    between atoms: C1_2  and  C2_3 
ROOT
ATOM      1  C2  UNL d   1       3.912   2.053   0.790  0.00  0.00    -0.077 A 
ATOM      2  C3  UNL d   1       4.121   2.306   2.153  0.00  0.00     0.002 A 
ATOM      3  C4  UNL d   1       5.158   3.145   2.565  0.00  0.00     0.002 A 
ATOM      4  C5  UNL d   1       5.992   3.740   1.620  0.00  0.00    -0.004 A 
ATOM      5  C6  UNL d   1       5.793   3.493   0.262  0.00  0.00     0.002 A 
ATOM      6  C7  UNL d   1       4.757   2.654  -0.151  0.00  0.00     0.002 A 
ENDROOT
BRANCH   1   7
ATOM      7  C1  UNL d   1       2.763   1.188   0.342  0.00  0.00     0.055 C 
ATOM      8  C   UNL d   1       2.385   1.476  -1.104  0.00  0.00     0.019 C 
ENDBRANCH   1   7
TORSDOF 1
ENDMDL
