MODEL 1
REMARK minimizedAffinity 1.20854652
REMARK minimizedRMSD -1
REMARK  1 active torsions:
REMARK  status: ('A' for Active; 'I' for Inactive)
REMARK    1  A    between atoms: C1_2  and  C2_3 
ROOT
ATOM      1  C2  UNL d   1       0.056  -0.106   4.039  0.00  0.00    -0.077 A 
ATOM      2  C3  UNL d   1      -0.325  -0.185   5.386  0.00  0.00     0.002 A 
ATOM      3  C4  UNL d   1      -1.452   0.502   5.842  0.00  0.00     0.002 A 
ATOM      4  C5  UNL d   1      -2.208   1.269   4.959  0.00  0.00    -0.004 A 
ATOM      5  C6  UNL d   1      -1.836   1.356   3.618  0.00  0.00     0.002 A 
ATOM      6  C7  UNL d   1      -0.710   0.671   3.160  0.00  0.00     0.002 A 
ENDROOT
BRANCH   1   7
ATOM      7  C1  UNL d   1       1.242  -0.885   3.534  0.00  0.00     0.055 C 
ATOM      8  C   UNL d   1       0.945  -2.377   3.489  0.00  0.00     0.019 C 
ENDBRANCH   1   7
TORSDOF 1
ENDMDL
