MODEL 1
REMARK minimizedAffinity 11.3769608
REMARK minimizedRMSD -1
REMARK  1 active torsions:
REMARK  status: ('A' for Active; 'I' for Inactive)
REMARK    1  A    between atoms: C1_2  and  C2_3 
ROOT
ATOM      1  C2  UNL d   1      -5.962  -0.783  -2.103  0.00  0.00    -0.077 A 
ATOM      2  C3  UNL d   1      -5.984  -2.143  -2.442  0.00  0.00     0.002 A 
ATOM      3  C4  UNL d   1      -5.994  -2.537  -3.781  0.00  0.00     0.002 A 
ATOM      4  C5  UNL d   1      -5.978  -1.578  -4.792  0.00  0.00    -0.004 A 
ATOM      5  C6  UNL d   1      -5.959  -0.223  -4.465  0.00  0.00     0.002 A 
ATOM      6  C7  UNL d   1      -5.950   0.173  -3.126  0.00  0.00     0.002 A 
ENDROOT
BRANCH   1   7
ATOM      7  C1  UNL d   1      -5.902  -0.357  -0.659  0.00  0.00     0.055 C 
ATOM      8  C   UNL d   1      -5.779   1.155  -0.533  0.00  0.00     0.019 C 
ENDBRANCH   1   7
TORSDOF 1
ENDMDL
