MODEL 1
REMARK minimizedAffinity 9.31518078
REMARK minimizedRMSD -1
REMARK  0 active torsions:
REMARK  status: ('A' for Active; 'I' for Inactive)
ROOT
ATOM      1  C4' PXY d   1       0.576   5.993  -2.121  0.00  0.00     0.077 C 
ATOM      2  C1' PXY d   1      -0.285   2.896   2.683  0.00  0.00     0.077 C 
ATOM      3  C1  PXY d   1      -0.066   3.718   1.428  0.00  0.00    -0.082 A 
ATOM      4  C2  PXY d   1       0.192   3.108   0.283  0.00  0.00     0.003 A 
ATOM      5  C3  PXY d   1       0.425   3.837  -0.855  0.00  0.00     0.003 A 
ATOM      6  C4  PXY d   1       0.339   5.203  -0.831  0.00  0.00    -0.082 A 
ATOM      7  C5  PXY d   1       0.065   5.833   0.331  0.00  0.00     0.003 A 
ATOM      8  C6  PXY d   1      -0.127   5.077   1.483  0.00  0.00     0.003 A 
ENDROOT
TORSDOF 0
ENDMDL
