MODEL 1
REMARK minimizedAffinity 10.3799
REMARK minimizedRMSD -1
REMARK  0 active torsions:
REMARK  status: ('A' for Active; 'I' for Inactive)
ROOT
ATOM      1  C4' PXY d   1      -1.677   2.064   2.944  0.00  0.00     0.077 C 
ATOM      2  C1' PXY d   1       0.724   5.479  -1.054  0.00  0.00     0.077 C 
ATOM      3  C1  PXY d   1       0.102   4.574  -0.010  0.00  0.00    -0.082 A 
ATOM      4  C2  PXY d   1      -1.094   4.862   0.477  0.00  0.00     0.003 A 
ATOM      5  C3  PXY d   1      -1.658   4.072   1.446  0.00  0.00     0.003 A 
ATOM      6  C4  PXY d   1      -1.014   2.945   1.881  0.00  0.00    -0.082 A 
ATOM      7  C5  PXY d   1       0.201   2.638   1.381  0.00  0.00     0.003 A 
ATOM      8  C6  PXY d   1       0.775   3.475   0.429  0.00  0.00     0.003 A 
ENDROOT
TORSDOF 0
ENDMDL
