MODEL 1
REMARK minimizedAffinity 8.04830837
REMARK minimizedRMSD -1
REMARK  0 active torsions:
REMARK  status: ('A' for Active; 'I' for Inactive)
ROOT
ATOM      1  C4' PXY d   1      -0.023   3.734   0.362  0.00  0.00     0.077 C 
ATOM      2  C1' PXY d   1       0.590   0.134   4.844  0.00  0.00     0.077 C 
ATOM      3  C1  PXY d   1       0.417   1.073   3.666  0.00  0.00    -0.082 A 
ATOM      4  C2  PXY d   1       1.485   1.586   3.076  0.00  0.00     0.003 A 
ATOM      5  C3  PXY d   1       1.347   2.462   2.031  0.00  0.00     0.003 A 
ATOM      6  C4  PXY d   1       0.104   2.774   1.549  0.00  0.00    -0.082 A 
ATOM      7  C5  PXY d   1      -0.990   2.247   2.138  0.00  0.00     0.003 A 
ATOM      8  C6  PXY d   1      -0.830   1.392   3.224  0.00  0.00     0.003 A 
ENDROOT
TORSDOF 0
ENDMDL
