MODEL 1
REMARK minimizedAffinity 12.0403805
REMARK minimizedRMSD -1
REMARK  0 active torsions:
REMARK  status: ('A' for Active; 'I' for Inactive)
ROOT
ATOM      1  C4' PXY d   1       0.364   3.064   2.130  0.00  0.00     0.077 C 
ATOM      2  C1' PXY d   1       1.898  -2.023   4.407  0.00  0.00     0.077 C 
ATOM      3  C1  PXY d   1       1.483  -0.692   3.812  0.00  0.00    -0.082 A 
ATOM      4  C2  PXY d   1       2.273  -0.092   2.936  0.00  0.00     0.003 A 
ATOM      5  C3  PXY d   1       1.928   1.128   2.413  0.00  0.00     0.003 A 
ATOM      6  C4  PXY d   1       0.738   1.714   2.749  0.00  0.00    -0.082 A 
ATOM      7  C5  PXY d   1      -0.079   1.104   3.634  0.00  0.00     0.003 A 
ATOM      8  C6  PXY d   1       0.309  -0.114   4.185  0.00  0.00     0.003 A 
ENDROOT
TORSDOF 0
ENDMDL
