MODEL 1
REMARK minimizedAffinity 5.68523693
REMARK minimizedRMSD -1
REMARK  0 active torsions:
REMARK  status: ('A' for Active; 'I' for Inactive)
ROOT
ATOM      1  C4' PXY d   1       0.995   3.130   2.934  0.00  0.00     0.077 C 
ATOM      2  C1' PXY d   1      -0.139   5.804  -2.063  0.00  0.00     0.077 C 
ATOM      3  C1  PXY d   1       0.149   5.093  -0.756  0.00  0.00    -0.082 A 
ATOM      4  C2  PXY d   1       0.632   5.778   0.268  0.00  0.00     0.003 A 
ATOM      5  C3  PXY d   1       0.929   5.145   1.448  0.00  0.00     0.003 A 
ATOM      6  C4  PXY d   1       0.679   3.807   1.598  0.00  0.00    -0.082 A 
ATOM      7  C5  PXY d   1       0.177   3.104   0.561  0.00  0.00     0.003 A 
ATOM      8  C6  PXY d   1      -0.079   3.757  -0.641  0.00  0.00     0.003 A 
ENDROOT
TORSDOF 0
ENDMDL
