MODEL 1
REMARK minimizedAffinity 1.71878421
REMARK minimizedRMSD -1
REMARK  0 active torsions:
REMARK  status: ('A' for Active; 'I' for Inactive)
ROOT
ATOM      1  C4' PXY d   1      -1.403   3.388   3.074  0.00  0.00     0.077 C 
ATOM      2  C1' PXY d   1       0.793   5.997  -1.593  0.00  0.00     0.077 C 
ATOM      3  C1  PXY d   1       0.215   5.325  -0.364  0.00  0.00    -0.082 A 
ATOM      4  C2  PXY d   1       0.551   4.076  -0.082  0.00  0.00     0.003 A 
ATOM      5  C3  PXY d   1       0.013   3.442   1.008  0.00  0.00     0.003 A 
ATOM      6  C4  PXY d   1      -0.837   4.110   1.849  0.00  0.00    -0.082 A 
ATOM      7  C5  PXY d   1      -1.176   5.388   1.574  0.00  0.00     0.003 A 
ATOM      8  C6  PXY d   1      -0.651   6.000   0.440  0.00  0.00     0.003 A 
ENDROOT
TORSDOF 0
ENDMDL
