MODEL 1
REMARK minimizedAffinity 11.1972418
REMARK minimizedRMSD -1
REMARK  0 active torsions:
REMARK  status: ('A' for Active; 'I' for Inactive)
ROOT
ATOM      1  C4' PXY d   1       0.314   6.000  -4.296  0.00  0.00     0.077 C 
ATOM      2  C1' PXY d   1      -0.485   4.182   1.133  0.00  0.00     0.077 C 
ATOM      3  C1  PXY d   1      -0.286   4.653  -0.295  0.00  0.00    -0.082 A 
ATOM      4  C2  PXY d   1       0.934   4.913  -0.734  0.00  0.00     0.003 A 
ATOM      5  C3  PXY d   1       1.129   5.370  -2.012  0.00  0.00     0.003 A 
ATOM      6  C4  PXY d   1       0.068   5.513  -2.866  0.00  0.00    -0.082 A 
ATOM      7  C5  PXY d   1      -1.180   5.240  -2.428  0.00  0.00     0.003 A 
ATOM      8  C6  PXY d   1      -1.360   4.816  -1.115  0.00  0.00     0.003 A 
ENDROOT
TORSDOF 0
ENDMDL
