MODEL 1
REMARK minimizedAffinity 10.8478689
REMARK minimizedRMSD -1
REMARK  0 active torsions:
REMARK  status: ('A' for Active; 'I' for Inactive)
ROOT
ATOM      1  C4' PXY d   1      -1.609  -0.590  -1.216  0.00  0.00     0.077 C 
ATOM      2  C1' PXY d   1      -5.202   0.107   3.259  0.00  0.00     0.077 C 
ATOM      3  C1  PXY d   1      -4.267  -0.067   2.078  0.00  0.00    -0.082 A 
ATOM      4  C2  PXY d   1      -3.578  -1.189   1.950  0.00  0.00     0.003 A 
ATOM      5  C3  PXY d   1      -2.703  -1.350   0.906  0.00  0.00     0.003 A 
ATOM      6  C4  PXY d   1      -2.572  -0.374  -0.045  0.00  0.00    -0.082 A 
ATOM      7  C5  PXY d   1      -3.280   0.769   0.073  0.00  0.00     0.003 A 
ATOM      8  C6  PXY d   1      -4.131   0.930   1.162  0.00  0.00     0.003 A 
ENDROOT
TORSDOF 0
ENDMDL
