MODEL 1
REMARK minimizedAffinity 9.01724148
REMARK minimizedRMSD -1
REMARK  0 active torsions:
REMARK  status: ('A' for Active; 'I' for Inactive)
ROOT
ATOM      1  C4' PXY d   1       1.010   6.000  -2.213  0.00  0.00     0.077 C 
ATOM      2  C1' PXY d   1      -0.870   2.654   2.110  0.00  0.00     0.077 C 
ATOM      3  C1  PXY d   1      -0.389   3.536   0.975  0.00  0.00    -0.082 A 
ATOM      4  C2  PXY d   1       0.672   3.177   0.271  0.00  0.00     0.003 A 
ATOM      5  C3  PXY d   1       1.140   3.979  -0.738  0.00  0.00     0.003 A 
ATOM      6  C4  PXY d   1       0.483   5.135  -1.064  0.00  0.00    -0.082 A 
ATOM      7  C5  PXY d   1      -0.607   5.504  -0.358  0.00  0.00     0.003 A 
ATOM      8  C6  PXY d   1      -1.041   4.696   0.689  0.00  0.00     0.003 A 
ENDROOT
TORSDOF 0
ENDMDL
