MODEL 1
REMARK minimizedAffinity 12.1946268
REMARK minimizedRMSD -1
REMARK  0 active torsions:
REMARK  status: ('A' for Active; 'I' for Inactive)
ROOT
ATOM      1  C4' PXY d   1      -0.495  -1.265  -1.059  0.00  0.00     0.077 C 
ATOM      2  C1' PXY d   1      -3.527   2.029  -4.716  0.00  0.00     0.077 C 
ATOM      3  C1  PXY d   1      -2.735   1.174  -3.747  0.00  0.00    -0.082 A 
ATOM      4  C2  PXY d   1      -1.792   0.367  -4.207  0.00  0.00     0.003 A 
ATOM      5  C3  PXY d   1      -1.088  -0.437  -3.348  0.00  0.00     0.003 A 
ATOM      6  C4  PXY d   1      -1.314  -0.376  -1.999  0.00  0.00    -0.082 A 
ATOM      7  C5  PXY d   1      -2.267   0.452  -1.521  0.00  0.00     0.003 A 
ATOM      8  C6  PXY d   1      -2.999   1.230  -2.413  0.00  0.00     0.003 A 
ENDROOT
TORSDOF 0
ENDMDL
