MODEL 1
REMARK minimizedAffinity 1.88320875
REMARK minimizedRMSD -1
REMARK  0 active torsions:
REMARK  status: ('A' for Active; 'I' for Inactive)
ROOT
ATOM      1  C4' PXY d   1      -5.698   0.961   3.720  0.00  0.00     0.077 C 
ATOM      2  C1' PXY d   1      -5.924  -4.508   5.577  0.00  0.00     0.077 C 
ATOM      3  C1  PXY d   1      -5.868  -3.070   5.102  0.00  0.00    -0.082 A 
ATOM      4  C2  PXY d   1      -6.000  -2.801   3.813  0.00  0.00     0.003 A 
ATOM      5  C3  PXY d   1      -5.920  -1.509   3.362  0.00  0.00     0.003 A 
ATOM      6  C4  PXY d   1      -5.757  -0.476   4.246  0.00  0.00    -0.082 A 
ATOM      7  C5  PXY d   1      -5.633  -0.741   5.564  0.00  0.00     0.003 A 
ATOM      8  C6  PXY d   1      -5.675  -2.063   5.997  0.00  0.00     0.003 A 
ENDROOT
TORSDOF 0
ENDMDL
