MODEL 1
REMARK minimizedAffinity 6.61635065
REMARK minimizedRMSD -1
REMARK  0 active torsions:
REMARK  status: ('A' for Active; 'I' for Inactive)
ROOT
ATOM      1  O1  BZF d   1       0.823   3.945  -4.827  0.00  0.00    -0.204 OA
ATOM      2  C2  BZF d   1       0.069   5.004  -5.294  0.00  0.00     0.174 A 
ATOM      3  C3  BZF d   1       0.864   5.994  -5.746  0.00  0.00    -0.012 A 
ATOM      4  C3A BZF d   1       2.198   5.487  -5.634  0.00  0.00    -0.107 A 
ATOM      5  C4  BZF d   1       3.426   6.000  -5.941  0.00  0.00     0.055 A 
ATOM      6  C5  BZF d   1       4.537   5.276  -5.641  0.00  0.00    -0.016 A 
ATOM      7  C6  BZF d   1       4.456   4.041  -5.032  0.00  0.00     0.022 A 
ATOM      8  C7  BZF d   1       3.260   3.489  -4.714  0.00  0.00     0.029 A 
ATOM      9  C7A BZF d   1       2.135   4.203  -5.045  0.00  0.00     0.058 A 
ENDROOT
TORSDOF 0
ENDMDL
