MODEL 1
REMARK minimizedAffinity 13.0385962
REMARK minimizedRMSD -1
REMARK  0 active torsions:
REMARK  status: ('A' for Active; 'I' for Inactive)
ROOT
ATOM      1  O1  BZF d   1      -1.483  -0.152  -1.294  0.00  0.00    -0.204 OA
ATOM      2  C2  BZF d   1      -2.740  -0.509  -0.846  0.00  0.00     0.174 A 
ATOM      3  C3  BZF d   1      -3.683   0.295  -1.377  0.00  0.00    -0.012 A 
ATOM      4  C3A BZF d   1      -2.981   1.154  -2.280  0.00  0.00    -0.107 A 
ATOM      5  C4  BZF d   1      -3.374   2.158  -3.118  0.00  0.00     0.055 A 
ATOM      6  C5  BZF d   1      -2.430   2.848  -3.811  0.00  0.00    -0.016 A 
ATOM      7  C6  BZF d   1      -1.086   2.564  -3.686  0.00  0.00     0.022 A 
ATOM      8  C7  BZF d   1      -0.648   1.573  -2.872  0.00  0.00     0.029 A 
ATOM      9  C7A BZF d   1      -1.602   0.853  -2.195  0.00  0.00     0.058 A 
ENDROOT
TORSDOF 0
ENDMDL
