MODEL 1
REMARK minimizedAffinity 10.7768841
REMARK minimizedRMSD -1
REMARK  0 active torsions:
REMARK  status: ('A' for Active; 'I' for Inactive)
ROOT
ATOM      1  O1  BZF d   1      -0.740  -2.888   1.538  0.00  0.00    -0.204 OA
ATOM      2  C2  BZF d   1      -0.753  -1.791   2.378  0.00  0.00     0.174 A 
ATOM      3  C3  BZF d   1       0.494  -1.311   2.559  0.00  0.00    -0.012 A 
ATOM      4  C3A BZF d   1       1.329  -2.104   1.709  0.00  0.00    -0.107 A 
ATOM      5  C4  BZF d   1       2.668  -2.099   1.439  0.00  0.00     0.055 A 
ATOM      6  C5  BZF d   1       3.179  -3.054   0.618  0.00  0.00    -0.016 A 
ATOM      7  C6  BZF d   1       2.383  -4.030   0.055  0.00  0.00     0.022 A 
ATOM      8  C7  BZF d   1       1.049  -4.072   0.289  0.00  0.00     0.029 A 
ATOM      9  C7A BZF d   1       0.524  -3.089   1.093  0.00  0.00     0.058 A 
ENDROOT
TORSDOF 0
ENDMDL
